MODEL 1
REMARK VINA RESULT:      -6.9      0.000      0.000
REMARK  5 active torsions:
REMARK  status: ('A' for Active; 'I' for Inactive)
REMARK    1  A    between atoms: C_4  and  C_7 
REMARK    2  A    between atoms: C_7  and  C_9 
REMARK    3  A    between atoms: C_9  and  N_10 
REMARK    4  A    between atoms: C_13  and  C_16 
REMARK    5  A    between atoms: C_16  and  C_18 
ROOT
ATOM      1  N   LIG d   1       4.770  -2.558  -8.369  0.00  0.00    -0.196 N 
ATOM      2  C   LIG d   1       4.209  -3.205  -7.367  0.00  0.00     0.172 A 
ATOM      3  C   LIG d   1       4.707  -3.092  -6.083  0.00  0.00     0.013 A 
ATOM      4  C   LIG d   1       5.820  -2.275  -5.856  0.00  0.00     0.033 A 
ATOM      5  C   LIG d   1       6.378  -1.602  -6.949  0.00  0.00     0.013 A 
ATOM      6  C   LIG d   1       5.820  -1.778  -8.200  0.00  0.00     0.172 A 
ATOM      7  H   LIG d   1       3.351  -3.833  -7.553  0.00  0.00     0.138 H 
ATOM      8  H   LIG d   1       4.244  -3.626  -5.267  0.00  0.00     0.068 H 
ATOM      9  H   LIG d   1       7.235  -0.958  -6.817  0.00  0.00     0.068 H 
ATOM     10  H   LIG d   1       6.246  -1.267  -9.050  0.00  0.00     0.138 H 
ENDROOT
BRANCH   1  11
ATOM     11  C   LIG d   1       4.208  -2.709  -9.714  0.00  0.00     0.212 C 
ATOM     12  H   LIG d   1       4.893  -2.442 -10.393  0.00  0.00     0.112 H 
ATOM     13  H   LIG d   1       3.922  -3.748  -9.873  0.00  0.00     0.112 H 
BRANCH  11  14
ATOM     14  C   LIG d   1       2.994  -1.826  -9.853  0.00  0.00     0.228 C 
ATOM     15  O   LIG d   1       1.909  -2.318 -10.080  0.00  0.00    -0.285 OA
BRANCH  14  16
ATOM     16  C   LIG d   1       3.126  -0.367  -9.714  0.00  0.00     0.024 A 
ATOM     17  C   LIG d   1       2.637   0.277  -8.573  0.00  0.00    -0.051 A 
ATOM     18  C   LIG d   1       2.764   1.644  -8.449  0.00  0.00    -0.061 A 
ATOM     19  H   LIG d   1       2.161  -0.295  -7.789  0.00  0.00     0.062 H 
ATOM     20  C   LIG d   1       3.373   2.379  -9.451  0.00  0.00    -0.062 A 
ATOM     21  H   LIG d   1       2.386   2.143  -7.568  0.00  0.00     0.062 H 
ATOM     22  C   LIG d   1       3.860   1.749 -10.583  0.00  0.00    -0.061 A 
ATOM     23  H   LIG d   1       3.469   3.450  -9.348  0.00  0.00     0.062 H 
ATOM     24  C   LIG d   1       3.745   0.382 -10.718  0.00  0.00    -0.051 A 
ATOM     25  H   LIG d   1       4.333   2.330 -11.360  0.00  0.00     0.062 H 
ATOM     26  H   LIG d   1       4.129  -0.109 -11.601  0.00  0.00     0.062 H 
ENDBRANCH  14  16
ENDBRANCH  11  14
ENDBRANCH   1  11
BRANCH   4  27
ATOM     27  C   LIG d   1       6.389  -2.124  -4.498  0.00  0.00     0.194 C 
ATOM     28  O   LIG d   1       7.356  -2.781  -4.168  0.00  0.00    -0.287 OA
BRANCH  27  29
ATOM     29  C   LIG d   1       5.780  -1.174  -3.544  0.00  0.00     0.022 A 
ATOM     30  C   LIG d   1       4.874  -1.630  -2.583  0.00  0.00    -0.051 A 
ATOM     31  C   LIG d   1       4.310  -0.738  -1.695  0.00  0.00    -0.061 A 
ATOM     32  H   LIG d   1       4.617  -2.678  -2.535  0.00  0.00     0.062 H 
ATOM     33  C   LIG d   1       4.639   0.604  -1.754  0.00  0.00    -0.062 A 
ATOM     34  H   LIG d   1       3.610  -1.089  -0.951  0.00  0.00     0.062 H 
ATOM     35  C   LIG d   1       5.540   1.062  -2.700  0.00  0.00    -0.061 A 
ATOM     36  H   LIG d   1       4.194   1.298  -1.057  0.00  0.00     0.062 H 
ATOM     37  C   LIG d   1       6.108   0.183  -3.599  0.00  0.00    -0.051 A 
ATOM     38  H   LIG d   1       5.796   2.110  -2.738  0.00  0.00     0.062 H 
ATOM     39  H   LIG d   1       6.807   0.542  -4.339  0.00  0.00     0.062 H 
ENDBRANCH  27  29
ENDBRANCH   4  27
TORSDOF 5
ENDMDL
MODEL 2
REMARK VINA RESULT:      -6.7      2.247      7.225
REMARK  5 active torsions:
REMARK  status: ('A' for Active; 'I' for Inactive)
REMARK    1  A    between atoms: C_4  and  C_7 
REMARK    2  A    between atoms: C_7  and  C_9 
REMARK    3  A    between atoms: C_9  and  N_10 
REMARK    4  A    between atoms: C_13  and  C_16 
REMARK    5  A    between atoms: C_16  and  C_18 
ROOT
ATOM      1  N   LIG d   1       6.885  -0.035  -6.570  0.00  0.00    -0.196 N 
ATOM      2  C   LIG d   1       5.687  -0.571  -6.697  0.00  0.00     0.172 A 
ATOM      3  C   LIG d   1       4.815  -0.135  -7.675  0.00  0.00     0.013 A 
ATOM      4  C   LIG d   1       5.222   0.889  -8.539  0.00  0.00     0.033 A 
ATOM      5  C   LIG d   1       6.504   1.423  -8.372  0.00  0.00     0.013 A 
ATOM      6  C   LIG d   1       7.308   0.931  -7.361  0.00  0.00     0.172 A 
ATOM      7  H   LIG d   1       5.383  -1.360  -6.025  0.00  0.00     0.138 H 
ATOM      8  H   LIG d   1       3.835  -0.577  -7.773  0.00  0.00     0.068 H 
ATOM      9  H   LIG d   1       6.859   2.211  -9.019  0.00  0.00     0.068 H 
ATOM     10  H   LIG d   1       8.297   1.339  -7.221  0.00  0.00     0.138 H 
ENDROOT
BRANCH   1  11
ATOM     11  C   LIG d   1       7.776  -0.530  -5.517  0.00  0.00     0.212 C 
ATOM     12  H   LIG d   1       7.566  -1.490  -5.327  0.00  0.00     0.112 H 
ATOM     13  H   LIG d   1       8.811  -0.442  -5.846  0.00  0.00     0.112 H 
BRANCH  11  14
ATOM     14  C   LIG d   1       7.575   0.285  -4.265  0.00  0.00     0.228 C 
ATOM     15  O   LIG d   1       8.377   1.143  -3.965  0.00  0.00    -0.285 OA
BRANCH  14  16
ATOM     16  C   LIG d   1       6.405   0.038  -3.406  0.00  0.00     0.024 A 
ATOM     17  C   LIG d   1       5.993  -1.272  -3.141  0.00  0.00    -0.051 A 
ATOM     18  C   LIG d   1       4.897  -1.496  -2.336  0.00  0.00    -0.061 A 
ATOM     19  H   LIG d   1       6.532  -2.106  -3.565  0.00  0.00     0.062 H 
ATOM     20  C   LIG d   1       4.204  -0.428  -1.791  0.00  0.00    -0.062 A 
ATOM     21  H   LIG d   1       4.577  -2.507  -2.130  0.00  0.00     0.062 H 
ATOM     22  C   LIG d   1       4.606   0.870  -2.049  0.00  0.00    -0.061 A 
ATOM     23  H   LIG d   1       3.345  -0.610  -1.162  0.00  0.00     0.062 H 
ATOM     24  C   LIG d   1       5.704   1.110  -2.847  0.00  0.00    -0.051 A 
ATOM     25  H   LIG d   1       4.060   1.698  -1.620  0.00  0.00     0.062 H 
ATOM     26  H   LIG d   1       6.019   2.125  -3.044  0.00  0.00     0.062 H 
ENDBRANCH  14  16
ENDBRANCH  11  14
ENDBRANCH   1  11
BRANCH   4  27
ATOM     27  C   LIG d   1       4.322   1.389  -9.602  0.00  0.00     0.194 C 
ATOM     28  O   LIG d   1       4.337   2.565  -9.906  0.00  0.00    -0.287 OA
BRANCH  27  29
ATOM     29  C   LIG d   1       3.405   0.459 -10.292  0.00  0.00     0.022 A 
ATOM     30  C   LIG d   1       2.179   0.123  -9.712  0.00  0.00    -0.051 A 
ATOM     31  C   LIG d   1       1.328  -0.745 -10.362  0.00  0.00    -0.061 A 
ATOM     32  H   LIG d   1       1.899   0.543  -8.758  0.00  0.00     0.062 H 
ATOM     33  C   LIG d   1       1.685  -1.283 -11.586  0.00  0.00    -0.062 A 
ATOM     34  H   LIG d   1       0.379  -1.005  -9.915  0.00  0.00     0.062 H 
ATOM     35  C   LIG d   1       2.894  -0.950 -12.170  0.00  0.00    -0.061 A 
ATOM     36  H   LIG d   1       1.014  -1.963 -12.091  0.00  0.00     0.062 H 
ATOM     37  C   LIG d   1       3.759  -0.088 -11.528  0.00  0.00    -0.051 A 
ATOM     38  H   LIG d   1       3.165  -1.369 -13.127  0.00  0.00     0.062 H 
ATOM     39  H   LIG d   1       4.705   0.168 -11.982  0.00  0.00     0.062 H 
ENDBRANCH  27  29
ENDBRANCH   4  27
TORSDOF 5
ENDMDL
MODEL 3
REMARK VINA RESULT:      -6.7      2.118      2.641
REMARK  5 active torsions:
REMARK  status: ('A' for Active; 'I' for Inactive)
REMARK    1  A    between atoms: C_4  and  C_7 
REMARK    2  A    between atoms: C_7  and  C_9 
REMARK    3  A    between atoms: C_9  and  N_10 
REMARK    4  A    between atoms: C_13  and  C_16 
REMARK    5  A    between atoms: C_16  and  C_18 
ROOT
ATOM      1  N   LIG d   1       6.220  -2.015  -8.411  0.00  0.00    -0.196 N 
ATOM      2  C   LIG d   1       6.951  -1.695  -7.361  0.00  0.00     0.172 A 
ATOM      3  C   LIG d   1       6.444  -1.815  -6.081  0.00  0.00     0.013 A 
ATOM      4  C   LIG d   1       5.137  -2.284  -5.911  0.00  0.00     0.033 A 
ATOM      5  C   LIG d   1       4.401  -2.618  -7.053  0.00  0.00     0.013 A 
ATOM      6  C   LIG d   1       4.985  -2.461  -8.295  0.00  0.00     0.172 A 
ATOM      7  H   LIG d   1       7.958  -1.333  -7.503  0.00  0.00     0.138 H 
ATOM      8  H   LIG d   1       7.046  -1.550  -5.226  0.00  0.00     0.068 H 
ATOM      9  H   LIG d   1       3.390  -2.989  -6.966  0.00  0.00     0.068 H 
ATOM     10  H   LIG d   1       4.424  -2.710  -9.183  0.00  0.00     0.138 H 
ENDROOT
BRANCH   1  11
ATOM     11  C   LIG d   1       6.800  -1.870  -9.749  0.00  0.00     0.212 C 
ATOM     12  H   LIG d   1       7.680  -2.346  -9.783  0.00  0.00     0.112 H 
ATOM     13  H   LIG d   1       6.123  -2.302 -10.486  0.00  0.00     0.112 H 
BRANCH  11  14
ATOM     14  C   LIG d   1       7.007  -0.408 -10.051  0.00  0.00     0.228 C 
ATOM     15  O   LIG d   1       8.118   0.009 -10.298  0.00  0.00    -0.285 OA
BRANCH  14  16
ATOM     16  C   LIG d   1       5.859   0.513 -10.046  0.00  0.00     0.024 A 
ATOM     17  C   LIG d   1       5.834   1.598  -9.164  0.00  0.00    -0.051 A 
ATOM     18  C   LIG d   1       4.756   2.458  -9.165  0.00  0.00    -0.061 A 
ATOM     19  H   LIG d   1       6.657   1.764  -8.484  0.00  0.00     0.062 H 
ATOM     20  C   LIG d   1       3.701   2.248 -10.035  0.00  0.00    -0.062 A 
ATOM     21  H   LIG d   1       4.735   3.296  -8.484  0.00  0.00     0.062 H 
ATOM     22  C   LIG d   1       3.718   1.177 -10.911  0.00  0.00    -0.061 A 
ATOM     23  H   LIG d   1       2.858   2.924 -10.030  0.00  0.00     0.062 H 
ATOM     24  C   LIG d   1       4.792   0.312 -10.926  0.00  0.00    -0.051 A 
ATOM     25  H   LIG d   1       2.890   1.020 -11.586  0.00  0.00     0.062 H 
ATOM     26  H   LIG d   1       4.806  -0.522 -11.613  0.00  0.00     0.062 H 
ENDBRANCH  14  16
ENDBRANCH  11  14
ENDBRANCH   1  11
BRANCH   4  27
ATOM     27  C   LIG d   1       4.551  -2.429  -4.559  0.00  0.00     0.194 C 
ATOM     28  O   LIG d   1       4.311  -3.535  -4.117  0.00  0.00    -0.287 OA
BRANCH  27  29
ATOM     29  C   LIG d   1       4.256  -1.230  -3.749  0.00  0.00     0.022 A 
ATOM     30  C   LIG d   1       3.499  -0.187  -4.289  0.00  0.00    -0.051 A 
ATOM     31  C   LIG d   1       3.227   0.929  -3.527  0.00  0.00    -0.061 A 
ATOM     32  H   LIG d   1       3.126  -0.256  -5.300  0.00  0.00     0.062 H 
ATOM     33  C   LIG d   1       3.702   1.019  -2.230  0.00  0.00    -0.062 A 
ATOM     34  H   LIG d   1       2.641   1.736  -3.943  0.00  0.00     0.062 H 
ATOM     35  C   LIG d   1       4.448  -0.013  -1.687  0.00  0.00    -0.061 A 
ATOM     36  H   LIG d   1       3.487   1.896  -1.638  0.00  0.00     0.062 H 
ATOM     37  C   LIG d   1       4.733  -1.133  -2.439  0.00  0.00    -0.051 A 
ATOM     38  H   LIG d   1       4.811   0.061  -0.673  0.00  0.00     0.062 H 
ATOM     39  H   LIG d   1       5.318  -1.935  -2.016  0.00  0.00     0.062 H 
ENDBRANCH  27  29
ENDBRANCH   4  27
TORSDOF 5
ENDMDL
MODEL 4
REMARK VINA RESULT:      -6.7      2.356      7.031
REMARK  5 active torsions:
REMARK  status: ('A' for Active; 'I' for Inactive)
REMARK    1  A    between atoms: C_4  and  C_7 
REMARK    2  A    between atoms: C_7  and  C_9 
REMARK    3  A    between atoms: C_9  and  N_10 
REMARK    4  A    between atoms: C_13  and  C_16 
REMARK    5  A    between atoms: C_16  and  C_18 
ROOT
ATOM      1  N   LIG d   1       3.506  -0.973  -4.603  0.00  0.00    -0.196 N 
ATOM      2  C   LIG d   1       2.697   0.068  -4.600  0.00  0.00     0.172 A 
ATOM      3  C   LIG d   1       2.481   0.802  -5.751  0.00  0.00     0.013 A 
ATOM      4  C   LIG d   1       3.136   0.424  -6.929  0.00  0.00     0.033 A 
ATOM      5  C   LIG d   1       3.981  -0.690  -6.886  0.00  0.00     0.013 A 
ATOM      6  C   LIG d   1       4.143  -1.362  -5.690  0.00  0.00     0.172 A 
ATOM      7  H   LIG d   1       2.196   0.351  -3.686  0.00  0.00     0.138 H 
ATOM      8  H   LIG d   1       1.818   1.653  -5.742  0.00  0.00     0.068 H 
ATOM      9  H   LIG d   1       4.502  -1.018  -7.773  0.00  0.00     0.068 H 
ATOM     10  H   LIG d   1       4.796  -2.220  -5.645  0.00  0.00     0.138 H 
ENDROOT
BRANCH   1  11
ATOM     11  C   LIG d   1       3.704  -1.720  -3.358  0.00  0.00     0.212 C 
ATOM     12  H   LIG d   1       2.837  -1.777  -2.863  0.00  0.00     0.112 H 
ATOM     13  H   LIG d   1       4.057  -2.725  -3.591  0.00  0.00     0.112 H 
BRANCH  11  14
ATOM     14  C   LIG d   1       4.725  -1.013  -2.505  0.00  0.00     0.228 C 
ATOM     15  O   LIG d   1       4.560  -0.929  -1.307  0.00  0.00    -0.285 OA
BRANCH  14  16
ATOM     16  C   LIG d   1       5.923  -0.424  -3.126  0.00  0.00     0.024 A 
ATOM     17  C   LIG d   1       6.077   0.965  -3.176  0.00  0.00    -0.051 A 
ATOM     18  C   LIG d   1       7.201   1.509  -3.759  0.00  0.00    -0.061 A 
ATOM     19  H   LIG d   1       5.318   1.610  -2.758  0.00  0.00     0.062 H 
ATOM     20  C   LIG d   1       8.174   0.685  -4.296  0.00  0.00    -0.062 A 
ATOM     21  H   LIG d   1       7.321   2.582  -3.799  0.00  0.00     0.062 H 
ATOM     22  C   LIG d   1       8.029  -0.690  -4.251  0.00  0.00    -0.061 A 
ATOM     23  H   LIG d   1       9.053   1.118  -4.753  0.00  0.00     0.062 H 
ATOM     24  C   LIG d   1       6.914  -1.250  -3.665  0.00  0.00    -0.051 A 
ATOM     25  H   LIG d   1       8.793  -1.326  -4.672  0.00  0.00     0.062 H 
ATOM     26  H   LIG d   1       6.803  -2.324  -3.627  0.00  0.00     0.062 H 
ENDBRANCH  14  16
ENDBRANCH  11  14
ENDBRANCH   1  11
BRANCH   4  27
ATOM     27  C   LIG d   1       2.937   1.180  -8.185  0.00  0.00     0.194 C 
ATOM     28  O   LIG d   1       2.935   2.395  -8.169  0.00  0.00    -0.287 OA
BRANCH  27  29
ATOM     29  C   LIG d   1       2.741   0.458  -9.459  0.00  0.00     0.022 A 
ATOM     30  C   LIG d   1       1.611  -0.343  -9.644  0.00  0.00    -0.051 A 
ATOM     31  C   LIG d   1       1.434  -1.014 -10.836  0.00  0.00    -0.061 A 
ATOM     32  H   LIG d   1       0.879  -0.437  -8.856  0.00  0.00     0.062 H 
ATOM     33  C   LIG d   1       2.371  -0.895 -11.847  0.00  0.00    -0.062 A 
ATOM     34  H   LIG d   1       0.561  -1.634 -10.980  0.00  0.00     0.062 H 
ATOM     35  C   LIG d   1       3.489  -0.098 -11.673  0.00  0.00    -0.061 A 
ATOM     36  H   LIG d   1       2.228  -1.423 -12.778  0.00  0.00     0.062 H 
ATOM     37  C   LIG d   1       3.684   0.574 -10.484  0.00  0.00    -0.051 A 
ATOM     38  H   LIG d   1       4.214  -0.006 -12.468  0.00  0.00     0.062 H 
ATOM     39  H   LIG d   1       4.558   1.192 -10.348  0.00  0.00     0.062 H 
ENDBRANCH  27  29
ENDBRANCH   4  27
TORSDOF 5
ENDMDL
MODEL 5
REMARK VINA RESULT:      -6.6      4.408      7.323
REMARK  5 active torsions:
REMARK  status: ('A' for Active; 'I' for Inactive)
REMARK    1  A    between atoms: C_4  and  C_7 
REMARK    2  A    between atoms: C_7  and  C_9 
REMARK    3  A    between atoms: C_9  and  N_10 
REMARK    4  A    between atoms: C_13  and  C_16 
REMARK    5  A    between atoms: C_16  and  C_18 
ROOT
ATOM      1  N   LIG d   1       6.109  -3.940  -5.558  0.00  0.00    -0.196 N 
ATOM      2  C   LIG d   1       7.011  -4.804  -5.981  0.00  0.00     0.172 A 
ATOM      3  C   LIG d   1       6.708  -6.147  -6.093  0.00  0.00     0.013 A 
ATOM      4  C   LIG d   1       5.423  -6.584  -5.750  0.00  0.00     0.033 A 
ATOM      5  C   LIG d   1       4.498  -5.631  -5.312  0.00  0.00     0.013 A 
ATOM      6  C   LIG d   1       4.888  -4.308  -5.224  0.00  0.00     0.172 A 
ATOM      7  H   LIG d   1       7.999  -4.457  -6.243  0.00  0.00     0.138 H 
ATOM      8  H   LIG d   1       7.451  -6.850  -6.440  0.00  0.00     0.068 H 
ATOM      9  H   LIG d   1       3.494  -5.924  -5.042  0.00  0.00     0.068 H 
ATOM     10  H   LIG d   1       4.183  -3.566  -4.883  0.00  0.00     0.138 H 
ENDROOT
BRANCH   1  11
ATOM     11  C   LIG d   1       6.477  -2.525  -5.455  0.00  0.00     0.212 C 
ATOM     12  H   LIG d   1       7.294  -2.352  -6.005  0.00  0.00     0.112 H 
ATOM     13  H   LIG d   1       5.655  -1.909  -5.821  0.00  0.00     0.112 H 
BRANCH  11  14
ATOM     14  C   LIG d   1       6.759  -2.183  -4.014  0.00  0.00     0.228 C 
ATOM     15  O   LIG d   1       7.685  -2.710  -3.436  0.00  0.00    -0.285 OA
BRANCH  14  16
ATOM     16  C   LIG d   1       5.910  -1.210  -3.309  0.00  0.00     0.024 A 
ATOM     17  C   LIG d   1       4.788  -1.644  -2.595  0.00  0.00    -0.051 A 
ATOM     18  C   LIG d   1       3.998  -0.726  -1.937  0.00  0.00    -0.061 A 
ATOM     19  H   LIG d   1       4.542  -2.695  -2.559  0.00  0.00     0.062 H 
ATOM     20  C   LIG d   1       4.310   0.621  -1.983  0.00  0.00    -0.062 A 
ATOM     21  H   LIG d   1       3.130  -1.060  -1.385  0.00  0.00     0.062 H 
ATOM     22  C   LIG d   1       5.418   1.058  -2.687  0.00  0.00    -0.061 A 
ATOM     23  H   LIG d   1       3.686   1.335  -1.466  0.00  0.00     0.062 H 
ATOM     24  C   LIG d   1       6.222   0.152  -3.345  0.00  0.00    -0.051 A 
ATOM     25  H   LIG d   1       5.655   2.111  -2.718  0.00  0.00     0.062 H 
ATOM     26  H   LIG d   1       7.089   0.495  -3.892  0.00  0.00     0.062 H 
ENDBRANCH  14  16
ENDBRANCH  11  14
ENDBRANCH   1  11
BRANCH   4  27
ATOM     27  C   LIG d   1       5.053  -8.013  -5.853  0.00  0.00     0.194 C 
ATOM     28  O   LIG d   1       4.576  -8.444  -6.884  0.00  0.00    -0.287 OA
BRANCH  27  29
ATOM     29  C   LIG d   1       5.262  -8.915  -4.703  0.00  0.00     0.022 A 
ATOM     30  C   LIG d   1       6.543  -9.089  -4.171  0.00  0.00    -0.051 A 
ATOM     31  C   LIG d   1       6.731  -9.933  -3.097  0.00  0.00    -0.061 A 
ATOM     32  H   LIG d   1       7.383  -8.564  -4.600  0.00  0.00     0.062 H 
ATOM     33  C   LIG d   1       5.656 -10.607  -2.545  0.00  0.00    -0.062 A 
ATOM     34  H   LIG d   1       7.720 -10.068  -2.685  0.00  0.00     0.062 H 
ATOM     35  C   LIG d   1       4.384 -10.435  -3.062  0.00  0.00    -0.061 A 
ATOM     36  H   LIG d   1       5.809 -11.266  -1.704  0.00  0.00     0.062 H 
ATOM     37  C   LIG d   1       4.181  -9.599  -4.140  0.00  0.00    -0.051 A 
ATOM     38  H   LIG d   1       3.548 -10.959  -2.624  0.00  0.00     0.062 H 
ATOM     39  H   LIG d   1       3.189  -9.469  -4.546  0.00  0.00     0.062 H 
ENDBRANCH  27  29
ENDBRANCH   4  27
TORSDOF 5
ENDMDL
MODEL 6
REMARK VINA RESULT:      -6.5      2.135      7.096
REMARK  5 active torsions:
REMARK  status: ('A' for Active; 'I' for Inactive)
REMARK    1  A    between atoms: C_4  and  C_7 
REMARK    2  A    between atoms: C_7  and  C_9 
REMARK    3  A    between atoms: C_9  and  N_10 
REMARK    4  A    between atoms: C_13  and  C_16 
REMARK    5  A    between atoms: C_16  and  C_18 
ROOT
ATOM      1  N   LIG d   1       5.221  -1.538  -6.645  0.00  0.00    -0.196 N 
ATOM      2  C   LIG d   1       5.705  -0.371  -7.022  0.00  0.00     0.172 A 
ATOM      3  C   LIG d   1       5.182   0.294  -8.114  0.00  0.00     0.013 A 
ATOM      4  C   LIG d   1       4.124  -0.287  -8.820  0.00  0.00     0.033 A 
ATOM      5  C   LIG d   1       3.637  -1.523  -8.380  0.00  0.00     0.013 A 
ATOM      6  C   LIG d   1       4.224  -2.122  -7.282  0.00  0.00     0.172 A 
ATOM      7  H   LIG d   1       6.523   0.069  -6.471  0.00  0.00     0.138 H 
ATOM      8  H   LIG d   1       5.585   1.249  -8.418  0.00  0.00     0.068 H 
ATOM      9  H   LIG d   1       2.819  -2.005  -8.894  0.00  0.00     0.068 H 
ATOM     10  H   LIG d   1       3.860  -3.078  -6.938  0.00  0.00     0.138 H 
ENDROOT
BRANCH   1  11
ATOM     11  C   LIG d   1       5.807  -2.208  -5.481  0.00  0.00     0.212 C 
ATOM     12  H   LIG d   1       6.086  -3.135  -5.736  0.00  0.00     0.112 H 
ATOM     13  H   LIG d   1       6.678  -1.647  -5.141  0.00  0.00     0.112 H 
BRANCH  11  14
ATOM     14  C   LIG d   1       4.788  -2.275  -4.374  0.00  0.00     0.228 C 
ATOM     15  O   LIG d   1       4.284  -3.337  -4.077  0.00  0.00    -0.285 OA
BRANCH  14  16
ATOM     16  C   LIG d   1       4.402  -1.051  -3.653  0.00  0.00     0.024 A 
ATOM     17  C   LIG d   1       4.991  -0.745  -2.422  0.00  0.00    -0.051 A 
ATOM     18  C   LIG d   1       4.626   0.403  -1.754  0.00  0.00    -0.061 A 
ATOM     19  H   LIG d   1       5.731  -1.407  -1.996  0.00  0.00     0.062 H 
ATOM     20  C   LIG d   1       3.678   1.252  -2.297  0.00  0.00    -0.062 A 
ATOM     21  H   LIG d   1       5.080   0.640  -0.802  0.00  0.00     0.062 H 
ATOM     22  C   LIG d   1       3.090   0.957  -3.515  0.00  0.00    -0.061 A 
ATOM     23  H   LIG d   1       3.395   2.151  -1.768  0.00  0.00     0.062 H 
ATOM     24  C   LIG d   1       3.450  -0.185  -4.198  0.00  0.00    -0.051 A 
ATOM     25  H   LIG d   1       2.351   1.625  -3.932  0.00  0.00     0.062 H 
ATOM     26  H   LIG d   1       2.993  -0.412  -5.151  0.00  0.00     0.062 H 
ENDBRANCH  14  16
ENDBRANCH  11  14
ENDBRANCH   1  11
BRANCH   4  27
ATOM     27  C   LIG d   1       3.532   0.388  -9.996  0.00  0.00     0.194 C 
ATOM     28  O   LIG d   1       3.600   1.597 -10.100  0.00  0.00    -0.287 OA
BRANCH  27  29
ATOM     29  C   LIG d   1       2.857  -0.406 -11.043  0.00  0.00     0.022 A 
ATOM     30  C   LIG d   1       1.500  -0.718 -10.922  0.00  0.00    -0.051 A 
ATOM     31  C   LIG d   1       0.877  -1.459 -11.903  0.00  0.00    -0.061 A 
ATOM     32  H   LIG d   1       0.941  -0.378 -10.063  0.00  0.00     0.062 H 
ATOM     33  C   LIG d   1       1.591  -1.894 -13.005  0.00  0.00    -0.062 A 
ATOM     34  H   LIG d   1      -0.172  -1.701 -11.811  0.00  0.00     0.062 H 
ATOM     35  C   LIG d   1       2.933  -1.584 -13.135  0.00  0.00    -0.061 A 
ATOM     36  H   LIG d   1       1.098  -2.475 -13.771  0.00  0.00     0.062 H 
ATOM     37  C   LIG d   1       3.572  -0.848 -12.159  0.00  0.00    -0.051 A 
ATOM     38  H   LIG d   1       3.484  -1.922 -14.000  0.00  0.00     0.062 H 
ATOM     39  H   LIG d   1       4.621  -0.611 -12.259  0.00  0.00     0.062 H 
ENDBRANCH  27  29
ENDBRANCH   4  27
TORSDOF 5
ENDMDL
MODEL 7
REMARK VINA RESULT:      -6.4      4.486      7.271
REMARK  5 active torsions:
REMARK  status: ('A' for Active; 'I' for Inactive)
REMARK    1  A    between atoms: C_4  and  C_7 
REMARK    2  A    between atoms: C_7  and  C_9 
REMARK    3  A    between atoms: C_9  and  N_10 
REMARK    4  A    between atoms: C_13  and  C_16 
REMARK    5  A    between atoms: C_16  and  C_18 
ROOT
ATOM      1  N   LIG d   1       6.354  -4.009  -5.556  0.00  0.00    -0.196 N 
ATOM      2  C   LIG d   1       5.137  -4.492  -5.400  0.00  0.00     0.172 A 
ATOM      3  C   LIG d   1       4.897  -5.850  -5.485  0.00  0.00     0.013 A 
ATOM      4  C   LIG d   1       5.968  -6.714  -5.739  0.00  0.00     0.033 A 
ATOM      5  C   LIG d   1       7.242  -6.158  -5.891  0.00  0.00     0.013 A 
ATOM      6  C   LIG d   1       7.391  -4.787  -5.797  0.00  0.00     0.172 A 
ATOM      7  H   LIG d   1       4.317  -3.817  -5.204  0.00  0.00     0.138 H 
ATOM      8  H   LIG d   1       3.898  -6.239  -5.357  0.00  0.00     0.068 H 
ATOM      9  H   LIG d   1       8.097  -6.789  -6.084  0.00  0.00     0.068 H 
ATOM     10  H   LIG d   1       8.369  -4.347  -5.918  0.00  0.00     0.138 H 
ENDROOT
BRANCH   1  11
ATOM     11  C   LIG d   1       6.560  -2.562  -5.458  0.00  0.00     0.212 C 
ATOM     12  H   LIG d   1       7.361  -2.302  -5.999  0.00  0.00     0.112 H 
ATOM     13  H   LIG d   1       5.680  -2.043  -5.838  0.00  0.00     0.112 H 
BRANCH  11  14
ATOM     14  C   LIG d   1       6.784  -2.183  -4.016  0.00  0.00     0.228 C 
ATOM     15  O   LIG d   1       7.749  -2.612  -3.419  0.00  0.00    -0.285 OA
BRANCH  14  16
ATOM     16  C   LIG d   1       5.831  -1.294  -3.333  0.00  0.00     0.024 A 
ATOM     17  C   LIG d   1       6.161   0.045  -3.101  0.00  0.00    -0.051 A 
ATOM     18  C   LIG d   1       5.263   0.872  -2.461  0.00  0.00    -0.061 A 
ATOM     19  H   LIG d   1       7.117   0.431  -3.424  0.00  0.00     0.062 H 
ATOM     20  C   LIG d   1       4.038   0.380  -2.047  0.00  0.00    -0.062 A 
ATOM     21  H   LIG d   1       5.517   1.907  -2.281  0.00  0.00     0.062 H 
ATOM     22  C   LIG d   1       3.704  -0.944  -2.272  0.00  0.00    -0.061 A 
ATOM     23  H   LIG d   1       3.338   1.032  -1.545  0.00  0.00     0.062 H 
ATOM     24  C   LIG d   1       4.589  -1.782  -2.917  0.00  0.00    -0.051 A 
ATOM     25  H   LIG d   1       2.745  -1.320  -1.946  0.00  0.00     0.062 H 
ATOM     26  H   LIG d   1       4.324  -2.814  -3.096  0.00  0.00     0.062 H 
ENDBRANCH  14  16
ENDBRANCH  11  14
ENDBRANCH   1  11
BRANCH   4  27
ATOM     27  C   LIG d   1       5.759  -8.176  -5.839  0.00  0.00     0.194 C 
ATOM     28  O   LIG d   1       5.680  -8.704  -6.930  0.00  0.00    -0.287 OA
BRANCH  27  29
ATOM     29  C   LIG d   1       5.646  -8.992  -4.613  0.00  0.00     0.022 A 
ATOM     30  C   LIG d   1       4.415  -9.543  -4.248  0.00  0.00    -0.051 A 
ATOM     31  C   LIG d   1       4.317 -10.304  -3.103  0.00  0.00    -0.061 A 
ATOM     32  H   LIG d   1       3.543  -9.374  -4.862  0.00  0.00     0.062 H 
ATOM     33  C   LIG d   1       5.434 -10.523  -2.315  0.00  0.00    -0.062 A 
ATOM     34  H   LIG d   1       3.366 -10.731  -2.819  0.00  0.00     0.062 H 
ATOM     35  C   LIG d   1       6.658  -9.985  -2.674  0.00  0.00    -0.061 A 
ATOM     36  H   LIG d   1       5.351 -11.119  -1.419  0.00  0.00     0.062 H 
ATOM     37  C   LIG d   1       6.770  -9.217  -3.813  0.00  0.00    -0.051 A 
ATOM     38  H   LIG d   1       7.526 -10.164  -2.058  0.00  0.00     0.062 H 
ATOM     39  H   LIG d   1       7.724  -8.794  -4.090  0.00  0.00     0.062 H 
ENDBRANCH  27  29
ENDBRANCH   4  27
TORSDOF 5
ENDMDL
MODEL 8
REMARK VINA RESULT:      -6.3      5.168      7.599
REMARK  5 active torsions:
REMARK  status: ('A' for Active; 'I' for Inactive)
REMARK    1  A    between atoms: C_4  and  C_7 
REMARK    2  A    between atoms: C_7  and  C_9 
REMARK    3  A    between atoms: C_9  and  N_10 
REMARK    4  A    between atoms: C_13  and  C_16 
REMARK    5  A    between atoms: C_16  and  C_18 
ROOT
ATOM      1  N   LIG d   1       8.567   1.328  -4.993  0.00  0.00    -0.196 N 
ATOM      2  C   LIG d   1       8.888   2.071  -6.034  0.00  0.00     0.172 A 
ATOM      3  C   LIG d   1       9.414   3.337  -5.866  0.00  0.00     0.013 A 
ATOM      4  C   LIG d   1       9.605   3.826  -4.569  0.00  0.00     0.033 A 
ATOM      5  C   LIG d   1       9.257   3.000  -3.495  0.00  0.00     0.013 A 
ATOM      6  C   LIG d   1       8.731   1.749  -3.755  0.00  0.00     0.172 A 
ATOM      7  H   LIG d   1       8.736   1.685  -7.031  0.00  0.00     0.138 H 
ATOM      8  H   LIG d   1       9.673   3.941  -6.722  0.00  0.00     0.068 H 
ATOM      9  H   LIG d   1       9.392   3.336  -2.478  0.00  0.00     0.068 H 
ATOM     10  H   LIG d   1       8.454   1.106  -2.933  0.00  0.00     0.138 H 
ENDROOT
BRANCH   1  11
ATOM     11  C   LIG d   1       8.012  -0.009  -5.221  0.00  0.00     0.212 C 
ATOM     12  H   LIG d   1       8.331  -0.357  -6.103  0.00  0.00     0.112 H 
ATOM     13  H   LIG d   1       8.341  -0.678  -4.426  0.00  0.00     0.112 H 
BRANCH  11  14
ATOM     14  C   LIG d   1       6.507   0.066  -5.225  0.00  0.00     0.228 C 
ATOM     15  O   LIG d   1       5.917   0.365  -6.241  0.00  0.00    -0.285 OA
BRANCH  14  16
ATOM     16  C   LIG d   1       5.753  -0.221  -3.994  0.00  0.00     0.024 A 
ATOM     17  C   LIG d   1       5.406   0.817  -3.124  0.00  0.00    -0.051 A 
ATOM     18  C   LIG d   1       4.699   0.540  -1.973  0.00  0.00    -0.061 A 
ATOM     19  H   LIG d   1       5.691   1.834  -3.352  0.00  0.00     0.062 H 
ATOM     20  C   LIG d   1       4.334  -0.761  -1.678  0.00  0.00    -0.062 A 
ATOM     21  H   LIG d   1       4.432   1.342  -1.299  0.00  0.00     0.062 H 
ATOM     22  C   LIG d   1       4.673  -1.794  -2.534  0.00  0.00    -0.061 A 
ATOM     23  H   LIG d   1       3.781  -0.972  -0.774  0.00  0.00     0.062 H 
ATOM     24  C   LIG d   1       5.374  -1.532  -3.692  0.00  0.00    -0.051 A 
ATOM     25  H   LIG d   1       4.384  -2.807  -2.296  0.00  0.00     0.062 H 
ATOM     26  H   LIG d   1       5.634  -2.340  -4.361  0.00  0.00     0.062 H 
ENDBRANCH  14  16
ENDBRANCH  11  14
ENDBRANCH   1  11
BRANCH   4  27
ATOM     27  C   LIG d   1      10.165   5.177  -4.339  0.00  0.00     0.194 C 
ATOM     28  O   LIG d   1      10.463   5.879  -5.285  0.00  0.00    -0.287 OA
BRANCH  27  29
ATOM     29  C   LIG d   1      10.362   5.671  -2.961  0.00  0.00     0.022 A 
ATOM     30  C   LIG d   1      11.391   5.152  -2.171  0.00  0.00    -0.051 A 
ATOM     31  C   LIG d   1      11.569   5.618  -0.886  0.00  0.00    -0.061 A 
ATOM     32  H   LIG d   1      12.044   4.389  -2.565  0.00  0.00     0.062 H 
ATOM     33  C   LIG d   1      10.733   6.597  -0.378  0.00  0.00    -0.062 A 
ATOM     34  H   LIG d   1      12.364   5.218  -0.273  0.00  0.00     0.062 H 
ATOM     35  C   LIG d   1       9.716   7.120  -1.158  0.00  0.00    -0.061 A 
ATOM     36  H   LIG d   1      10.877   6.958   0.629  0.00  0.00     0.062 H 
ATOM     37  C   LIG d   1       9.521   6.659  -2.443  0.00  0.00    -0.051 A 
ATOM     38  H   LIG d   1       9.070   7.887  -0.758  0.00  0.00     0.062 H 
ATOM     39  H   LIG d   1       8.724   7.064  -3.049  0.00  0.00     0.062 H 
ENDBRANCH  27  29
ENDBRANCH   4  27
TORSDOF 5
ENDMDL
MODEL 9
REMARK VINA RESULT:      -6.3      4.594      7.050
REMARK  5 active torsions:
REMARK  status: ('A' for Active; 'I' for Inactive)
REMARK    1  A    between atoms: C_4  and  C_7 
REMARK    2  A    between atoms: C_7  and  C_9 
REMARK    3  A    between atoms: C_9  and  N_10 
REMARK    4  A    between atoms: C_13  and  C_16 
REMARK    5  A    between atoms: C_16  and  C_18 
ROOT
ATOM      1  N   LIG d   1       5.291  -3.976  -5.374  0.00  0.00    -0.196 N 
ATOM      2  C   LIG d   1       6.531  -4.374  -5.170  0.00  0.00     0.172 A 
ATOM      3  C   LIG d   1       6.879  -5.705  -5.299  0.00  0.00     0.013 A 
ATOM      4  C   LIG d   1       5.893  -6.633  -5.653  0.00  0.00     0.033 A 
ATOM      5  C   LIG d   1       4.592  -6.164  -5.866  0.00  0.00     0.013 A 
ATOM      6  C   LIG d   1       4.331  -4.817  -5.708  0.00  0.00     0.172 A 
ATOM      7  H   LIG d   1       7.284  -3.651  -4.897  0.00  0.00     0.138 H 
ATOM      8  H   LIG d   1       7.896  -6.025  -5.130  0.00  0.00     0.068 H 
ATOM      9  H   LIG d   1       3.802  -6.846  -6.144  0.00  0.00     0.068 H 
ATOM     10  H   LIG d   1       3.330  -4.446  -5.865  0.00  0.00     0.138 H 
ENDROOT
BRANCH   1  11
ATOM     11  C   LIG d   1       4.968  -2.555  -5.224  0.00  0.00     0.212 C 
ATOM     12  H   LIG d   1       5.805  -2.013  -5.310  0.00  0.00     0.112 H 
ATOM     13  H   LIG d   1       4.263  -2.259  -6.000  0.00  0.00     0.112 H 
BRANCH  11  14
ATOM     14  C   LIG d   1       4.354  -2.319  -3.868  0.00  0.00     0.228 C 
ATOM     15  O   LIG d   1       4.040  -3.260  -3.173  0.00  0.00    -0.285 OA
BRANCH  14  16
ATOM     16  C   LIG d   1       4.133  -0.944  -3.390  0.00  0.00     0.024 A 
ATOM     17  C   LIG d   1       4.689  -0.525  -2.178  0.00  0.00    -0.051 A 
ATOM     18  C   LIG d   1       4.479   0.764  -1.736  0.00  0.00    -0.061 A 
ATOM     19  H   LIG d   1       5.283  -1.209  -1.588  0.00  0.00     0.062 H 
ATOM     20  C   LIG d   1       3.720   1.642  -2.490  0.00  0.00    -0.062 A 
ATOM     21  H   LIG d   1       4.908   1.089  -0.799  0.00  0.00     0.062 H 
ATOM     22  C   LIG d   1       3.166   1.234  -3.690  0.00  0.00    -0.061 A 
ATOM     23  H   LIG d   1       3.558   2.650  -2.138  0.00  0.00     0.062 H 
ATOM     24  C   LIG d   1       3.373  -0.049  -4.148  0.00  0.00    -0.051 A 
ATOM     25  H   LIG d   1       2.574   1.925  -4.272  0.00  0.00     0.062 H 
ATOM     26  H   LIG d   1       2.943  -0.365  -5.088  0.00  0.00     0.062 H 
ENDBRANCH  14  16
ENDBRANCH  11  14
ENDBRANCH   1  11
BRANCH   4  27
ATOM     27  C   LIG d   1       6.218  -8.069  -5.803  0.00  0.00     0.194 C 
ATOM     28  O   LIG d   1       6.762  -8.466  -6.814  0.00  0.00    -0.287 OA
BRANCH  27  29
ATOM     29  C   LIG d   1       5.881  -9.019  -4.723  0.00  0.00     0.022 A 
ATOM     30  C   LIG d   1       4.613  -9.603  -4.673  0.00  0.00    -0.051 A 
ATOM     31  C   LIG d   1       4.306 -10.490  -3.663  0.00  0.00    -0.061 A 
ATOM     32  H   LIG d   1       3.875  -9.361  -5.423  0.00  0.00     0.062 H 
ATOM     33  C   LIG d   1       5.250 -10.802  -2.701  0.00  0.00    -0.062 A 
ATOM     34  H   LIG d   1       3.325 -10.942  -3.623  0.00  0.00     0.062 H 
ATOM     35  C   LIG d   1       6.510 -10.233  -2.748  0.00  0.00    -0.061 A 
ATOM     36  H   LIG d   1       5.003 -11.497  -1.912  0.00  0.00     0.062 H 
ATOM     37  C   LIG d   1       6.830  -9.340  -3.749  0.00  0.00    -0.051 A 
ATOM     38  H   LIG d   1       7.244 -10.485  -1.997  0.00  0.00     0.062 H 
ATOM     39  H   LIG d   1       7.812  -8.892  -3.782  0.00  0.00     0.062 H 
ENDBRANCH  27  29
ENDBRANCH   4  27
TORSDOF 5
ENDMDL
MODEL 10
REMARK VINA RESULT:      -6.2      4.726      7.834
REMARK  5 active torsions:
REMARK  status: ('A' for Active; 'I' for Inactive)
REMARK    1  A    between atoms: C_4  and  C_7 
REMARK    2  A    between atoms: C_7  and  C_9 
REMARK    3  A    between atoms: C_9  and  N_10 
REMARK    4  A    between atoms: C_13  and  C_16 
REMARK    5  A    between atoms: C_16  and  C_18 
ROOT
ATOM      1  N   LIG d   1       8.610   2.697  -5.005  0.00  0.00    -0.196 N 
ATOM      2  C   LIG d   1       8.471   2.007  -6.121  0.00  0.00     0.172 A 
ATOM      3  C   LIG d   1       7.763   0.821  -6.137  0.00  0.00     0.013 A 
ATOM      4  C   LIG d   1       7.190   0.357  -4.947  0.00  0.00     0.033 A 
ATOM      5  C   LIG d   1       7.358   1.125  -3.790  0.00  0.00     0.013 A 
ATOM      6  C   LIG d   1       8.087   2.296  -3.864  0.00  0.00     0.172 A 
ATOM      7  H   LIG d   1       8.917   2.374  -7.033  0.00  0.00     0.138 H 
ATOM      8  H   LIG d   1       7.653   0.261  -7.053  0.00  0.00     0.068 H 
ATOM      9  H   LIG d   1       6.928   0.805  -2.852  0.00  0.00     0.068 H 
ATOM     10  H   LIG d   1       8.227   2.893  -2.975  0.00  0.00     0.138 H 
ENDROOT
BRANCH   1  11
ATOM     11  C   LIG d   1       9.370   3.949  -5.037  0.00  0.00     0.212 C 
ATOM     12  H   LIG d   1       9.823   4.042  -5.924  0.00  0.00     0.112 H 
ATOM     13  H   LIG d   1       8.693   4.789  -4.884  0.00  0.00     0.112 H 
BRANCH  11  14
ATOM     14  C   LIG d   1      10.408   3.935  -3.943  0.00  0.00     0.228 C 
ATOM     15  O   LIG d   1      11.290   3.104  -3.955  0.00  0.00    -0.285 OA
BRANCH  14  16
ATOM     16  C   LIG d   1      10.348   4.929  -2.860  0.00  0.00     0.024 A 
ATOM     17  C   LIG d   1       9.573   6.084  -3.008  0.00  0.00    -0.051 A 
ATOM     18  C   LIG d   1       9.521   7.011  -1.989  0.00  0.00    -0.061 A 
ATOM     19  H   LIG d   1       9.016   6.250  -3.919  0.00  0.00     0.062 H 
ATOM     20  C   LIG d   1      10.234   6.801  -0.822  0.00  0.00    -0.062 A 
ATOM     21  H   LIG d   1       8.923   7.904  -2.103  0.00  0.00     0.062 H 
ATOM     22  C   LIG d   1      11.003   5.661  -0.667  0.00  0.00    -0.061 A 
ATOM     23  H   LIG d   1      10.191   7.531  -0.027  0.00  0.00     0.062 H 
ATOM     24  C   LIG d   1      11.060   4.722  -1.675  0.00  0.00    -0.051 A 
ATOM     25  H   LIG d   1      11.557   5.505   0.247  0.00  0.00     0.062 H 
ATOM     26  H   LIG d   1      11.658   3.830  -1.551  0.00  0.00     0.062 H 
ENDBRANCH  14  16
ENDBRANCH  11  14
ENDBRANCH   1  11
BRANCH   4  27
ATOM     27  C   LIG d   1       6.423  -0.909  -4.916  0.00  0.00     0.194 C 
ATOM     28  O   LIG d   1       6.843  -1.888  -5.499  0.00  0.00    -0.287 OA
BRANCH  27  29
ATOM     29  C   LIG d   1       5.146  -0.981  -4.176  0.00  0.00     0.022 A 
ATOM     30  C   LIG d   1       5.034  -1.798  -3.048  0.00  0.00    -0.051 A 
ATOM     31  C   LIG d   1       3.840  -1.860  -2.362  0.00  0.00    -0.061 A 
ATOM     32  H   LIG d   1       5.881  -2.378  -2.714  0.00  0.00     0.062 H 
ATOM     33  C   LIG d   1       2.753  -1.116  -2.789  0.00  0.00    -0.062 A 
ATOM     34  H   LIG d   1       3.752  -2.491  -1.490  0.00  0.00     0.062 H 
ATOM     35  C   LIG d   1       2.859  -0.300  -3.901  0.00  0.00    -0.061 A 
ATOM     36  H   LIG d   1       1.820  -1.169  -2.248  0.00  0.00     0.062 H 
ATOM     37  C   LIG d   1       4.045  -0.232  -4.601  0.00  0.00    -0.051 A 
ATOM     38  H   LIG d   1       2.009   0.282  -4.226  0.00  0.00     0.062 H 
ATOM     39  H   LIG d   1       4.125   0.401  -5.472  0.00  0.00     0.062 H 
ENDBRANCH  27  29
ENDBRANCH   4  27
TORSDOF 5
ENDMDL
