MODEL 1
REMARK VINA RESULT:      -6.5      0.000      0.000
REMARK  8 active torsions:
REMARK  status: ('A' for Active; 'I' for Inactive)
REMARK    1  A    between atoms: C_1  and  C_2 
REMARK    2  A    between atoms: C_2  and  C_3 
REMARK    3  A    between atoms: C_2  and  S_4 
REMARK    4  A    between atoms: S_4  and  N_7 
REMARK    5  A    between atoms: C_10  and  C_17 
REMARK    6  A    between atoms: C_15  and  N_16 
REMARK    7  A    between atoms: C_17  and  C_20 
REMARK    8  A    between atoms: N_18  and  O_19 
ROOT
ATOM      1  N   LIG d   1       3.848  -2.994  -8.505  0.00  0.00    -0.183 N 
ATOM      2  C   LIG d   1       4.410  -3.303  -7.276  0.00  0.00     0.094 A 
ATOM      3  C   LIG d   1       5.171  -2.591  -6.365  0.00  0.00    -0.025 A 
ATOM      4  C   LIG d   1       5.589  -3.209  -5.189  0.00  0.00     0.006 A 
ATOM      5  C   LIG d   1       5.242  -4.540  -4.930  0.00  0.00    -0.050 A 
ATOM      6  C   LIG d   1       4.491  -5.245  -5.825  0.00  0.00    -0.034 A 
ATOM      7  C   LIG d   1       4.063  -4.639  -7.011  0.00  0.00     0.093 A 
ATOM      8  N   LIG d   1       3.325  -5.076  -8.064  0.00  0.00    -0.213 NA
ATOM      9  C   LIG d   1       3.193  -4.110  -8.940  0.00  0.00     0.214 A 
ATOM     10  H   LIG d   1       5.439  -1.565  -6.566  0.00  0.00     0.065 H 
ATOM     11  H   LIG d   1       5.570  -5.013  -4.017  0.00  0.00     0.062 H 
ATOM     12  H   LIG d   1       4.229  -6.272  -5.618  0.00  0.00     0.064 H 
ENDROOT
BRANCH   4  13
ATOM     13  C   LIG d   1       6.404  -2.456  -4.209  0.00  0.00     0.117 C 
ATOM     14  N   LIG d   1       7.665  -2.742  -4.054  0.00  0.00    -0.086 NA
BRANCH  14  15
ATOM     15  O   LIG d   1       8.287  -3.686  -4.907  0.00  0.00    -0.409 OA
ATOM     16  H   LIG d   1       8.920  -3.299  -5.527  0.00  0.00     0.328 HD
ENDBRANCH  14  15
BRANCH  13  17
ATOM     17  C   LIG d   1       5.785  -1.375  -3.405  0.00  0.00     0.004 A 
ATOM     18  C   LIG d   1       4.772  -1.674  -2.495  0.00  0.00    -0.052 A 
ATOM     19  C   LIG d   1       4.203  -0.665  -1.745  0.00  0.00    -0.061 A 
ATOM     20  H   LIG d   1       4.437  -2.694  -2.373  0.00  0.00     0.062 H 
ATOM     21  C   LIG d   1       4.627   0.642  -1.904  0.00  0.00    -0.062 A 
ATOM     22  H   LIG d   1       3.422  -0.896  -1.035  0.00  0.00     0.062 H 
ATOM     23  C   LIG d   1       5.627   0.945  -2.809  0.00  0.00    -0.061 A 
ATOM     24  H   LIG d   1       4.175   1.429  -1.318  0.00  0.00     0.062 H 
ATOM     25  C   LIG d   1       6.208  -0.056  -3.561  0.00  0.00    -0.052 A 
ATOM     26  H   LIG d   1       5.954   1.968  -2.929  0.00  0.00     0.062 H 
ATOM     27  H   LIG d   1       6.989   0.182  -4.268  0.00  0.00     0.062 H 
ENDBRANCH  13  17
ENDBRANCH   4  13
BRANCH   1  28
ATOM     28  S   LIG d   1       3.949  -1.543  -9.296  0.00  0.00     0.060 S 
ATOM     29  O   LIG d   1       3.943  -1.881 -10.676  0.00  0.00    -0.152 OA
ATOM     30  O   LIG d   1       5.069  -0.891  -8.715  0.00  0.00    -0.152 OA
BRANCH  28  31
ATOM     31  C   LIG d   1       2.421  -0.668  -8.859  0.00  0.00     0.093 C 
ATOM     32  H   LIG d   1       1.963  -1.146  -7.994  0.00  0.00     0.055 H 
BRANCH  31  33
ATOM     33  C   LIG d   1       2.747   0.789  -8.523  0.00  0.00    -0.041 C 
ATOM     34  H   LIG d   1       1.849   1.398  -8.636  0.00  0.00     0.025 H 
ATOM     35  H   LIG d   1       3.102   0.854  -7.494  0.00  0.00     0.025 H 
ATOM     36  H   LIG d   1       3.520   1.154  -9.199  0.00  0.00     0.025 H 
ENDBRANCH  31  33
BRANCH  31  37
ATOM     37  C   LIG d   1       1.451  -0.713 -10.041  0.00  0.00    -0.041 C 
ATOM     38  H   LIG d   1       1.508  -1.691 -10.520  0.00  0.00     0.025 H 
ATOM     39  H   LIG d   1       0.435  -0.542  -9.685  0.00  0.00     0.025 H 
ATOM     40  H   LIG d   1       1.719   0.060 -10.761  0.00  0.00     0.025 H 
ENDBRANCH  31  37
ENDBRANCH  28  31
ENDBRANCH   1  28
BRANCH   9  41
ATOM     41  N   LIG d   1       2.497  -4.207 -10.126  0.00  0.00    -0.328 N 
ATOM     42  H   LIG d   1       2.068  -3.423 -10.502  0.00  0.00     0.145 HD
ATOM     43  H   LIG d   1       2.437  -5.059 -10.584  0.00  0.00     0.145 HD
ENDBRANCH   9  41
TORSDOF 8
ENDMDL
MODEL 2
REMARK VINA RESULT:      -6.1      3.232      3.592
REMARK  8 active torsions:
REMARK  status: ('A' for Active; 'I' for Inactive)
REMARK    1  A    between atoms: C_1  and  C_2 
REMARK    2  A    between atoms: C_2  and  C_3 
REMARK    3  A    between atoms: C_2  and  S_4 
REMARK    4  A    between atoms: S_4  and  N_7 
REMARK    5  A    between atoms: C_10  and  C_17 
REMARK    6  A    between atoms: C_15  and  N_16 
REMARK    7  A    between atoms: C_17  and  C_20 
REMARK    8  A    between atoms: N_18  and  O_19 
ROOT
ATOM      1  N   LIG d   1       5.903  -0.102  -9.580  0.00  0.00    -0.183 N 
ATOM      2  C   LIG d   1       6.486  -0.265  -8.333  0.00  0.00     0.094 A 
ATOM      3  C   LIG d   1       6.347   0.384  -7.119  0.00  0.00    -0.025 A 
ATOM      4  C   LIG d   1       7.100  -0.037  -6.025  0.00  0.00     0.006 A 
ATOM      5  C   LIG d   1       7.991  -1.108  -6.154  0.00  0.00    -0.050 A 
ATOM      6  C   LIG d   1       8.131  -1.751  -7.349  0.00  0.00    -0.034 A 
ATOM      7  C   LIG d   1       7.382  -1.342  -8.457  0.00  0.00     0.093 A 
ATOM      8  N   LIG d   1       7.309  -1.776  -9.741  0.00  0.00    -0.213 NA
ATOM      9  C   LIG d   1       6.437  -1.053 -10.402  0.00  0.00     0.214 A 
ATOM     10  H   LIG d   1       5.660   1.211  -7.020  0.00  0.00     0.065 H 
ATOM     11  H   LIG d   1       8.572  -1.428  -5.302  0.00  0.00     0.062 H 
ATOM     12  H   LIG d   1       8.822  -2.576  -7.439  0.00  0.00     0.064 H 
ENDROOT
BRANCH   4  13
ATOM     13  C   LIG d   1       6.958   0.652  -4.722  0.00  0.00     0.117 C 
ATOM     14  N   LIG d   1       7.654   1.724  -4.473  0.00  0.00    -0.086 NA
BRANCH  14  15
ATOM     15  O   LIG d   1       8.452   2.303  -5.490  0.00  0.00    -0.409 OA
ATOM     16  H   LIG d   1       8.020   3.026  -5.965  0.00  0.00     0.328 HD
ENDBRANCH  14  15
BRANCH  13  17
ATOM     17  C   LIG d   1       6.023   0.121  -3.701  0.00  0.00     0.004 A 
ATOM     18  C   LIG d   1       5.465   0.977  -2.752  0.00  0.00    -0.052 A 
ATOM     19  C   LIG d   1       4.591   0.479  -1.808  0.00  0.00    -0.061 A 
ATOM     20  H   LIG d   1       5.713   2.028  -2.758  0.00  0.00     0.062 H 
ATOM     21  C   LIG d   1       4.277  -0.869  -1.795  0.00  0.00    -0.062 A 
ATOM     22  H   LIG d   1       4.153   1.141  -1.075  0.00  0.00     0.062 H 
ATOM     23  C   LIG d   1       4.830  -1.723  -2.731  0.00  0.00    -0.061 A 
ATOM     24  H   LIG d   1       3.595  -1.255  -1.052  0.00  0.00     0.062 H 
ATOM     25  C   LIG d   1       5.702  -1.236  -3.683  0.00  0.00    -0.052 A 
ATOM     26  H   LIG d   1       4.581  -2.774  -2.716  0.00  0.00     0.062 H 
ATOM     27  H   LIG d   1       6.134  -1.904  -4.414  0.00  0.00     0.062 H 
ENDBRANCH  13  17
ENDBRANCH   4  13
BRANCH   1  28
ATOM     28  S   LIG d   1       4.769   1.030  -9.995  0.00  0.00     0.060 S 
ATOM     29  O   LIG d   1       4.428   0.726 -11.340  0.00  0.00    -0.152 OA
ATOM     30  O   LIG d   1       5.364   2.278  -9.663  0.00  0.00    -0.152 OA
BRANCH  28  31
ATOM     31  C   LIG d   1       3.360   0.700  -8.901  0.00  0.00     0.093 C 
ATOM     32  H   LIG d   1       3.686   0.086  -8.063  0.00  0.00     0.055 H 
BRANCH  31  33
ATOM     33  C   LIG d   1       2.801   2.025  -8.377  0.00  0.00    -0.041 C 
ATOM     34  H   LIG d   1       2.965   2.088  -7.301  0.00  0.00     0.025 H 
ATOM     35  H   LIG d   1       3.308   2.854  -8.871  0.00  0.00     0.025 H 
ATOM     36  H   LIG d   1       1.732   2.076  -8.584  0.00  0.00     0.025 H 
ENDBRANCH  31  33
BRANCH  31  37
ATOM     37  C   LIG d   1       2.271  -0.038  -9.682  0.00  0.00    -0.041 C 
ATOM     38  H   LIG d   1       1.443   0.642  -9.884  0.00  0.00     0.025 H 
ATOM     39  H   LIG d   1       2.681  -0.400 -10.625  0.00  0.00     0.025 H 
ATOM     40  H   LIG d   1       1.911  -0.883  -9.094  0.00  0.00     0.025 H 
ENDBRANCH  31  37
ENDBRANCH  28  31
ENDBRANCH   1  28
BRANCH   9  41
ATOM     41  N   LIG d   1       6.110  -1.226 -11.729  0.00  0.00    -0.328 N 
ATOM     42  H   LIG d   1       6.135  -0.471 -12.337  0.00  0.00     0.145 HD
ATOM     43  H   LIG d   1       5.856  -2.103 -12.055  0.00  0.00     0.145 HD
ENDBRANCH   9  41
TORSDOF 8
ENDMDL
MODEL 3
REMARK VINA RESULT:      -6.1      2.638      4.176
REMARK  8 active torsions:
REMARK  status: ('A' for Active; 'I' for Inactive)
REMARK    1  A    between atoms: C_1  and  C_2 
REMARK    2  A    between atoms: C_2  and  C_3 
REMARK    3  A    between atoms: C_2  and  S_4 
REMARK    4  A    between atoms: S_4  and  N_7 
REMARK    5  A    between atoms: C_10  and  C_17 
REMARK    6  A    between atoms: C_15  and  N_16 
REMARK    7  A    between atoms: C_17  and  C_20 
REMARK    8  A    between atoms: N_18  and  O_19 
ROOT
ATOM      1  N   LIG d   1       2.335  -2.670  -9.925  0.00  0.00    -0.183 N 
ATOM      2  C   LIG d   1       2.752  -1.634  -9.104  0.00  0.00     0.094 A 
ATOM      3  C   LIG d   1       3.600  -1.559  -8.013  0.00  0.00    -0.025 A 
ATOM      4  C   LIG d   1       3.815  -0.330  -7.393  0.00  0.00     0.006 A 
ATOM      5  C   LIG d   1       3.178   0.821  -7.872  0.00  0.00    -0.050 A 
ATOM      6  C   LIG d   1       2.342   0.752  -8.947  0.00  0.00    -0.034 A 
ATOM      7  C   LIG d   1       2.116  -0.475  -9.581  0.00  0.00     0.093 A 
ATOM      8  N   LIG d   1       1.357  -0.846 -10.644  0.00  0.00    -0.213 NA
ATOM      9  C   LIG d   1       1.488  -2.133 -10.852  0.00  0.00     0.214 A 
ATOM     10  H   LIG d   1       4.090  -2.447  -7.643  0.00  0.00     0.065 H 
ATOM     11  H   LIG d   1       3.348   1.770  -7.386  0.00  0.00     0.062 H 
ATOM     12  H   LIG d   1       1.854   1.644  -9.309  0.00  0.00     0.064 H 
ENDROOT
BRANCH   4  13
ATOM     13  C   LIG d   1       4.720  -0.240  -6.225  0.00  0.00     0.117 C 
ATOM     14  N   LIG d   1       5.898   0.300  -6.353  0.00  0.00    -0.086 NA
BRANCH  14  15
ATOM     15  O   LIG d   1       6.267   0.913  -7.575  0.00  0.00    -0.409 OA
ATOM     16  H   LIG d   1       6.472   1.855  -7.496  0.00  0.00     0.328 HD
ENDBRANCH  14  15
BRANCH  13  17
ATOM     17  C   LIG d   1       4.284  -0.765  -4.909  0.00  0.00     0.004 A 
ATOM     18  C   LIG d   1       5.003  -1.788  -4.291  0.00  0.00    -0.052 A 
ATOM     19  C   LIG d   1       4.596  -2.269  -3.064  0.00  0.00    -0.061 A 
ATOM     20  H   LIG d   1       5.879  -2.200  -4.770  0.00  0.00     0.062 H 
ATOM     21  C   LIG d   1       3.471  -1.747  -2.452  0.00  0.00    -0.062 A 
ATOM     22  H   LIG d   1       5.156  -3.057  -2.581  0.00  0.00     0.062 H 
ATOM     23  C   LIG d   1       2.751  -0.736  -3.062  0.00  0.00    -0.061 A 
ATOM     24  H   LIG d   1       3.154  -2.130  -1.493  0.00  0.00     0.062 H 
ATOM     25  C   LIG d   1       3.150  -0.243  -4.287  0.00  0.00    -0.052 A 
ATOM     26  H   LIG d   1       1.873  -0.333  -2.579  0.00  0.00     0.062 H 
ATOM     27  H   LIG d   1       2.587   0.546  -4.763  0.00  0.00     0.062 H 
ENDBRANCH  13  17
ENDBRANCH   4  13
BRANCH   1  28
ATOM     28  S   LIG d   1       2.783  -4.259  -9.807  0.00  0.00     0.060 S 
ATOM     29  O   LIG d   1       1.625  -4.992 -10.184  0.00  0.00    -0.152 OA
ATOM     30  O   LIG d   1       3.327  -4.387  -8.501  0.00  0.00    -0.152 OA
BRANCH  28  31
ATOM     31  C   LIG d   1       4.088  -4.468 -11.051  0.00  0.00     0.093 C 
ATOM     32  H   LIG d   1       3.771  -4.015 -11.990  0.00  0.00     0.055 H 
BRANCH  31  33
ATOM     33  C   LIG d   1       5.370  -3.789 -10.563  0.00  0.00    -0.041 C 
ATOM     34  H   LIG d   1       6.096  -4.549 -10.274  0.00  0.00     0.025 H 
ATOM     35  H   LIG d   1       5.784  -3.177 -11.365  0.00  0.00     0.025 H 
ATOM     36  H   LIG d   1       5.143  -3.159  -9.704  0.00  0.00     0.025 H 
ENDBRANCH  31  33
BRANCH  31  37
ATOM     37  C   LIG d   1       4.352  -5.960 -11.266  0.00  0.00    -0.041 C 
ATOM     38  H   LIG d   1       5.169  -6.281 -10.620  0.00  0.00     0.025 H 
ATOM     39  H   LIG d   1       3.453  -6.527 -11.024  0.00  0.00     0.025 H 
ATOM     40  H   LIG d   1       4.622  -6.134 -12.307  0.00  0.00     0.025 H 
ENDBRANCH  31  37
ENDBRANCH  28  31
ENDBRANCH   1  28
BRANCH   9  41
ATOM     41  N   LIG d   1       0.862  -2.841 -11.855  0.00  0.00    -0.328 N 
ATOM     42  H   LIG d   1       1.385  -3.388 -12.462  0.00  0.00     0.145 HD
ATOM     43  H   LIG d   1      -0.101  -2.793 -11.953  0.00  0.00     0.145 HD
ENDBRANCH   9  41
TORSDOF 8
ENDMDL
MODEL 4
REMARK VINA RESULT:      -6.0      2.467      3.615
REMARK  8 active torsions:
REMARK  status: ('A' for Active; 'I' for Inactive)
REMARK    1  A    between atoms: C_1  and  C_2 
REMARK    2  A    between atoms: C_2  and  C_3 
REMARK    3  A    between atoms: C_2  and  S_4 
REMARK    4  A    between atoms: S_4  and  N_7 
REMARK    5  A    between atoms: C_10  and  C_17 
REMARK    6  A    between atoms: C_15  and  N_16 
REMARK    7  A    between atoms: C_17  and  C_20 
REMARK    8  A    between atoms: N_18  and  O_19 
ROOT
ATOM      1  N   LIG d   1       4.991  -0.491  -9.368  0.00  0.00    -0.183 N 
ATOM      2  C   LIG d   1       5.787  -0.195  -8.272  0.00  0.00     0.094 A 
ATOM      3  C   LIG d   1       5.971  -0.785  -7.035  0.00  0.00    -0.025 A 
ATOM      4  C   LIG d   1       6.874  -0.225  -6.134  0.00  0.00     0.006 A 
ATOM      5  C   LIG d   1       7.589   0.928  -6.478  0.00  0.00    -0.050 A 
ATOM      6  C   LIG d   1       7.411   1.513  -7.698  0.00  0.00    -0.034 A 
ATOM      7  C   LIG d   1       6.510   0.962  -8.615  0.00  0.00     0.093 A 
ATOM      8  N   LIG d   1       6.131   1.313  -9.870  0.00  0.00    -0.213 NA
ATOM      9  C   LIG d   1       5.243   0.458 -10.317  0.00  0.00     0.214 A 
ATOM     10  H   LIG d   1       5.418  -1.674  -6.769  0.00  0.00     0.065 H 
ATOM     11  H   LIG d   1       8.286   1.357  -5.774  0.00  0.00     0.062 H 
ATOM     12  H   LIG d   1       7.967   2.402  -7.955  0.00  0.00     0.064 H 
ENDROOT
BRANCH   4  13
ATOM     13  C   LIG d   1       7.076  -0.849  -4.806  0.00  0.00     0.117 C 
ATOM     14  N   LIG d   1       8.089  -1.642  -4.608  0.00  0.00    -0.086 NA
BRANCH  14  15
ATOM     15  O   LIG d   1       9.067  -1.810  -5.619  0.00  0.00    -0.409 OA
ATOM     16  H   LIG d   1       9.904  -2.174  -5.301  0.00  0.00     0.328 HD
ENDBRANCH  14  15
BRANCH  13  17
ATOM     17  C   LIG d   1       6.125  -0.571  -3.704  0.00  0.00     0.004 A 
ATOM     18  C   LIG d   1       5.955   0.732  -3.239  0.00  0.00    -0.052 A 
ATOM     19  C   LIG d   1       5.064   0.987  -2.217  0.00  0.00    -0.061 A 
ATOM     20  H   LIG d   1       6.518   1.542  -3.681  0.00  0.00     0.062 H 
ATOM     21  C   LIG d   1       4.349  -0.050  -1.646  0.00  0.00    -0.062 A 
ATOM     22  H   LIG d   1       4.928   1.997  -1.859  0.00  0.00     0.062 H 
ATOM     23  C   LIG d   1       4.516  -1.346  -2.100  0.00  0.00    -0.061 A 
ATOM     24  H   LIG d   1       3.655   0.153  -0.843  0.00  0.00     0.062 H 
ATOM     25  C   LIG d   1       5.400  -1.612  -3.125  0.00  0.00    -0.052 A 
ATOM     26  H   LIG d   1       3.954  -2.151  -1.650  0.00  0.00     0.062 H 
ATOM     27  H   LIG d   1       5.530  -2.625  -3.479  0.00  0.00     0.062 H 
ENDBRANCH  13  17
ENDBRANCH   4  13
BRANCH   1  28
ATOM     28  S   LIG d   1       3.935  -1.758  -9.502  0.00  0.00     0.060 S 
ATOM     29  O   LIG d   1       4.371  -2.699  -8.531  0.00  0.00    -0.152 OA
ATOM     30  O   LIG d   1       3.940  -2.089 -10.884  0.00  0.00    -0.152 OA
BRANCH  28  31
ATOM     31  C   LIG d   1       2.322  -1.074  -9.031  0.00  0.00     0.093 C 
ATOM     32  H   LIG d   1       1.761  -1.820  -8.470  0.00  0.00     0.055 H 
BRANCH  31  33
ATOM     33  C   LIG d   1       2.530   0.169  -8.161  0.00  0.00    -0.041 C 
ATOM     34  H   LIG d   1       1.847   0.955  -8.482  0.00  0.00     0.025 H 
ATOM     35  H   LIG d   1       2.333  -0.081  -7.118  0.00  0.00     0.025 H 
ATOM     36  H   LIG d   1       3.558   0.516  -8.264  0.00  0.00     0.025 H 
ENDBRANCH  31  33
BRANCH  31  37
ATOM     37  C   LIG d   1       1.544  -0.689 -10.291  0.00  0.00    -0.041 C 
ATOM     38  H   LIG d   1       1.001   0.240 -10.113  0.00  0.00     0.025 H 
ATOM     39  H   LIG d   1       2.239  -0.550 -11.119  0.00  0.00     0.025 H 
ATOM     40  H   LIG d   1       0.837  -1.481 -10.537  0.00  0.00     0.025 H 
ENDBRANCH  31  37
ENDBRANCH  28  31
ENDBRANCH   1  28
BRANCH   9  41
ATOM     41  N   LIG d   1       4.650   0.510 -11.560  0.00  0.00    -0.328 N 
ATOM     42  H   LIG d   1       3.748   0.175 -11.682  0.00  0.00     0.145 HD
ATOM     43  H   LIG d   1       5.134   0.885 -12.312  0.00  0.00     0.145 HD
ENDBRANCH   9  41
TORSDOF 8
ENDMDL
MODEL 5
REMARK VINA RESULT:      -6.0      2.503      3.082
REMARK  8 active torsions:
REMARK  status: ('A' for Active; 'I' for Inactive)
REMARK    1  A    between atoms: C_1  and  C_2 
REMARK    2  A    between atoms: C_2  and  C_3 
REMARK    3  A    between atoms: C_2  and  S_4 
REMARK    4  A    between atoms: S_4  and  N_7 
REMARK    5  A    between atoms: C_10  and  C_17 
REMARK    6  A    between atoms: C_15  and  N_16 
REMARK    7  A    between atoms: C_17  and  C_20 
REMARK    8  A    between atoms: N_18  and  O_19 
ROOT
ATOM      1  N   LIG d   1       4.471  -0.717  -9.544  0.00  0.00    -0.183 N 
ATOM      2  C   LIG d   1       4.962  -1.234  -8.354  0.00  0.00     0.094 A 
ATOM      3  C   LIG d   1       4.430  -1.390  -7.087  0.00  0.00    -0.025 A 
ATOM      4  C   LIG d   1       5.207  -1.963  -6.082  0.00  0.00     0.006 A 
ATOM      5  C   LIG d   1       6.516  -2.377  -6.353  0.00  0.00    -0.050 A 
ATOM      6  C   LIG d   1       7.044  -2.225  -7.602  0.00  0.00    -0.034 A 
ATOM      7  C   LIG d   1       6.277  -1.652  -8.622  0.00  0.00     0.093 A 
ATOM      8  N   LIG d   1       6.524  -1.379  -9.929  0.00  0.00    -0.213 NA
ATOM      9  C   LIG d   1       5.464  -0.835 -10.474  0.00  0.00     0.214 A 
ATOM     10  H   LIG d   1       3.420  -1.069  -6.878  0.00  0.00     0.065 H 
ATOM     11  H   LIG d   1       7.112  -2.818  -5.569  0.00  0.00     0.062 H 
ATOM     12  H   LIG d   1       8.055  -2.546  -7.803  0.00  0.00     0.064 H 
ENDROOT
BRANCH   4  13
ATOM     13  C   LIG d   1       4.646  -2.133  -4.722  0.00  0.00     0.117 C 
ATOM     14  N   LIG d   1       4.225  -3.302  -4.333  0.00  0.00    -0.086 NA
BRANCH  14  15
ATOM     15  O   LIG d   1       4.416  -4.435  -5.161  0.00  0.00    -0.409 OA
ATOM     16  H   LIG d   1       3.656  -4.648  -5.719  0.00  0.00     0.328 HD
ENDBRANCH  14  15
BRANCH  13  17
ATOM     17  C   LIG d   1       4.565  -0.972  -3.804  0.00  0.00     0.004 A 
ATOM     18  C   LIG d   1       5.706  -0.220  -3.525  0.00  0.00    -0.052 A 
ATOM     19  C   LIG d   1       5.624   0.863  -2.674  0.00  0.00    -0.061 A 
ATOM     20  H   LIG d   1       6.651  -0.482  -3.978  0.00  0.00     0.062 H 
ATOM     21  C   LIG d   1       4.415   1.196  -2.089  0.00  0.00    -0.062 A 
ATOM     22  H   LIG d   1       6.505   1.450  -2.462  0.00  0.00     0.062 H 
ATOM     23  C   LIG d   1       3.282   0.451  -2.357  0.00  0.00    -0.061 A 
ATOM     24  H   LIG d   1       4.357   2.042  -1.420  0.00  0.00     0.062 H 
ATOM     25  C   LIG d   1       3.350  -0.632  -3.210  0.00  0.00    -0.052 A 
ATOM     26  H   LIG d   1       2.341   0.715  -1.896  0.00  0.00     0.062 H 
ATOM     27  H   LIG d   1       2.464  -1.213  -3.419  0.00  0.00     0.062 H 
ENDBRANCH  13  17
ENDBRANCH   4  13
BRANCH   1  28
ATOM     28  S   LIG d   1       2.963  -0.082  -9.792  0.00  0.00     0.060 S 
ATOM     29  O   LIG d   1       2.113  -0.809  -8.916  0.00  0.00    -0.152 OA
ATOM     30  O   LIG d   1       2.772  -0.138 -11.199  0.00  0.00    -0.152 OA
BRANCH  28  31
ATOM     31  C   LIG d   1       3.090   1.645  -9.249  0.00  0.00     0.093 C 
ATOM     32  H   LIG d   1       2.397   2.259  -9.823  0.00  0.00     0.055 H 
BRANCH  31  33
ATOM     33  C   LIG d   1       2.743   1.739  -7.761  0.00  0.00    -0.041 C 
ATOM     34  H   LIG d   1       1.960   2.483  -7.617  0.00  0.00     0.025 H 
ATOM     35  H   LIG d   1       2.391   0.769  -7.409  0.00  0.00     0.025 H 
ATOM     36  H   LIG d   1       3.630   2.031  -7.199  0.00  0.00     0.025 H 
ENDBRANCH  31  33
BRANCH  31  37
ATOM     37  C   LIG d   1       4.519   2.145  -9.471  0.00  0.00    -0.041 C 
ATOM     38  H   LIG d   1       4.764   2.893  -8.716  0.00  0.00     0.025 H 
ATOM     39  H   LIG d   1       5.214   1.309  -9.391  0.00  0.00     0.025 H 
ATOM     40  H   LIG d   1       4.599   2.590 -10.463  0.00  0.00     0.025 H 
ENDBRANCH  31  37
ENDBRANCH  28  31
ENDBRANCH   1  28
BRANCH   9  41
ATOM     41  N   LIG d   1       5.365  -0.438 -11.790  0.00  0.00    -0.328 N 
ATOM     42  H   LIG d   1       4.802  -0.933 -12.405  0.00  0.00     0.145 HD
ATOM     43  H   LIG d   1       5.858   0.337 -12.101  0.00  0.00     0.145 HD
ENDBRANCH   9  41
TORSDOF 8
ENDMDL
MODEL 6
REMARK VINA RESULT:      -6.0      3.379      6.998
REMARK  8 active torsions:
REMARK  status: ('A' for Active; 'I' for Inactive)
REMARK    1  A    between atoms: C_1  and  C_2 
REMARK    2  A    between atoms: C_2  and  C_3 
REMARK    3  A    between atoms: C_2  and  S_4 
REMARK    4  A    between atoms: S_4  and  N_7 
REMARK    5  A    between atoms: C_10  and  C_17 
REMARK    6  A    between atoms: C_15  and  N_16 
REMARK    7  A    between atoms: C_17  and  C_20 
REMARK    8  A    between atoms: N_18  and  O_19 
ROOT
ATOM      1  N   LIG d   1       5.330  -0.989  -5.089  0.00  0.00    -0.183 N 
ATOM      2  C   LIG d   1       5.517  -0.679  -6.427  0.00  0.00     0.094 A 
ATOM      3  C   LIG d   1       4.745  -0.033  -7.376  0.00  0.00    -0.025 A 
ATOM      4  C   LIG d   1       5.236   0.122  -8.671  0.00  0.00     0.006 A 
ATOM      5  C   LIG d   1       6.501  -0.372  -9.008  0.00  0.00    -0.050 A 
ATOM      6  C   LIG d   1       7.265  -1.010  -8.075  0.00  0.00    -0.034 A 
ATOM      7  C   LIG d   1       6.788  -1.173  -6.771  0.00  0.00     0.093 A 
ATOM      8  N   LIG d   1       7.306  -1.749  -5.656  0.00  0.00    -0.213 NA
ATOM      9  C   LIG d   1       6.455  -1.638  -4.665  0.00  0.00     0.214 A 
ATOM     10  H   LIG d   1       3.769   0.348  -7.116  0.00  0.00     0.065 H 
ATOM     11  H   LIG d   1       6.874  -0.250 -10.014  0.00  0.00     0.062 H 
ATOM     12  H   LIG d   1       8.240  -1.389  -8.344  0.00  0.00     0.064 H 
ENDROOT
BRANCH   4  13
ATOM     13  C   LIG d   1       4.416   0.812  -9.694  0.00  0.00     0.117 C 
ATOM     14  N   LIG d   1       4.589   2.083  -9.917  0.00  0.00    -0.086 NA
BRANCH  14  15
ATOM     15  O   LIG d   1       5.642   2.779  -9.276  0.00  0.00    -0.409 OA
ATOM     16  H   LIG d   1       5.541   3.740  -9.284  0.00  0.00     0.328 HD
ENDBRANCH  14  15
BRANCH  13  17
ATOM     17  C   LIG d   1       3.400   0.054 -10.462  0.00  0.00     0.004 A 
ATOM     18  C   LIG d   1       3.701  -0.425 -11.737  0.00  0.00    -0.052 A 
ATOM     19  C   LIG d   1       2.754  -1.135 -12.445  0.00  0.00    -0.061 A 
ATOM     20  H   LIG d   1       4.676  -0.245 -12.166  0.00  0.00     0.062 H 
ATOM     21  C   LIG d   1       1.503  -1.361 -11.898  0.00  0.00    -0.062 A 
ATOM     22  H   LIG d   1       2.987  -1.511 -13.430  0.00  0.00     0.062 H 
ATOM     23  C   LIG d   1       1.197  -0.884 -10.637  0.00  0.00    -0.061 A 
ATOM     24  H   LIG d   1       0.763  -1.913 -12.459  0.00  0.00     0.062 H 
ATOM     25  C   LIG d   1       2.138  -0.177  -9.916  0.00  0.00    -0.052 A 
ATOM     26  H   LIG d   1       0.219  -1.063 -10.216  0.00  0.00     0.062 H 
ATOM     27  H   LIG d   1       1.898   0.195  -8.931  0.00  0.00     0.062 H 
ENDBRANCH  13  17
ENDBRANCH   4  13
BRANCH   1  28
ATOM     28  S   LIG d   1       3.997  -0.636  -4.174  0.00  0.00     0.060 S 
ATOM     29  O   LIG d   1       3.760  -1.810  -3.409  0.00  0.00    -0.152 OA
ATOM     30  O   LIG d   1       3.030  -0.171  -5.106  0.00  0.00    -0.152 OA
BRANCH  28  31
ATOM     31  C   LIG d   1       4.522   0.721  -3.090  0.00  0.00     0.093 C 
ATOM     32  H   LIG d   1       5.507   1.071  -3.397  0.00  0.00     0.055 H 
BRANCH  31  33
ATOM     33  C   LIG d   1       3.518   1.871  -3.190  0.00  0.00    -0.041 C 
ATOM     34  H   LIG d   1       2.989   1.976  -2.243  0.00  0.00     0.025 H 
ATOM     35  H   LIG d   1       4.048   2.798  -3.414  0.00  0.00     0.025 H 
ATOM     36  H   LIG d   1       2.802   1.661  -3.985  0.00  0.00     0.025 H 
ENDBRANCH  31  33
BRANCH  31  37
ATOM     37  C   LIG d   1       4.585   0.224  -1.644  0.00  0.00    -0.041 C 
ATOM     38  H   LIG d   1       4.980   1.014  -1.005  0.00  0.00     0.025 H 
ATOM     39  H   LIG d   1       3.583  -0.046  -1.309  0.00  0.00     0.025 H 
ATOM     40  H   LIG d   1       5.235  -0.648  -1.588  0.00  0.00     0.025 H 
ENDBRANCH  31  37
ENDBRANCH  28  31
ENDBRANCH   1  28
BRANCH   9  41
ATOM     41  N   LIG d   1       6.664  -2.107  -3.387  0.00  0.00    -0.328 N 
ATOM     42  H   LIG d   1       7.474  -1.871  -2.909  0.00  0.00     0.145 HD
ATOM     43  H   LIG d   1       5.999  -2.672  -2.963  0.00  0.00     0.145 HD
ENDBRANCH   9  41
TORSDOF 8
ENDMDL
MODEL 7
REMARK VINA RESULT:      -6.0      4.336      6.387
REMARK  8 active torsions:
REMARK  status: ('A' for Active; 'I' for Inactive)
REMARK    1  A    between atoms: C_1  and  C_2 
REMARK    2  A    between atoms: C_2  and  C_3 
REMARK    3  A    between atoms: C_2  and  S_4 
REMARK    4  A    between atoms: S_4  and  N_7 
REMARK    5  A    between atoms: C_10  and  C_17 
REMARK    6  A    between atoms: C_15  and  N_16 
REMARK    7  A    between atoms: C_17  and  C_20 
REMARK    8  A    between atoms: N_18  and  O_19 
ROOT
ATOM      1  N   LIG d   1       5.851  -0.485  -5.121  0.00  0.00    -0.183 N 
ATOM      2  C   LIG d   1       6.940   0.330  -5.389  0.00  0.00     0.094 A 
ATOM      3  C   LIG d   1       7.902   0.934  -4.598  0.00  0.00    -0.025 A 
ATOM      4  C   LIG d   1       8.890   1.714  -5.194  0.00  0.00     0.006 A 
ATOM      5  C   LIG d   1       8.910   1.885  -6.583  0.00  0.00    -0.050 A 
ATOM      6  C   LIG d   1       7.964   1.291  -7.366  0.00  0.00    -0.034 A 
ATOM      7  C   LIG d   1       6.965   0.505  -6.784  0.00  0.00     0.093 A 
ATOM      8  N   LIG d   1       5.917  -0.194  -7.292  0.00  0.00    -0.213 NA
ATOM      9  C   LIG d   1       5.265  -0.780  -6.318  0.00  0.00     0.214 A 
ATOM     10  H   LIG d   1       7.885   0.802  -3.526  0.00  0.00     0.065 H 
ATOM     11  H   LIG d   1       9.679   2.492  -7.038  0.00  0.00     0.062 H 
ATOM     12  H   LIG d   1       7.987   1.429  -8.437  0.00  0.00     0.064 H 
ENDROOT
BRANCH   4  13
ATOM     13  C   LIG d   1       9.923   2.364  -4.356  0.00  0.00     0.117 C 
ATOM     14  N   LIG d   1      10.953   1.682  -3.945  0.00  0.00    -0.086 NA
BRANCH  14  15
ATOM     15  O   LIG d   1      11.152   0.356  -4.402  0.00  0.00    -0.409 OA
ATOM     16  H   LIG d   1      10.333  -0.126  -4.581  0.00  0.00     0.328 HD
ENDBRANCH  14  15
BRANCH  13  17
ATOM     17  C   LIG d   1       9.783   3.792  -3.984  0.00  0.00     0.004 A 
ATOM     18  C   LIG d   1       9.346   4.721  -4.928  0.00  0.00    -0.052 A 
ATOM     19  C   LIG d   1       9.212   6.048  -4.575  0.00  0.00    -0.061 A 
ATOM     20  H   LIG d   1       9.108   4.401  -5.932  0.00  0.00     0.062 H 
ATOM     21  C   LIG d   1       9.523   6.460  -3.291  0.00  0.00    -0.062 A 
ATOM     22  H   LIG d   1       8.868   6.768  -5.304  0.00  0.00     0.062 H 
ATOM     23  C   LIG d   1       9.962   5.545  -2.353  0.00  0.00    -0.061 A 
ATOM     24  H   LIG d   1       9.421   7.501  -3.021  0.00  0.00     0.062 H 
ATOM     25  C   LIG d   1      10.094   4.214  -2.692  0.00  0.00    -0.052 A 
ATOM     26  H   LIG d   1      10.202   5.872  -1.352  0.00  0.00     0.062 H 
ATOM     27  H   LIG d   1      10.438   3.499  -1.957  0.00  0.00     0.062 H 
ENDBRANCH  13  17
ENDBRANCH   4  13
BRANCH   1  28
ATOM     28  S   LIG d   1       5.357  -1.008  -3.630  0.00  0.00     0.060 S 
ATOM     29  O   LIG d   1       6.490  -0.834  -2.790  0.00  0.00    -0.152 OA
ATOM     30  O   LIG d   1       4.818  -2.302  -3.860  0.00  0.00    -0.152 OA
BRANCH  28  31
ATOM     31  C   LIG d   1       4.038   0.141  -3.147  0.00  0.00     0.093 C 
ATOM     32  H   LIG d   1       3.912   0.896  -3.923  0.00  0.00     0.055 H 
BRANCH  31  33
ATOM     33  C   LIG d   1       2.729  -0.632  -2.969  0.00  0.00    -0.041 C 
ATOM     34  H   LIG d   1       1.919   0.068  -2.765  0.00  0.00     0.025 H 
ATOM     35  H   LIG d   1       2.508  -1.187  -3.882  0.00  0.00     0.025 H 
ATOM     36  H   LIG d   1       2.828  -1.327  -2.136  0.00  0.00     0.025 H 
ENDBRANCH  31  33
BRANCH  31  37
ATOM     37  C   LIG d   1       4.411   0.820  -1.828  0.00  0.00    -0.041 C 
ATOM     38  H   LIG d   1       5.409   1.251  -1.911  0.00  0.00     0.025 H 
ATOM     39  H   LIG d   1       3.692   1.610  -1.610  0.00  0.00     0.025 H 
ATOM     40  H   LIG d   1       4.399   0.085  -1.024  0.00  0.00     0.025 H 
ENDBRANCH  31  37
ENDBRANCH  28  31
ENDBRANCH   1  28
BRANCH   9  41
ATOM     41  N   LIG d   1       4.151  -1.575  -6.478  0.00  0.00    -0.328 N 
ATOM     42  H   LIG d   1       4.134  -2.253  -7.172  0.00  0.00     0.145 HD
ATOM     43  H   LIG d   1       3.384  -1.458  -5.896  0.00  0.00     0.145 HD
ENDBRANCH   9  41
TORSDOF 8
ENDMDL
MODEL 8
REMARK VINA RESULT:      -5.9      3.362      6.354
REMARK  8 active torsions:
REMARK  status: ('A' for Active; 'I' for Inactive)
REMARK    1  A    between atoms: C_1  and  C_2 
REMARK    2  A    between atoms: C_2  and  C_3 
REMARK    3  A    between atoms: C_2  and  S_4 
REMARK    4  A    between atoms: S_4  and  N_7 
REMARK    5  A    between atoms: C_10  and  C_17 
REMARK    6  A    between atoms: C_15  and  N_16 
REMARK    7  A    between atoms: C_17  and  C_20 
REMARK    8  A    between atoms: N_18  and  O_19 
ROOT
ATOM      1  N   LIG d   1       6.375  -0.926  -4.982  0.00  0.00    -0.183 N 
ATOM      2  C   LIG d   1       6.201  -2.128  -5.652  0.00  0.00     0.094 A 
ATOM      3  C   LIG d   1       5.750  -3.379  -5.271  0.00  0.00    -0.025 A 
ATOM      4  C   LIG d   1       5.692  -4.404  -6.213  0.00  0.00     0.006 A 
ATOM      5  C   LIG d   1       6.088  -4.169  -7.535  0.00  0.00    -0.050 A 
ATOM      6  C   LIG d   1       6.533  -2.937  -7.914  0.00  0.00    -0.034 A 
ATOM      7  C   LIG d   1       6.596  -1.896  -6.981  0.00  0.00     0.093 A 
ATOM      8  N   LIG d   1       6.985  -0.598  -7.061  0.00  0.00    -0.213 NA
ATOM      9  C   LIG d   1       6.852  -0.025  -5.890  0.00  0.00     0.214 A 
ATOM     10  H   LIG d   1       5.445  -3.560  -4.251  0.00  0.00     0.065 H 
ATOM     11  H   LIG d   1       6.042  -4.969  -8.259  0.00  0.00     0.062 H 
ATOM     12  H   LIG d   1       6.837  -2.764  -8.936  0.00  0.00     0.064 H 
ENDROOT
BRANCH   4  13
ATOM     13  C   LIG d   1       5.212  -5.747  -5.814  0.00  0.00     0.117 C 
ATOM     14  N   LIG d   1       3.937  -6.011  -5.822  0.00  0.00    -0.086 NA
BRANCH  14  15
ATOM     15  O   LIG d   1       3.019  -5.059  -6.330  0.00  0.00    -0.409 OA
ATOM     16  H   LIG d   1       2.695  -5.260  -7.219  0.00  0.00     0.328 HD
ENDBRANCH  14  15
BRANCH  13  17
ATOM     17  C   LIG d   1       6.183  -6.790  -5.406  0.00  0.00     0.004 A 
ATOM     18  C   LIG d   1       7.536  -6.476  -5.284  0.00  0.00    -0.052 A 
ATOM     19  C   LIG d   1       8.435  -7.449  -4.898  0.00  0.00    -0.061 A 
ATOM     20  H   LIG d   1       7.879  -5.472  -5.487  0.00  0.00     0.062 H 
ATOM     21  C   LIG d   1       7.997  -8.737  -4.645  0.00  0.00    -0.062 A 
ATOM     22  H   LIG d   1       9.483  -7.206  -4.798  0.00  0.00     0.062 H 
ATOM     23  C   LIG d   1       6.657  -9.055  -4.768  0.00  0.00    -0.061 A 
ATOM     24  H   LIG d   1       8.705  -9.496  -4.347  0.00  0.00     0.062 H 
ATOM     25  C   LIG d   1       5.748  -8.089  -5.148  0.00  0.00    -0.052 A 
ATOM     26  H   LIG d   1       6.322 -10.062  -4.569  0.00  0.00     0.062 H 
ATOM     27  H   LIG d   1       4.701  -8.339  -5.245  0.00  0.00     0.062 H 
ENDBRANCH  13  17
ENDBRANCH   4  13
BRANCH   1  28
ATOM     28  S   LIG d   1       6.061  -0.637  -3.383  0.00  0.00     0.060 S 
ATOM     29  O   LIG d   1       6.464   0.709  -3.171  0.00  0.00    -0.152 OA
ATOM     30  O   LIG d   1       6.698  -1.702  -2.690  0.00  0.00    -0.152 OA
BRANCH  28  31
ATOM     31  C   LIG d   1       4.259  -0.782  -3.229  0.00  0.00     0.093 C 
ATOM     32  H   LIG d   1       3.818  -0.902  -4.218  0.00  0.00     0.055 H 
BRANCH  31  33
ATOM     33  C   LIG d   1       3.918  -2.000  -2.367  0.00  0.00    -0.041 C 
ATOM     34  H   LIG d   1       2.925  -1.874  -1.936  0.00  0.00     0.025 H 
ATOM     35  H   LIG d   1       3.933  -2.898  -2.986  0.00  0.00     0.025 H 
ATOM     36  H   LIG d   1       4.652  -2.097  -1.568  0.00  0.00     0.025 H 
ENDBRANCH  31  33
BRANCH  31  37
ATOM     37  C   LIG d   1       3.700   0.480  -2.570  0.00  0.00    -0.041 C 
ATOM     38  H   LIG d   1       3.017   0.978  -3.259  0.00  0.00     0.025 H 
ATOM     39  H   LIG d   1       3.164   0.209  -1.660  0.00  0.00     0.025 H 
ATOM     40  H   LIG d   1       4.520   1.154  -2.321  0.00  0.00     0.025 H 
ENDBRANCH  31  37
ENDBRANCH  28  31
ENDBRANCH   1  28
BRANCH   9  41
ATOM     41  N   LIG d   1       7.149   1.293  -5.616  0.00  0.00    -0.328 N 
ATOM     42  H   LIG d   1       7.971   1.684  -5.951  0.00  0.00     0.145 HD
ATOM     43  H   LIG d   1       6.536   1.828  -5.090  0.00  0.00     0.145 HD
ENDBRANCH   9  41
TORSDOF 8
ENDMDL
MODEL 9
REMARK VINA RESULT:      -5.9      3.371      6.820
REMARK  8 active torsions:
REMARK  status: ('A' for Active; 'I' for Inactive)
REMARK    1  A    between atoms: C_1  and  C_2 
REMARK    2  A    between atoms: C_2  and  C_3 
REMARK    3  A    between atoms: C_2  and  S_4 
REMARK    4  A    between atoms: S_4  and  N_7 
REMARK    5  A    between atoms: C_10  and  C_17 
REMARK    6  A    between atoms: C_15  and  N_16 
REMARK    7  A    between atoms: C_17  and  C_20 
REMARK    8  A    between atoms: N_18  and  O_19 
ROOT
ATOM      1  N   LIG d   1       6.696  -1.082  -5.254  0.00  0.00    -0.183 N 
ATOM      2  C   LIG d   1       6.554  -0.784  -6.601  0.00  0.00     0.094 A 
ATOM      3  C   LIG d   1       5.629  -0.055  -7.327  0.00  0.00    -0.025 A 
ATOM      4  C   LIG d   1       5.774   0.056  -8.708  0.00  0.00     0.006 A 
ATOM      5  C   LIG d   1       6.847  -0.566  -9.356  0.00  0.00    -0.050 A 
ATOM      6  C   LIG d   1       7.762  -1.286  -8.644  0.00  0.00    -0.034 A 
ATOM      7  C   LIG d   1       7.631  -1.406  -7.256  0.00  0.00     0.093 A 
ATOM      8  N   LIG d   1       8.364  -2.040  -6.305  0.00  0.00    -0.213 NA
ATOM      9  C   LIG d   1       7.821  -1.847  -5.128  0.00  0.00     0.214 A 
ATOM     10  H   LIG d   1       4.800   0.424  -6.827  0.00  0.00     0.065 H 
ATOM     11  H   LIG d   1       6.953  -0.477 -10.427  0.00  0.00     0.062 H 
ATOM     12  H   LIG d   1       8.586  -1.763  -9.151  0.00  0.00     0.064 H 
ENDROOT
BRANCH   4  13
ATOM     13  C   LIG d   1       4.788   0.833  -9.494  0.00  0.00     0.117 C 
ATOM     14  N   LIG d   1       4.962   2.112  -9.673  0.00  0.00    -0.086 NA
BRANCH  14  15
ATOM     15  O   LIG d   1       6.152   2.735  -9.226  0.00  0.00    -0.409 OA
ATOM     16  H   LIG d   1       6.054   3.222  -8.397  0.00  0.00     0.328 HD
ENDBRANCH  14  15
BRANCH  13  17
ATOM     17  C   LIG d   1       3.605   0.156 -10.076  0.00  0.00     0.004 A 
ATOM     18  C   LIG d   1       2.468  -0.056  -9.297  0.00  0.00    -0.052 A 
ATOM     19  C   LIG d   1       1.367  -0.681  -9.846  0.00  0.00    -0.061 A 
ATOM     20  H   LIG d   1       2.447   0.274  -8.269  0.00  0.00     0.062 H 
ATOM     21  C   LIG d   1       1.395  -1.108 -11.161  0.00  0.00    -0.062 A 
ATOM     22  H   LIG d   1       0.483  -0.841  -9.246  0.00  0.00     0.062 H 
ATOM     23  C   LIG d   1       2.522  -0.906 -11.936  0.00  0.00    -0.061 A 
ATOM     24  H   LIG d   1       0.533  -1.602 -11.585  0.00  0.00     0.062 H 
ATOM     25  C   LIG d   1       3.627  -0.277 -11.401  0.00  0.00    -0.052 A 
ATOM     26  H   LIG d   1       2.538  -1.242 -12.963  0.00  0.00     0.062 H 
ATOM     27  H   LIG d   1       4.508  -0.119 -12.007  0.00  0.00     0.062 H 
ENDBRANCH  13  17
ENDBRANCH   4  13
BRANCH   1  28
ATOM     28  S   LIG d   1       5.696  -0.598  -4.028  0.00  0.00     0.060 S 
ATOM     29  O   LIG d   1       5.315   0.727  -4.372  0.00  0.00    -0.152 OA
ATOM     30  O   LIG d   1       6.429  -0.855  -2.838  0.00  0.00    -0.152 OA
BRANCH  28  31
ATOM     31  C   LIG d   1       4.264  -1.707  -4.130  0.00  0.00     0.093 C 
ATOM     32  H   LIG d   1       3.671  -1.456  -5.009  0.00  0.00     0.055 H 
BRANCH  31  33
ATOM     33  C   LIG d   1       4.747  -3.155  -4.238  0.00  0.00    -0.041 C 
ATOM     34  H   LIG d   1       4.616  -3.655  -3.278  0.00  0.00     0.025 H 
ATOM     35  H   LIG d   1       4.167  -3.676  -5.000  0.00  0.00     0.025 H 
ATOM     36  H   LIG d   1       5.802  -3.167  -4.511  0.00  0.00     0.025 H 
ENDBRANCH  31  33
BRANCH  31  37
ATOM     37  C   LIG d   1       3.406  -1.549  -2.873  0.00  0.00    -0.041 C 
ATOM     38  H   LIG d   1       3.147  -2.534  -2.484  0.00  0.00     0.025 H 
ATOM     39  H   LIG d   1       3.965  -0.996  -2.118  0.00  0.00     0.025 H 
ATOM     40  H   LIG d   1       2.494  -1.006  -3.121  0.00  0.00     0.025 H 
ENDBRANCH  31  37
ENDBRANCH  28  31
ENDBRANCH   1  28
BRANCH   9  41
ATOM     41  N   LIG d   1       8.310  -2.344  -3.940  0.00  0.00    -0.328 N 
ATOM     42  H   LIG d   1       8.324  -1.784  -3.148  0.00  0.00     0.145 HD
ATOM     43  H   LIG d   1       8.639  -3.255  -3.894  0.00  0.00     0.145 HD
ENDBRANCH   9  41
TORSDOF 8
ENDMDL
