MODEL 1
REMARK VINA RESULT:      -5.3      0.000      0.000
REMARK  6 active torsions:
REMARK  status: ('A' for Active; 'I' for Inactive)
REMARK    1  A    between atoms: C_1  and  C_2 
REMARK    2  A    between atoms: C_2  and  C_4 
REMARK    3  A    between atoms: C_2  and  N_7 
REMARK    4  A    between atoms: N_7  and  S_8 
REMARK    5  A    between atoms: S_8  and  C_11 
REMARK    6  A    between atoms: C_14  and  N_17 
ROOT
ATOM      1  C   LIG d   1       4.130  -1.105  -2.306  0.00  0.00     0.051 C 
ATOM      2  C   LIG d   1       4.521   0.222  -1.802  0.00  0.00     0.064 C 
ATOM      3  N   LIG d   1       4.823   1.246  -1.414  0.00  0.00    -0.197 NA
ATOM      4  H   LIG d   1       4.979  -1.786  -2.234  0.00  0.00     0.043 H 
ATOM      5  H   LIG d   1       3.303  -1.490  -1.709  0.00  0.00     0.043 H 
ENDROOT
BRANCH   1   6
ATOM      6  C   LIG d   1       3.694  -0.987  -3.767  0.00  0.00     0.039 C 
ATOM      7  H   LIG d   1       3.742  -1.967  -4.241  0.00  0.00     0.048 H 
BRANCH   6   8
ATOM      8  C   LIG d   1       2.258  -0.460  -3.829  0.00  0.00    -0.047 C 
ATOM      9  H   LIG d   1       1.653  -1.128  -4.442  0.00  0.00     0.025 H 
ATOM     10  H   LIG d   1       1.845  -0.415  -2.823  0.00  0.00     0.025 H 
ATOM     11  H   LIG d   1       2.257   0.538  -4.269  0.00  0.00     0.025 H 
ENDBRANCH   6   8
BRANCH   6  12
ATOM     12  N   LIG d   1       4.585  -0.060  -4.470  0.00  0.00    -0.186 N 
ATOM     13  H   LIG d   1       4.669   0.857  -4.165  0.00  0.00     0.148 HD
BRANCH  12  14
ATOM     14  S   LIG d   1       5.449  -0.578  -5.784  0.00  0.00     0.059 S 
ATOM     15  O   LIG d   1       6.220   0.532  -6.225  0.00  0.00    -0.153 OA
ATOM     16  O   LIG d   1       6.038  -1.818  -5.420  0.00  0.00    -0.153 OA
BRANCH  14  17
ATOM     17  C   LIG d   1       4.290  -0.926  -7.065  0.00  0.00     0.106 A 
ATOM     18  C   LIG d   1       3.298  -0.012  -7.367  0.00  0.00    -0.029 A 
ATOM     19  C   LIG d   1       2.389  -0.285  -8.372  0.00  0.00     0.017 A 
ATOM     20  H   LIG d   1       3.234   0.916  -6.818  0.00  0.00     0.064 H 
ATOM     21  C   LIG d   1       2.472  -1.472  -9.075  0.00  0.00     0.273 A 
ATOM     22  H   LIG d   1       1.614   0.429  -8.608  0.00  0.00     0.069 H 
ATOM     23  C   LIG d   1       3.464  -2.386  -8.773  0.00  0.00     0.017 A 
ATOM     24  C   LIG d   1       4.376  -2.111  -7.770  0.00  0.00    -0.029 A 
ATOM     25  H   LIG d   1       3.529  -3.314  -9.322  0.00  0.00     0.069 H 
ATOM     26  H   LIG d   1       5.153  -2.823  -7.538  0.00  0.00     0.064 H 
BRANCH  21  27
ATOM     27  N   LIG d   1       1.498  -1.765 -10.151  0.00  0.00     0.080 N 
ATOM     28  O   LIG d   1       1.217  -0.907 -10.967  0.00  0.00     0.041 OA
ATOM     29  O   LIG d   1       0.978  -2.864 -10.218  0.00  0.00    -0.576 OA
ENDBRANCH  21  27
ENDBRANCH  14  17
ENDBRANCH  12  14
ENDBRANCH   6  12
ENDBRANCH   1   6
TORSDOF 6
ENDMDL
MODEL 2
REMARK VINA RESULT:      -5.1      1.496      2.033
REMARK  6 active torsions:
REMARK  status: ('A' for Active; 'I' for Inactive)
REMARK    1  A    between atoms: C_1  and  C_2 
REMARK    2  A    between atoms: C_2  and  C_4 
REMARK    3  A    between atoms: C_2  and  N_7 
REMARK    4  A    between atoms: N_7  and  S_8 
REMARK    5  A    between atoms: S_8  and  C_11 
REMARK    6  A    between atoms: C_14  and  N_17 
ROOT
ATOM      1  C   LIG d   1       4.288  -1.755  -2.324  0.00  0.00     0.051 C 
ATOM      2  C   LIG d   1       4.267  -0.339  -1.923  0.00  0.00     0.064 C 
ATOM      3  N   LIG d   1       4.252   0.754  -1.614  0.00  0.00    -0.197 NA
ATOM      4  H   LIG d   1       5.052  -2.284  -1.753  0.00  0.00     0.043 H 
ATOM      5  H   LIG d   1       3.313  -2.202  -2.128  0.00  0.00     0.043 H 
ENDROOT
BRANCH   1   6
ATOM      6  C   LIG d   1       4.605  -1.858  -3.817  0.00  0.00     0.039 C 
ATOM      7  H   LIG d   1       5.523  -1.312  -4.032  0.00  0.00     0.048 H 
BRANCH   6   8
ATOM      8  C   LIG d   1       4.783  -3.329  -4.200  0.00  0.00    -0.047 C 
ATOM      9  H   LIG d   1       3.963  -3.913  -3.785  0.00  0.00     0.025 H 
ATOM     10  H   LIG d   1       4.784  -3.423  -5.285  0.00  0.00     0.025 H 
ATOM     11  H   LIG d   1       5.729  -3.695  -3.803  0.00  0.00     0.025 H 
ENDBRANCH   6   8
BRANCH   6  12
ATOM     12  N   LIG d   1       3.502  -1.282  -4.591  0.00  0.00    -0.186 N 
ATOM     13  H   LIG d   1       2.602  -1.627  -4.484  0.00  0.00     0.148 HD
BRANCH  12  14
ATOM     14  S   LIG d   1       3.792  -0.040  -5.648  0.00  0.00     0.059 S 
ATOM     15  O   LIG d   1       2.856   0.983  -5.338  0.00  0.00    -0.153 OA
ATOM     16  O   LIG d   1       5.195   0.183  -5.638  0.00  0.00    -0.153 OA
BRANCH  14  17
ATOM     17  C   LIG d   1       3.386  -0.623  -7.261  0.00  0.00     0.106 A 
ATOM     18  C   LIG d   1       3.955  -1.789  -7.737  0.00  0.00    -0.029 A 
ATOM     19  C   LIG d   1       3.636  -2.247  -9.002  0.00  0.00     0.017 A 
ATOM     20  H   LIG d   1       4.648  -2.343  -7.121  0.00  0.00     0.064 H 
ATOM     21  C   LIG d   1       2.747  -1.539  -9.789  0.00  0.00     0.273 A 
ATOM     22  H   LIG d   1       4.080  -3.158  -9.374  0.00  0.00     0.069 H 
ATOM     23  C   LIG d   1       2.178  -0.373  -9.312  0.00  0.00     0.017 A 
ATOM     24  C   LIG d   1       2.494   0.083  -8.046  0.00  0.00    -0.029 A 
ATOM     25  H   LIG d   1       1.484   0.181  -9.928  0.00  0.00     0.069 H 
ATOM     26  H   LIG d   1       2.046   0.991  -7.672  0.00  0.00     0.064 H 
BRANCH  21  27
ATOM     27  N   LIG d   1       2.406  -2.029 -11.144  0.00  0.00     0.080 N 
ATOM     28  O   LIG d   1       1.716  -1.350 -11.881  0.00  0.00     0.041 OA
ATOM     29  O   LIG d   1       2.814  -3.113 -11.520  0.00  0.00    -0.576 OA
ENDBRANCH  21  27
ENDBRANCH  14  17
ENDBRANCH  12  14
ENDBRANCH   6  12
ENDBRANCH   1   6
TORSDOF 6
ENDMDL
MODEL 3
REMARK VINA RESULT:      -5.1      3.124      6.173
REMARK  6 active torsions:
REMARK  status: ('A' for Active; 'I' for Inactive)
REMARK    1  A    between atoms: C_1  and  C_2 
REMARK    2  A    between atoms: C_2  and  C_4 
REMARK    3  A    between atoms: C_2  and  N_7 
REMARK    4  A    between atoms: N_7  and  S_8 
REMARK    5  A    between atoms: S_8  and  C_11 
REMARK    6  A    between atoms: C_14  and  N_17 
ROOT
ATOM      1  C   LIG d   1       4.671   2.518  -9.304  0.00  0.00     0.051 C 
ATOM      2  C   LIG d   1       6.056   2.146  -8.976  0.00  0.00     0.064 C 
ATOM      3  N   LIG d   1       7.126   1.858  -8.722  0.00  0.00    -0.197 NA
ATOM      4  H   LIG d   1       4.209   2.999  -8.441  0.00  0.00     0.043 H 
ATOM      5  H   LIG d   1       4.671   3.208 -10.148  0.00  0.00     0.043 H 
ENDROOT
BRANCH   1   6
ATOM      6  C   LIG d   1       3.879   1.262  -9.672  0.00  0.00     0.039 C 
ATOM      7  H   LIG d   1       2.834   1.397  -9.397  0.00  0.00     0.048 H 
BRANCH   6   8
ATOM      8  C   LIG d   1       3.982   1.018 -11.180  0.00  0.00    -0.047 C 
ATOM      9  H   LIG d   1       4.802   0.329 -11.380  0.00  0.00     0.025 H 
ATOM     10  H   LIG d   1       3.049   0.590 -11.542  0.00  0.00     0.025 H 
ATOM     11  H   LIG d   1       4.170   1.964 -11.689  0.00  0.00     0.025 H 
ENDBRANCH   6   8
BRANCH   6  12
ATOM     12  N   LIG d   1       4.429   0.109  -8.953  0.00  0.00    -0.186 N 
ATOM     13  H   LIG d   1       5.385  -0.051  -8.953  0.00  0.00     0.148 HD
BRANCH  12  14
ATOM     14  S   LIG d   1       3.417  -0.918  -8.139  0.00  0.00     0.059 S 
ATOM     15  O   LIG d   1       2.093  -0.566  -8.516  0.00  0.00    -0.153 OA
ATOM     16  O   LIG d   1       3.937  -2.228  -8.318  0.00  0.00    -0.153 OA
BRANCH  14  17
ATOM     17  C   LIG d   1       3.568  -0.546  -6.423  0.00  0.00     0.106 A 
ATOM     18  C   LIG d   1       2.609   0.227  -5.796  0.00  0.00    -0.029 A 
ATOM     19  C   LIG d   1       2.726   0.519  -4.450  0.00  0.00     0.017 A 
ATOM     20  H   LIG d   1       1.766   0.603  -6.358  0.00  0.00     0.064 H 
ATOM     21  C   LIG d   1       3.804   0.037  -3.731  0.00  0.00     0.273 A 
ATOM     22  H   LIG d   1       1.977   1.123  -3.961  0.00  0.00     0.069 H 
ATOM     23  C   LIG d   1       4.763  -0.737  -4.357  0.00  0.00     0.017 A 
ATOM     24  C   LIG d   1       4.643  -1.032  -5.703  0.00  0.00    -0.029 A 
ATOM     25  H   LIG d   1       5.605  -1.114  -3.795  0.00  0.00     0.069 H 
ATOM     26  H   LIG d   1       5.390  -1.640  -6.191  0.00  0.00     0.064 H 
BRANCH  21  27
ATOM     27  N   LIG d   1       3.930   0.349  -2.289  0.00  0.00     0.080 N 
ATOM     28  O   LIG d   1       3.548   1.423  -1.863  0.00  0.00     0.041 OA
ATOM     29  O   LIG d   1       4.417  -0.469  -1.530  0.00  0.00    -0.576 OA
ENDBRANCH  21  27
ENDBRANCH  14  17
ENDBRANCH  12  14
ENDBRANCH   6  12
ENDBRANCH   1   6
TORSDOF 6
ENDMDL
MODEL 4
REMARK VINA RESULT:      -4.8      4.058      5.531
REMARK  6 active torsions:
REMARK  status: ('A' for Active; 'I' for Inactive)
REMARK    1  A    between atoms: C_1  and  C_2 
REMARK    2  A    between atoms: C_2  and  C_4 
REMARK    3  A    between atoms: C_2  and  N_7 
REMARK    4  A    between atoms: N_7  and  S_8 
REMARK    5  A    between atoms: S_8  and  C_11 
REMARK    6  A    between atoms: C_14  and  N_17 
ROOT
ATOM      1  C   LIG d   1       4.371   0.679  -1.763  0.00  0.00     0.051 C 
ATOM      2  C   LIG d   1       3.802   1.597  -2.763  0.00  0.00     0.064 C 
ATOM      3  N   LIG d   1       3.363   2.306  -3.535  0.00  0.00    -0.197 NA
ATOM      4  H   LIG d   1       5.154   1.190  -1.204  0.00  0.00     0.043 H 
ATOM      5  H   LIG d   1       3.586   0.357  -1.079  0.00  0.00     0.043 H 
ENDROOT
BRANCH   1   6
ATOM      6  C   LIG d   1       4.963  -0.541  -2.471  0.00  0.00     0.039 C 
ATOM      7  H   LIG d   1       5.976  -0.715  -2.110  0.00  0.00     0.048 H 
BRANCH   6   8
ATOM      8  C   LIG d   1       4.099  -1.770  -2.177  0.00  0.00    -0.047 C 
ATOM      9  H   LIG d   1       4.507  -2.634  -2.701  0.00  0.00     0.025 H 
ATOM     10  H   LIG d   1       4.095  -1.963  -1.105  0.00  0.00     0.025 H 
ATOM     11  H   LIG d   1       3.079  -1.587  -2.517  0.00  0.00     0.025 H 
ENDBRANCH   6   8
BRANCH   6  12
ATOM     12  N   LIG d   1       4.994  -0.301  -3.916  0.00  0.00    -0.186 N 
ATOM     13  H   LIG d   1       4.171  -0.112  -4.394  0.00  0.00     0.148 HD
BRANCH  12  14
ATOM     14  S   LIG d   1       6.433  -0.351  -4.733  0.00  0.00     0.059 S 
ATOM     15  O   LIG d   1       6.155   0.043  -6.070  0.00  0.00    -0.153 OA
ATOM     16  O   LIG d   1       7.385   0.325  -3.922  0.00  0.00    -0.153 OA
BRANCH  14  17
ATOM     17  C   LIG d   1       6.936  -2.039  -4.800  0.00  0.00     0.106 A 
ATOM     18  C   LIG d   1       6.320  -2.909  -5.680  0.00  0.00    -0.029 A 
ATOM     19  C   LIG d   1       6.714  -4.232  -5.733  0.00  0.00     0.017 A 
ATOM     20  H   LIG d   1       5.531  -2.554  -6.327  0.00  0.00     0.064 H 
ATOM     21  C   LIG d   1       7.725  -4.686  -4.906  0.00  0.00     0.273 A 
ATOM     22  H   LIG d   1       6.233  -4.912  -6.420  0.00  0.00     0.069 H 
ATOM     23  C   LIG d   1       8.340  -3.816  -4.027  0.00  0.00     0.017 A 
ATOM     24  C   LIG d   1       7.949  -2.490  -3.977  0.00  0.00    -0.029 A 
ATOM     25  H   LIG d   1       9.131  -4.170  -3.380  0.00  0.00     0.069 H 
ATOM     26  H   LIG d   1       8.433  -1.810  -3.293  0.00  0.00     0.064 H 
BRANCH  21  27
ATOM     27  N   LIG d   1       8.147  -6.104  -4.963  0.00  0.00     0.080 N 
ATOM     28  O   LIG d   1       9.203  -6.445  -4.463  0.00  0.00     0.041 OA
ATOM     29  O   LIG d   1       7.437  -6.929  -5.510  0.00  0.00    -0.576 OA
ENDBRANCH  21  27
ENDBRANCH  14  17
ENDBRANCH  12  14
ENDBRANCH   6  12
ENDBRANCH   1   6
TORSDOF 6
ENDMDL
MODEL 5
REMARK VINA RESULT:      -4.8      4.468      7.248
REMARK  6 active torsions:
REMARK  status: ('A' for Active; 'I' for Inactive)
REMARK    1  A    between atoms: C_1  and  C_2 
REMARK    2  A    between atoms: C_2  and  C_4 
REMARK    3  A    between atoms: C_2  and  N_7 
REMARK    4  A    between atoms: N_7  and  S_8 
REMARK    5  A    between atoms: S_8  and  C_11 
REMARK    6  A    between atoms: C_14  and  N_17 
ROOT
ATOM      1  C   LIG d   1       3.790  -1.268  -2.339  0.00  0.00     0.051 C 
ATOM      2  C   LIG d   1       4.078  -2.437  -3.185  0.00  0.00     0.064 C 
ATOM      3  N   LIG d   1       4.301  -3.340  -3.838  0.00  0.00    -0.197 NA
ATOM      4  H   LIG d   1       2.733  -1.014  -2.418  0.00  0.00     0.043 H 
ATOM      5  H   LIG d   1       4.031  -1.502  -1.302  0.00  0.00     0.043 H 
ENDROOT
BRANCH   1   6
ATOM      6  C   LIG d   1       4.636  -0.081  -2.805  0.00  0.00     0.039 C 
ATOM      7  H   LIG d   1       4.208   0.335  -3.716  0.00  0.00     0.048 H 
BRANCH   6   8
ATOM      8  C   LIG d   1       4.653   0.992  -1.713  0.00  0.00    -0.047 C 
ATOM      9  H   LIG d   1       5.358   0.704  -0.933  0.00  0.00     0.025 H 
ATOM     10  H   LIG d   1       4.959   1.944  -2.145  0.00  0.00     0.025 H 
ATOM     11  H   LIG d   1       3.656   1.090  -1.285  0.00  0.00     0.025 H 
ENDBRANCH   6   8
BRANCH   6  12
ATOM     12  N   LIG d   1       6.006  -0.531  -3.069  0.00  0.00    -0.186 N 
ATOM     13  H   LIG d   1       6.541  -0.902  -2.350  0.00  0.00     0.148 HD
BRANCH  12  14
ATOM     14  S   LIG d   1       6.638  -0.407  -4.594  0.00  0.00     0.059 S 
ATOM     15  O   LIG d   1       7.146  -1.691  -4.928  0.00  0.00    -0.153 OA
ATOM     16  O   LIG d   1       5.663   0.257  -5.386  0.00  0.00    -0.153 OA
BRANCH  14  17
ATOM     17  C   LIG d   1       8.027   0.674  -4.495  0.00  0.00     0.106 A 
ATOM     18  C   LIG d   1       7.932   1.860  -3.791  0.00  0.00    -0.029 A 
ATOM     19  C   LIG d   1       9.021   2.707  -3.712  0.00  0.00     0.017 A 
ATOM     20  H   LIG d   1       7.005   2.124  -3.301  0.00  0.00     0.064 H 
ATOM     21  C   LIG d   1      10.206   2.368  -4.337  0.00  0.00     0.273 A 
ATOM     22  H   LIG d   1       8.946   3.633  -3.162  0.00  0.00     0.069 H 
ATOM     23  C   LIG d   1      10.302   1.182  -5.041  0.00  0.00     0.017 A 
ATOM     24  C   LIG d   1       9.213   0.333  -5.116  0.00  0.00    -0.029 A 
ATOM     25  H   LIG d   1      11.228   0.917  -5.530  0.00  0.00     0.069 H 
ATOM     26  H   LIG d   1       9.290  -0.596  -5.662  0.00  0.00     0.064 H 
BRANCH  21  27
ATOM     27  N   LIG d   1      11.373   3.276  -4.253  0.00  0.00     0.080 N 
ATOM     28  O   LIG d   1      11.448   4.240  -4.992  0.00  0.00     0.041 OA
ATOM     29  O   LIG d   1      12.258   3.056  -3.446  0.00  0.00    -0.576 OA
ENDBRANCH  21  27
ENDBRANCH  14  17
ENDBRANCH  12  14
ENDBRANCH   6  12
ENDBRANCH   1   6
TORSDOF 6
ENDMDL
MODEL 6
REMARK VINA RESULT:      -4.6      2.527      6.255
REMARK  6 active torsions:
REMARK  status: ('A' for Active; 'I' for Inactive)
REMARK    1  A    between atoms: C_1  and  C_2 
REMARK    2  A    between atoms: C_2  and  C_4 
REMARK    3  A    between atoms: C_2  and  N_7 
REMARK    4  A    between atoms: N_7  and  S_8 
REMARK    5  A    between atoms: S_8  and  C_11 
REMARK    6  A    between atoms: C_14  and  N_17 
ROOT
ATOM      1  C   LIG d   1       2.974  -2.761 -10.590  0.00  0.00     0.051 C 
ATOM      2  C   LIG d   1       3.312  -3.387  -9.301  0.00  0.00     0.064 C 
ATOM      3  N   LIG d   1       3.572  -3.870  -8.306  0.00  0.00    -0.197 NA
ATOM      4  H   LIG d   1       3.809  -2.878 -11.280  0.00  0.00     0.043 H 
ATOM      5  H   LIG d   1       2.089  -3.241 -11.005  0.00  0.00     0.043 H 
ENDROOT
BRANCH   1   6
ATOM      6  C   LIG d   1       2.695  -1.273 -10.375  0.00  0.00     0.039 C 
ATOM      7  H   LIG d   1       3.527  -0.686 -10.762  0.00  0.00     0.048 H 
BRANCH   6   8
ATOM      8  C   LIG d   1       1.411  -0.883 -11.112  0.00  0.00    -0.047 C 
ATOM      9  H   LIG d   1       1.656  -0.222 -11.942  0.00  0.00     0.025 H 
ATOM     10  H   LIG d   1       0.925  -1.781 -11.493  0.00  0.00     0.025 H 
ATOM     11  H   LIG d   1       0.739  -0.370 -10.424  0.00  0.00     0.025 H 
ENDBRANCH   6   8
BRANCH   6  12
ATOM     12  N   LIG d   1       2.534  -1.007  -8.942  0.00  0.00    -0.186 N 
ATOM     13  H   LIG d   1       1.918  -1.539  -8.417  0.00  0.00     0.148 HD
BRANCH  12  14
ATOM     14  S   LIG d   1       3.408   0.202  -8.222  0.00  0.00     0.059 S 
ATOM     15  O   LIG d   1       4.714   0.145  -8.779  0.00  0.00    -0.153 OA
ATOM     16  O   LIG d   1       2.605   1.373  -8.277  0.00  0.00    -0.153 OA
BRANCH  14  17
ATOM     17  C   LIG d   1       3.569  -0.218  -6.518  0.00  0.00     0.106 A 
ATOM     18  C   LIG d   1       2.738   0.366  -5.580  0.00  0.00    -0.029 A 
ATOM     19  C   LIG d   1       2.863   0.037  -4.244  0.00  0.00     0.017 A 
ATOM     20  H   LIG d   1       1.990   1.080  -5.892  0.00  0.00     0.064 H 
ATOM     21  C   LIG d   1       3.820  -0.878  -3.845  0.00  0.00     0.273 A 
ATOM     22  H   LIG d   1       2.215   0.493  -3.512  0.00  0.00     0.069 H 
ATOM     23  C   LIG d   1       4.651  -1.462  -4.782  0.00  0.00     0.017 A 
ATOM     24  C   LIG d   1       4.522  -1.136  -6.120  0.00  0.00    -0.029 A 
ATOM     25  H   LIG d   1       5.399  -2.177  -4.471  0.00  0.00     0.069 H 
ATOM     26  H   LIG d   1       5.169  -1.596  -6.852  0.00  0.00     0.064 H 
BRANCH  21  27
ATOM     27  N   LIG d   1       3.955  -1.231  -2.413  0.00  0.00     0.080 N 
ATOM     28  O   LIG d   1       4.329  -0.394  -1.613  0.00  0.00     0.041 OA
ATOM     29  O   LIG d   1       3.692  -2.359  -2.037  0.00  0.00    -0.576 OA
ENDBRANCH  21  27
ENDBRANCH  14  17
ENDBRANCH  12  14
ENDBRANCH   6  12
ENDBRANCH   1   6
TORSDOF 6
ENDMDL
MODEL 7
REMARK VINA RESULT:      -4.6      3.322      6.252
REMARK  6 active torsions:
REMARK  status: ('A' for Active; 'I' for Inactive)
REMARK    1  A    between atoms: C_1  and  C_2 
REMARK    2  A    between atoms: C_2  and  C_4 
REMARK    3  A    between atoms: C_2  and  N_7 
REMARK    4  A    between atoms: N_7  and  S_8 
REMARK    5  A    between atoms: S_8  and  C_11 
REMARK    6  A    between atoms: C_14  and  N_17 
ROOT
ATOM      1  C   LIG d   1       3.675  -3.157  -8.816  0.00  0.00     0.051 C 
ATOM      2  C   LIG d   1       4.907  -2.411  -9.118  0.00  0.00     0.064 C 
ATOM      3  N   LIG d   1       5.859  -1.836  -9.351  0.00  0.00    -0.197 NA
ATOM      4  H   LIG d   1       2.988  -2.516  -8.264  0.00  0.00     0.043 H 
ATOM      5  H   LIG d   1       3.206  -3.476  -9.747  0.00  0.00     0.043 H 
ENDROOT
BRANCH   1   6
ATOM      6  C   LIG d   1       4.017  -4.385  -7.971  0.00  0.00     0.039 C 
ATOM      7  H   LIG d   1       3.160  -4.650  -7.351  0.00  0.00     0.048 H 
BRANCH   6   8
ATOM      8  C   LIG d   1       4.362  -5.558  -8.891  0.00  0.00    -0.047 C 
ATOM      9  H   LIG d   1       5.045  -5.220  -9.669  0.00  0.00     0.025 H 
ATOM     10  H   LIG d   1       4.835  -6.349  -8.310  0.00  0.00     0.025 H 
ATOM     11  H   LIG d   1       3.449  -5.941  -9.350  0.00  0.00     0.025 H 
ENDBRANCH   6   8
BRANCH   6  12
ATOM     12  N   LIG d   1       5.166  -4.084  -7.113  0.00  0.00    -0.186 N 
ATOM     13  H   LIG d   1       5.986  -3.744  -7.503  0.00  0.00     0.148 HD
BRANCH  12  14
ATOM     14  S   LIG d   1       5.064  -4.322  -5.477  0.00  0.00     0.059 S 
ATOM     15  O   LIG d   1       3.939  -5.163  -5.259  0.00  0.00    -0.153 OA
ATOM     16  O   LIG d   1       6.369  -4.666  -5.034  0.00  0.00    -0.153 OA
BRANCH  14  17
ATOM     17  C   LIG d   1       4.678  -2.765  -4.748  0.00  0.00     0.106 A 
ATOM     18  C   LIG d   1       4.689  -1.618  -5.519  0.00  0.00    -0.029 A 
ATOM     19  C   LIG d   1       4.385  -0.397  -4.948  0.00  0.00     0.017 A 
ATOM     20  H   LIG d   1       4.934  -1.677  -6.570  0.00  0.00     0.064 H 
ATOM     21  C   LIG d   1       4.070  -0.323  -3.604  0.00  0.00     0.273 A 
ATOM     22  H   LIG d   1       4.394   0.499  -5.551  0.00  0.00     0.069 H 
ATOM     23  C   LIG d   1       4.059  -1.469  -2.832  0.00  0.00     0.017 A 
ATOM     24  C   LIG d   1       4.358  -2.692  -3.405  0.00  0.00    -0.029 A 
ATOM     25  H   LIG d   1       3.813  -1.411  -1.782  0.00  0.00     0.069 H 
ATOM     26  H   LIG d   1       4.345  -3.588  -2.803  0.00  0.00     0.064 H 
BRANCH  21  27
ATOM     27  N   LIG d   1       3.745   0.985  -2.992  0.00  0.00     0.080 N 
ATOM     28  O   LIG d   1       3.811   1.125  -1.785  0.00  0.00     0.041 OA
ATOM     29  O   LIG d   1       3.411   1.921  -3.696  0.00  0.00    -0.576 OA
ENDBRANCH  21  27
ENDBRANCH  14  17
ENDBRANCH  12  14
ENDBRANCH   6  12
ENDBRANCH   1   6
TORSDOF 6
ENDMDL
MODEL 8
REMARK VINA RESULT:      -4.6      9.961     11.099
REMARK  6 active torsions:
REMARK  status: ('A' for Active; 'I' for Inactive)
REMARK    1  A    between atoms: C_1  and  C_2 
REMARK    2  A    between atoms: C_2  and  C_4 
REMARK    3  A    between atoms: C_2  and  N_7 
REMARK    4  A    between atoms: N_7  and  S_8 
REMARK    5  A    between atoms: S_8  and  C_11 
REMARK    6  A    between atoms: C_14  and  N_17 
ROOT
ATOM      1  C   LIG d   1      11.284   7.556   0.022  0.00  0.00     0.051 C 
ATOM      2  C   LIG d   1       9.926   7.819  -0.481  0.00  0.00     0.064 C 
ATOM      3  N   LIG d   1       8.877   8.021  -0.869  0.00  0.00    -0.197 NA
ATOM      4  H   LIG d   1      12.015   7.882  -0.718  0.00  0.00     0.043 H 
ATOM      5  H   LIG d   1      11.438   8.103   0.952  0.00  0.00     0.043 H 
ENDROOT
BRANCH   1   6
ATOM      6  C   LIG d   1      11.452   6.058   0.278  0.00  0.00     0.039 C 
ATOM      7  H   LIG d   1      12.499   5.783   0.157  0.00  0.00     0.048 H 
BRANCH   6   8
ATOM      8  C   LIG d   1      11.001   5.730   1.704  0.00  0.00    -0.047 C 
ATOM      9  H   LIG d   1      10.946   6.649   2.286  0.00  0.00     0.025 H 
ATOM     10  H   LIG d   1      10.020   5.259   1.675  0.00  0.00     0.025 H 
ATOM     11  H   LIG d   1      11.718   5.050   2.164  0.00  0.00     0.025 H 
ENDBRANCH   6   8
BRANCH   6  12
ATOM     12  N   LIG d   1      10.635   5.304  -0.677  0.00  0.00    -0.186 N 
ATOM     13  H   LIG d   1       9.714   5.088  -0.462  0.00  0.00     0.148 HD
BRANCH  12  14
ATOM     14  S   LIG d   1      11.284   4.823  -2.123  0.00  0.00     0.059 S 
ATOM     15  O   LIG d   1      12.690   4.996  -2.014  0.00  0.00    -0.153 OA
ATOM     16  O   LIG d   1      10.693   3.570  -2.437  0.00  0.00    -0.153 OA
BRANCH  14  17
ATOM     17  C   LIG d   1      10.729   5.963  -3.347  0.00  0.00     0.106 A 
ATOM     18  C   LIG d   1      11.508   7.055  -3.678  0.00  0.00    -0.029 A 
ATOM     19  C   LIG d   1      11.074   7.949  -4.639  0.00  0.00     0.017 A 
ATOM     20  H   LIG d   1      12.458   7.210  -3.187  0.00  0.00     0.064 H 
ATOM     21  C   LIG d   1       9.860   7.750  -5.269  0.00  0.00     0.273 A 
ATOM     22  H   LIG d   1      11.683   8.802  -4.898  0.00  0.00     0.069 H 
ATOM     23  C   LIG d   1       9.080   6.658  -4.938  0.00  0.00     0.017 A 
ATOM     24  C   LIG d   1       9.517   5.761  -3.980  0.00  0.00    -0.029 A 
ATOM     25  H   LIG d   1       8.131   6.502  -5.430  0.00  0.00     0.069 H 
ATOM     26  H   LIG d   1       8.910   4.905  -3.725  0.00  0.00     0.064 H 
BRANCH  21  27
ATOM     27  N   LIG d   1       9.394   8.708  -6.297  0.00  0.00     0.080 N 
ATOM     28  O   LIG d   1       9.482   9.905  -6.099  0.00  0.00     0.041 OA
ATOM     29  O   LIG d   1       8.922   8.297  -7.342  0.00  0.00    -0.576 OA
ENDBRANCH  21  27
ENDBRANCH  14  17
ENDBRANCH  12  14
ENDBRANCH   6  12
ENDBRANCH   1   6
TORSDOF 6
ENDMDL
MODEL 9
REMARK VINA RESULT:      -4.5      5.184      7.141
REMARK  6 active torsions:
REMARK  status: ('A' for Active; 'I' for Inactive)
REMARK    1  A    between atoms: C_1  and  C_2 
REMARK    2  A    between atoms: C_2  and  C_4 
REMARK    3  A    between atoms: C_2  and  N_7 
REMARK    4  A    between atoms: N_7  and  S_8 
REMARK    5  A    between atoms: S_8  and  C_11 
REMARK    6  A    between atoms: C_14  and  N_17 
ROOT
ATOM      1  C   LIG d   1      11.796  -4.349  -3.400  0.00  0.00     0.051 C 
ATOM      2  C   LIG d   1      12.432  -3.205  -4.076  0.00  0.00     0.064 C 
ATOM      3  N   LIG d   1      12.922  -2.323  -4.597  0.00  0.00    -0.197 NA
ATOM      4  H   LIG d   1      12.074  -5.272  -3.909  0.00  0.00     0.043 H 
ATOM      5  H   LIG d   1      12.131  -4.389  -2.364  0.00  0.00     0.043 H 
ENDROOT
BRANCH   1   6
ATOM      6  C   LIG d   1      10.276  -4.183  -3.439  0.00  0.00     0.039 C 
ATOM      7  H   LIG d   1       9.850  -4.901  -4.138  0.00  0.00     0.048 H 
BRANCH   6   8
ATOM      8  C   LIG d   1       9.701  -4.427  -2.042  0.00  0.00    -0.047 C 
ATOM      9  H   LIG d   1       9.306  -3.493  -1.644  0.00  0.00     0.025 H 
ATOM     10  H   LIG d   1       8.901  -5.164  -2.103  0.00  0.00     0.025 H 
ATOM     11  H   LIG d   1      10.488  -4.798  -1.385  0.00  0.00     0.025 H 
ENDBRANCH   6   8
BRANCH   6  12
ATOM     12  N   LIG d   1       9.944  -2.823  -3.873  0.00  0.00    -0.186 N 
ATOM     13  H   LIG d   1      10.431  -2.066  -3.511  0.00  0.00     0.148 HD
BRANCH  12  14
ATOM     14  S   LIG d   1       8.737  -2.579  -4.980  0.00  0.00     0.059 S 
ATOM     15  O   LIG d   1       9.323  -1.881  -6.071  0.00  0.00    -0.153 OA
ATOM     16  O   LIG d   1       8.074  -3.825  -5.141  0.00  0.00    -0.153 OA
BRANCH  14  17
ATOM     17  C   LIG d   1       7.572  -1.479  -4.247  0.00  0.00     0.106 A 
ATOM     18  C   LIG d   1       6.451  -1.982  -3.613  0.00  0.00    -0.029 A 
ATOM     19  C   LIG d   1       5.537  -1.120  -3.036  0.00  0.00     0.017 A 
ATOM     20  H   LIG d   1       6.290  -3.049  -3.566  0.00  0.00     0.064 H 
ATOM     21  C   LIG d   1       5.744   0.246  -3.094  0.00  0.00     0.273 A 
ATOM     22  H   LIG d   1       4.662  -1.513  -2.541  0.00  0.00     0.069 H 
ATOM     23  C   LIG d   1       6.865   0.748  -3.728  0.00  0.00     0.017 A 
ATOM     24  C   LIG d   1       7.781  -0.114  -4.301  0.00  0.00    -0.029 A 
ATOM     25  H   LIG d   1       7.027   1.816  -3.774  0.00  0.00     0.069 H 
ATOM     26  H   LIG d   1       8.659   0.278  -4.792  0.00  0.00     0.064 H 
BRANCH  21  27
ATOM     27  N   LIG d   1       4.765   1.169  -2.477  0.00  0.00     0.080 N 
ATOM     28  O   LIG d   1       3.964   1.761  -3.176  0.00  0.00     0.041 OA
ATOM     29  O   LIG d   1       4.763   1.337  -1.271  0.00  0.00    -0.576 OA
ENDBRANCH  21  27
ENDBRANCH  14  17
ENDBRANCH  12  14
ENDBRANCH   6  12
ENDBRANCH   1   6
TORSDOF 6
ENDMDL
MODEL 10
REMARK VINA RESULT:      -4.5     12.563     14.662
REMARK  6 active torsions:
REMARK  status: ('A' for Active; 'I' for Inactive)
REMARK    1  A    between atoms: C_1  and  C_2 
REMARK    2  A    between atoms: C_2  and  C_4 
REMARK    3  A    between atoms: C_2  and  N_7 
REMARK    4  A    between atoms: N_7  and  S_8 
REMARK    5  A    between atoms: S_8  and  C_11 
REMARK    6  A    between atoms: C_14  and  N_17 
ROOT
ATOM      1  C   LIG d   1      10.404  11.433  -7.017  0.00  0.00     0.051 C 
ATOM      2  C   LIG d   1       9.676  12.570  -7.603  0.00  0.00     0.064 C 
ATOM      3  N   LIG d   1       9.113  13.448  -8.055  0.00  0.00    -0.197 NA
ATOM      4  H   LIG d   1      10.498  10.640  -7.759  0.00  0.00     0.043 H 
ATOM      5  H   LIG d   1      11.397  11.759  -6.706  0.00  0.00     0.043 H 
ENDROOT
BRANCH   1   6
ATOM      6  C   LIG d   1       9.636  10.907  -5.803  0.00  0.00     0.039 C 
ATOM      7  H   LIG d   1       8.649  11.368  -5.770  0.00  0.00     0.048 H 
BRANCH   6   8
ATOM      8  C   LIG d   1       9.487   9.388  -5.914  0.00  0.00    -0.047 C 
ATOM      9  H   LIG d   1       8.430   9.133  -5.991  0.00  0.00     0.025 H 
ATOM     10  H   LIG d   1      10.012   9.035  -6.800  0.00  0.00     0.025 H 
ATOM     11  H   LIG d   1       9.911   8.916  -5.027  0.00  0.00     0.025 H 
ENDBRANCH   6   8
BRANCH   6  12
ATOM     12  N   LIG d   1      10.372  11.237  -4.579  0.00  0.00    -0.186 N 
ATOM     13  H   LIG d   1      11.341  11.242  -4.582  0.00  0.00     0.148 HD
BRANCH  12  14
ATOM     14  S   LIG d   1       9.546  11.604  -3.191  0.00  0.00     0.059 S 
ATOM     15  O   LIG d   1      10.101  12.816  -2.697  0.00  0.00    -0.153 OA
ATOM     16  O   LIG d   1       8.164  11.465  -3.491  0.00  0.00    -0.153 OA
BRANCH  14  17
ATOM     17  C   LIG d   1       9.933  10.355  -2.009  0.00  0.00     0.106 A 
ATOM     18  C   LIG d   1      10.247  10.707  -0.710  0.00  0.00    -0.029 A 
ATOM     19  C   LIG d   1      10.550   9.728   0.218  0.00  0.00     0.017 A 
ATOM     20  H   LIG d   1      10.254  11.747  -0.418  0.00  0.00     0.064 H 
ATOM     21  C   LIG d   1      10.539   8.397  -0.155  0.00  0.00     0.273 A 
ATOM     22  H   LIG d   1      10.795  10.002   1.233  0.00  0.00     0.069 H 
ATOM     23  C   LIG d   1      10.225   8.045  -1.455  0.00  0.00     0.017 A 
ATOM     24  C   LIG d   1       9.917   9.025  -2.381  0.00  0.00    -0.029 A 
ATOM     25  H   LIG d   1      10.216   7.005  -1.746  0.00  0.00     0.069 H 
ATOM     26  H   LIG d   1       9.668   8.750  -3.395  0.00  0.00     0.064 H 
BRANCH  21  27
ATOM     27  N   LIG d   1      10.863   7.347   0.838  0.00  0.00     0.080 N 
ATOM     28  O   LIG d   1      10.521   6.196   0.641  0.00  0.00     0.041 OA
ATOM     29  O   LIG d   1      11.473   7.637   1.852  0.00  0.00    -0.576 OA
ENDBRANCH  21  27
ENDBRANCH  14  17
ENDBRANCH  12  14
ENDBRANCH   6  12
ENDBRANCH   1   6
TORSDOF 6
ENDMDL
