MODEL 1
REMARK VINA RESULT:      -7.9      0.000      0.000
REMARK  8 active torsions:
REMARK  status: ('A' for Active; 'I' for Inactive)
REMARK    1  A    between atoms: C_1  and  C_2 
REMARK    2  A    between atoms: C_16  and  C_19 
REMARK    3  A    between atoms: C_19  and  C_20 
REMARK    4  A    between atoms: C_20  and  C_21 
REMARK       I    between atoms: C_21  and  N_23 
REMARK    5  A    between atoms: N_26  and  C_29 
REMARK    6  A    between atoms: C_29  and  C_30 
REMARK    7  A    between atoms: C_33  and  O_36 
REMARK    8  A    between atoms: O_36  and  C_37 
ROOT
ATOM      1  C   LIG d   1       7.934  -5.269  -4.935  0.00  0.00    -0.029 A 
ATOM      2  C   LIG d   1       8.753  -4.612  -4.040  0.00  0.00    -0.057 A 
ATOM      3  C   LIG d   1       8.432  -3.339  -3.605  0.00  0.00    -0.061 A 
ATOM      4  C   LIG d   1       7.284  -2.721  -4.069  0.00  0.00    -0.051 A 
ATOM      5  C   LIG d   1       6.465  -3.373  -4.963  0.00  0.00     0.034 A 
ATOM      6  C   LIG d   1       6.779  -4.652  -5.412  0.00  0.00     0.046 A 
ATOM      7  N   LIG d   1       5.810  -5.101  -6.311  0.00  0.00    -0.280 N 
ATOM      8  C   LIG d   1       4.840  -4.187  -6.509  0.00  0.00     0.274 A 
ATOM      9  O   LIG d   1       3.875  -4.301  -7.235  0.00  0.00    -0.269 OA
ATOM     10  C   LIG d   1       5.179  -3.003  -5.646  0.00  0.00     0.106 A 
ATOM     11  C   LIG d   1       5.337  -1.733  -6.490  0.00  0.00     0.111 A 
ATOM     12  H   LIG d   1       6.366  -1.565  -6.807  0.00  0.00     0.047 H 
ATOM     13  C   LIG d   1       4.790  -0.593  -5.585  0.00  0.00     0.096 A 
ATOM     14  H   LIG d   1       5.517   0.203  -5.424  0.00  0.00     0.046 H 
ATOM     15  C   LIG d   1       4.374  -1.293  -4.274  0.00  0.00    -0.009 C 
ATOM     16  H   LIG d   1       5.178  -1.228  -3.539  0.00  0.00     0.086 H 
ATOM     17  N   LIG d   1       4.114  -2.709  -4.669  0.00  0.00     0.245 N 
ATOM     18  C   LIG d   1       3.561  -0.119  -6.326  0.00  0.00     0.232 A 
ATOM     19  O   LIG d   1       2.822   0.771  -5.959  0.00  0.00    -0.275 OA
ATOM     20  N   LIG d   1       3.416  -0.831  -7.448  0.00  0.00    -0.237 N 
ATOM     21  C   LIG d   1       4.368  -1.770  -7.650  0.00  0.00     0.233 A 
ATOM     22  O   LIG d   1       4.441  -2.522  -8.599  0.00  0.00    -0.275 OA
ATOM     23  H   LIG d   1       9.648  -5.094  -3.677  0.00  0.00     0.062 H 
ATOM     24  H   LIG d   1       9.076  -2.828  -2.904  0.00  0.00     0.062 H 
ATOM     25  H   LIG d   1       7.031  -1.728  -3.730  0.00  0.00     0.062 H 
ATOM     26  H   LIG d   1       5.833  -5.968  -6.745  0.00  0.00     0.155 HD
ATOM     27  H   LIG d   1       3.206  -2.805  -5.098  0.00  0.00     0.203 HD
ATOM     28  H   LIG d   1       4.193  -3.315  -3.867  0.00  0.00     0.203 HD
ENDROOT
BRANCH  20  29
ATOM     29  C   LIG d   1       2.316  -0.609  -8.391  0.00  0.00     0.047 C 
ATOM     30  H   LIG d   1       1.626  -1.452  -8.349  0.00  0.00     0.052 H 
ATOM     31  H   LIG d   1       1.788   0.307  -8.124  0.00  0.00     0.052 H 
BRANCH  29  32
ATOM     32  C   LIG d   1       2.869  -0.480  -9.786  0.00  0.00    -0.029 A 
ATOM     33  C   LIG d   1       2.454  -1.353 -10.776  0.00  0.00    -0.054 A 
ATOM     34  C   LIG d   1       2.955  -1.234 -12.058  0.00  0.00    -0.020 A 
ATOM     35  H   LIG d   1       1.734  -2.126 -10.548  0.00  0.00     0.062 H 
ATOM     36  C   LIG d   1       3.883  -0.245 -12.350  0.00  0.00     0.120 A 
ATOM     37  H   LIG d   1       2.627  -1.912 -12.831  0.00  0.00     0.065 H 
ATOM     38  C   LIG d   1       4.302   0.625 -11.354  0.00  0.00    -0.020 A 
ATOM     39  C   LIG d   1       3.794   0.506 -10.075  0.00  0.00    -0.054 A 
ATOM     40  H   LIG d   1       5.024   1.396 -11.579  0.00  0.00     0.065 H 
ATOM     41  H   LIG d   1       4.120   1.183  -9.299  0.00  0.00     0.062 H 
BRANCH  36  42
ATOM     42  O   LIG d   1       4.381  -0.129 -13.609  0.00  0.00    -0.495 OA
BRANCH  42  43
ATOM     43  C   LIG d   1       3.910  -1.064 -14.581  0.00  0.00     0.079 C 
ATOM     44  H   LIG d   1       4.310  -2.053 -14.358  0.00  0.00     0.066 H 
ATOM     45  H   LIG d   1       2.821  -1.098 -14.555  0.00  0.00     0.066 H 
ATOM     46  H   LIG d   1       4.240  -0.755 -15.573  0.00  0.00     0.066 H 
ENDBRANCH  42  43
ENDBRANCH  36  42
ENDBRANCH  29  32
ENDBRANCH  20  29
BRANCH  15  47
ATOM     47  C   LIG d   1       3.095  -0.664  -3.718  0.00  0.00    -0.001 C 
ATOM     48  H   LIG d   1       2.734   0.098  -4.409  0.00  0.00     0.033 H 
ATOM     49  H   LIG d   1       2.334  -1.435  -3.598  0.00  0.00     0.033 H 
BRANCH  47  50
ATOM     50  C   LIG d   1       3.391  -0.024  -2.360  0.00  0.00     0.029 C 
ATOM     51  H   LIG d   1       2.452   0.193  -1.848  0.00  0.00     0.036 H 
ATOM     52  H   LIG d   1       3.985  -0.710  -1.757  0.00  0.00     0.036 H 
BRANCH  50  53
ATOM     53  C   LIG d   1       4.157   1.257  -2.566  0.00  0.00     0.211 C 
ATOM     54  O   LIG d   1       5.202   1.441  -1.979  0.00  0.00    -0.276 OA
ATOM     55  N   LIG d   1       3.679   2.201  -3.402  0.00  0.00    -0.329 N 
ATOM     56  H   LIG d   1       2.843   2.054  -3.872  0.00  0.00     0.145 HD
ATOM     57  H   LIG d   1       4.172   3.026  -3.534  0.00  0.00     0.145 HD
ENDBRANCH  50  53
ENDBRANCH  47  50
ENDBRANCH  15  47
BRANCH   1  58
ATOM     58  C   LIG d   1       8.293  -6.655  -5.403  0.00  0.00    -0.038 C 
ATOM     59  H   LIG d   1       8.862  -6.590  -6.330  0.00  0.00     0.028 H 
ATOM     60  H   LIG d   1       8.894  -7.152  -4.642  0.00  0.00     0.028 H 
ATOM     61  H   LIG d   1       7.381  -7.227  -5.577  0.00  0.00     0.028 H 
ENDBRANCH   1  58
TORSDOF 8
ENDMDL
MODEL 2
REMARK VINA RESULT:      -7.4      3.330      6.551
REMARK  8 active torsions:
REMARK  status: ('A' for Active; 'I' for Inactive)
REMARK    1  A    between atoms: C_1  and  C_2 
REMARK    2  A    between atoms: C_16  and  C_19 
REMARK    3  A    between atoms: C_19  and  C_20 
REMARK    4  A    between atoms: C_20  and  C_21 
REMARK       I    between atoms: C_21  and  N_23 
REMARK    5  A    between atoms: N_26  and  C_29 
REMARK    6  A    between atoms: C_29  and  C_30 
REMARK    7  A    between atoms: C_33  and  O_36 
REMARK    8  A    between atoms: O_36  and  C_37 
ROOT
ATOM      1  C   LIG d   1       3.285  -3.613  -9.179  0.00  0.00    -0.029 A 
ATOM      2  C   LIG d   1       3.418  -4.938  -8.817  0.00  0.00    -0.057 A 
ATOM      3  C   LIG d   1       3.968  -5.275  -7.593  0.00  0.00    -0.061 A 
ATOM      4  C   LIG d   1       4.387  -4.278  -6.728  0.00  0.00    -0.051 A 
ATOM      5  C   LIG d   1       4.256  -2.956  -7.087  0.00  0.00     0.034 A 
ATOM      6  C   LIG d   1       3.709  -2.604  -8.317  0.00  0.00     0.046 A 
ATOM      7  N   LIG d   1       3.686  -1.215  -8.458  0.00  0.00    -0.280 N 
ATOM      8  C   LIG d   1       4.198  -0.588  -7.381  0.00  0.00     0.274 A 
ATOM      9  O   LIG d   1       4.308   0.609  -7.224  0.00  0.00    -0.269 OA
ATOM     10  C   LIG d   1       4.597  -1.661  -6.405  0.00  0.00     0.106 A 
ATOM     11  C   LIG d   1       6.092  -1.577  -6.074  0.00  0.00     0.111 A 
ATOM     12  H   LIG d   1       6.702  -2.200  -6.728  0.00  0.00     0.047 H 
ATOM     13  C   LIG d   1       6.184  -1.998  -4.580  0.00  0.00     0.096 A 
ATOM     14  H   LIG d   1       6.858  -2.839  -4.419  0.00  0.00     0.046 H 
ATOM     15  C   LIG d   1       4.731  -2.313  -4.166  0.00  0.00    -0.009 C 
ATOM     16  H   LIG d   1       4.536  -3.382  -4.255  0.00  0.00     0.086 H 
ATOM     17  N   LIG d   1       3.890  -1.527  -5.118  0.00  0.00     0.245 N 
ATOM     18  C   LIG d   1       6.653  -0.737  -3.891  0.00  0.00     0.232 A 
ATOM     19  O   LIG d   1       6.853  -0.623  -2.701  0.00  0.00    -0.275 OA
ATOM     20  N   LIG d   1       6.813   0.232  -4.798  0.00  0.00    -0.237 N 
ATOM     21  C   LIG d   1       6.531  -0.131  -6.071  0.00  0.00     0.233 A 
ATOM     22  O   LIG d   1       6.613   0.578  -7.052  0.00  0.00    -0.275 OA
ATOM     23  H   LIG d   1       3.090  -5.716  -9.491  0.00  0.00     0.062 H 
ATOM     24  H   LIG d   1       4.071  -6.312  -7.313  0.00  0.00     0.062 H 
ATOM     25  H   LIG d   1       4.816  -4.538  -5.773  0.00  0.00     0.062 H 
ATOM     26  H   LIG d   1       3.344  -0.755  -9.240  0.00  0.00     0.155 HD
ATOM     27  H   LIG d   1       3.840  -0.558  -4.842  0.00  0.00     0.203 HD
ATOM     28  H   LIG d   1       2.966  -1.927  -5.178  0.00  0.00     0.203 HD
ENDROOT
BRANCH  20  29
ATOM     29  C   LIG d   1       7.264   1.581  -4.446  0.00  0.00     0.047 C 
ATOM     30  H   LIG d   1       6.990   2.275  -5.241  0.00  0.00     0.052 H 
ATOM     31  H   LIG d   1       6.791   1.890  -3.513  0.00  0.00     0.052 H 
BRANCH  29  32
ATOM     32  C   LIG d   1       8.761   1.580  -4.272  0.00  0.00    -0.029 A 
ATOM     33  C   LIG d   1       9.539   0.691  -4.991  0.00  0.00    -0.054 A 
ATOM     34  C   LIG d   1      10.911   0.691  -4.838  0.00  0.00    -0.020 A 
ATOM     35  H   LIG d   1       9.073  -0.003  -5.675  0.00  0.00     0.062 H 
ATOM     36  C   LIG d   1      11.510   1.579  -3.955  0.00  0.00     0.120 A 
ATOM     37  H   LIG d   1      11.518   0.000  -5.403  0.00  0.00     0.065 H 
ATOM     38  C   LIG d   1      10.727   2.467  -3.231  0.00  0.00    -0.020 A 
ATOM     39  C   LIG d   1       9.355   2.465  -3.391  0.00  0.00    -0.054 A 
ATOM     40  H   LIG d   1      11.190   3.158  -2.543  0.00  0.00     0.065 H 
ATOM     41  H   LIG d   1       8.745   3.156  -2.828  0.00  0.00     0.062 H 
BRANCH  36  42
ATOM     42  O   LIG d   1      12.860   1.578  -3.799  0.00  0.00    -0.495 OA
BRANCH  42  43
ATOM     43  C   LIG d   1      13.508   0.306  -3.771  0.00  0.00     0.079 C 
ATOM     44  H   LIG d   1      12.766  -0.477  -3.617  0.00  0.00     0.066 H 
ATOM     45  H   LIG d   1      14.022   0.139  -4.718  0.00  0.00     0.066 H 
ATOM     46  H   LIG d   1      14.231   0.285  -2.956  0.00  0.00     0.066 H 
ENDBRANCH  42  43
ENDBRANCH  36  42
ENDBRANCH  29  32
ENDBRANCH  20  29
BRANCH  15  47
ATOM     47  C   LIG d   1       4.473  -1.842  -2.733  0.00  0.00    -0.001 C 
ATOM     48  H   LIG d   1       4.293  -2.707  -2.094  0.00  0.00     0.033 H 
ATOM     49  H   LIG d   1       5.342  -1.295  -2.369  0.00  0.00     0.033 H 
BRANCH  47  50
ATOM     50  C   LIG d   1       3.247  -0.927  -2.711  0.00  0.00     0.029 C 
ATOM     51  H   LIG d   1       2.638  -1.113  -3.596  0.00  0.00     0.036 H 
ATOM     52  H   LIG d   1       2.659  -1.128  -1.816  0.00  0.00     0.036 H 
BRANCH  50  53
ATOM     53  C   LIG d   1       3.696   0.512  -2.705  0.00  0.00     0.211 C 
ATOM     54  O   LIG d   1       3.452   1.228  -3.653  0.00  0.00    -0.276 OA
ATOM     55  N   LIG d   1       4.371   1.002  -1.646  0.00  0.00    -0.329 N 
ATOM     56  H   LIG d   1       4.566   0.430  -0.888  0.00  0.00     0.145 HD
ATOM     57  H   LIG d   1       4.660   1.929  -1.642  0.00  0.00     0.145 HD
ENDBRANCH  50  53
ENDBRANCH  47  50
ENDBRANCH  15  47
BRANCH   1  58
ATOM     58  C   LIG d   1       2.684  -3.257 -10.515  0.00  0.00    -0.038 C 
ATOM     59  H   LIG d   1       3.458  -3.290 -11.281  0.00  0.00     0.028 H 
ATOM     60  H   LIG d   1       1.898  -3.970 -10.762  0.00  0.00     0.028 H 
ATOM     61  H   LIG d   1       2.262  -2.253 -10.467  0.00  0.00     0.028 H 
ENDBRANCH   1  58
TORSDOF 8
ENDMDL
MODEL 3
REMARK VINA RESULT:      -7.2      2.692      7.592
REMARK  8 active torsions:
REMARK  status: ('A' for Active; 'I' for Inactive)
REMARK    1  A    between atoms: C_1  and  C_2 
REMARK    2  A    between atoms: C_16  and  C_19 
REMARK    3  A    between atoms: C_19  and  C_20 
REMARK    4  A    between atoms: C_20  and  C_21 
REMARK       I    between atoms: C_21  and  N_23 
REMARK    5  A    between atoms: N_26  and  C_29 
REMARK    6  A    between atoms: C_29  and  C_30 
REMARK    7  A    between atoms: C_33  and  O_36 
REMARK    8  A    between atoms: O_36  and  C_37 
ROOT
ATOM      1  C   LIG d   1       3.995   0.236  -9.872  0.00  0.00    -0.029 A 
ATOM      2  C   LIG d   1       2.689   0.187  -9.429  0.00  0.00    -0.057 A 
ATOM      3  C   LIG d   1       2.411  -0.105  -8.106  0.00  0.00    -0.061 A 
ATOM      4  C   LIG d   1       3.448  -0.350  -7.222  0.00  0.00    -0.051 A 
ATOM      5  C   LIG d   1       4.752  -0.303  -7.660  0.00  0.00     0.034 A 
ATOM      6  C   LIG d   1       5.044  -0.015  -8.990  0.00  0.00     0.046 A 
ATOM      7  N   LIG d   1       6.425  -0.031  -9.196  0.00  0.00    -0.280 N 
ATOM      8  C   LIG d   1       7.103  -0.322  -8.069  0.00  0.00     0.274 A 
ATOM      9  O   LIG d   1       8.307  -0.407  -7.949  0.00  0.00    -0.269 OA
ATOM     10  C   LIG d   1       6.078  -0.510  -6.985  0.00  0.00     0.106 A 
ATOM     11  C   LIG d   1       6.180  -1.910  -6.366  0.00  0.00     0.111 A 
ATOM     12  H   LIG d   1       5.529  -2.633  -6.856  0.00  0.00     0.047 H 
ATOM     13  C   LIG d   1       5.830  -1.699  -4.866  0.00  0.00     0.096 A 
ATOM     14  H   LIG d   1       4.999  -2.321  -4.535  0.00  0.00     0.046 H 
ATOM     15  C   LIG d   1       5.532  -0.190  -4.737  0.00  0.00    -0.009 C 
ATOM     16  H   LIG d   1       4.459  -0.009  -4.813  0.00  0.00     0.086 H 
ATOM     17  N   LIG d   1       6.270   0.438  -5.872  0.00  0.00     0.245 N 
ATOM     18  C   LIG d   1       7.124  -2.030  -4.157  0.00  0.00     0.232 A 
ATOM     19  O   LIG d   1       7.293  -1.990  -2.957  0.00  0.00    -0.275 OA
ATOM     20  N   LIG d   1       8.049  -2.375  -5.058  0.00  0.00    -0.237 N 
ATOM     21  C   LIG d   1       7.627  -2.350  -6.342  0.00  0.00     0.233 A 
ATOM     22  O   LIG d   1       8.289  -2.631  -7.319  0.00  0.00    -0.275 OA
ATOM     23  H   LIG d   1       1.880   0.379 -10.118  0.00  0.00     0.062 H 
ATOM     24  H   LIG d   1       1.388  -0.142  -7.763  0.00  0.00     0.062 H 
ATOM     25  H   LIG d   1       3.234  -0.578  -6.189  0.00  0.00     0.062 H 
ATOM     26  H   LIG d   1       6.848   0.145 -10.052  0.00  0.00     0.155 HD
ATOM     27  H   LIG d   1       7.251   0.535  -5.657  0.00  0.00     0.203 HD
ATOM     28  H   LIG d   1       5.866   1.334  -6.097  0.00  0.00     0.203 HD
ENDROOT
BRANCH  20  29
ATOM     29  C   LIG d   1       9.414  -2.756  -4.685  0.00  0.00     0.047 C 
ATOM     30  H   LIG d   1      10.032  -2.818  -5.581  0.00  0.00     0.052 H 
ATOM     31  H   LIG d   1       9.828  -2.009  -4.008  0.00  0.00     0.052 H 
BRANCH  29  32
ATOM     32  C   LIG d   1       9.390  -4.097  -3.997  0.00  0.00    -0.029 A 
ATOM     33  C   LIG d   1       9.867  -4.218  -2.705  0.00  0.00    -0.054 A 
ATOM     34  C   LIG d   1       9.841  -5.445  -2.070  0.00  0.00    -0.020 A 
ATOM     35  H   LIG d   1      10.256  -3.352  -2.189  0.00  0.00     0.062 H 
ATOM     36  C   LIG d   1       9.346  -6.558  -2.733  0.00  0.00     0.120 A 
ATOM     37  H   LIG d   1      10.208  -5.538  -1.059  0.00  0.00     0.065 H 
ATOM     38  C   LIG d   1       8.874  -6.435  -4.032  0.00  0.00    -0.020 A 
ATOM     39  C   LIG d   1       8.897  -5.205  -4.661  0.00  0.00    -0.054 A 
ATOM     40  H   LIG d   1       8.488  -7.300  -4.551  0.00  0.00     0.065 H 
ATOM     41  H   LIG d   1       8.530  -5.109  -5.672  0.00  0.00     0.062 H 
BRANCH  36  42
ATOM     42  O   LIG d   1       9.324  -7.767  -2.113  0.00  0.00    -0.495 OA
BRANCH  42  43
ATOM     43  C   LIG d   1       8.453  -8.759  -2.657  0.00  0.00     0.079 C 
ATOM     44  H   LIG d   1       8.056  -9.376  -1.851  0.00  0.00     0.066 H 
ATOM     45  H   LIG d   1       7.631  -8.273  -3.182  0.00  0.00     0.066 H 
ATOM     46  H   LIG d   1       9.009  -9.387  -3.354  0.00  0.00     0.066 H 
ENDBRANCH  42  43
ENDBRANCH  36  42
ENDBRANCH  29  32
ENDBRANCH  20  29
BRANCH  15  47
ATOM     47  C   LIG d   1       6.068   0.345  -3.408  0.00  0.00    -0.001 C 
ATOM     48  H   LIG d   1       6.598  -0.450  -2.882  0.00  0.00     0.033 H 
ATOM     49  H   LIG d   1       6.751   1.172  -3.599  0.00  0.00     0.033 H 
BRANCH  47  50
ATOM     50  C   LIG d   1       4.901   0.836  -2.548  0.00  0.00     0.029 C 
ATOM     51  H   LIG d   1       5.283   1.224  -1.604  0.00  0.00     0.036 H 
ATOM     52  H   LIG d   1       4.367   1.625  -3.077  0.00  0.00     0.036 H 
BRANCH  50  53
ATOM     53  C   LIG d   1       3.963  -0.311  -2.275  0.00  0.00     0.211 C 
ATOM     54  O   LIG d   1       2.802  -0.242  -2.623  0.00  0.00    -0.276 OA
ATOM     55  N   LIG d   1       4.412  -1.414  -1.643  0.00  0.00    -0.329 N 
ATOM     56  H   LIG d   1       5.340  -1.469  -1.366  0.00  0.00     0.145 HD
ATOM     57  H   LIG d   1       3.807  -2.152  -1.467  0.00  0.00     0.145 HD
ENDBRANCH  50  53
ENDBRANCH  47  50
ENDBRANCH  15  47
BRANCH   1  58
ATOM     58  C   LIG d   1       4.287   0.555 -11.316  0.00  0.00    -0.038 C 
ATOM     59  H   LIG d   1       5.059  -0.117 -11.687  0.00  0.00     0.028 H 
ATOM     60  H   LIG d   1       3.380   0.429 -11.906  0.00  0.00     0.028 H 
ATOM     61  H   LIG d   1       4.632   1.586 -11.396  0.00  0.00     0.028 H 
ENDBRANCH   1  58
TORSDOF 8
ENDMDL
MODEL 4
REMARK VINA RESULT:      -7.2      4.651      8.124
REMARK  8 active torsions:
REMARK  status: ('A' for Active; 'I' for Inactive)
REMARK    1  A    between atoms: C_1  and  C_2 
REMARK    2  A    between atoms: C_16  and  C_19 
REMARK    3  A    between atoms: C_19  and  C_20 
REMARK    4  A    between atoms: C_20  and  C_21 
REMARK       I    between atoms: C_21  and  N_23 
REMARK    5  A    between atoms: N_26  and  C_29 
REMARK    6  A    between atoms: C_29  and  C_30 
REMARK    7  A    between atoms: C_33  and  O_36 
REMARK    8  A    between atoms: O_36  and  C_37 
ROOT
ATOM      1  C   LIG d   1       4.086   0.154  -2.669  0.00  0.00    -0.029 A 
ATOM      2  C   LIG d   1       3.219  -0.914  -2.559  0.00  0.00    -0.057 A 
ATOM      3  C   LIG d   1       3.604  -2.173  -2.984  0.00  0.00    -0.061 A 
ATOM      4  C   LIG d   1       4.866  -2.362  -3.523  0.00  0.00    -0.051 A 
ATOM      5  C   LIG d   1       5.732  -1.298  -3.635  0.00  0.00     0.034 A 
ATOM      6  C   LIG d   1       5.355  -0.027  -3.216  0.00  0.00     0.046 A 
ATOM      7  N   LIG d   1       6.391   0.883  -3.435  0.00  0.00    -0.280 N 
ATOM      8  C   LIG d   1       7.469   0.299  -3.993  0.00  0.00     0.274 A 
ATOM      9  O   LIG d   1       8.511   0.841  -4.296  0.00  0.00    -0.269 OA
ATOM     10  C   LIG d   1       7.135  -1.158  -4.157  0.00  0.00     0.106 A 
ATOM     11  C   LIG d   1       7.232  -1.584  -5.627  0.00  0.00     0.111 A 
ATOM     12  H   LIG d   1       6.282  -1.495  -6.154  0.00  0.00     0.047 H 
ATOM     13  C   LIG d   1       7.759  -3.046  -5.575  0.00  0.00     0.096 A 
ATOM     14  H   LIG d   1       7.103  -3.749  -6.088  0.00  0.00     0.046 H 
ATOM     15  C   LIG d   1       7.907  -3.360  -4.071  0.00  0.00    -0.009 C 
ATOM     16  H   LIG d   1       7.017  -3.872  -3.702  0.00  0.00     0.086 H 
ATOM     17  N   LIG d   1       8.073  -2.026  -3.422  0.00  0.00     0.245 N 
ATOM     18  C   LIG d   1       9.124  -2.948  -6.216  0.00  0.00     0.232 A 
ATOM     19  O   LIG d   1       9.890  -3.874  -6.375  0.00  0.00    -0.275 OA
ATOM     20  N   LIG d   1       9.354  -1.682  -6.581  0.00  0.00    -0.237 N 
ATOM     21  C   LIG d   1       8.348  -0.821  -6.304  0.00  0.00     0.233 A 
ATOM     22  O   LIG d   1       8.334   0.366  -6.552  0.00  0.00    -0.275 OA
ATOM     23  H   LIG d   1       2.236  -0.768  -2.137  0.00  0.00     0.062 H 
ATOM     24  H   LIG d   1       2.923  -3.006  -2.896  0.00  0.00     0.062 H 
ATOM     25  H   LIG d   1       5.169  -3.342  -3.855  0.00  0.00     0.062 H 
ATOM     26  H   LIG d   1       6.340   1.827  -3.214  0.00  0.00     0.155 HD
ATOM     27  H   LIG d   1       9.018  -1.689  -3.523  0.00  0.00     0.203 HD
ATOM     28  H   LIG d   1       7.817  -2.078  -2.448  0.00  0.00     0.203 HD
ENDROOT
BRANCH  20  29
ATOM     29  C   LIG d   1      10.594  -1.260  -7.236  0.00  0.00     0.047 C 
ATOM     30  H   LIG d   1      11.113  -2.134  -7.630  0.00  0.00     0.052 H 
ATOM     31  H   LIG d   1      10.360  -0.577  -8.053  0.00  0.00     0.052 H 
BRANCH  29  32
ATOM     32  C   LIG d   1      11.477  -0.560  -6.235  0.00  0.00    -0.029 A 
ATOM     33  C   LIG d   1      11.887   0.740  -6.467  0.00  0.00    -0.054 A 
ATOM     34  C   LIG d   1      12.691   1.386  -5.548  0.00  0.00    -0.020 A 
ATOM     35  H   LIG d   1      11.575   1.253  -7.365  0.00  0.00     0.062 H 
ATOM     36  C   LIG d   1      13.096   0.726  -4.397  0.00  0.00     0.120 A 
ATOM     37  H   LIG d   1      13.007   2.403  -5.727  0.00  0.00     0.065 H 
ATOM     38  C   LIG d   1      12.688  -0.580  -4.169  0.00  0.00    -0.020 A 
ATOM     39  C   LIG d   1      11.880  -1.220  -5.089  0.00  0.00    -0.054 A 
ATOM     40  H   LIG d   1      13.002  -1.096  -3.274  0.00  0.00     0.065 H 
ATOM     41  H   LIG d   1      11.562  -2.237  -4.912  0.00  0.00     0.062 H 
BRANCH  36  42
ATOM     42  O   LIG d   1      13.891   1.358  -3.494  0.00  0.00    -0.495 OA
BRANCH  42  43
ATOM     43  C   LIG d   1      14.286   2.696  -3.801  0.00  0.00     0.079 C 
ATOM     44  H   LIG d   1      14.581   2.756  -4.849  0.00  0.00     0.066 H 
ATOM     45  H   LIG d   1      13.451   3.372  -3.620  0.00  0.00     0.066 H 
ATOM     46  H   LIG d   1      15.128   2.981  -3.171  0.00  0.00     0.066 H 
ENDBRANCH  42  43
ENDBRANCH  36  42
ENDBRANCH  29  32
ENDBRANCH  20  29
BRANCH  15  47
ATOM     47  C   LIG d   1       9.151  -4.216  -3.827  0.00  0.00    -0.001 C 
ATOM     48  H   LIG d   1       8.951  -5.245  -4.128  0.00  0.00     0.033 H 
ATOM     49  H   LIG d   1       9.983  -3.822  -4.411  0.00  0.00     0.033 H 
BRANCH  47  50
ATOM     50  C   LIG d   1       9.511  -4.180  -2.340  0.00  0.00     0.029 C 
ATOM     51  H   LIG d   1      10.381  -3.539  -2.192  0.00  0.00     0.036 H 
ATOM     52  H   LIG d   1       8.668  -3.786  -1.772  0.00  0.00     0.036 H 
BRANCH  50  53
ATOM     53  C   LIG d   1       9.829  -5.575  -1.867  0.00  0.00     0.211 C 
ATOM     54  O   LIG d   1      10.120  -6.436  -2.669  0.00  0.00    -0.276 OA
ATOM     55  N   LIG d   1       9.788  -5.865  -0.551  0.00  0.00    -0.329 N 
ATOM     56  H   LIG d   1       9.556  -5.176   0.091  0.00  0.00     0.145 HD
ATOM     57  H   LIG d   1       9.993  -6.764  -0.247  0.00  0.00     0.145 HD
ENDBRANCH  50  53
ENDBRANCH  47  50
ENDBRANCH  15  47
BRANCH   1  58
ATOM     58  C   LIG d   1       3.655   1.521  -2.203  0.00  0.00    -0.038 C 
ATOM     59  H   LIG d   1       2.625   1.701  -2.507  0.00  0.00     0.028 H 
ATOM     60  H   LIG d   1       3.729   1.574  -1.117  0.00  0.00     0.028 H 
ATOM     61  H   LIG d   1       4.304   2.276  -2.648  0.00  0.00     0.028 H 
ENDBRANCH   1  58
TORSDOF 8
ENDMDL
MODEL 5
REMARK VINA RESULT:      -6.8      2.701      4.873
REMARK  8 active torsions:
REMARK  status: ('A' for Active; 'I' for Inactive)
REMARK    1  A    between atoms: C_1  and  C_2 
REMARK    2  A    between atoms: C_16  and  C_19 
REMARK    3  A    between atoms: C_19  and  C_20 
REMARK    4  A    between atoms: C_20  and  C_21 
REMARK       I    between atoms: C_21  and  N_23 
REMARK    5  A    between atoms: N_26  and  C_29 
REMARK    6  A    between atoms: C_29  and  C_30 
REMARK    7  A    between atoms: C_33  and  O_36 
REMARK    8  A    between atoms: O_36  and  C_37 
ROOT
ATOM      1  C   LIG d   1      11.778  -1.137  -5.489  0.00  0.00    -0.029 A 
ATOM      2  C   LIG d   1      12.331  -2.111  -4.685  0.00  0.00    -0.057 A 
ATOM      3  C   LIG d   1      11.521  -3.032  -4.045  0.00  0.00    -0.061 A 
ATOM      4  C   LIG d   1      10.148  -2.976  -4.214  0.00  0.00    -0.051 A 
ATOM      5  C   LIG d   1       9.592  -2.004  -5.015  0.00  0.00     0.034 A 
ATOM      6  C   LIG d   1      10.396  -1.069  -5.659  0.00  0.00     0.046 A 
ATOM      7  N   LIG d   1       9.612  -0.186  -6.404  0.00  0.00    -0.280 N 
ATOM      8  C   LIG d   1       8.297  -0.466  -6.301  0.00  0.00     0.274 A 
ATOM      9  O   LIG d   1       7.386   0.130  -6.835  0.00  0.00    -0.269 OA
ATOM     10  C   LIG d   1       8.180  -1.668  -5.405  0.00  0.00     0.106 A 
ATOM     11  C   LIG d   1       7.317  -1.358  -4.176  0.00  0.00     0.111 A 
ATOM     12  H   LIG d   1       7.906  -1.010  -3.327  0.00  0.00     0.047 H 
ATOM     13  C   LIG d   1       6.563  -2.686  -3.885  0.00  0.00     0.096 A 
ATOM     14  H   LIG d   1       6.727  -3.051  -2.871  0.00  0.00     0.046 H 
ATOM     15  C   LIG d   1       7.065  -3.671  -4.961  0.00  0.00    -0.009 C 
ATOM     16  H   LIG d   1       7.884  -4.276  -4.568  0.00  0.00     0.086 H 
ATOM     17  N   LIG d   1       7.525  -2.801  -6.084  0.00  0.00     0.245 N 
ATOM     18  C   LIG d   1       5.117  -2.330  -4.148  0.00  0.00     0.232 A 
ATOM     19  O   LIG d   1       4.179  -3.091  -4.042  0.00  0.00    -0.275 OA
ATOM     20  N   LIG d   1       5.035  -1.047  -4.514  0.00  0.00    -0.237 N 
ATOM     21  C   LIG d   1       6.218  -0.393  -4.558  0.00  0.00     0.233 A 
ATOM     22  O   LIG d   1       6.381   0.772  -4.854  0.00  0.00    -0.275 OA
ATOM     23  H   LIG d   1      13.402  -2.157  -4.554  0.00  0.00     0.062 H 
ATOM     24  H   LIG d   1      11.958  -3.793  -3.417  0.00  0.00     0.062 H 
ATOM     25  H   LIG d   1       9.513  -3.693  -3.717  0.00  0.00     0.062 H 
ATOM     26  H   LIG d   1       9.969   0.544  -6.933  0.00  0.00     0.155 HD
ATOM     27  H   LIG d   1       6.744  -2.478  -6.635  0.00  0.00     0.203 HD
ATOM     28  H   LIG d   1       8.185  -3.297  -6.662  0.00  0.00     0.203 HD
ENDROOT
BRANCH  20  29
ATOM     29  C   LIG d   1       3.762  -0.396  -4.836  0.00  0.00     0.047 C 
ATOM     30  H   LIG d   1       2.939  -0.987  -4.435  0.00  0.00     0.052 H 
ATOM     31  H   LIG d   1       3.743   0.602  -4.397  0.00  0.00     0.052 H 
BRANCH  29  32
ATOM     32  C   LIG d   1       3.620  -0.286  -6.333  0.00  0.00    -0.029 A 
ATOM     33  C   LIG d   1       4.151  -1.268  -7.150  0.00  0.00    -0.054 A 
ATOM     34  C   LIG d   1       4.018  -1.173  -8.522  0.00  0.00    -0.020 A 
ATOM     35  H   LIG d   1       4.669  -2.110  -6.716  0.00  0.00     0.062 H 
ATOM     36  C   LIG d   1       3.358  -0.088  -9.080  0.00  0.00     0.120 A 
ATOM     37  H   LIG d   1       4.428  -1.941  -9.159  0.00  0.00     0.065 H 
ATOM     38  C   LIG d   1       2.830   0.898  -8.259  0.00  0.00    -0.020 A 
ATOM     39  C   LIG d   1       2.962   0.796  -6.887  0.00  0.00    -0.054 A 
ATOM     40  H   LIG d   1       2.316   1.743  -8.691  0.00  0.00     0.065 H 
ATOM     41  H   LIG d   1       2.552   1.563  -6.247  0.00  0.00     0.062 H 
BRANCH  36  42
ATOM     42  O   LIG d   1       3.229   0.010 -10.429  0.00  0.00    -0.495 OA
BRANCH  42  43
ATOM     43  C   LIG d   1       3.989   1.028 -11.081  0.00  0.00     0.079 C 
ATOM     44  H   LIG d   1       3.586   1.199 -12.080  0.00  0.00     0.066 H 
ATOM     45  H   LIG d   1       3.931   1.951 -10.504  0.00  0.00     0.066 H 
ATOM     46  H   LIG d   1       5.029   0.712 -11.159  0.00  0.00     0.066 H 
ENDBRANCH  42  43
ENDBRANCH  36  42
ENDBRANCH  29  32
ENDBRANCH  20  29
BRANCH  15  47
ATOM     47  C   LIG d   1       5.921  -4.570  -5.434  0.00  0.00    -0.001 C 
ATOM     48  H   LIG d   1       6.072  -5.581  -5.056  0.00  0.00     0.033 H 
ATOM     49  H   LIG d   1       4.975  -4.180  -5.060  0.00  0.00     0.033 H 
BRANCH  47  50
ATOM     50  C   LIG d   1       5.893  -4.596  -6.964  0.00  0.00     0.029 C 
ATOM     51  H   LIG d   1       6.312  -3.667  -7.350  0.00  0.00     0.036 H 
ATOM     52  H   LIG d   1       6.482  -5.439  -7.323  0.00  0.00     0.036 H 
BRANCH  50  53
ATOM     53  C   LIG d   1       4.469  -4.739  -7.437  0.00  0.00     0.211 C 
ATOM     54  O   LIG d   1       4.222  -4.745  -8.624  0.00  0.00    -0.276 OA
ATOM     55  N   LIG d   1       3.470  -4.858  -6.540  0.00  0.00    -0.329 N 
ATOM     56  H   LIG d   1       3.668  -4.854  -5.590  0.00  0.00     0.145 HD
ATOM     57  H   LIG d   1       2.553  -4.950  -6.845  0.00  0.00     0.145 HD
ENDBRANCH  50  53
ENDBRANCH  47  50
ENDBRANCH  15  47
BRANCH   1  58
ATOM     58  C   LIG d   1      12.670  -0.138  -6.180  0.00  0.00    -0.038 C 
ATOM     59  H   LIG d   1      13.549   0.052  -5.565  0.00  0.00     0.028 H 
ATOM     60  H   LIG d   1      12.981  -0.536  -7.146  0.00  0.00     0.028 H 
ATOM     61  H   LIG d   1      12.123   0.794  -6.330  0.00  0.00     0.028 H 
ENDBRANCH   1  58
TORSDOF 8
ENDMDL
MODEL 6
REMARK VINA RESULT:      -6.6      8.264     10.724
REMARK  8 active torsions:
REMARK  status: ('A' for Active; 'I' for Inactive)
REMARK    1  A    between atoms: C_1  and  C_2 
REMARK    2  A    between atoms: C_16  and  C_19 
REMARK    3  A    between atoms: C_19  and  C_20 
REMARK    4  A    between atoms: C_20  and  C_21 
REMARK       I    between atoms: C_21  and  N_23 
REMARK    5  A    between atoms: N_26  and  C_29 
REMARK    6  A    between atoms: C_29  and  C_30 
REMARK    7  A    between atoms: C_33  and  O_36 
REMARK    8  A    between atoms: O_36  and  C_37 
ROOT
ATOM      1  C   LIG d   1      11.149   6.832   0.622  0.00  0.00    -0.029 A 
ATOM      2  C   LIG d   1      11.395   8.190   0.614  0.00  0.00    -0.057 A 
ATOM      3  C   LIG d   1      11.495   8.874  -0.584  0.00  0.00    -0.061 A 
ATOM      4  C   LIG d   1      11.347   8.193  -1.781  0.00  0.00    -0.051 A 
ATOM      5  C   LIG d   1      11.103   6.838  -1.776  0.00  0.00     0.034 A 
ATOM      6  C   LIG d   1      11.005   6.138  -0.578  0.00  0.00     0.046 A 
ATOM      7  N   LIG d   1      10.763   4.786  -0.825  0.00  0.00    -0.280 N 
ATOM      8  C   LIG d   1      10.692   4.516  -2.144  0.00  0.00     0.274 A 
ATOM      9  O   LIG d   1      10.494   3.433  -2.652  0.00  0.00    -0.269 OA
ATOM     10  C   LIG d   1      10.895   5.822  -2.863  0.00  0.00     0.106 A 
ATOM     11  C   LIG d   1      12.104   5.751  -3.803  0.00  0.00     0.111 A 
ATOM     12  H   LIG d   1      13.027   6.080  -3.326  0.00  0.00     0.047 H 
ATOM     13  C   LIG d   1      11.704   6.634  -5.019  0.00  0.00     0.096 A 
ATOM     14  H   LIG d   1      12.419   7.433  -5.213  0.00  0.00     0.046 H 
ATOM     15  C   LIG d   1      10.296   7.165  -4.676  0.00  0.00    -0.009 C 
ATOM     16  H   LIG d   1      10.366   8.156  -4.225  0.00  0.00     0.086 H 
ATOM     17  N   LIG d   1       9.742   6.169  -3.713  0.00  0.00     0.245 N 
ATOM     18  C   LIG d   1      11.616   5.642  -6.156  0.00  0.00     0.232 A 
ATOM     19  O   LIG d   1      11.323   5.914  -7.301  0.00  0.00    -0.275 OA
ATOM     20  N   LIG d   1      11.913   4.419  -5.704  0.00  0.00    -0.237 N 
ATOM     21  C   LIG d   1      12.213   4.360  -4.387  0.00  0.00     0.233 A 
ATOM     22  O   LIG d   1      12.518   3.363  -3.766  0.00  0.00    -0.275 OA
ATOM     23  H   LIG d   1      11.509   8.722   1.547  0.00  0.00     0.062 H 
ATOM     24  H   LIG d   1      11.687   9.936  -0.587  0.00  0.00     0.062 H 
ATOM     25  H   LIG d   1      11.424   8.724  -2.717  0.00  0.00     0.062 H 
ATOM     26  H   LIG d   1      10.658   4.117  -0.130  0.00  0.00     0.155 HD
ATOM     27  H   LIG d   1       9.399   5.351  -4.194  0.00  0.00     0.203 HD
ATOM     28  H   LIG d   1       9.009   6.588  -3.161  0.00  0.00     0.203 HD
ENDROOT
BRANCH  20  29
ATOM     29  C   LIG d   1      11.919   3.235  -6.567  0.00  0.00     0.047 C 
ATOM     30  H   LIG d   1      12.172   3.530  -7.586  0.00  0.00     0.052 H 
ATOM     31  H   LIG d   1      12.657   2.522  -6.201  0.00  0.00     0.052 H 
BRANCH  29  32
ATOM     32  C   LIG d   1      10.554   2.596  -6.552  0.00  0.00    -0.029 A 
ATOM     33  C   LIG d   1       9.648   2.881  -7.558  0.00  0.00    -0.054 A 
ATOM     34  C   LIG d   1       8.398   2.293  -7.549  0.00  0.00    -0.020 A 
ATOM     35  H   LIG d   1       9.918   3.562  -8.351  0.00  0.00     0.062 H 
ATOM     36  C   LIG d   1       8.049   1.423  -6.527  0.00  0.00     0.120 A 
ATOM     37  H   LIG d   1       7.693   2.512  -8.337  0.00  0.00     0.065 H 
ATOM     38  C   LIG d   1       8.958   1.142  -5.517  0.00  0.00    -0.020 A 
ATOM     39  C   LIG d   1      10.208   1.730  -5.532  0.00  0.00    -0.054 A 
ATOM     40  H   LIG d   1       8.688   0.466  -4.720  0.00  0.00     0.065 H 
ATOM     41  H   LIG d   1      10.916   1.512  -4.746  0.00  0.00     0.062 H 
BRANCH  36  42
ATOM     42  O   LIG d   1       6.818   0.846  -6.514  0.00  0.00    -0.495 OA
BRANCH  42  43
ATOM     43  C   LIG d   1       6.550  -0.086  -5.466  0.00  0.00     0.079 C 
ATOM     44  H   LIG d   1       6.493  -1.093  -5.880  0.00  0.00     0.066 H 
ATOM     45  H   LIG d   1       7.349  -0.042  -4.727  0.00  0.00     0.066 H 
ATOM     46  H   LIG d   1       5.601   0.164  -4.991  0.00  0.00     0.066 H 
ENDBRANCH  42  43
ENDBRANCH  36  42
ENDBRANCH  29  32
ENDBRANCH  20  29
BRANCH  15  47
ATOM     47  C   LIG d   1       9.426   7.214  -5.934  0.00  0.00    -0.001 C 
ATOM     48  H   LIG d   1       9.939   6.707  -6.751  0.00  0.00     0.033 H 
ATOM     49  H   LIG d   1       8.477   6.716  -5.737  0.00  0.00     0.033 H 
BRANCH  47  50
ATOM     50  C   LIG d   1       9.168   8.672  -6.319  0.00  0.00     0.029 C 
ATOM     51  H   LIG d   1       8.128   8.925  -6.109  0.00  0.00     0.036 H 
ATOM     52  H   LIG d   1       9.824   9.322  -5.741  0.00  0.00     0.036 H 
BRANCH  50  53
ATOM     53  C   LIG d   1       9.443   8.859  -7.789  0.00  0.00     0.211 C 
ATOM     54  O   LIG d   1      10.585   8.960  -8.185  0.00  0.00    -0.276 OA
ATOM     55  N   LIG d   1       8.418   8.915  -8.664  0.00  0.00    -0.329 N 
ATOM     56  H   LIG d   1       7.506   8.833  -8.347  0.00  0.00     0.145 HD
ATOM     57  H   LIG d   1       8.596   9.035  -9.610  0.00  0.00     0.145 HD
ENDBRANCH  50  53
ENDBRANCH  47  50
ENDBRANCH  15  47
BRANCH   1  58
ATOM     58  C   LIG d   1      11.043   6.096   1.933  0.00  0.00    -0.038 C 
ATOM     59  H   LIG d   1       9.997   5.879   2.145  0.00  0.00     0.028 H 
ATOM     60  H   LIG d   1      11.603   5.163   1.873  0.00  0.00     0.028 H 
ATOM     61  H   LIG d   1      11.454   6.716   2.731  0.00  0.00     0.028 H 
ENDBRANCH   1  58
TORSDOF 8
ENDMDL
MODEL 7
REMARK VINA RESULT:      -6.6      8.752     11.690
REMARK  8 active torsions:
REMARK  status: ('A' for Active; 'I' for Inactive)
REMARK    1  A    between atoms: C_1  and  C_2 
REMARK    2  A    between atoms: C_16  and  C_19 
REMARK    3  A    between atoms: C_19  and  C_20 
REMARK    4  A    between atoms: C_20  and  C_21 
REMARK       I    between atoms: C_21  and  N_23 
REMARK    5  A    between atoms: N_26  and  C_29 
REMARK    6  A    between atoms: C_29  and  C_30 
REMARK    7  A    between atoms: C_33  and  O_36 
REMARK    8  A    between atoms: O_36  and  C_37 
ROOT
ATOM      1  C   LIG d   1      10.412  11.278  -6.577  0.00  0.00    -0.029 A 
ATOM      2  C   LIG d   1       9.612  12.056  -5.765  0.00  0.00    -0.057 A 
ATOM      3  C   LIG d   1       9.148  11.560  -4.561  0.00  0.00    -0.061 A 
ATOM      4  C   LIG d   1       9.487  10.277  -4.168  0.00  0.00    -0.051 A 
ATOM      5  C   LIG d   1      10.285   9.498  -4.975  0.00  0.00     0.034 A 
ATOM      6  C   LIG d   1      10.754   9.984  -6.191  0.00  0.00     0.046 A 
ATOM      7  N   LIG d   1      11.531   9.017  -6.832  0.00  0.00    -0.280 N 
ATOM      8  C   LIG d   1      11.617   7.879  -6.115  0.00  0.00     0.274 A 
ATOM      9  O   LIG d   1      12.222   6.874  -6.422  0.00  0.00    -0.269 OA
ATOM     10  C   LIG d   1      10.829   8.102  -4.854  0.00  0.00     0.106 A 
ATOM     11  C   LIG d   1       9.703   7.070  -4.718  0.00  0.00     0.111 A 
ATOM     12  H   LIG d   1       8.764   7.415  -5.149  0.00  0.00     0.047 H 
ATOM     13  C   LIG d   1       9.604   6.802  -3.189  0.00  0.00     0.096 A 
ATOM     14  H   LIG d   1       8.605   6.984  -2.793  0.00  0.00     0.046 H 
ATOM     15  C   LIG d   1      10.671   7.718  -2.556  0.00  0.00    -0.009 C 
ATOM     16  H   LIG d   1      10.219   8.654  -2.225  0.00  0.00     0.086 H 
ATOM     17  N   LIG d   1      11.663   7.952  -3.647  0.00  0.00     0.245 N 
ATOM     18  C   LIG d   1      10.026   5.356  -3.061  0.00  0.00     0.232 A 
ATOM     19  O   LIG d   1      10.095   4.737  -2.021  0.00  0.00    -0.275 OA
ATOM     20  N   LIG d   1      10.310   4.867  -4.273  0.00  0.00    -0.237 N 
ATOM     21  C   LIG d   1      10.156   5.746  -5.289  0.00  0.00     0.233 A 
ATOM     22  O   LIG d   1      10.348   5.520  -6.466  0.00  0.00    -0.275 OA
ATOM     23  H   LIG d   1       9.348  13.058  -6.071  0.00  0.00     0.062 H 
ATOM     24  H   LIG d   1       8.522  12.172  -3.928  0.00  0.00     0.062 H 
ATOM     25  H   LIG d   1       9.127   9.887  -3.228  0.00  0.00     0.062 H 
ATOM     26  H   LIG d   1      11.958   9.147  -7.693  0.00  0.00     0.155 HD
ATOM     27  H   LIG d   1      12.286   7.165  -3.745  0.00  0.00     0.203 HD
ATOM     28  H   LIG d   1      12.184   8.797  -3.470  0.00  0.00     0.203 HD
ENDROOT
BRANCH  20  29
ATOM     29  C   LIG d   1      10.748   3.485  -4.486  0.00  0.00     0.047 C 
ATOM     30  H   LIG d   1      11.420   3.445  -5.344  0.00  0.00     0.052 H 
ATOM     31  H   LIG d   1      11.270   3.128  -3.598  0.00  0.00     0.052 H 
BRANCH  29  32
ATOM     32  C   LIG d   1       9.548   2.612  -4.748  0.00  0.00    -0.029 A 
ATOM     33  C   LIG d   1       9.208   2.276  -6.046  0.00  0.00    -0.054 A 
ATOM     34  C   LIG d   1       8.112   1.472  -6.288  0.00  0.00    -0.020 A 
ATOM     35  H   LIG d   1       9.803   2.640  -6.871  0.00  0.00     0.062 H 
ATOM     36  C   LIG d   1       7.344   1.009  -5.229  0.00  0.00     0.120 A 
ATOM     37  H   LIG d   1       7.850   1.206  -7.300  0.00  0.00     0.065 H 
ATOM     38  C   LIG d   1       7.683   1.352  -3.928  0.00  0.00    -0.020 A 
ATOM     39  C   LIG d   1       8.784   2.153  -3.690  0.00  0.00    -0.054 A 
ATOM     40  H   LIG d   1       7.088   0.994  -3.101  0.00  0.00     0.065 H 
ATOM     41  H   LIG d   1       9.049   2.421  -2.678  0.00  0.00     0.062 H 
BRANCH  36  42
ATOM     42  O   LIG d   1       6.262   0.222  -5.464  0.00  0.00    -0.495 OA
BRANCH  42  43
ATOM     43  C   LIG d   1       5.529  -0.231  -4.325  0.00  0.00     0.079 C 
ATOM     44  H   LIG d   1       5.248   0.624  -3.710  0.00  0.00     0.066 H 
ATOM     45  H   LIG d   1       4.631  -0.753  -4.654  0.00  0.00     0.066 H 
ATOM     46  H   LIG d   1       6.150  -0.910  -3.740  0.00  0.00     0.066 H 
ENDBRANCH  42  43
ENDBRANCH  36  42
ENDBRANCH  29  32
ENDBRANCH  20  29
BRANCH  15  47
ATOM     47  C   LIG d   1      11.349   7.011  -1.380  0.00  0.00    -0.001 C 
ATOM     48  H   LIG d   1      11.229   5.933  -1.486  0.00  0.00     0.033 H 
ATOM     49  H   LIG d   1      12.410   7.259  -1.370  0.00  0.00     0.033 H 
BRANCH  47  50
ATOM     50  C   LIG d   1      10.705   7.470  -0.070  0.00  0.00     0.029 C 
ATOM     51  H   LIG d   1      11.079   8.460   0.192  0.00  0.00     0.036 H 
ATOM     52  H   LIG d   1       9.623   7.511  -0.192  0.00  0.00     0.036 H 
BRANCH  50  53
ATOM     53  C   LIG d   1      11.051   6.497   1.027  0.00  0.00     0.211 C 
ATOM     54  O   LIG d   1      11.368   6.906   2.124  0.00  0.00    -0.276 OA
ATOM     55  N   LIG d   1      11.010   5.171   0.789  0.00  0.00    -0.329 N 
ATOM     56  H   LIG d   1      10.756   4.843  -0.088  0.00  0.00     0.145 HD
ATOM     57  H   LIG d   1      11.234   4.544   1.496  0.00  0.00     0.145 HD
ENDBRANCH  50  53
ENDBRANCH  47  50
ENDBRANCH  15  47
BRANCH   1  58
ATOM     58  C   LIG d   1      10.912  11.829  -7.888  0.00  0.00    -0.038 C 
ATOM     59  H   LIG d   1      11.706  11.189  -8.272  0.00  0.00     0.028 H 
ATOM     60  H   LIG d   1      10.092  11.861  -8.605  0.00  0.00     0.028 H 
ATOM     61  H   LIG d   1      11.300  12.836  -7.734  0.00  0.00     0.028 H 
ENDBRANCH   1  58
TORSDOF 8
ENDMDL
MODEL 8
REMARK VINA RESULT:      -6.5      3.223      5.599
REMARK  8 active torsions:
REMARK  status: ('A' for Active; 'I' for Inactive)
REMARK    1  A    between atoms: C_1  and  C_2 
REMARK    2  A    between atoms: C_16  and  C_19 
REMARK    3  A    between atoms: C_19  and  C_20 
REMARK    4  A    between atoms: C_20  and  C_21 
REMARK       I    between atoms: C_21  and  N_23 
REMARK    5  A    between atoms: N_26  and  C_29 
REMARK    6  A    between atoms: C_29  and  C_30 
REMARK    7  A    between atoms: C_33  and  O_36 
REMARK    8  A    between atoms: O_36  and  C_37 
ROOT
ATOM      1  C   LIG d   1       7.007  -7.007  -5.441  0.00  0.00    -0.029 A 
ATOM      2  C   LIG d   1       5.821  -7.588  -5.841  0.00  0.00    -0.057 A 
ATOM      3  C   LIG d   1       4.711  -6.804  -6.098  0.00  0.00    -0.061 A 
ATOM      4  C   LIG d   1       4.791  -5.429  -5.955  0.00  0.00    -0.051 A 
ATOM      5  C   LIG d   1       5.972  -4.846  -5.555  0.00  0.00     0.034 A 
ATOM      6  C   LIG d   1       7.094  -5.625  -5.289  0.00  0.00     0.046 A 
ATOM      7  N   LIG d   1       8.163  -4.816  -4.896  0.00  0.00    -0.280 N 
ATOM      8  C   LIG d   1       7.829  -3.511  -4.874  0.00  0.00     0.274 A 
ATOM      9  O   LIG d   1       8.551  -2.584  -4.573  0.00  0.00    -0.269 OA
ATOM     10  C   LIG d   1       6.392  -3.425  -5.309  0.00  0.00     0.106 A 
ATOM     11  C   LIG d   1       5.528  -2.763  -4.228  0.00  0.00     0.111 A 
ATOM     12  H   LIG d   1       5.087  -3.487  -3.543  0.00  0.00     0.047 H 
ATOM     13  C   LIG d   1       4.463  -1.955  -5.021  0.00  0.00     0.096 A 
ATOM     14  H   LIG d   1       3.442  -2.228  -4.755  0.00  0.00     0.046 H 
ATOM     15  C   LIG d   1       4.783  -2.229  -6.506  0.00  0.00    -0.009 C 
ATOM     16  H   LIG d   1       4.164  -3.044  -6.882  0.00  0.00     0.086 H 
ATOM     17  N   LIG d   1       6.230  -2.597  -6.518  0.00  0.00     0.245 N 
ATOM     18  C   LIG d   1       4.790  -0.519  -4.682  0.00  0.00     0.232 A 
ATOM     19  O   LIG d   1       4.196   0.452  -5.100  0.00  0.00    -0.275 OA
ATOM     20  N   LIG d   1       5.835  -0.487  -3.848  0.00  0.00    -0.237 N 
ATOM     21  C   LIG d   1       6.333  -1.700  -3.515  0.00  0.00     0.233 A 
ATOM     22  O   LIG d   1       7.268  -1.910  -2.772  0.00  0.00    -0.275 OA
ATOM     23  H   LIG d   1       5.759  -8.660  -5.954  0.00  0.00     0.062 H 
ATOM     24  H   LIG d   1       3.785  -7.262  -6.411  0.00  0.00     0.062 H 
ATOM     25  H   LIG d   1       3.927  -4.815  -6.155  0.00  0.00     0.062 H 
ATOM     26  H   LIG d   1       9.042  -5.154  -4.664  0.00  0.00     0.155 HD
ATOM     27  H   LIG d   1       6.813  -1.776  -6.465  0.00  0.00     0.203 HD
ATOM     28  H   LIG d   1       6.446  -3.132  -7.345  0.00  0.00     0.203 HD
ENDROOT
BRANCH  20  29
ATOM     29  C   LIG d   1       6.396   0.764  -3.329  0.00  0.00     0.047 C 
ATOM     30  H   LIG d   1       5.623   1.533  -3.322  0.00  0.00     0.052 H 
ATOM     31  H   LIG d   1       6.760   0.605  -2.314  0.00  0.00     0.052 H 
BRANCH  29  32
ATOM     32  C   LIG d   1       7.537   1.205  -4.208  0.00  0.00    -0.029 A 
ATOM     33  C   LIG d   1       7.629   0.737  -5.506  0.00  0.00    -0.054 A 
ATOM     34  C   LIG d   1       8.672   1.144  -6.316  0.00  0.00    -0.020 A 
ATOM     35  H   LIG d   1       6.884   0.055  -5.888  0.00  0.00     0.062 H 
ATOM     36  C   LIG d   1       9.632   2.015  -5.824  0.00  0.00     0.120 A 
ATOM     37  H   LIG d   1       8.740   0.782  -7.331  0.00  0.00     0.065 H 
ATOM     38  C   LIG d   1       9.541   2.480  -4.520  0.00  0.00    -0.020 A 
ATOM     39  C   LIG d   1       8.494   2.073  -3.715  0.00  0.00    -0.054 A 
ATOM     40  H   LIG d   1      10.287   3.158  -4.134  0.00  0.00     0.065 H 
ATOM     41  H   LIG d   1       8.422   2.434  -2.699  0.00  0.00     0.062 H 
BRANCH  36  42
ATOM     42  O   LIG d   1      10.661   2.414  -6.617  0.00  0.00    -0.495 OA
BRANCH  42  43
ATOM     43  C   LIG d   1      10.351   2.713  -7.979  0.00  0.00     0.079 C 
ATOM     44  H   LIG d   1       9.564   3.466  -8.016  0.00  0.00     0.066 H 
ATOM     45  H   LIG d   1      11.241   3.093  -8.480  0.00  0.00     0.066 H 
ATOM     46  H   LIG d   1      10.010   1.807  -8.482  0.00  0.00     0.066 H 
ENDBRANCH  42  43
ENDBRANCH  36  42
ENDBRANCH  29  32
ENDBRANCH  20  29
BRANCH  15  47
ATOM     47  C   LIG d   1       4.560  -0.965  -7.339  0.00  0.00    -0.001 C 
ATOM     48  H   LIG d   1       4.518  -0.098  -6.681  0.00  0.00     0.033 H 
ATOM     49  H   LIG d   1       5.383  -0.846  -8.044  0.00  0.00     0.033 H 
BRANCH  47  50
ATOM     50  C   LIG d   1       3.243  -1.087  -8.109  0.00  0.00     0.029 C 
ATOM     51  H   LIG d   1       3.405  -1.668  -9.017  0.00  0.00     0.036 H 
ATOM     52  H   LIG d   1       2.503  -1.587  -7.484  0.00  0.00     0.036 H 
BRANCH  50  53
ATOM     53  C   LIG d   1       2.746   0.288  -8.474  0.00  0.00     0.211 C 
ATOM     54  O   LIG d   1       2.062   0.443  -9.463  0.00  0.00    -0.276 OA
ATOM     55  N   LIG d   1       3.065   1.346  -7.703  0.00  0.00    -0.329 N 
ATOM     56  H   LIG d   1       3.612   1.222  -6.912  0.00  0.00     0.145 HD
ATOM     57  H   LIG d   1       2.745   2.231  -7.939  0.00  0.00     0.145 HD
ENDBRANCH  50  53
ENDBRANCH  47  50
ENDBRANCH  15  47
BRANCH   1  58
ATOM     58  C   LIG d   1       8.210  -7.871  -5.163  0.00  0.00    -0.038 C 
ATOM     59  H   LIG d   1       9.016  -7.255  -4.766  0.00  0.00     0.028 H 
ATOM     60  H   LIG d   1       7.946  -8.638  -4.434  0.00  0.00     0.028 H 
ATOM     61  H   LIG d   1       8.537  -8.347  -6.088  0.00  0.00     0.028 H 
ENDBRANCH   1  58
TORSDOF 8
ENDMDL
MODEL 9
REMARK VINA RESULT:      -6.4      3.521      6.821
REMARK  8 active torsions:
REMARK  status: ('A' for Active; 'I' for Inactive)
REMARK    1  A    between atoms: C_1  and  C_2 
REMARK    2  A    between atoms: C_16  and  C_19 
REMARK    3  A    between atoms: C_19  and  C_20 
REMARK    4  A    between atoms: C_20  and  C_21 
REMARK       I    between atoms: C_21  and  N_23 
REMARK    5  A    between atoms: N_26  and  C_29 
REMARK    6  A    between atoms: C_29  and  C_30 
REMARK    7  A    between atoms: C_33  and  O_36 
REMARK    8  A    between atoms: O_36  and  C_37 
ROOT
ATOM      1  C   LIG d   1       3.614  -0.208 -10.459  0.00  0.00    -0.029 A 
ATOM      2  C   LIG d   1       2.656  -1.196 -10.365  0.00  0.00    -0.057 A 
ATOM      3  C   LIG d   1       2.594  -2.003  -9.243  0.00  0.00    -0.061 A 
ATOM      4  C   LIG d   1       3.496  -1.816  -8.210  0.00  0.00    -0.051 A 
ATOM      5  C   LIG d   1       4.454  -0.832  -8.301  0.00  0.00     0.034 A 
ATOM      6  C   LIG d   1       4.530  -0.018  -9.427  0.00  0.00     0.046 A 
ATOM      7  N   LIG d   1       5.578   0.895  -9.294  0.00  0.00    -0.280 N 
ATOM      8  C   LIG d   1       6.235   0.747  -8.127  0.00  0.00     0.274 A 
ATOM      9  O   LIG d   1       7.184   1.396  -7.742  0.00  0.00    -0.269 OA
ATOM     10  C   LIG d   1       5.555  -0.372  -7.387  0.00  0.00     0.106 A 
ATOM     11  C   LIG d   1       6.539  -1.507  -7.080  0.00  0.00     0.111 A 
ATOM     12  H   LIG d   1       6.553  -2.273  -7.855  0.00  0.00     0.047 H 
ATOM     13  C   LIG d   1       6.081  -2.056  -5.698  0.00  0.00     0.096 A 
ATOM     14  H   LIG d   1       5.863  -3.123  -5.719  0.00  0.00     0.046 H 
ATOM     15  C   LIG d   1       4.850  -1.204  -5.322  0.00  0.00    -0.009 C 
ATOM     16  H   LIG d   1       3.932  -1.717  -5.613  0.00  0.00     0.086 H 
ATOM     17  N   LIG d   1       5.025   0.068  -6.084  0.00  0.00     0.245 N 
ATOM     18  C   LIG d   1       7.239  -1.716  -4.787  0.00  0.00     0.232 A 
ATOM     19  O   LIG d   1       7.293  -1.966  -3.602  0.00  0.00    -0.275 OA
ATOM     20  N   LIG d   1       8.192  -1.098  -5.492  0.00  0.00    -0.237 N 
ATOM     21  C   LIG d   1       7.909  -0.931  -6.804  0.00  0.00     0.233 A 
ATOM     22  O   LIG d   1       8.626  -0.407  -7.630  0.00  0.00    -0.275 OA
ATOM     23  H   LIG d   1       1.951  -1.341 -11.170  0.00  0.00     0.062 H 
ATOM     24  H   LIG d   1       1.843  -2.775  -9.173  0.00  0.00     0.062 H 
ATOM     25  H   LIG d   1       3.449  -2.443  -7.333  0.00  0.00     0.062 H 
ATOM     26  H   LIG d   1       5.808   1.559  -9.963  0.00  0.00     0.155 HD
ATOM     27  H   LIG d   1       5.683   0.678  -5.624  0.00  0.00     0.203 HD
ATOM     28  H   LIG d   1       4.136   0.529  -6.201  0.00  0.00     0.203 HD
ENDROOT
BRANCH  20  29
ATOM     29  C   LIG d   1       9.449  -0.641  -4.893  0.00  0.00     0.047 C 
ATOM     30  H   LIG d   1       9.540  -1.047  -3.886  0.00  0.00     0.052 H 
ATOM     31  H   LIG d   1      10.287  -0.984  -5.501  0.00  0.00     0.052 H 
BRANCH  29  32
ATOM     32  C   LIG d   1       9.458   0.864  -4.831  0.00  0.00    -0.029 A 
ATOM     33  C   LIG d   1       8.410   1.536  -4.228  0.00  0.00    -0.054 A 
ATOM     34  C   LIG d   1       8.418   2.916  -4.165  0.00  0.00    -0.020 A 
ATOM     35  H   LIG d   1       7.586   0.982  -3.803  0.00  0.00     0.062 H 
ATOM     36  C   LIG d   1       9.473   3.629  -4.715  0.00  0.00     0.120 A 
ATOM     37  H   LIG d   1       7.602   3.440  -3.690  0.00  0.00     0.065 H 
ATOM     38  C   LIG d   1      10.521   2.953  -5.325  0.00  0.00    -0.020 A 
ATOM     39  C   LIG d   1      10.511   1.573  -5.381  0.00  0.00    -0.054 A 
ATOM     40  H   LIG d   1      11.343   3.505  -5.754  0.00  0.00     0.065 H 
ATOM     41  H   LIG d   1      11.325   1.046  -5.855  0.00  0.00     0.062 H 
BRANCH  36  42
ATOM     42  O   LIG d   1       9.481   4.987  -4.658  0.00  0.00    -0.495 OA
BRANCH  42  43
ATOM     43  C   LIG d   1       9.918   5.682  -5.827  0.00  0.00     0.079 C 
ATOM     44  H   LIG d   1       9.382   5.302  -6.697  0.00  0.00     0.066 H 
ATOM     45  H   LIG d   1       9.717   6.747  -5.713  0.00  0.00     0.066 H 
ATOM     46  H   LIG d   1      10.988   5.526  -5.964  0.00  0.00     0.066 H 
ENDBRANCH  42  43
ENDBRANCH  36  42
ENDBRANCH  29  32
ENDBRANCH  20  29
BRANCH  15  47
ATOM     47  C   LIG d   1       4.843  -0.914  -3.820  0.00  0.00    -0.001 C 
ATOM     48  H   LIG d   1       5.017  -1.840  -3.270  0.00  0.00     0.033 H 
ATOM     49  H   LIG d   1       5.631  -0.199  -3.585  0.00  0.00     0.033 H 
BRANCH  47  50
ATOM     50  C   LIG d   1       3.487  -0.329  -3.420  0.00  0.00     0.029 C 
ATOM     51  H   LIG d   1       2.875  -0.189  -4.312  0.00  0.00     0.036 H 
ATOM     52  H   LIG d   1       2.984  -1.013  -2.737  0.00  0.00     0.036 H 
BRANCH  50  53
ATOM     53  C   LIG d   1       3.694   0.999  -2.740  0.00  0.00     0.211 C 
ATOM     54  O   LIG d   1       3.996   1.040  -1.566  0.00  0.00    -0.276 OA
ATOM     55  N   LIG d   1       3.543   2.143  -3.437  0.00  0.00    -0.329 N 
ATOM     56  H   LIG d   1       3.302   2.111  -4.376  0.00  0.00     0.145 HD
ATOM     57  H   LIG d   1       3.676   2.999  -2.999  0.00  0.00     0.145 HD
ENDBRANCH  50  53
ENDBRANCH  47  50
ENDBRANCH  15  47
BRANCH   1  58
ATOM     58  C   LIG d   1       3.674   0.665 -11.687  0.00  0.00    -0.038 C 
ATOM     59  H   LIG d   1       2.879   1.409 -11.643  0.00  0.00     0.028 H 
ATOM     60  H   LIG d   1       4.640   1.167 -11.729  0.00  0.00     0.028 H 
ATOM     61  H   LIG d   1       3.546   0.048 -12.577  0.00  0.00     0.028 H 
ENDBRANCH   1  58
TORSDOF 8
ENDMDL
MODEL 10
REMARK VINA RESULT:      -6.1      2.789      7.693
REMARK  8 active torsions:
REMARK  status: ('A' for Active; 'I' for Inactive)
REMARK    1  A    between atoms: C_1  and  C_2 
REMARK    2  A    between atoms: C_16  and  C_19 
REMARK    3  A    between atoms: C_19  and  C_20 
REMARK    4  A    between atoms: C_20  and  C_21 
REMARK       I    between atoms: C_21  and  N_23 
REMARK    5  A    between atoms: N_26  and  C_29 
REMARK    6  A    between atoms: C_29  and  C_30 
REMARK    7  A    between atoms: C_33  and  O_36 
REMARK    8  A    between atoms: O_36  and  C_37 
ROOT
ATOM      1  C   LIG d   1      -0.207  -2.331 -13.162  0.00  0.00    -0.029 A 
ATOM      2  C   LIG d   1       0.053  -3.449 -13.928  0.00  0.00    -0.057 A 
ATOM      3  C   LIG d   1       1.204  -4.187 -13.718  0.00  0.00    -0.061 A 
ATOM      4  C   LIG d   1       2.099  -3.802 -12.734  0.00  0.00    -0.051 A 
ATOM      5  C   LIG d   1       1.843  -2.687 -11.969  0.00  0.00     0.034 A 
ATOM      6  C   LIG d   1       0.692  -1.934 -12.174  0.00  0.00     0.046 A 
ATOM      7  N   LIG d   1       0.655  -0.855 -11.289  0.00  0.00    -0.280 N 
ATOM      8  C   LIG d   1       1.733  -0.824 -10.482  0.00  0.00     0.274 A 
ATOM      9  O   LIG d   1       1.970  -0.004  -9.620  0.00  0.00    -0.269 OA
ATOM     10  C   LIG d   1       2.581  -2.011 -10.848  0.00  0.00     0.106 A 
ATOM     11  C   LIG d   1       3.984  -1.572 -11.285  0.00  0.00     0.111 A 
ATOM     12  H   LIG d   1       4.060  -1.416 -12.361  0.00  0.00     0.047 H 
ATOM     13  C   LIG d   1       4.923  -2.700 -10.770  0.00  0.00     0.096 A 
ATOM     14  H   LIG d   1       5.521  -3.146 -11.565  0.00  0.00     0.046 H 
ATOM     15  C   LIG d   1       3.983  -3.718 -10.091  0.00  0.00    -0.009 C 
ATOM     16  H   LIG d   1       3.723  -4.517 -10.787  0.00  0.00     0.086 H 
ATOM     17  N   LIG d   1       2.780  -2.922  -9.706  0.00  0.00     0.245 N 
ATOM     18  C   LIG d   1       5.766  -2.003  -9.727  0.00  0.00     0.232 A 
ATOM     19  O   LIG d   1       6.637  -2.528  -9.067  0.00  0.00    -0.275 OA
ATOM     20  N   LIG d   1       5.403  -0.718  -9.648  0.00  0.00    -0.237 N 
ATOM     21  C   LIG d   1       4.407  -0.358 -10.489  0.00  0.00     0.233 A 
ATOM     22  O   LIG d   1       3.926   0.750 -10.594  0.00  0.00    -0.275 OA
ATOM     23  H   LIG d   1      -0.645  -3.751 -14.695  0.00  0.00     0.062 H 
ATOM     24  H   LIG d   1       1.404  -5.061 -14.319  0.00  0.00     0.062 H 
ATOM     25  H   LIG d   1       2.997  -4.377 -12.567  0.00  0.00     0.062 H 
ATOM     26  H   LIG d   1      -0.062  -0.202 -11.259  0.00  0.00     0.155 HD
ATOM     27  H   LIG d   1       2.947  -2.397  -8.861  0.00  0.00     0.203 HD
ATOM     28  H   LIG d   1       1.982  -3.528  -9.594  0.00  0.00     0.203 HD
ENDROOT
BRANCH  20  29
ATOM     29  C   LIG d   1       6.038   0.228  -8.727  0.00  0.00     0.047 C 
ATOM     30  H   LIG d   1       7.117   0.075  -8.735  0.00  0.00     0.052 H 
ATOM     31  H   LIG d   1       5.812   1.248  -9.041  0.00  0.00     0.052 H 
BRANCH  29  32
ATOM     32  C   LIG d   1       5.508   0.004  -7.334  0.00  0.00    -0.029 A 
ATOM     33  C   LIG d   1       4.145   0.026  -7.102  0.00  0.00    -0.054 A 
ATOM     34  C   LIG d   1       3.657  -0.185  -5.827  0.00  0.00    -0.020 A 
ATOM     35  H   LIG d   1       3.461   0.205  -7.918  0.00  0.00     0.062 H 
ATOM     36  C   LIG d   1       4.535  -0.409  -4.777  0.00  0.00     0.120 A 
ATOM     37  H   LIG d   1       2.593  -0.172  -5.647  0.00  0.00     0.065 H 
ATOM     38  C   LIG d   1       5.903  -0.426  -5.011  0.00  0.00    -0.020 A 
ATOM     39  C   LIG d   1       6.386  -0.219  -6.288  0.00  0.00    -0.054 A 
ATOM     40  H   LIG d   1       6.589  -0.600  -4.195  0.00  0.00     0.065 H 
ATOM     41  H   LIG d   1       7.450  -0.232  -6.472  0.00  0.00     0.062 H 
BRANCH  36  42
ATOM     42  O   LIG d   1       4.057  -0.612  -3.521  0.00  0.00    -0.495 OA
BRANCH  42  43
ATOM     43  C   LIG d   1       2.643  -0.754  -3.380  0.00  0.00     0.079 C 
ATOM     44  H   LIG d   1       2.149   0.141  -3.759  0.00  0.00     0.066 H 
ATOM     45  H   LIG d   1       2.306  -1.622  -3.947  0.00  0.00     0.066 H 
ATOM     46  H   LIG d   1       2.394  -0.887  -2.328  0.00  0.00     0.066 H 
ENDBRANCH  42  43
ENDBRANCH  36  42
ENDBRANCH  29  32
ENDBRANCH  20  29
BRANCH  15  47
ATOM     47  C   LIG d   1       4.644  -4.298  -8.839  0.00  0.00    -0.001 C 
ATOM     48  H   LIG d   1       5.500  -4.908  -9.129  0.00  0.00     0.033 H 
ATOM     49  H   LIG d   1       4.979  -3.485  -8.195  0.00  0.00     0.033 H 
BRANCH  47  50
ATOM     50  C   LIG d   1       3.633  -5.163  -8.083  0.00  0.00     0.029 C 
ATOM     51  H   LIG d   1       2.622  -4.873  -8.369  0.00  0.00     0.036 H 
ATOM     52  H   LIG d   1       3.795  -6.212  -8.331  0.00  0.00     0.036 H 
BRANCH  50  53
ATOM     53  C   LIG d   1       3.812  -4.963  -6.600  0.00  0.00     0.211 C 
ATOM     54  O   LIG d   1       3.809  -5.920  -5.854  0.00  0.00    -0.276 OA
ATOM     55  N   LIG d   1       3.973  -3.721  -6.102  0.00  0.00    -0.329 N 
ATOM     56  H   LIG d   1       3.975  -2.956  -6.699  0.00  0.00     0.145 HD
ATOM     57  H   LIG d   1       4.088  -3.593  -5.147  0.00  0.00     0.145 HD
ENDBRANCH  50  53
ENDBRANCH  47  50
ENDBRANCH  15  47
BRANCH   1  58
ATOM     58  C   LIG d   1      -1.463  -1.534 -13.400  0.00  0.00    -0.038 C 
ATOM     59  H   LIG d   1      -2.172  -1.723 -12.595  0.00  0.00     0.028 H 
ATOM     60  H   LIG d   1      -1.220  -0.472 -13.430  0.00  0.00     0.028 H 
ATOM     61  H   LIG d   1      -1.907  -1.831 -14.351  0.00  0.00     0.028 H 
ENDBRANCH   1  58
TORSDOF 8
ENDMDL
