MODEL 1
REMARK VINA RESULT:      -5.5      0.000      0.000
REMARK  7 active torsions:
REMARK  status: ('A' for Active; 'I' for Inactive)
REMARK    1  A    between atoms: C_1  and  C_2 
REMARK    2  A    between atoms: C_3  and  C_17 
REMARK    3  A    between atoms: C_7  and  N_12 
REMARK       I    between atoms: N_12  and  C_13 
REMARK    4  A    between atoms: C_13  and  C_15 
REMARK    5  A    between atoms: C_17  and  C_18 
REMARK    6  A    between atoms: C_18  and  C_19 
REMARK    7  A    between atoms: C_19  and  C_21 
ROOT
ATOM      1  C   LIG d   1       3.170   0.275  -5.919  0.00  0.00     0.020 A 
ATOM      2  C   LIG d   1       3.954  -0.813  -6.070  0.00  0.00     0.019 A 
ATOM      3  C   LIG d   1       4.525  -1.104  -7.331  0.00  0.00     0.193 A 
ATOM      4  C   LIG d   1       4.232  -0.189  -8.448  0.00  0.00     0.047 A 
ATOM      5  C   LIG d   1       4.755  -0.405  -9.721  0.00  0.00    -0.028 A 
ATOM      6  C   LIG d   1       4.455   0.479 -10.741  0.00  0.00     0.034 A 
ATOM      7  C   LIG d   1       3.634   1.580 -10.496  0.00  0.00    -0.038 A 
ATOM      8  C   LIG d   1       3.113   1.802  -9.242  0.00  0.00    -0.036 A 
ATOM      9  C   LIG d   1       3.405   0.921  -8.203  0.00  0.00     0.050 A 
ATOM     10  N   LIG d   1       2.891   1.120  -6.940  0.00  0.00    -0.358 N 
ATOM     11  O   LIG d   1       5.237  -2.082  -7.489  0.00  0.00    -0.287 OA
ATOM     12  H   LIG d   1       5.391  -1.258  -9.911  0.00  0.00     0.064 H 
ATOM     13  H   LIG d   1       3.405   2.265 -11.299  0.00  0.00     0.064 H 
ATOM     14  H   LIG d   1       2.480   2.658  -9.064  0.00  0.00     0.064 H 
ATOM     15  H   LIG d   1       2.317   1.886  -6.777  0.00  0.00     0.166 HD
ENDROOT
BRANCH   2  16
ATOM     16  C   LIG d   1       4.221  -1.717  -4.896  0.00  0.00    -0.016 C 
ATOM     17  H   LIG d   1       3.430  -1.596  -4.156  0.00  0.00     0.032 H 
ATOM     18  H   LIG d   1       4.245  -2.754  -5.234  0.00  0.00     0.032 H 
BRANCH  16  19
ATOM     19  C   LIG d   1       5.567  -1.354  -4.267  0.00  0.00     0.010 C 
ATOM     20  H   LIG d   1       6.181  -2.251  -4.178  0.00  0.00     0.035 H 
ATOM     21  H   LIG d   1       6.078  -0.625  -4.897  0.00  0.00     0.035 H 
BRANCH  19  22
ATOM     22  C   LIG d   1       5.341  -0.763  -2.899  0.00  0.00     0.131 C 
ATOM     23  O   LIG d   1       5.905   0.256  -2.581  0.00  0.00    -0.298 OA
BRANCH  22  24
ATOM     24  C   LIG d   1       4.413  -1.445  -1.929  0.00  0.00    -0.006 C 
ATOM     25  H   LIG d   1       4.650  -2.508  -1.883  0.00  0.00     0.031 H 
ATOM     26  H   LIG d   1       4.533  -1.004  -0.940  0.00  0.00     0.031 H 
ATOM     27  H   LIG d   1       3.382  -1.318  -2.260  0.00  0.00     0.031 H 
ENDBRANCH  22  24
ENDBRANCH  19  22
ENDBRANCH  16  19
ENDBRANCH   2  16
BRANCH   1  28
ATOM     28  C   LIG d   1       2.577   0.557  -4.562  0.00  0.00    -0.024 C 
ATOM     29  H   LIG d   1       3.260   0.208  -3.788  0.00  0.00     0.029 H 
ATOM     30  H   LIG d   1       2.419   1.630  -4.451  0.00  0.00     0.029 H 
ATOM     31  H   LIG d   1       1.625   0.038  -4.467  0.00  0.00     0.029 H 
ENDBRANCH   1  28
BRANCH   6  32
ATOM     32  N   LIG d   1       4.977   0.269 -12.024  0.00  0.00    -0.286 N 
ATOM     33  C   LIG d   1       4.303  -0.490 -12.909  0.00  0.00     0.214 C 
ATOM     34  O   LIG d   1       3.200  -0.911 -12.631  0.00  0.00    -0.276 OA
ATOM     35  H   LIG d   1       5.825   0.670 -12.274  0.00  0.00     0.155 HD
BRANCH  33  36
ATOM     36  C   LIG d   1       4.918  -0.813 -14.247  0.00  0.00     0.013 C 
ATOM     37  H   LIG d   1       4.313  -1.567 -14.752  0.00  0.00     0.032 H 
ATOM     38  H   LIG d   1       4.958   0.089 -14.856  0.00  0.00     0.032 H 
ATOM     39  H   LIG d   1       5.927  -1.198 -14.099  0.00  0.00     0.032 H 
ENDBRANCH  33  36
ENDBRANCH   6  32
TORSDOF 7
ENDMDL
MODEL 2
REMARK VINA RESULT:      -5.4      2.591      3.309
REMARK  7 active torsions:
REMARK  status: ('A' for Active; 'I' for Inactive)
REMARK    1  A    between atoms: C_1  and  C_2 
REMARK    2  A    between atoms: C_3  and  C_17 
REMARK    3  A    between atoms: C_7  and  N_12 
REMARK       I    between atoms: N_12  and  C_13 
REMARK    4  A    between atoms: C_13  and  C_15 
REMARK    5  A    between atoms: C_17  and  C_18 
REMARK    6  A    between atoms: C_18  and  C_19 
REMARK    7  A    between atoms: C_19  and  C_21 
ROOT
ATOM      1  C   LIG d   1       6.410  -0.026  -4.725  0.00  0.00     0.020 A 
ATOM      2  C   LIG d   1       5.676  -1.036  -4.215  0.00  0.00     0.019 A 
ATOM      3  C   LIG d   1       4.858  -1.817  -5.065  0.00  0.00     0.193 A 
ATOM      4  C   LIG d   1       4.842  -1.484  -6.500  0.00  0.00     0.047 A 
ATOM      5  C   LIG d   1       4.063  -2.204  -7.405  0.00  0.00    -0.028 A 
ATOM      6  C   LIG d   1       4.078  -1.858  -8.743  0.00  0.00     0.034 A 
ATOM      7  C   LIG d   1       4.867  -0.796  -9.185  0.00  0.00    -0.038 A 
ATOM      8  C   LIG d   1       5.639  -0.080  -8.300  0.00  0.00    -0.036 A 
ATOM      9  C   LIG d   1       5.637  -0.414  -6.948  0.00  0.00     0.050 A 
ATOM     10  N   LIG d   1       6.399   0.291  -6.042  0.00  0.00    -0.358 N 
ATOM     11  O   LIG d   1       4.188  -2.736  -4.624  0.00  0.00    -0.287 OA
ATOM     12  H   LIG d   1       3.452  -3.027  -7.062  0.00  0.00     0.064 H 
ATOM     13  H   LIG d   1       4.872  -0.533 -10.233  0.00  0.00     0.064 H 
ATOM     14  H   LIG d   1       6.247   0.739  -8.653  0.00  0.00     0.064 H 
ATOM     15  H   LIG d   1       6.943   1.031  -6.355  0.00  0.00     0.166 HD
ENDROOT
BRANCH   2  16
ATOM     16  C   LIG d   1       5.728  -1.334  -2.739  0.00  0.00    -0.016 C 
ATOM     17  H   LIG d   1       5.931  -2.394  -2.589  0.00  0.00     0.032 H 
ATOM     18  H   LIG d   1       6.520  -0.745  -2.277  0.00  0.00     0.032 H 
BRANCH  16  19
ATOM     19  C   LIG d   1       4.386  -0.977  -2.099  0.00  0.00     0.010 C 
ATOM     20  H   LIG d   1       3.574  -1.344  -2.727  0.00  0.00     0.035 H 
ATOM     21  H   LIG d   1       4.319  -1.437  -1.113  0.00  0.00     0.035 H 
BRANCH  19  22
ATOM     22  C   LIG d   1       4.276   0.520  -1.962  0.00  0.00     0.131 C 
ATOM     23  O   LIG d   1       4.927   1.099  -1.125  0.00  0.00    -0.298 OA
BRANCH  22  24
ATOM     24  C   LIG d   1       3.354   1.294  -2.867  0.00  0.00    -0.006 C 
ATOM     25  H   LIG d   1       2.784   2.012  -2.279  0.00  0.00     0.031 H 
ATOM     26  H   LIG d   1       3.942   1.824  -3.617  0.00  0.00     0.031 H 
ATOM     27  H   LIG d   1       2.670   0.606  -3.363  0.00  0.00     0.031 H 
ENDBRANCH  22  24
ENDBRANCH  19  22
ENDBRANCH  16  19
ENDBRANCH   2  16
BRANCH   1  28
ATOM     28  C   LIG d   1       7.271   0.787  -3.792  0.00  0.00    -0.024 C 
ATOM     29  H   LIG d   1       8.258   0.330  -3.718  0.00  0.00     0.029 H 
ATOM     30  H   LIG d   1       7.368   1.802  -4.178  0.00  0.00     0.029 H 
ATOM     31  H   LIG d   1       6.810   0.816  -2.805  0.00  0.00     0.029 H 
ENDBRANCH   1  28
BRANCH   6  32
ATOM     32  N   LIG d   1       3.298  -2.576  -9.658  0.00  0.00    -0.286 N 
ATOM     33  C   LIG d   1       2.041  -2.177  -9.931  0.00  0.00     0.214 C 
ATOM     34  O   LIG d   1       1.617  -1.143  -9.460  0.00  0.00    -0.276 OA
ATOM     35  H   LIG d   1       3.664  -3.362 -10.095  0.00  0.00     0.155 HD
BRANCH  33  36
ATOM     36  C   LIG d   1       1.161  -3.015 -10.824  0.00  0.00     0.013 C 
ATOM     37  H   LIG d   1       1.522  -2.951 -11.852  0.00  0.00     0.032 H 
ATOM     38  H   LIG d   1       1.189  -4.052 -10.492  0.00  0.00     0.032 H 
ATOM     39  H   LIG d   1       0.137  -2.644 -10.777  0.00  0.00     0.032 H 
ENDBRANCH  33  36
ENDBRANCH   6  32
TORSDOF 7
ENDMDL
MODEL 3
REMARK VINA RESULT:      -5.4      5.280      7.429
REMARK  7 active torsions:
REMARK  status: ('A' for Active; 'I' for Inactive)
REMARK    1  A    between atoms: C_1  and  C_2 
REMARK    2  A    between atoms: C_3  and  C_17 
REMARK    3  A    between atoms: C_7  and  N_12 
REMARK       I    between atoms: N_12  and  C_13 
REMARK    4  A    between atoms: C_13  and  C_15 
REMARK    5  A    between atoms: C_17  and  C_18 
REMARK    6  A    between atoms: C_18  and  C_19 
REMARK    7  A    between atoms: C_19  and  C_21 
ROOT
ATOM      1  C   LIG d   1       7.414  -1.580  -4.088  0.00  0.00     0.020 A 
ATOM      2  C   LIG d   1       6.477  -0.853  -3.446  0.00  0.00     0.019 A 
ATOM      3  C   LIG d   1       6.606   0.554  -3.362  0.00  0.00     0.193 A 
ATOM      4  C   LIG d   1       7.785   1.175  -3.991  0.00  0.00     0.047 A 
ATOM      5  C   LIG d   1       7.987   2.554  -3.952  0.00  0.00    -0.028 A 
ATOM      6  C   LIG d   1       9.107   3.095  -4.555  0.00  0.00     0.034 A 
ATOM      7  C   LIG d   1      10.027   2.268  -5.198  0.00  0.00    -0.038 A 
ATOM      8  C   LIG d   1       9.836   0.906  -5.241  0.00  0.00    -0.036 A 
ATOM      9  C   LIG d   1       8.714   0.343  -4.639  0.00  0.00     0.050 A 
ATOM     10  N   LIG d   1       8.504  -1.019  -4.665  0.00  0.00    -0.358 N 
ATOM     11  O   LIG d   1       5.769   1.230  -2.787  0.00  0.00    -0.287 OA
ATOM     12  H   LIG d   1       7.273   3.195  -3.455  0.00  0.00     0.064 H 
ATOM     13  H   LIG d   1      10.900   2.701  -5.666  0.00  0.00     0.064 H 
ATOM     14  H   LIG d   1      10.555   0.275  -5.742  0.00  0.00     0.064 H 
ATOM     15  H   LIG d   1       9.150  -1.590  -5.110  0.00  0.00     0.166 HD
ENDROOT
BRANCH   2  16
ATOM     16  C   LIG d   1       5.291  -1.538  -2.820  0.00  0.00    -0.016 C 
ATOM     17  H   LIG d   1       5.598  -2.505  -2.421  0.00  0.00     0.032 H 
ATOM     18  H   LIG d   1       4.900  -0.920  -2.011  0.00  0.00     0.032 H 
BRANCH  16  19
ATOM     19  C   LIG d   1       4.203  -1.745  -3.876  0.00  0.00     0.010 C 
ATOM     20  H   LIG d   1       4.635  -1.622  -4.870  0.00  0.00     0.035 H 
ATOM     21  H   LIG d   1       3.791  -2.750  -3.781  0.00  0.00     0.035 H 
BRANCH  19  22
ATOM     22  C   LIG d   1       3.108  -0.731  -3.675  0.00  0.00     0.131 C 
ATOM     23  O   LIG d   1       2.459  -0.737  -2.656  0.00  0.00    -0.298 OA
BRANCH  22  24
ATOM     24  C   LIG d   1       2.820   0.289  -4.745  0.00  0.00    -0.006 C 
ATOM     25  H   LIG d   1       3.758   0.647  -5.169  0.00  0.00     0.031 H 
ATOM     26  H   LIG d   1       2.218  -0.168  -5.530  0.00  0.00     0.031 H 
ATOM     27  H   LIG d   1       2.274   1.127  -4.312  0.00  0.00     0.031 H 
ENDBRANCH  22  24
ENDBRANCH  19  22
ENDBRANCH  16  19
ENDBRANCH   2  16
BRANCH   1  28
ATOM     28  C   LIG d   1       7.246  -3.076  -4.160  0.00  0.00    -0.024 C 
ATOM     29  H   LIG d   1       6.846  -3.443  -3.214  0.00  0.00     0.029 H 
ATOM     30  H   LIG d   1       6.556  -3.326  -4.967  0.00  0.00     0.029 H 
ATOM     31  H   LIG d   1       8.212  -3.542  -4.351  0.00  0.00     0.029 H 
ENDBRANCH   1  28
BRANCH   6  32
ATOM     32  N   LIG d   1       9.317   4.480  -4.521  0.00  0.00    -0.286 N 
ATOM     33  C   LIG d   1       9.821   5.057  -3.414  0.00  0.00     0.214 C 
ATOM     34  O   LIG d   1      10.183   4.370  -2.482  0.00  0.00    -0.276 OA
ATOM     35  H   LIG d   1       9.099   5.022  -5.296  0.00  0.00     0.155 HD
BRANCH  33  36
ATOM     36  C   LIG d   1       9.937   6.558  -3.332  0.00  0.00     0.013 C 
ATOM     37  H   LIG d   1      10.591   6.915  -4.129  0.00  0.00     0.032 H 
ATOM     38  H   LIG d   1       8.950   7.005  -3.444  0.00  0.00     0.032 H 
ATOM     39  H   LIG d   1      10.357   6.838  -2.366  0.00  0.00     0.032 H 
ENDBRANCH  33  36
ENDBRANCH   6  32
TORSDOF 7
ENDMDL
MODEL 4
REMARK VINA RESULT:      -5.2      5.404      8.273
REMARK  7 active torsions:
REMARK  status: ('A' for Active; 'I' for Inactive)
REMARK    1  A    between atoms: C_1  and  C_2 
REMARK    2  A    between atoms: C_3  and  C_17 
REMARK    3  A    between atoms: C_7  and  N_12 
REMARK       I    between atoms: N_12  and  C_13 
REMARK    4  A    between atoms: C_13  and  C_15 
REMARK    5  A    between atoms: C_17  and  C_18 
REMARK    6  A    between atoms: C_18  and  C_19 
REMARK    7  A    between atoms: C_19  and  C_21 
ROOT
ATOM      1  C   LIG d   1       7.068  -6.310  -5.573  0.00  0.00     0.020 A 
ATOM      2  C   LIG d   1       5.731  -6.368  -5.740  0.00  0.00     0.019 A 
ATOM      3  C   LIG d   1       4.930  -5.239  -5.447  0.00  0.00     0.193 A 
ATOM      4  C   LIG d   1       5.606  -4.025  -4.959  0.00  0.00     0.047 A 
ATOM      5  C   LIG d   1       4.890  -2.870  -4.647  0.00  0.00    -0.028 A 
ATOM      6  C   LIG d   1       5.565  -1.752  -4.192  0.00  0.00     0.034 A 
ATOM      7  C   LIG d   1       6.952  -1.779  -4.048  0.00  0.00    -0.038 A 
ATOM      8  C   LIG d   1       7.667  -2.914  -4.354  0.00  0.00    -0.036 A 
ATOM      9  C   LIG d   1       7.004  -4.050  -4.813  0.00  0.00     0.050 A 
ATOM     10  N   LIG d   1       7.699  -5.200  -5.121  0.00  0.00    -0.358 N 
ATOM     11  O   LIG d   1       3.719  -5.271  -5.592  0.00  0.00    -0.287 OA
ATOM     12  H   LIG d   1       3.816  -2.849  -4.759  0.00  0.00     0.064 H 
ATOM     13  H   LIG d   1       7.470  -0.901  -3.692  0.00  0.00     0.064 H 
ATOM     14  H   LIG d   1       8.740  -2.924  -4.239  0.00  0.00     0.064 H 
ATOM     15  H   LIG d   1       8.663  -5.214  -5.015  0.00  0.00     0.166 HD
ENDROOT
BRANCH   2  16
ATOM     16  C   LIG d   1       5.089  -7.636  -6.241  0.00  0.00    -0.016 C 
ATOM     17  H   LIG d   1       4.167  -7.393  -6.770  0.00  0.00     0.032 H 
ATOM     18  H   LIG d   1       5.773  -8.146  -6.920  0.00  0.00     0.032 H 
BRANCH  16  19
ATOM     19  C   LIG d   1       4.770  -8.550  -5.056  0.00  0.00     0.010 C 
ATOM     20  H   LIG d   1       5.569  -8.478  -4.317  0.00  0.00     0.035 H 
ATOM     21  H   LIG d   1       3.828  -8.242  -4.603  0.00  0.00     0.035 H 
BRANCH  19  22
ATOM     22  C   LIG d   1       4.657  -9.974  -5.535  0.00  0.00     0.131 C 
ATOM     23  O   LIG d   1       3.738 -10.664  -5.163  0.00  0.00    -0.298 OA
BRANCH  22  24
ATOM     24  C   LIG d   1       5.690 -10.537  -6.476  0.00  0.00    -0.006 C 
ATOM     25  H   LIG d   1       5.904 -11.570  -6.206  0.00  0.00     0.031 H 
ATOM     26  H   LIG d   1       5.309 -10.500  -7.497  0.00  0.00     0.031 H 
ATOM     27  H   LIG d   1       6.604  -9.947  -6.408  0.00  0.00     0.031 H 
ENDBRANCH  22  24
ENDBRANCH  19  22
ENDBRANCH  16  19
ENDBRANCH   2  16
BRANCH   1  28
ATOM     28  C   LIG d   1       7.892  -7.530  -5.896  0.00  0.00    -0.024 C 
ATOM     29  H   LIG d   1       8.299  -7.438  -6.903  0.00  0.00     0.029 H 
ATOM     30  H   LIG d   1       8.710  -7.616  -5.180  0.00  0.00     0.029 H 
ATOM     31  H   LIG d   1       7.264  -8.418  -5.838  0.00  0.00     0.029 H 
ENDBRANCH   1  28
BRANCH   6  32
ATOM     32  N   LIG d   1       4.853  -0.588  -3.876  0.00  0.00    -0.286 N 
ATOM     33  C   LIG d   1       4.308  -0.443  -2.653  0.00  0.00     0.214 C 
ATOM     34  O   LIG d   1       4.515  -1.274  -1.794  0.00  0.00    -0.276 OA
ATOM     35  H   LIG d   1       4.752   0.114  -4.539  0.00  0.00     0.155 HD
BRANCH  33  36
ATOM     36  C   LIG d   1       3.443   0.754  -2.350  0.00  0.00     0.013 C 
ATOM     37  H   LIG d   1       3.441   1.427  -3.208  0.00  0.00     0.032 H 
ATOM     38  H   LIG d   1       2.426   0.424  -2.143  0.00  0.00     0.032 H 
ATOM     39  H   LIG d   1       3.840   1.279  -1.480  0.00  0.00     0.032 H 
ENDBRANCH  33  36
ENDBRANCH   6  32
TORSDOF 7
ENDMDL
MODEL 5
REMARK VINA RESULT:      -5.1      1.368      1.798
REMARK  7 active torsions:
REMARK  status: ('A' for Active; 'I' for Inactive)
REMARK    1  A    between atoms: C_1  and  C_2 
REMARK    2  A    between atoms: C_3  and  C_17 
REMARK    3  A    between atoms: C_7  and  N_12 
REMARK       I    between atoms: N_12  and  C_13 
REMARK    4  A    between atoms: C_13  and  C_15 
REMARK    5  A    between atoms: C_17  and  C_18 
REMARK    6  A    between atoms: C_18  and  C_19 
REMARK    7  A    between atoms: C_19  and  C_21 
ROOT
ATOM      1  C   LIG d   1       3.344  -0.205  -4.447  0.00  0.00     0.020 A 
ATOM      2  C   LIG d   1       4.104  -1.279  -4.749  0.00  0.00     0.019 A 
ATOM      3  C   LIG d   1       4.457  -1.540  -6.094  0.00  0.00     0.193 A 
ATOM      4  C   LIG d   1       3.968  -0.611  -7.127  0.00  0.00     0.047 A 
ATOM      5  C   LIG d   1       4.271  -0.798  -8.475  0.00  0.00    -0.028 A 
ATOM      6  C   LIG d   1       3.791   0.099  -9.412  0.00  0.00     0.034 A 
ATOM      7  C   LIG d   1       3.010   1.182  -9.011  0.00  0.00    -0.038 A 
ATOM      8  C   LIG d   1       2.706   1.375  -7.683  0.00  0.00    -0.036 A 
ATOM      9  C   LIG d   1       3.180   0.482  -6.726  0.00  0.00     0.050 A 
ATOM     10  N   LIG d   1       2.885   0.652  -5.390  0.00  0.00    -0.358 N 
ATOM     11  O   LIG d   1       5.145  -2.504  -6.389  0.00  0.00    -0.287 OA
ATOM     12  H   LIG d   1       4.876  -1.637  -8.786  0.00  0.00     0.064 H 
ATOM     13  H   LIG d   1       2.640   1.878  -9.751  0.00  0.00     0.064 H 
ATOM     14  H   LIG d   1       2.101   2.218  -7.384  0.00  0.00     0.064 H 
ATOM     15  H   LIG d   1       2.338   1.406  -5.118  0.00  0.00     0.166 HD
ENDROOT
BRANCH   2  16
ATOM     16  C   LIG d   1       4.577  -2.198  -3.654  0.00  0.00    -0.016 C 
ATOM     17  H   LIG d   1       3.736  -2.464  -3.014  0.00  0.00     0.032 H 
ATOM     18  H   LIG d   1       4.997  -3.103  -4.096  0.00  0.00     0.032 H 
BRANCH  16  19
ATOM     19  C   LIG d   1       5.648  -1.492  -2.822  0.00  0.00     0.010 C 
ATOM     20  H   LIG d   1       5.346  -0.460  -2.641  0.00  0.00     0.035 H 
ATOM     21  H   LIG d   1       5.768  -2.008  -1.869  0.00  0.00     0.035 H 
BRANCH  19  22
ATOM     22  C   LIG d   1       6.957  -1.506  -3.569  0.00  0.00     0.131 C 
ATOM     23  O   LIG d   1       7.461  -0.468  -3.924  0.00  0.00    -0.298 OA
BRANCH  22  24
ATOM     24  C   LIG d   1       7.635  -2.816  -3.875  0.00  0.00    -0.006 C 
ATOM     25  H   LIG d   1       8.486  -2.951  -3.207  0.00  0.00     0.031 H 
ATOM     26  H   LIG d   1       6.928  -3.633  -3.731  0.00  0.00     0.031 H 
ATOM     27  H   LIG d   1       7.981  -2.814  -4.908  0.00  0.00     0.031 H 
ENDBRANCH  22  24
ENDBRANCH  19  22
ENDBRANCH  16  19
ENDBRANCH   2  16
BRANCH   1  28
ATOM     28  C   LIG d   1       2.985   0.045  -3.005  0.00  0.00    -0.024 C 
ATOM     29  H   LIG d   1       2.028   0.563  -2.953  0.00  0.00     0.029 H 
ATOM     30  H   LIG d   1       2.912  -0.907  -2.478  0.00  0.00     0.029 H 
ATOM     31  H   LIG d   1       3.756   0.658  -2.540  0.00  0.00     0.029 H 
ENDBRANCH   1  28
BRANCH   6  32
ATOM     32  N   LIG d   1       4.091  -0.081 -10.768  0.00  0.00    -0.286 N 
ATOM     33  C   LIG d   1       3.207  -0.695 -11.578  0.00  0.00     0.214 C 
ATOM     34  O   LIG d   1       2.113  -1.005 -11.157  0.00  0.00    -0.276 OA
ATOM     35  H   LIG d   1       4.937   0.236 -11.124  0.00  0.00     0.155 HD
BRANCH  33  36
ATOM     36  C   LIG d   1       3.576  -0.995 -13.008  0.00  0.00     0.013 C 
ATOM     37  H   LIG d   1       3.157  -1.959 -13.297  0.00  0.00     0.032 H 
ATOM     38  H   LIG d   1       3.178  -0.216 -13.657  0.00  0.00     0.032 H 
ATOM     39  H   LIG d   1       4.662  -1.029 -13.104  0.00  0.00     0.032 H 
ENDBRANCH  33  36
ENDBRANCH   6  32
TORSDOF 7
ENDMDL
MODEL 6
REMARK VINA RESULT:      -5.0      2.454      3.149
REMARK  7 active torsions:
REMARK  status: ('A' for Active; 'I' for Inactive)
REMARK    1  A    between atoms: C_1  and  C_2 
REMARK    2  A    between atoms: C_3  and  C_17 
REMARK    3  A    between atoms: C_7  and  N_12 
REMARK       I    between atoms: N_12  and  C_13 
REMARK    4  A    between atoms: C_13  and  C_15 
REMARK    5  A    between atoms: C_17  and  C_18 
REMARK    6  A    between atoms: C_18  and  C_19 
REMARK    7  A    between atoms: C_19  and  C_21 
ROOT
ATOM      1  C   LIG d   1       7.576   1.140  -5.130  0.00  0.00     0.020 A 
ATOM      2  C   LIG d   1       6.642   0.245  -4.746  0.00  0.00     0.019 A 
ATOM      3  C   LIG d   1       5.825  -0.386  -5.715  0.00  0.00     0.193 A 
ATOM      4  C   LIG d   1       6.033  -0.028  -7.128  0.00  0.00     0.047 A 
ATOM      5  C   LIG d   1       5.269  -0.603  -8.143  0.00  0.00    -0.028 A 
ATOM      6  C   LIG d   1       5.497  -0.238  -9.457  0.00  0.00     0.034 A 
ATOM      7  C   LIG d   1       6.485   0.697  -9.765  0.00  0.00    -0.038 A 
ATOM      8  C   LIG d   1       7.243   1.269  -8.771  0.00  0.00    -0.036 A 
ATOM      9  C   LIG d   1       7.027   0.915  -7.441  0.00  0.00     0.050 A 
ATOM     10  N   LIG d   1       7.771   1.479  -6.427  0.00  0.00    -0.358 N 
ATOM     11  O   LIG d   1       4.976  -1.198  -5.388  0.00  0.00    -0.287 OA
ATOM     12  H   LIG d   1       4.505  -1.328  -7.905  0.00  0.00     0.064 H 
ATOM     13  H   LIG d   1       6.655   0.975 -10.795  0.00  0.00     0.064 H 
ATOM     14  H   LIG d   1       8.006   1.992  -9.020  0.00  0.00     0.064 H 
ATOM     15  H   LIG d   1       8.454   2.132  -6.647  0.00  0.00     0.166 HD
ENDROOT
BRANCH   2  16
ATOM     16  C   LIG d   1       6.470  -0.084  -3.287  0.00  0.00    -0.016 C 
ATOM     17  H   LIG d   1       6.060  -1.089  -3.186  0.00  0.00     0.032 H 
ATOM     18  H   LIG d   1       7.438  -0.036  -2.787  0.00  0.00     0.032 H 
BRANCH  16  19
ATOM     19  C   LIG d   1       5.513   0.923  -2.645  0.00  0.00     0.010 C 
ATOM     20  H   LIG d   1       5.994   1.381  -1.781  0.00  0.00     0.035 H 
ATOM     21  H   LIG d   1       5.258   1.695  -3.372  0.00  0.00     0.035 H 
BRANCH  19  22
ATOM     22  C   LIG d   1       4.259   0.214  -2.204  0.00  0.00     0.131 C 
ATOM     23  O   LIG d   1       3.231   0.834  -2.069  0.00  0.00    -0.298 OA
BRANCH  22  24
ATOM     24  C   LIG d   1       4.288  -1.267  -1.928  0.00  0.00    -0.006 C 
ATOM     25  H   LIG d   1       3.536  -1.512  -1.178  0.00  0.00     0.031 H 
ATOM     26  H   LIG d   1       4.074  -1.811  -2.848  0.00  0.00     0.031 H 
ATOM     27  H   LIG d   1       5.274  -1.549  -1.560  0.00  0.00     0.031 H 
ENDBRANCH  22  24
ENDBRANCH  19  22
ENDBRANCH  16  19
ENDBRANCH   2  16
BRANCH   1  28
ATOM     28  C   LIG d   1       8.430   1.793  -4.074  0.00  0.00    -0.024 C 
ATOM     29  H   LIG d   1       7.945   1.694  -3.102  0.00  0.00     0.029 H 
ATOM     30  H   LIG d   1       9.406   1.307  -4.044  0.00  0.00     0.029 H 
ATOM     31  H   LIG d   1       8.557   2.848  -4.311  0.00  0.00     0.029 H 
ENDBRANCH   1  28
BRANCH   6  32
ATOM     32  N   LIG d   1       4.735  -0.812 -10.483  0.00  0.00    -0.286 N 
ATOM     33  C   LIG d   1       3.588  -0.226 -10.878  0.00  0.00     0.214 C 
ATOM     34  O   LIG d   1       3.264   0.847 -10.414  0.00  0.00    -0.276 OA
ATOM     35  H   LIG d   1       5.033  -1.632 -10.908  0.00  0.00     0.155 HD
BRANCH  33  36
ATOM     36  C   LIG d   1       2.708  -0.903 -11.897  0.00  0.00     0.013 C 
ATOM     37  H   LIG d   1       1.909  -0.223 -12.196  0.00  0.00     0.032 H 
ATOM     38  H   LIG d   1       3.303  -1.171 -12.770  0.00  0.00     0.032 H 
ATOM     39  H   LIG d   1       2.273  -1.803 -11.462  0.00  0.00     0.032 H 
ENDBRANCH  33  36
ENDBRANCH   6  32
TORSDOF 7
ENDMDL
MODEL 7
REMARK VINA RESULT:      -5.0      6.071      8.340
REMARK  7 active torsions:
REMARK  status: ('A' for Active; 'I' for Inactive)
REMARK    1  A    between atoms: C_1  and  C_2 
REMARK    2  A    between atoms: C_3  and  C_17 
REMARK    3  A    between atoms: C_7  and  N_12 
REMARK       I    between atoms: N_12  and  C_13 
REMARK    4  A    between atoms: C_13  and  C_15 
REMARK    5  A    between atoms: C_17  and  C_18 
REMARK    6  A    between atoms: C_18  and  C_19 
REMARK    7  A    between atoms: C_19  and  C_21 
ROOT
ATOM      1  C   LIG d   1       9.765   3.869  -6.490  0.00  0.00     0.020 A 
ATOM      2  C   LIG d   1       9.855   4.194  -5.184  0.00  0.00     0.019 A 
ATOM      3  C   LIG d   1       9.192   3.408  -4.211  0.00  0.00     0.193 A 
ATOM      4  C   LIG d   1       8.415   2.247  -4.678  0.00  0.00     0.047 A 
ATOM      5  C   LIG d   1       7.733   1.423  -3.785  0.00  0.00    -0.028 A 
ATOM      6  C   LIG d   1       7.015   0.344  -4.266  0.00  0.00     0.034 A 
ATOM      7  C   LIG d   1       6.976   0.081  -5.634  0.00  0.00    -0.038 A 
ATOM      8  C   LIG d   1       7.646   0.888  -6.524  0.00  0.00    -0.036 A 
ATOM      9  C   LIG d   1       8.374   1.980  -6.058  0.00  0.00     0.050 A 
ATOM     10  N   LIG d   1       9.050   2.806  -6.930  0.00  0.00    -0.358 N 
ATOM     11  O   LIG d   1       9.262   3.685  -3.025  0.00  0.00    -0.287 OA
ATOM     12  H   LIG d   1       7.764   1.627  -2.724  0.00  0.00     0.064 H 
ATOM     13  H   LIG d   1       6.412  -0.766  -6.001  0.00  0.00     0.064 H 
ATOM     14  H   LIG d   1       7.610   0.675  -7.582  0.00  0.00     0.064 H 
ATOM     15  H   LIG d   1       9.015   2.621  -7.881  0.00  0.00     0.166 HD
ENDROOT
BRANCH   2  16
ATOM     16  C   LIG d   1      10.662   5.393  -4.760  0.00  0.00    -0.016 C 
ATOM     17  H   LIG d   1      11.202   5.163  -3.841  0.00  0.00     0.032 H 
ATOM     18  H   LIG d   1      11.375   5.647  -5.545  0.00  0.00     0.032 H 
BRANCH  16  19
ATOM     19  C   LIG d   1       9.726   6.579  -4.517  0.00  0.00     0.010 C 
ATOM     20  H   LIG d   1       9.771   7.257  -5.369  0.00  0.00     0.035 H 
ATOM     21  H   LIG d   1       8.706   6.216  -4.393  0.00  0.00     0.035 H 
BRANCH  19  22
ATOM     22  C   LIG d   1      10.155   7.310  -3.271  0.00  0.00     0.131 C 
ATOM     23  O   LIG d   1      11.050   8.120  -3.324  0.00  0.00    -0.298 OA
BRANCH  22  24
ATOM     24  C   LIG d   1       9.468   7.031  -1.960  0.00  0.00    -0.006 C 
ATOM     25  H   LIG d   1       8.474   7.477  -1.967  0.00  0.00     0.031 H 
ATOM     26  H   LIG d   1       9.382   5.954  -1.817  0.00  0.00     0.031 H 
ATOM     27  H   LIG d   1      10.052   7.459  -1.145  0.00  0.00     0.031 H 
ENDBRANCH  22  24
ENDBRANCH  19  22
ENDBRANCH  16  19
ENDBRANCH   2  16
BRANCH   1  28
ATOM     28  C   LIG d   1      10.484   4.726  -7.500  0.00  0.00    -0.024 C 
ATOM     29  H   LIG d   1      10.878   4.096  -8.298  0.00  0.00     0.029 H 
ATOM     30  H   LIG d   1       9.788   5.452  -7.922  0.00  0.00     0.029 H 
ATOM     31  H   LIG d   1      11.305   5.251  -7.013  0.00  0.00     0.029 H 
ENDBRANCH   1  28
BRANCH   6  32
ATOM     32  N   LIG d   1       6.327  -0.490  -3.375  0.00  0.00    -0.286 N 
ATOM     33  C   LIG d   1       5.072  -0.179  -2.994  0.00  0.00     0.214 C 
ATOM     34  O   LIG d   1       4.504   0.768  -3.496  0.00  0.00    -0.276 OA
ATOM     35  H   LIG d   1       6.754  -1.291  -3.031  0.00  0.00     0.155 HD
BRANCH  33  36
ATOM     36  C   LIG d   1       4.375  -1.008  -1.947  0.00  0.00     0.013 C 
ATOM     37  H   LIG d   1       4.847  -1.989  -1.887  0.00  0.00     0.032 H 
ATOM     38  H   LIG d   1       4.448  -0.510  -0.981  0.00  0.00     0.032 H 
ATOM     39  H   LIG d   1       3.325  -1.127  -2.217  0.00  0.00     0.032 H 
ENDBRANCH  33  36
ENDBRANCH   6  32
TORSDOF 7
ENDMDL
MODEL 8
REMARK VINA RESULT:      -4.9      2.711      3.823
REMARK  7 active torsions:
REMARK  status: ('A' for Active; 'I' for Inactive)
REMARK    1  A    between atoms: C_1  and  C_2 
REMARK    2  A    between atoms: C_3  and  C_17 
REMARK    3  A    between atoms: C_7  and  N_12 
REMARK       I    between atoms: N_12  and  C_13 
REMARK    4  A    between atoms: C_13  and  C_15 
REMARK    5  A    between atoms: C_17  and  C_18 
REMARK    6  A    between atoms: C_18  and  C_19 
REMARK    7  A    between atoms: C_19  and  C_21 
ROOT
ATOM      1  C   LIG d   1       6.647  -2.892  -5.260  0.00  0.00     0.020 A 
ATOM      2  C   LIG d   1       6.283  -1.593  -5.214  0.00  0.00     0.019 A 
ATOM      3  C   LIG d   1       5.295  -1.103  -6.100  0.00  0.00     0.193 A 
ATOM      4  C   LIG d   1       4.695  -2.051  -7.055  0.00  0.00     0.047 A 
ATOM      5  C   LIG d   1       3.716  -1.648  -7.961  0.00  0.00    -0.028 A 
ATOM      6  C   LIG d   1       3.180  -2.571  -8.840  0.00  0.00     0.034 A 
ATOM      7  C   LIG d   1       3.615  -3.895  -8.819  0.00  0.00    -0.038 A 
ATOM      8  C   LIG d   1       4.580  -4.302  -7.928  0.00  0.00    -0.036 A 
ATOM      9  C   LIG d   1       5.133  -3.387  -7.036  0.00  0.00     0.050 A 
ATOM     10  N   LIG d   1       6.105  -3.770  -6.137  0.00  0.00    -0.358 N 
ATOM     11  O   LIG d   1       4.951   0.068  -6.074  0.00  0.00    -0.287 OA
ATOM     12  H   LIG d   1       3.379  -0.622  -7.977  0.00  0.00     0.064 H 
ATOM     13  H   LIG d   1       3.190  -4.609  -9.510  0.00  0.00     0.064 H 
ATOM     14  H   LIG d   1       4.910  -5.331  -7.920  0.00  0.00     0.064 H 
ATOM     15  H   LIG d   1       6.406  -4.692  -6.130  0.00  0.00     0.166 HD
ENDROOT
BRANCH   2  16
ATOM     16  C   LIG d   1       6.929  -0.665  -4.218  0.00  0.00    -0.016 C 
ATOM     17  H   LIG d   1       7.937  -1.015  -3.996  0.00  0.00     0.032 H 
ATOM     18  H   LIG d   1       6.978   0.340  -4.638  0.00  0.00     0.032 H 
BRANCH  16  19
ATOM     19  C   LIG d   1       6.103  -0.642  -2.931  0.00  0.00     0.010 C 
ATOM     20  H   LIG d   1       5.268  -1.338  -3.023  0.00  0.00     0.035 H 
ATOM     21  H   LIG d   1       6.731  -0.937  -2.091  0.00  0.00     0.035 H 
BRANCH  19  22
ATOM     22  C   LIG d   1       5.573   0.749  -2.699  0.00  0.00     0.131 C 
ATOM     23  O   LIG d   1       6.127   1.698  -3.200  0.00  0.00    -0.298 OA
BRANCH  22  24
ATOM     24  C   LIG d   1       4.353   0.957  -1.839  0.00  0.00    -0.006 C 
ATOM     25  H   LIG d   1       3.625   1.561  -2.380  0.00  0.00     0.031 H 
ATOM     26  H   LIG d   1       3.913  -0.009  -1.594  0.00  0.00     0.031 H 
ATOM     27  H   LIG d   1       4.639   1.469  -0.921  0.00  0.00     0.031 H 
ENDBRANCH  22  24
ENDBRANCH  19  22
ENDBRANCH  16  19
ENDBRANCH   2  16
BRANCH   1  28
ATOM     28  C   LIG d   1       7.702  -3.382  -4.302  0.00  0.00    -0.024 C 
ATOM     29  H   LIG d   1       8.163  -4.287  -4.700  0.00  0.00     0.029 H 
ATOM     30  H   LIG d   1       8.464  -2.612  -4.175  0.00  0.00     0.029 H 
ATOM     31  H   LIG d   1       7.244  -3.602  -3.338  0.00  0.00     0.029 H 
ENDBRANCH   1  28
BRANCH   6  32
ATOM     32  N   LIG d   1       2.195  -2.174  -9.754  0.00  0.00    -0.286 N 
ATOM     33  C   LIG d   1       2.551  -1.670 -10.952  0.00  0.00     0.214 C 
ATOM     34  O   LIG d   1       3.719  -1.650 -11.278  0.00  0.00    -0.276 OA
ATOM     35  H   LIG d   1       1.256  -2.261  -9.523  0.00  0.00     0.155 HD
BRANCH  33  36
ATOM     36  C   LIG d   1       1.498  -1.134 -11.887  0.00  0.00     0.013 C 
ATOM     37  H   LIG d   1       1.859  -0.216 -12.352  0.00  0.00     0.032 H 
ATOM     38  H   LIG d   1       1.287  -1.874 -12.659  0.00  0.00     0.032 H 
ATOM     39  H   LIG d   1       0.588  -0.922 -11.327  0.00  0.00     0.032 H 
ENDBRANCH  33  36
ENDBRANCH   6  32
TORSDOF 7
ENDMDL
MODEL 9
REMARK VINA RESULT:      -4.9      4.806      6.669
REMARK  7 active torsions:
REMARK  status: ('A' for Active; 'I' for Inactive)
REMARK    1  A    between atoms: C_1  and  C_2 
REMARK    2  A    between atoms: C_3  and  C_17 
REMARK    3  A    between atoms: C_7  and  N_12 
REMARK       I    between atoms: N_12  and  C_13 
REMARK    4  A    between atoms: C_13  and  C_15 
REMARK    5  A    between atoms: C_17  and  C_18 
REMARK    6  A    between atoms: C_18  and  C_19 
REMARK    7  A    between atoms: C_19  and  C_21 
ROOT
ATOM      1  C   LIG d   1       5.499   0.752  -2.826  0.00  0.00     0.020 A 
ATOM      2  C   LIG d   1       5.839  -0.551  -2.910  0.00  0.00     0.019 A 
ATOM      3  C   LIG d   1       7.040  -0.929  -3.557  0.00  0.00     0.193 A 
ATOM      4  C   LIG d   1       7.882   0.139  -4.123  0.00  0.00     0.047 A 
ATOM      5  C   LIG d   1       9.080  -0.149  -4.776  0.00  0.00    -0.028 A 
ATOM      6  C   LIG d   1       9.839   0.884  -5.293  0.00  0.00     0.034 A 
ATOM      7  C   LIG d   1       9.411   2.204  -5.161  0.00  0.00    -0.038 A 
ATOM      8  C   LIG d   1       8.231   2.499  -4.518  0.00  0.00    -0.036 A 
ATOM      9  C   LIG d   1       7.452   1.471  -3.992  0.00  0.00     0.050 A 
ATOM     10  N   LIG d   1       6.264   1.741  -3.348  0.00  0.00    -0.358 N 
ATOM     11  O   LIG d   1       7.367  -2.101  -3.643  0.00  0.00    -0.287 OA
ATOM     12  H   LIG d   1       9.412  -1.172  -4.878  0.00  0.00     0.064 H 
ATOM     13  H   LIG d   1      10.012   3.005  -5.568  0.00  0.00     0.064 H 
ATOM     14  H   LIG d   1       7.909   3.525  -4.421  0.00  0.00     0.064 H 
ATOM     15  H   LIG d   1       5.969   2.661  -3.262  0.00  0.00     0.166 HD
ENDROOT
BRANCH   2  16
ATOM     16  C   LIG d   1       4.941  -1.604  -2.315  0.00  0.00    -0.016 C 
ATOM     17  H   LIG d   1       5.506  -2.525  -2.171  0.00  0.00     0.032 H 
ATOM     18  H   LIG d   1       4.563  -1.257  -1.354  0.00  0.00     0.032 H 
BRANCH  16  19
ATOM     19  C   LIG d   1       3.768  -1.869  -3.261  0.00  0.00     0.010 C 
ATOM     20  H   LIG d   1       3.010  -2.456  -2.743  0.00  0.00     0.035 H 
ATOM     21  H   LIG d   1       3.339  -0.920  -3.581  0.00  0.00     0.035 H 
BRANCH  19  22
ATOM     22  C   LIG d   1       4.256  -2.632  -4.466  0.00  0.00     0.131 C 
ATOM     23  O   LIG d   1       4.508  -3.809  -4.373  0.00  0.00    -0.298 OA
BRANCH  22  24
ATOM     24  C   LIG d   1       4.431  -1.925  -5.784  0.00  0.00    -0.006 C 
ATOM     25  H   LIG d   1       3.977  -2.517  -6.578  0.00  0.00     0.031 H 
ATOM     26  H   LIG d   1       3.950  -0.948  -5.740  0.00  0.00     0.031 H 
ATOM     27  H   LIG d   1       5.494  -1.797  -5.990  0.00  0.00     0.031 H 
ENDBRANCH  22  24
ENDBRANCH  19  22
ENDBRANCH  16  19
ENDBRANCH   2  16
BRANCH   1  28
ATOM     28  C   LIG d   1       4.214   1.120  -2.131  0.00  0.00    -0.024 C 
ATOM     29  H   LIG d   1       4.080   2.202  -2.163  0.00  0.00     0.029 H 
ATOM     30  H   LIG d   1       3.376   0.636  -2.634  0.00  0.00     0.029 H 
ATOM     31  H   LIG d   1       4.254   0.791  -1.094  0.00  0.00     0.029 H 
ENDBRANCH   1  28
BRANCH   6  32
ATOM     32  N   LIG d   1      11.044   0.603  -5.950  0.00  0.00    -0.286 N 
ATOM     33  C   LIG d   1      12.197   0.560  -5.253  0.00  0.00     0.214 C 
ATOM     34  O   LIG d   1      12.180   0.669  -4.045  0.00  0.00    -0.276 OA
ATOM     35  H   LIG d   1      11.048   0.440  -6.906  0.00  0.00     0.155 HD
BRANCH  33  36
ATOM     36  C   LIG d   1      13.507   0.375  -5.975  0.00  0.00     0.013 C 
ATOM     37  H   LIG d   1      14.232  -0.080  -5.300  0.00  0.00     0.032 H 
ATOM     38  H   LIG d   1      13.358  -0.271  -6.839  0.00  0.00     0.032 H 
ATOM     39  H   LIG d   1      13.880   1.345  -6.306  0.00  0.00     0.032 H 
ENDBRANCH  33  36
ENDBRANCH   6  32
TORSDOF 7
ENDMDL
MODEL 10
REMARK VINA RESULT:      -4.9      7.202      9.173
REMARK  7 active torsions:
REMARK  status: ('A' for Active; 'I' for Inactive)
REMARK    1  A    between atoms: C_1  and  C_2 
REMARK    2  A    between atoms: C_3  and  C_17 
REMARK    3  A    between atoms: C_7  and  N_12 
REMARK       I    between atoms: N_12  and  C_13 
REMARK    4  A    between atoms: C_13  and  C_15 
REMARK    5  A    between atoms: C_17  and  C_18 
REMARK    6  A    between atoms: C_18  and  C_19 
REMARK    7  A    between atoms: C_19  and  C_21 
ROOT
ATOM      1  C   LIG d   1      10.541   5.989  -5.236  0.00  0.00     0.020 A 
ATOM      2  C   LIG d   1      10.574   5.849  -3.894  0.00  0.00     0.019 A 
ATOM      3  C   LIG d   1      10.092   4.662  -3.294  0.00  0.00     0.193 A 
ATOM      4  C   LIG d   1       9.562   3.610  -4.178  0.00  0.00     0.047 A 
ATOM      5  C   LIG d   1       9.068   2.411  -3.667  0.00  0.00    -0.028 A 
ATOM      6  C   LIG d   1       8.580   1.450  -4.533  0.00  0.00     0.034 A 
ATOM      7  C   LIG d   1       8.584   1.678  -5.908  0.00  0.00    -0.038 A 
ATOM      8  C   LIG d   1       9.070   2.858  -6.423  0.00  0.00    -0.036 A 
ATOM      9  C   LIG d   1       9.565   3.838  -5.566  0.00  0.00     0.050 A 
ATOM     10  N   LIG d   1      10.052   5.029  -6.057  0.00  0.00    -0.358 N 
ATOM     11  O   LIG d   1      10.113   4.515  -2.083  0.00  0.00    -0.287 OA
ATOM     12  H   LIG d   1       9.066   2.234  -2.601  0.00  0.00     0.064 H 
ATOM     13  H   LIG d   1       8.201   0.921  -6.577  0.00  0.00     0.064 H 
ATOM     14  H   LIG d   1       9.069   3.024  -7.490  0.00  0.00     0.064 H 
ATOM     15  H   LIG d   1      10.048   5.184  -7.015  0.00  0.00     0.166 HD
ENDROOT
BRANCH   2  16
ATOM     16  C   LIG d   1      11.125   6.957  -3.035  0.00  0.00    -0.016 C 
ATOM     17  H   LIG d   1      11.549   6.534  -2.124  0.00  0.00     0.032 H 
ATOM     18  H   LIG d   1      11.901   7.490  -3.584  0.00  0.00     0.032 H 
BRANCH  16  19
ATOM     19  C   LIG d   1      10.000   7.927  -2.669  0.00  0.00     0.010 C 
ATOM     20  H   LIG d   1      10.333   8.951  -2.841  0.00  0.00     0.035 H 
ATOM     21  H   LIG d   1       9.126   7.720  -3.288  0.00  0.00     0.035 H 
BRANCH  19  22
ATOM     22  C   LIG d   1       9.639   7.754  -1.216  0.00  0.00     0.131 C 
ATOM     23  O   LIG d   1       8.485   7.834  -0.867  0.00  0.00    -0.298 OA
BRANCH  22  24
ATOM     24  C   LIG d   1      10.717   7.485  -0.199  0.00  0.00    -0.006 C 
ATOM     25  H   LIG d   1      11.682   7.796  -0.600  0.00  0.00     0.031 H 
ATOM     26  H   LIG d   1      10.505   8.045   0.712  0.00  0.00     0.031 H 
ATOM     27  H   LIG d   1      10.745   6.419   0.028  0.00  0.00     0.031 H 
ENDBRANCH  22  24
ENDBRANCH  19  22
ENDBRANCH  16  19
ENDBRANCH   2  16
BRANCH   1  28
ATOM     28  C   LIG d   1      11.063   7.266  -5.843  0.00  0.00    -0.024 C 
ATOM     29  H   LIG d   1      10.232   7.837  -6.257  0.00  0.00     0.029 H 
ATOM     30  H   LIG d   1      11.563   7.856  -5.075  0.00  0.00     0.029 H 
ATOM     31  H   LIG d   1      11.771   7.028  -6.636  0.00  0.00     0.029 H 
ENDBRANCH   1  28
BRANCH   6  32
ATOM     32  N   LIG d   1       8.083   0.242  -4.027  0.00  0.00    -0.286 N 
ATOM     33  C   LIG d   1       6.784   0.141  -3.682  0.00  0.00     0.214 C 
ATOM     34  O   LIG d   1       6.025   1.062  -3.900  0.00  0.00    -0.276 OA
ATOM     35  H   LIG d   1       8.673  -0.521  -3.924  0.00  0.00     0.155 HD
BRANCH  33  36
ATOM     36  C   LIG d   1       6.273  -1.118  -3.029  0.00  0.00     0.013 C 
ATOM     37  H   LIG d   1       5.868  -1.784  -3.791  0.00  0.00     0.032 H 
ATOM     38  H   LIG d   1       7.092  -1.615  -2.509  0.00  0.00     0.032 H 
ATOM     39  H   LIG d   1       5.489  -0.864  -2.315  0.00  0.00     0.032 H 
ENDBRANCH  33  36
ENDBRANCH   6  32
TORSDOF 7
ENDMDL
