MODEL 1
REMARK VINA RESULT:      -5.4      0.000      0.000
REMARK  4 active torsions:
REMARK  status: ('A' for Active; 'I' for Inactive)
REMARK    1  A    between atoms: C_1  and  C_2 
REMARK    2  A    between atoms: C_2  and  O_3 
REMARK    3  A    between atoms: O_3  and  C_4 
REMARK    4  A    between atoms: C_4  and  C_6 
ROOT
ATOM      1  C   LIG d   1       4.751  -0.221  -2.465  0.00  0.00     0.087 C 
ATOM      2  H   LIG d   1       4.552  -0.251  -1.393  0.00  0.00     0.046 H 
ATOM      3  C   LIG d   1       5.782   0.846  -2.770  0.00  0.00    -0.017 C 
ATOM      4  C   LIG d   1       6.778   0.658  -3.627  0.00  0.00     0.197 C 
ATOM      5  O   LIG d   1       6.957  -0.502  -4.329  0.00  0.00    -0.454 OA
ATOM      6  C   LIG d   1       5.803  -1.320  -4.394  0.00  0.00     0.206 C 
ATOM      7  H   LIG d   1       5.020  -0.809  -4.954  0.00  0.00     0.106 H 
ATOM      8  C   LIG d   1       5.339  -1.550  -2.922  0.00  0.00     0.040 C 
ATOM      9  H   LIG d   1       6.167  -1.858  -2.283  0.00  0.00     0.037 H 
ATOM     10  C   LIG d   1       4.311  -2.672  -3.115  0.00  0.00    -0.020 C 
ATOM     11  C   LIG d   1       4.790  -3.374  -4.410  0.00  0.00     0.052 C 
ATOM     12  O   LIG d   1       5.960  -2.647  -4.886  0.00  0.00    -0.341 OA
ATOM     13  C   LIG d   1       7.714   1.723  -3.825  0.00  0.00     0.137 C 
ATOM     14  N   LIG d   1       8.456   2.569  -3.983  0.00  0.00    -0.188 NA
ATOM     15  H   LIG d   1       5.702   1.800  -2.270  0.00  0.00     0.062 H 
ATOM     16  H   LIG d   1       4.332  -3.363  -2.273  0.00  0.00     0.029 H 
ATOM     17  H   LIG d   1       3.311  -2.258  -3.251  0.00  0.00     0.029 H 
ATOM     18  H   LIG d   1       5.055  -4.410  -4.196  0.00  0.00     0.056 H 
ATOM     19  H   LIG d   1       4.005  -3.339  -5.166  0.00  0.00     0.056 H 
ENDROOT
BRANCH   1  20
ATOM     20  C   LIG d   1       3.477   0.063  -3.218  0.00  0.00     0.315 C 
ATOM     21  O   LIG d   1       2.432  -0.407  -2.836  0.00  0.00    -0.250 OA
BRANCH  20  22
ATOM     22  O   LIG d   1       3.504   0.838  -4.314  0.00  0.00    -0.465 OA
BRANCH  22  23
ATOM     23  C   LIG d   1       2.497   0.603  -5.299  0.00  0.00     0.090 C 
ATOM     24  H   LIG d   1       1.976   1.534  -5.517  0.00  0.00     0.069 H 
ATOM     25  H   LIG d   1       1.785  -0.132  -4.923  0.00  0.00     0.069 H 
BRANCH  23  26
ATOM     26  C   LIG d   1       3.148   0.071  -6.578  0.00  0.00    -0.031 C 
ATOM     27  H   LIG d   1       3.671  -0.860  -6.358  0.00  0.00     0.026 H 
ATOM     28  H   LIG d   1       2.380  -0.112  -7.329  0.00  0.00     0.026 H 
ATOM     29  H   LIG d   1       3.858   0.807  -6.956  0.00  0.00     0.026 H 
ENDBRANCH  23  26
ENDBRANCH  22  23
ENDBRANCH  20  22
ENDBRANCH   1  20
TORSDOF 4
ENDMDL
MODEL 2
REMARK VINA RESULT:      -5.3      2.695      4.757
REMARK  4 active torsions:
REMARK  status: ('A' for Active; 'I' for Inactive)
REMARK    1  A    between atoms: C_1  and  C_2 
REMARK    2  A    between atoms: C_2  and  O_3 
REMARK    3  A    between atoms: O_3  and  C_4 
REMARK    4  A    between atoms: C_4  and  C_6 
ROOT
ATOM      1  C   LIG d   1       6.331  -0.858  -3.644  0.00  0.00     0.087 C 
ATOM      2  H   LIG d   1       7.279  -0.892  -3.108  0.00  0.00     0.046 H 
ATOM      3  C   LIG d   1       6.034  -2.210  -4.259  0.00  0.00    -0.017 C 
ATOM      4  C   LIG d   1       4.827  -2.762  -4.231  0.00  0.00     0.197 C 
ATOM      5  O   LIG d   1       3.737  -2.159  -3.668  0.00  0.00    -0.454 OA
ATOM      6  C   LIG d   1       3.880  -0.761  -3.488  0.00  0.00     0.206 C 
ATOM      7  H   LIG d   1       3.962  -0.271  -4.458  0.00  0.00     0.106 H 
ATOM      8  C   LIG d   1       5.196  -0.552  -2.675  0.00  0.00     0.040 C 
ATOM      9  H   LIG d   1       5.235  -1.202  -1.801  0.00  0.00     0.037 H 
ATOM     10  C   LIG d   1       5.065   0.928  -2.290  0.00  0.00    -0.020 C 
ATOM     11  C   LIG d   1       3.533   1.161  -2.292  0.00  0.00     0.052 C 
ATOM     12  O   LIG d   1       2.907  -0.093  -2.692  0.00  0.00    -0.341 OA
ATOM     13  C   LIG d   1       4.659  -4.056  -4.820  0.00  0.00     0.137 C 
ATOM     14  N   LIG d   1       4.525  -5.083  -5.287  0.00  0.00    -0.188 NA
ATOM     15  H   LIG d   1       6.838  -2.746  -4.741  0.00  0.00     0.062 H 
ATOM     16  H   LIG d   1       5.479   1.105  -1.298  0.00  0.00     0.029 H 
ATOM     17  H   LIG d   1       5.551   1.562  -3.031  0.00  0.00     0.029 H 
ATOM     18  H   LIG d   1       3.198   1.444  -1.294  0.00  0.00     0.056 H 
ATOM     19  H   LIG d   1       3.276   1.942  -3.008  0.00  0.00     0.056 H 
ENDROOT
BRANCH   1  20
ATOM     20  C   LIG d   1       6.385   0.196  -4.720  0.00  0.00     0.315 C 
ATOM     21  O   LIG d   1       5.802   0.025  -5.764  0.00  0.00    -0.250 OA
BRANCH  20  22
ATOM     22  O   LIG d   1       7.083   1.326  -4.519  0.00  0.00    -0.465 OA
BRANCH  22  23
ATOM     23  C   LIG d   1       8.454   1.182  -4.145  0.00  0.00     0.090 C 
ATOM     24  H   LIG d   1       9.037   0.871  -5.011  0.00  0.00     0.069 H 
ATOM     25  H   LIG d   1       8.540   0.430  -3.360  0.00  0.00     0.069 H 
BRANCH  23  26
ATOM     26  C   LIG d   1       8.984   2.521  -3.627  0.00  0.00    -0.031 C 
ATOM     27  H   LIG d   1       8.178   3.063  -3.132  0.00  0.00     0.026 H 
ATOM     28  H   LIG d   1       9.792   2.343  -2.918  0.00  0.00     0.026 H 
ATOM     29  H   LIG d   1       9.358   3.111  -4.464  0.00  0.00     0.026 H 
ENDBRANCH  23  26
ENDBRANCH  22  23
ENDBRANCH  20  22
ENDBRANCH   1  20
TORSDOF 4
ENDMDL
MODEL 3
REMARK VINA RESULT:      -5.3      2.959      4.476
REMARK  4 active torsions:
REMARK  status: ('A' for Active; 'I' for Inactive)
REMARK    1  A    between atoms: C_1  and  C_2 
REMARK    2  A    between atoms: C_2  and  O_3 
REMARK    3  A    between atoms: O_3  and  C_4 
REMARK    4  A    between atoms: C_4  and  C_6 
ROOT
ATOM      1  C   LIG d   1       6.072  -1.796  -5.002  0.00  0.00     0.087 C 
ATOM      2  H   LIG d   1       7.140  -1.623  -5.138  0.00  0.00     0.046 H 
ATOM      3  C   LIG d   1       5.695  -3.160  -5.543  0.00  0.00    -0.017 C 
ATOM      4  C   LIG d   1       4.869  -3.981  -4.907  0.00  0.00     0.197 C 
ATOM      5  O   LIG d   1       4.266  -3.670  -3.720  0.00  0.00    -0.454 OA
ATOM      6  C   LIG d   1       4.251  -2.285  -3.426  0.00  0.00     0.206 C 
ATOM      7  H   LIG d   1       3.642  -1.758  -4.161  0.00  0.00     0.106 H 
ATOM      8  C   LIG d   1       5.731  -1.797  -3.517  0.00  0.00     0.040 C 
ATOM      9  H   LIG d   1       6.403  -2.448  -2.956  0.00  0.00     0.037 H 
ATOM     10  C   LIG d   1       5.615  -0.404  -2.886  0.00  0.00    -0.020 C 
ATOM     11  C   LIG d   1       4.387  -0.538  -1.951  0.00  0.00     0.052 C 
ATOM     12  O   LIG d   1       3.869  -1.891  -2.112  0.00  0.00    -0.341 OA
ATOM     13  C   LIG d   1       4.598  -5.259  -5.492  0.00  0.00     0.137 C 
ATOM     14  N   LIG d   1       4.382  -6.273  -5.957  0.00  0.00    -0.188 NA
ATOM     15  H   LIG d   1       6.116  -3.476  -6.486  0.00  0.00     0.062 H 
ATOM     16  H   LIG d   1       6.510  -0.166  -2.312  0.00  0.00     0.029 H 
ATOM     17  H   LIG d   1       5.434   0.351  -3.651  0.00  0.00     0.029 H 
ATOM     18  H   LIG d   1       4.687  -0.374  -0.916  0.00  0.00     0.056 H 
ATOM     19  H   LIG d   1       3.621   0.183  -2.236  0.00  0.00     0.056 H 
ENDROOT
BRANCH   1  20
ATOM     20  C   LIG d   1       5.282  -0.725  -5.709  0.00  0.00     0.315 C 
ATOM     21  O   LIG d   1       5.799   0.334  -5.971  0.00  0.00    -0.250 OA
BRANCH  20  22
ATOM     22  O   LIG d   1       4.002  -0.948  -6.047  0.00  0.00    -0.465 OA
BRANCH  22  23
ATOM     23  C   LIG d   1       3.170   0.199  -6.228  0.00  0.00     0.090 C 
ATOM     24  H   LIG d   1       2.453   0.005  -7.025  0.00  0.00     0.069 H 
ATOM     25  H   LIG d   1       3.787   1.057  -6.495  0.00  0.00     0.069 H 
BRANCH  23  26
ATOM     26  C   LIG d   1       2.420   0.495  -4.928  0.00  0.00    -0.031 C 
ATOM     27  H   LIG d   1       2.997   1.199  -4.329  0.00  0.00     0.026 H 
ATOM     28  H   LIG d   1       1.447   0.927  -5.159  0.00  0.00     0.026 H 
ATOM     29  H   LIG d   1       2.283  -0.430  -4.369  0.00  0.00     0.026 H 
ENDBRANCH  23  26
ENDBRANCH  22  23
ENDBRANCH  20  22
ENDBRANCH   1  20
TORSDOF 4
ENDMDL
MODEL 4
REMARK VINA RESULT:      -5.0      2.291      4.487
REMARK  4 active torsions:
REMARK  status: ('A' for Active; 'I' for Inactive)
REMARK    1  A    between atoms: C_1  and  C_2 
REMARK    2  A    between atoms: C_2  and  O_3 
REMARK    3  A    between atoms: O_3  and  C_4 
REMARK    4  A    between atoms: C_4  and  C_6 
ROOT
ATOM      1  C   LIG d   1       4.627  -1.690  -4.301  0.00  0.00     0.087 C 
ATOM      2  H   LIG d   1       4.429  -2.741  -4.085  0.00  0.00     0.046 H 
ATOM      3  C   LIG d   1       4.091  -1.334  -5.672  0.00  0.00    -0.017 C 
ATOM      4  C   LIG d   1       3.440  -0.204  -5.917  0.00  0.00     0.197 C 
ATOM      5  O   LIG d   1       3.208   0.752  -4.966  0.00  0.00    -0.454 OA
ATOM      6  C   LIG d   1       4.050   0.652  -3.831  0.00  0.00     0.206 C 
ATOM      7  H   LIG d   1       5.084   0.834  -4.122  0.00  0.00     0.106 H 
ATOM      8  C   LIG d   1       3.899  -0.806  -3.296  0.00  0.00     0.040 C 
ATOM      9  H   LIG d   1       2.851  -1.093  -3.202  0.00  0.00     0.037 H 
ATOM     10  C   LIG d   1       4.589  -0.686  -1.931  0.00  0.00    -0.020 C 
ATOM     11  C   LIG d   1       4.415   0.812  -1.576  0.00  0.00     0.052 C 
ATOM     12  O   LIG d   1       3.722   1.441  -2.693  0.00  0.00    -0.341 OA
ATOM     13  C   LIG d   1       2.952   0.026  -7.243  0.00  0.00     0.137 C 
ATOM     14  N   LIG d   1       2.566   0.208  -8.296  0.00  0.00    -0.188 NA
ATOM     15  H   LIG d   1       4.247  -2.029  -6.484  0.00  0.00     0.062 H 
ATOM     16  H   LIG d   1       4.095  -1.316  -1.193  0.00  0.00     0.029 H 
ATOM     17  H   LIG d   1       5.646  -0.941  -2.012  0.00  0.00     0.029 H 
ATOM     18  H   LIG d   1       3.825   0.912  -0.665  0.00  0.00     0.056 H 
ATOM     19  H   LIG d   1       5.391   1.279  -1.442  0.00  0.00     0.056 H 
ENDROOT
BRANCH   1  20
ATOM     20  C   LIG d   1       6.109  -1.422  -4.241  0.00  0.00     0.315 C 
ATOM     21  O   LIG d   1       6.832  -2.162  -3.619  0.00  0.00    -0.250 OA
BRANCH  20  22
ATOM     22  O   LIG d   1       6.624  -0.359  -4.879  0.00  0.00    -0.465 OA
BRANCH  22  23
ATOM     23  C   LIG d   1       7.826   0.198  -4.343  0.00  0.00     0.090 C 
ATOM     24  H   LIG d   1       8.581   0.254  -5.125  0.00  0.00     0.069 H 
ATOM     25  H   LIG d   1       8.188  -0.432  -3.531  0.00  0.00     0.069 H 
BRANCH  23  26
ATOM     26  C   LIG d   1       7.540   1.603  -3.808  0.00  0.00    -0.031 C 
ATOM     27  H   LIG d   1       8.462   2.186  -3.810  0.00  0.00     0.026 H 
ATOM     28  H   LIG d   1       6.800   2.091  -4.441  0.00  0.00     0.026 H 
ATOM     29  H   LIG d   1       7.158   1.533  -2.790  0.00  0.00     0.026 H 
ENDBRANCH  23  26
ENDBRANCH  22  23
ENDBRANCH  20  22
ENDBRANCH   1  20
TORSDOF 4
ENDMDL
MODEL 5
REMARK VINA RESULT:      -5.0      2.214      3.743
REMARK  4 active torsions:
REMARK  status: ('A' for Active; 'I' for Inactive)
REMARK    1  A    between atoms: C_1  and  C_2 
REMARK    2  A    between atoms: C_2  and  O_3 
REMARK    3  A    between atoms: O_3  and  C_4 
REMARK    4  A    between atoms: C_4  and  C_6 
ROOT
ATOM      1  C   LIG d   1       4.867  -0.740  -2.811  0.00  0.00     0.087 C 
ATOM      2  H   LIG d   1       4.435  -0.945  -1.831  0.00  0.00     0.046 H 
ATOM      3  C   LIG d   1       5.970  -1.734  -3.108  0.00  0.00    -0.017 C 
ATOM      4  C   LIG d   1       6.120  -2.308  -4.295  0.00  0.00     0.197 C 
ATOM      5  O   LIG d   1       5.310  -2.044  -5.365  0.00  0.00    -0.454 OA
ATOM      6  C   LIG d   1       4.577  -0.837  -5.249  0.00  0.00     0.206 C 
ATOM      7  H   LIG d   1       5.262   0.011  -5.239  0.00  0.00     0.106 H 
ATOM      8  C   LIG d   1       3.809  -0.916  -3.893  0.00  0.00     0.040 C 
ATOM      9  H   LIG d   1       3.283  -1.864  -3.784  0.00  0.00     0.037 H 
ATOM     10  C   LIG d   1       2.842   0.267  -4.041  0.00  0.00    -0.020 C 
ATOM     11  C   LIG d   1       2.681   0.405  -5.575  0.00  0.00     0.052 C 
ATOM     12  O   LIG d   1       3.534  -0.604  -6.190  0.00  0.00    -0.341 OA
ATOM     13  C   LIG d   1       7.182  -3.254  -4.464  0.00  0.00     0.137 C 
ATOM     14  N   LIG d   1       8.025  -4.004  -4.598  0.00  0.00    -0.188 NA
ATOM     15  H   LIG d   1       6.665  -1.986  -2.320  0.00  0.00     0.062 H 
ATOM     16  H   LIG d   1       1.885   0.042  -3.572  0.00  0.00     0.029 H 
ATOM     17  H   LIG d   1       3.277   1.173  -3.618  0.00  0.00     0.029 H 
ATOM     18  H   LIG d   1       1.641   0.237  -5.857  0.00  0.00     0.056 H 
ATOM     19  H   LIG d   1       2.999   1.397  -5.896  0.00  0.00     0.056 H 
ENDROOT
BRANCH   1  20
ATOM     20  C   LIG d   1       5.414   0.663  -2.850  0.00  0.00     0.315 C 
ATOM     21  O   LIG d   1       5.238   1.406  -1.915  0.00  0.00    -0.250 OA
BRANCH  20  22
ATOM     22  O   LIG d   1       6.095   1.088  -3.926  0.00  0.00    -0.465 OA
BRANCH  22  23
ATOM     23  C   LIG d   1       7.446   1.502  -3.717  0.00  0.00     0.090 C 
ATOM     24  H   LIG d   1       7.738   1.283  -2.691  0.00  0.00     0.069 H 
ATOM     25  H   LIG d   1       7.530   2.574  -3.897  0.00  0.00     0.069 H 
BRANCH  23  26
ATOM     26  C   LIG d   1       8.365   0.750  -4.682  0.00  0.00    -0.031 C 
ATOM     27  H   LIG d   1       7.838  -0.116  -5.084  0.00  0.00     0.026 H 
ATOM     28  H   LIG d   1       8.655   1.411  -5.498  0.00  0.00     0.026 H 
ATOM     29  H   LIG d   1       9.256   0.418  -4.149  0.00  0.00     0.026 H 
ENDBRANCH  23  26
ENDBRANCH  22  23
ENDBRANCH  20  22
ENDBRANCH   1  20
TORSDOF 4
ENDMDL
MODEL 6
REMARK VINA RESULT:      -4.8      1.717      2.863
REMARK  4 active torsions:
REMARK  status: ('A' for Active; 'I' for Inactive)
REMARK    1  A    between atoms: C_1  and  C_2 
REMARK    2  A    between atoms: C_2  and  O_3 
REMARK    3  A    between atoms: O_3  and  C_4 
REMARK    4  A    between atoms: C_4  and  C_6 
ROOT
ATOM      1  C   LIG d   1       6.151  -2.037  -4.308  0.00  0.00     0.087 C 
ATOM      2  H   LIG d   1       6.690  -2.960  -4.092  0.00  0.00     0.046 H 
ATOM      3  C   LIG d   1       6.942  -0.846  -3.807  0.00  0.00    -0.017 C 
ATOM      4  C   LIG d   1       7.077   0.273  -4.508  0.00  0.00     0.197 C 
ATOM      5  O   LIG d   1       6.503   0.466  -5.734  0.00  0.00    -0.454 OA
ATOM      6  C   LIG d   1       5.436  -0.422  -6.017  0.00  0.00     0.206 C 
ATOM      7  H   LIG d   1       4.613  -0.244  -5.325  0.00  0.00     0.106 H 
ATOM      8  C   LIG d   1       5.997  -1.864  -5.814  0.00  0.00     0.040 C 
ATOM      9  H   LIG d   1       6.948  -2.002  -6.328  0.00  0.00     0.037 H 
ATOM     10  C   LIG d   1       4.874  -2.701  -6.442  0.00  0.00    -0.020 C 
ATOM     11  C   LIG d   1       4.236  -1.728  -7.465  0.00  0.00     0.052 C 
ATOM     12  O   LIG d   1       4.944  -0.460  -7.352  0.00  0.00    -0.341 OA
ATOM     13  C   LIG d   1       7.867   1.331  -3.953  0.00  0.00     0.137 C 
ATOM     14  N   LIG d   1       8.493   2.170  -3.513  0.00  0.00    -0.188 NA
ATOM     15  H   LIG d   1       7.414  -0.910  -2.837  0.00  0.00     0.062 H 
ATOM     16  H   LIG d   1       5.282  -3.576  -6.946  0.00  0.00     0.029 H 
ATOM     17  H   LIG d   1       4.145  -2.995  -5.686  0.00  0.00     0.029 H 
ATOM     18  H   LIG d   1       4.342  -2.128  -8.474  0.00  0.00     0.056 H 
ATOM     19  H   LIG d   1       3.182  -1.581  -7.231  0.00  0.00     0.056 H 
ENDROOT
BRANCH   1  20
ATOM     20  C   LIG d   1       4.795  -2.067  -3.653  0.00  0.00     0.315 C 
ATOM     21  O   LIG d   1       4.240  -3.122  -3.461  0.00  0.00    -0.250 OA
BRANCH  20  22
ATOM     22  O   LIG d   1       4.202  -0.920  -3.283  0.00  0.00    -0.465 OA
BRANCH  22  23
ATOM     23  C   LIG d   1       4.211  -0.605  -1.889  0.00  0.00     0.090 C 
ATOM     24  H   LIG d   1       4.982  -1.191  -1.390  0.00  0.00     0.069 H 
ATOM     25  H   LIG d   1       3.239  -0.840  -1.457  0.00  0.00     0.069 H 
BRANCH  23  26
ATOM     26  C   LIG d   1       4.504   0.885  -1.706  0.00  0.00    -0.031 C 
ATOM     27  H   LIG d   1       5.405   1.149  -2.260  0.00  0.00     0.026 H 
ATOM     28  H   LIG d   1       3.663   1.470  -2.079  0.00  0.00     0.026 H 
ATOM     29  H   LIG d   1       4.653   1.098  -0.647  0.00  0.00     0.026 H 
ENDBRANCH  23  26
ENDBRANCH  22  23
ENDBRANCH  20  22
ENDBRANCH   1  20
TORSDOF 4
ENDMDL
MODEL 7
REMARK VINA RESULT:      -4.7      3.990      6.170
REMARK  4 active torsions:
REMARK  status: ('A' for Active; 'I' for Inactive)
REMARK    1  A    between atoms: C_1  and  C_2 
REMARK    2  A    between atoms: C_2  and  O_3 
REMARK    3  A    between atoms: O_3  and  C_4 
REMARK    4  A    between atoms: C_4  and  C_6 
ROOT
ATOM      1  C   LIG d   1       2.763  -0.283  -7.877  0.00  0.00     0.087 C 
ATOM      2  H   LIG d   1       1.696  -0.378  -7.677  0.00  0.00     0.046 H 
ATOM      3  C   LIG d   1       3.320  -1.609  -8.352  0.00  0.00    -0.017 C 
ATOM      4  C   LIG d   1       4.181  -1.708  -9.358  0.00  0.00     0.197 C 
ATOM      5  O   LIG d   1       4.660  -0.627 -10.046  0.00  0.00    -0.454 OA
ATOM      6  C   LIG d   1       4.507   0.605  -9.364  0.00  0.00     0.206 C 
ATOM      7  H   LIG d   1       5.109   0.601  -8.455  0.00  0.00     0.106 H 
ATOM      8  C   LIG d   1       2.995   0.723  -8.999  0.00  0.00     0.040 C 
ATOM      9  H   LIG d   1       2.356   0.512  -9.857  0.00  0.00     0.037 H 
ATOM     10  C   LIG d   1       2.916   2.193  -8.566  0.00  0.00    -0.020 C 
ATOM     11  C   LIG d   1       4.081   2.854  -9.345  0.00  0.00     0.052 C 
ATOM     12  O   LIG d   1       4.749   1.801 -10.097  0.00  0.00    -0.341 OA
ATOM     13  C   LIG d   1       4.627  -3.012  -9.744  0.00  0.00     0.137 C 
ATOM     14  N   LIG d   1       4.983  -4.047 -10.050  0.00  0.00    -0.188 NA
ATOM     15  H   LIG d   1       3.005  -2.512  -7.849  0.00  0.00     0.062 H 
ATOM     16  H   LIG d   1       1.962   2.629  -8.858  0.00  0.00     0.029 H 
ATOM     17  H   LIG d   1       3.071   2.285  -7.491  0.00  0.00     0.029 H 
ATOM     18  H   LIG d   1       3.690   3.611 -10.026  0.00  0.00     0.056 H 
ATOM     19  H   LIG d   1       4.784   3.308  -8.647  0.00  0.00     0.056 H 
ENDROOT
BRANCH   1  20
ATOM     20  C   LIG d   1       3.485   0.163  -6.631  0.00  0.00     0.315 C 
ATOM     21  O   LIG d   1       4.656  -0.091  -6.488  0.00  0.00    -0.250 OA
BRANCH  20  22
ATOM     22  O   LIG d   1       2.823   0.842  -5.680  0.00  0.00    -0.465 OA
BRANCH  22  23
ATOM     23  C   LIG d   1       2.634   0.183  -4.427  0.00  0.00     0.090 C 
ATOM     24  H   LIG d   1       3.017  -0.835  -4.489  0.00  0.00     0.069 H 
ATOM     25  H   LIG d   1       1.571   0.158  -4.186  0.00  0.00     0.069 H 
BRANCH  23  26
ATOM     26  C   LIG d   1       3.385   0.944  -3.332  0.00  0.00    -0.031 C 
ATOM     27  H   LIG d   1       3.163   0.499  -2.362  0.00  0.00     0.026 H 
ATOM     28  H   LIG d   1       4.457   0.890  -3.521  0.00  0.00     0.026 H 
ATOM     29  H   LIG d   1       3.069   1.987  -3.334  0.00  0.00     0.026 H 
ENDBRANCH  23  26
ENDBRANCH  22  23
ENDBRANCH  20  22
ENDBRANCH   1  20
TORSDOF 4
ENDMDL
MODEL 8
REMARK VINA RESULT:      -4.5      8.167     10.635
REMARK  4 active torsions:
REMARK  status: ('A' for Active; 'I' for Inactive)
REMARK    1  A    between atoms: C_1  and  C_2 
REMARK    2  A    between atoms: C_2  and  O_3 
REMARK    3  A    between atoms: O_3  and  C_4 
REMARK    4  A    between atoms: C_4  and  C_6 
ROOT
ATOM      1  C   LIG d   1      10.432   8.206  -1.696  0.00  0.00     0.087 C 
ATOM      2  H   LIG d   1      10.874   8.888  -2.423  0.00  0.00     0.046 H 
ATOM      3  C   LIG d   1      10.195   6.853  -2.333  0.00  0.00    -0.017 C 
ATOM      4  C   LIG d   1      10.463   5.710  -1.714  0.00  0.00     0.197 C 
ATOM      5  O   LIG d   1      10.958   5.643  -0.441  0.00  0.00    -0.454 OA
ATOM      6  C   LIG d   1      10.778   6.830   0.311  0.00  0.00     0.206 C 
ATOM      7  H   LIG d   1       9.715   7.011   0.466  0.00  0.00     0.106 H 
ATOM      8  C   LIG d   1      11.395   7.987  -0.535  0.00  0.00     0.040 C 
ATOM      9  H   LIG d   1      12.394   7.735  -0.892  0.00  0.00     0.037 H 
ATOM     10  C   LIG d   1      11.419   9.120   0.499  0.00  0.00    -0.020 C 
ATOM     11  C   LIG d   1      11.497   8.365   1.850  0.00  0.00     0.052 C 
ATOM     12  O   LIG d   1      11.472   6.940   1.549  0.00  0.00    -0.341 OA
ATOM     13  C   LIG d   1      10.225   4.485  -2.416  0.00  0.00     0.137 C 
ATOM     14  N   LIG d   1      10.036   3.513  -2.973  0.00  0.00    -0.188 NA
ATOM     15  H   LIG d   1       9.788   6.817  -3.334  0.00  0.00     0.062 H 
ATOM     16  H   LIG d   1      12.296   9.750   0.360  0.00  0.00     0.029 H 
ATOM     17  H   LIG d   1      10.505   9.711   0.442  0.00  0.00     0.029 H 
ATOM     18  H   LIG d   1      12.421   8.623   2.367  0.00  0.00     0.056 H 
ATOM     19  H   LIG d   1      10.638   8.623   2.470  0.00  0.00     0.056 H 
ENDROOT
BRANCH   1  20
ATOM     20  C   LIG d   1       9.132   8.770  -1.184  0.00  0.00     0.315 C 
ATOM     21  O   LIG d   1       8.278   8.030  -0.758  0.00  0.00    -0.250 OA
BRANCH  20  22
ATOM     22  O   LIG d   1       8.922  10.096  -1.203  0.00  0.00    -0.465 OA
BRANCH  22  23
ATOM     23  C   LIG d   1       9.577  10.842  -2.230  0.00  0.00     0.090 C 
ATOM     24  H   LIG d   1      10.172  10.168  -2.845  0.00  0.00     0.069 H 
ATOM     25  H   LIG d   1      10.227  11.590  -1.777  0.00  0.00     0.069 H 
BRANCH  23  26
ATOM     26  C   LIG d   1       8.530  11.537  -3.102  0.00  0.00    -0.031 C 
ATOM     27  H   LIG d   1       7.901  12.171  -2.477  0.00  0.00     0.026 H 
ATOM     28  H   LIG d   1       9.030  12.148  -3.854  0.00  0.00     0.026 H 
ATOM     29  H   LIG d   1       7.913  10.787  -3.596  0.00  0.00     0.026 H 
ENDBRANCH  23  26
ENDBRANCH  22  23
ENDBRANCH  20  22
ENDBRANCH   1  20
TORSDOF 4
ENDMDL
MODEL 9
REMARK VINA RESULT:      -4.4      3.736      5.951
REMARK  4 active torsions:
REMARK  status: ('A' for Active; 'I' for Inactive)
REMARK    1  A    between atoms: C_1  and  C_2 
REMARK    2  A    between atoms: C_2  and  O_3 
REMARK    3  A    between atoms: O_3  and  C_4 
REMARK    4  A    between atoms: C_4  and  C_6 
ROOT
ATOM      1  C   LIG d   1       4.808  -0.760  -8.011  0.00  0.00     0.087 C 
ATOM      2  H   LIG d   1       5.858  -1.054  -8.025  0.00  0.00     0.046 H 
ATOM      3  C   LIG d   1       4.253  -0.890  -6.608  0.00  0.00    -0.017 C 
ATOM      4  C   LIG d   1       3.458   0.022  -6.062  0.00  0.00     0.197 C 
ATOM      5  O   LIG d   1       3.048   1.150  -6.717  0.00  0.00    -0.454 OA
ATOM      6  C   LIG d   1       3.184   1.081  -8.126  0.00  0.00     0.206 C 
ATOM      7  H   LIG d   1       2.525   0.309  -8.523  0.00  0.00     0.106 H 
ATOM      8  C   LIG d   1       4.672   0.705  -8.408  0.00  0.00     0.040 C 
ATOM      9  H   LIG d   1       5.360   1.334  -7.842  0.00  0.00     0.037 H 
ATOM     10  C   LIG d   1       4.755   0.969  -9.917  0.00  0.00    -0.020 C 
ATOM     11  C   LIG d   1       3.658   2.038 -10.151  0.00  0.00     0.052 C 
ATOM     12  O   LIG d   1       3.017   2.285  -8.867  0.00  0.00    -0.341 OA
ATOM     13  C   LIG d   1       3.008  -0.185  -4.719  0.00  0.00     0.137 C 
ATOM     14  N   LIG d   1       2.651  -0.350  -3.653  0.00  0.00    -0.188 NA
ATOM     15  H   LIG d   1       4.515  -1.763  -6.027  0.00  0.00     0.062 H 
ATOM     16  H   LIG d   1       5.736   1.360 -10.186  0.00  0.00     0.029 H 
ATOM     17  H   LIG d   1       4.533   0.062 -10.479  0.00  0.00     0.029 H 
ATOM     18  H   LIG d   1       4.109   2.957 -10.527  0.00  0.00     0.056 H 
ATOM     19  H   LIG d   1       2.921   1.665 -10.862  0.00  0.00     0.056 H 
ENDROOT
BRANCH   1  20
ATOM     20  C   LIG d   1       4.018  -1.624  -8.960  0.00  0.00     0.315 C 
ATOM     21  O   LIG d   1       4.582  -2.229  -9.839  0.00  0.00    -0.250 OA
BRANCH  20  22
ATOM     22  O   LIG d   1       2.685  -1.720  -8.828  0.00  0.00    -0.465 OA
BRANCH  22  23
ATOM     23  C   LIG d   1       1.946  -2.121  -9.983  0.00  0.00     0.090 C 
ATOM     24  H   LIG d   1       1.136  -2.785  -9.685  0.00  0.00     0.069 H 
ATOM     25  H   LIG d   1       2.608  -2.644 -10.674  0.00  0.00     0.069 H 
BRANCH  23  26
ATOM     26  C   LIG d   1       1.365  -0.885 -10.672  0.00  0.00    -0.031 C 
ATOM     27  H   LIG d   1       0.345  -0.722 -10.325  0.00  0.00     0.026 H 
ATOM     28  H   LIG d   1       1.975  -0.014 -10.430  0.00  0.00     0.026 H 
ATOM     29  H   LIG d   1       1.362  -1.038 -11.751  0.00  0.00     0.026 H 
ENDBRANCH  23  26
ENDBRANCH  22  23
ENDBRANCH  20  22
ENDBRANCH   1  20
TORSDOF 4
ENDMDL
