MODEL 1
REMARK VINA RESULT:      -6.4      0.000      0.000
REMARK  8 active torsions:
REMARK  status: ('A' for Active; 'I' for Inactive)
REMARK    1  A    between atoms: C_4  and  C_7 
REMARK    2  A    between atoms: C_7  and  C_9 
REMARK    3  A    between atoms: C_7  and  N_16 
REMARK    4  A    between atoms: N_19  and  C_22 
REMARK    5  A    between atoms: C_22  and  C_23 
REMARK    6  A    between atoms: C_23  and  O_24 
REMARK    7  A    between atoms: O_24  and  C_25 
REMARK    8  A    between atoms: C_25  and  C_26 
ROOT
ATOM      1  N   LIG d   1       5.434  -2.218  -5.701  0.00  0.00    -0.289 N 
ATOM      2  C   LIG d   1       5.180  -3.263  -6.703  0.00  0.00     0.013 C 
ATOM      3  C   LIG d   1       6.448  -4.095  -6.901  0.00  0.00     0.012 C 
ATOM      4  N   LIG d   1       6.848  -4.688  -5.617  0.00  0.00    -0.298 N 
ATOM      5  C   LIG d   1       7.102  -3.644  -4.615  0.00  0.00     0.012 C 
ATOM      6  C   LIG d   1       5.834  -2.811  -4.416  0.00  0.00     0.013 C 
ATOM      7  H   LIG d   1       4.371  -3.908  -6.358  0.00  0.00     0.044 H 
ATOM      8  H   LIG d   1       4.898  -2.798  -7.648  0.00  0.00     0.044 H 
ATOM      9  H   LIG d   1       6.253  -4.890  -7.622  0.00  0.00     0.044 H 
ATOM     10  H   LIG d   1       7.250  -3.456  -7.271  0.00  0.00     0.044 H 
ATOM     11  H   LIG d   1       7.384  -4.108  -3.669  0.00  0.00     0.044 H 
ATOM     12  H   LIG d   1       7.911  -2.999  -4.959  0.00  0.00     0.044 H 
ATOM     13  H   LIG d   1       6.028  -2.017  -3.695  0.00  0.00     0.044 H 
ATOM     14  H   LIG d   1       5.033  -3.450  -4.047  0.00  0.00     0.044 H 
ENDROOT
BRANCH   1  15
ATOM     15  C   LIG d   1       4.262  -1.348  -5.538  0.00  0.00     0.061 C 
ATOM     16  H   LIG d   1       3.364  -1.961  -5.455  0.00  0.00     0.056 H 
BRANCH  15  17
ATOM     17  C   LIG d   1       4.421  -0.520  -4.289  0.00  0.00    -0.026 A 
ATOM     18  C   LIG d   1       5.603   0.157  -4.054  0.00  0.00    -0.057 A 
ATOM     19  C   LIG d   1       5.749   0.917  -2.908  0.00  0.00    -0.061 A 
ATOM     20  H   LIG d   1       6.413   0.092  -4.765  0.00  0.00     0.062 H 
ATOM     21  C   LIG d   1       4.711   1.000  -1.998  0.00  0.00    -0.062 A 
ATOM     22  H   LIG d   1       6.671   1.445  -2.725  0.00  0.00     0.062 H 
ATOM     23  C   LIG d   1       3.529   0.323  -2.233  0.00  0.00    -0.061 A 
ATOM     24  H   LIG d   1       4.826   1.591  -1.100  0.00  0.00     0.062 H 
ATOM     25  C   LIG d   1       3.384  -0.438  -3.378  0.00  0.00    -0.057 A 
ATOM     26  H   LIG d   1       2.719   0.388  -1.522  0.00  0.00     0.062 H 
ATOM     27  H   LIG d   1       2.461  -0.966  -3.562  0.00  0.00     0.062 H 
ENDBRANCH  15  17
BRANCH  15  28
ATOM     28  C   LIG d   1       4.140  -0.438  -6.733  0.00  0.00    -0.026 A 
ATOM     29  C   LIG d   1       2.903   0.048  -7.108  0.00  0.00    -0.055 A 
ATOM     30  C   LIG d   1       2.792   0.887  -8.200  0.00  0.00    -0.043 A 
ATOM     31  H   LIG d   1       2.022  -0.223  -6.545  0.00  0.00     0.062 H 
ATOM     32  C   LIG d   1       3.919   1.230  -8.925  0.00  0.00     0.041 A 
ATOM     33  H   LIG d   1       1.826   1.273  -8.491  0.00  0.00     0.063 H 
ATOM     34  C   LIG d   1       5.157   0.738  -8.553  0.00  0.00    -0.043 A 
ATOM     35 CL   LIG d   1       3.780   2.279 -10.302  0.00  0.00    -0.084 Cl
ATOM     36  C   LIG d   1       5.268  -0.096  -7.457  0.00  0.00    -0.055 A 
ATOM     37  H   LIG d   1       6.038   1.006  -9.119  0.00  0.00     0.063 H 
ATOM     38  H   LIG d   1       6.234  -0.481  -7.166  0.00  0.00     0.062 H 
ENDBRANCH  15  28
ENDBRANCH   1  15
BRANCH   4  39
ATOM     39  C   LIG d   1       8.021  -5.558  -5.780  0.00  0.00     0.022 C 
ATOM     40  H   LIG d   1       8.191  -5.741  -6.841  0.00  0.00     0.045 H 
ATOM     41  H   LIG d   1       8.895  -5.072  -5.349  0.00  0.00     0.045 H 
BRANCH  39  42
ATOM     42  C   LIG d   1       7.773  -6.888  -5.067  0.00  0.00     0.061 C 
ATOM     43  H   LIG d   1       8.548  -7.601  -5.347  0.00  0.00     0.057 H 
ATOM     44  H   LIG d   1       7.795  -6.732  -3.988  0.00  0.00     0.057 H 
BRANCH  42  45
ATOM     45  O   LIG d   1       6.495  -7.402  -5.447  0.00  0.00    -0.373 OA
BRANCH  45  46
ATOM     46  C   LIG d   1       6.161  -8.646  -4.829  0.00  0.00     0.087 C 
ATOM     47  H   LIG d   1       6.819  -9.428  -5.208  0.00  0.00     0.062 H 
ATOM     48  H   LIG d   1       6.283  -8.560  -3.750  0.00  0.00     0.062 H 
BRANCH  46  49
ATOM     49  C   LIG d   1       4.729  -8.996  -5.145  0.00  0.00     0.067 C 
ATOM     50  O   LIG d   1       4.367  -9.095  -6.305  0.00  0.00    -0.547 OA
ATOM     51  O   LIG d   1       3.934  -9.182  -4.240  0.00  0.00    -0.547 OA
ENDBRANCH  46  49
ENDBRANCH  45  46
ENDBRANCH  42  45
ENDBRANCH  39  42
ENDBRANCH   4  39
TORSDOF 8
ENDMDL
MODEL 2
REMARK VINA RESULT:      -6.4      3.459      4.789
REMARK  8 active torsions:
REMARK  status: ('A' for Active; 'I' for Inactive)
REMARK    1  A    between atoms: C_4  and  C_7 
REMARK    2  A    between atoms: C_7  and  C_9 
REMARK    3  A    between atoms: C_7  and  N_16 
REMARK    4  A    between atoms: N_19  and  C_22 
REMARK    5  A    between atoms: C_22  and  C_23 
REMARK    6  A    between atoms: C_23  and  O_24 
REMARK    7  A    between atoms: O_24  and  C_25 
REMARK    8  A    between atoms: C_25  and  C_26 
ROOT
ATOM      1  N   LIG d   1       5.718  -3.970  -5.433  0.00  0.00    -0.289 N 
ATOM      2  C   LIG d   1       6.724  -4.940  -5.888  0.00  0.00     0.013 C 
ATOM      3  C   LIG d   1       6.061  -6.305  -6.085  0.00  0.00     0.012 C 
ATOM      4  N   LIG d   1       4.973  -6.180  -7.065  0.00  0.00    -0.298 N 
ATOM      5  C   LIG d   1       3.967  -5.210  -6.611  0.00  0.00     0.012 C 
ATOM      6  C   LIG d   1       4.630  -3.845  -6.413  0.00  0.00     0.013 C 
ATOM      7  H   LIG d   1       7.152  -4.603  -6.832  0.00  0.00     0.044 H 
ATOM      8  H   LIG d   1       7.512  -5.023  -5.139  0.00  0.00     0.044 H 
ATOM      9  H   LIG d   1       6.799  -7.019  -6.451  0.00  0.00     0.044 H 
ATOM     10  H   LIG d   1       5.655  -6.653  -5.135  0.00  0.00     0.044 H 
ATOM     11  H   LIG d   1       3.178  -5.126  -7.359  0.00  0.00     0.044 H 
ATOM     12  H   LIG d   1       3.538  -5.547  -5.667  0.00  0.00     0.044 H 
ATOM     13  H   LIG d   1       3.892  -3.131  -6.047  0.00  0.00     0.044 H 
ATOM     14  H   LIG d   1       5.035  -3.497  -7.362  0.00  0.00     0.044 H 
ENDROOT
BRANCH   1  15
ATOM     15  C   LIG d   1       6.331  -2.664  -5.158  0.00  0.00     0.061 C 
ATOM     16  H   LIG d   1       6.260  -2.035  -6.046  0.00  0.00     0.056 H 
BRANCH  15  17
ATOM     17  C   LIG d   1       5.610  -2.001  -4.013  0.00  0.00    -0.026 A 
ATOM     18  C   LIG d   1       4.570  -2.655  -3.380  0.00  0.00    -0.057 A 
ATOM     19  C   LIG d   1       3.908  -2.046  -2.330  0.00  0.00    -0.061 A 
ATOM     20  H   LIG d   1       4.274  -3.641  -3.705  0.00  0.00     0.062 H 
ATOM     21  C   LIG d   1       4.287  -0.784  -1.913  0.00  0.00    -0.062 A 
ATOM     22  H   LIG d   1       3.096  -2.557  -1.835  0.00  0.00     0.062 H 
ATOM     23  C   LIG d   1       5.328  -0.130  -2.546  0.00  0.00    -0.061 A 
ATOM     24  H   LIG d   1       3.767  -0.306  -1.095  0.00  0.00     0.062 H 
ATOM     25  C   LIG d   1       5.988  -0.738  -3.597  0.00  0.00    -0.057 A 
ATOM     26  H   LIG d   1       5.623   0.857  -2.221  0.00  0.00     0.062 H 
ATOM     27  H   LIG d   1       6.801  -0.228  -4.092  0.00  0.00     0.062 H 
ENDBRANCH  15  17
BRANCH  15  28
ATOM     28  C   LIG d   1       7.782  -2.856  -4.795  0.00  0.00    -0.026 A 
ATOM     29  C   LIG d   1       8.122  -3.575  -3.665  0.00  0.00    -0.055 A 
ATOM     30  C   LIG d   1       9.452  -3.755  -3.335  0.00  0.00    -0.043 A 
ATOM     31  H   LIG d   1       7.349  -3.999  -3.042  0.00  0.00     0.062 H 
ATOM     32  C   LIG d   1      10.442  -3.205  -4.130  0.00  0.00     0.041 A 
ATOM     33  H   LIG d   1       9.719  -4.322  -2.455  0.00  0.00     0.063 H 
ATOM     34  C   LIG d   1      10.100  -2.480  -5.257  0.00  0.00    -0.043 A 
ATOM     35 CL   LIG d   1      12.113  -3.426  -3.713  0.00  0.00    -0.084 Cl
ATOM     36  C   LIG d   1       8.770  -2.306  -5.590  0.00  0.00    -0.055 A 
ATOM     37  H   LIG d   1      10.873  -2.051  -5.879  0.00  0.00     0.063 H 
ATOM     38  H   LIG d   1       8.503  -1.740  -6.470  0.00  0.00     0.062 H 
ENDBRANCH  15  28
ENDBRANCH   1  15
BRANCH   4  39
ATOM     39  C   LIG d   1       4.358  -7.486  -7.340  0.00  0.00     0.022 C 
ATOM     40  H   LIG d   1       3.304  -7.455  -7.066  0.00  0.00     0.045 H 
ATOM     41  H   LIG d   1       4.453  -7.716  -8.401  0.00  0.00     0.045 H 
BRANCH  39  42
ATOM     42  C   LIG d   1       5.067  -8.565  -6.519  0.00  0.00     0.061 C 
ATOM     43  H   LIG d   1       5.464  -9.329  -7.188  0.00  0.00     0.057 H 
ATOM     44  H   LIG d   1       5.885  -8.116  -5.956  0.00  0.00     0.057 H 
BRANCH  42  45
ATOM     45  O   LIG d   1       4.137  -9.164  -5.614  0.00  0.00    -0.373 OA
BRANCH  45  46
ATOM     46  C   LIG d   1       4.636  -9.315  -4.283  0.00  0.00     0.087 C 
ATOM     47  H   LIG d   1       5.601  -9.820  -4.313  0.00  0.00     0.062 H 
ATOM     48  H   LIG d   1       4.753  -8.333  -3.825  0.00  0.00     0.062 H 
BRANCH  46  49
ATOM     49  C   LIG d   1       3.664 -10.133  -3.472  0.00  0.00     0.067 C 
ATOM     50  O   LIG d   1       3.913 -11.299  -3.217  0.00  0.00    -0.547 OA
ATOM     51  O   LIG d   1       2.629  -9.629  -3.071  0.00  0.00    -0.547 OA
ENDBRANCH  46  49
ENDBRANCH  45  46
ENDBRANCH  42  45
ENDBRANCH  39  42
ENDBRANCH   4  39
TORSDOF 8
ENDMDL
MODEL 3
REMARK VINA RESULT:      -6.4      2.353      4.393
REMARK  8 active torsions:
REMARK  status: ('A' for Active; 'I' for Inactive)
REMARK    1  A    between atoms: C_4  and  C_7 
REMARK    2  A    between atoms: C_7  and  C_9 
REMARK    3  A    between atoms: C_7  and  N_16 
REMARK    4  A    between atoms: N_19  and  C_22 
REMARK    5  A    between atoms: C_22  and  C_23 
REMARK    6  A    between atoms: C_23  and  O_24 
REMARK    7  A    between atoms: O_24  and  C_25 
REMARK    8  A    between atoms: C_25  and  C_26 
ROOT
ATOM      1  N   LIG d   1       4.679  -2.664  -6.909  0.00  0.00    -0.289 N 
ATOM      2  C   LIG d   1       5.093  -3.319  -5.660  0.00  0.00     0.013 C 
ATOM      3  C   LIG d   1       4.573  -4.758  -5.644  0.00  0.00     0.012 C 
ATOM      4  N   LIG d   1       5.098  -5.479  -6.813  0.00  0.00    -0.298 N 
ATOM      5  C   LIG d   1       4.684  -4.824  -8.061  0.00  0.00     0.012 C 
ATOM      6  C   LIG d   1       5.204  -3.385  -8.077  0.00  0.00     0.013 C 
ATOM      7  H   LIG d   1       6.182  -3.325  -5.597  0.00  0.00     0.044 H 
ATOM      8  H   LIG d   1       4.682  -2.774  -4.811  0.00  0.00     0.044 H 
ATOM      9  H   LIG d   1       4.904  -5.255  -4.732  0.00  0.00     0.044 H 
ATOM     10  H   LIG d   1       3.484  -4.752  -5.681  0.00  0.00     0.044 H 
ATOM     11  H   LIG d   1       5.095  -5.369  -8.912  0.00  0.00     0.044 H 
ATOM     12  H   LIG d   1       3.596  -4.819  -8.125  0.00  0.00     0.044 H 
ATOM     13  H   LIG d   1       4.873  -2.888  -8.989  0.00  0.00     0.044 H 
ATOM     14  H   LIG d   1       6.293  -3.391  -8.041  0.00  0.00     0.044 H 
ENDROOT
BRANCH   1  15
ATOM     15  C   LIG d   1       5.094  -1.256  -6.928  0.00  0.00     0.061 C 
ATOM     16  H   LIG d   1       6.132  -1.188  -7.256  0.00  0.00     0.056 H 
BRANCH  15  17
ATOM     17  C   LIG d   1       4.216  -0.486  -7.881  0.00  0.00    -0.026 A 
ATOM     18  C   LIG d   1       4.607   0.764  -8.324  0.00  0.00    -0.057 A 
ATOM     19  C   LIG d   1       3.801   1.470  -9.198  0.00  0.00    -0.061 A 
ATOM     20  H   LIG d   1       5.541   1.189  -7.987  0.00  0.00     0.062 H 
ATOM     21  C   LIG d   1       2.605   0.926  -9.628  0.00  0.00    -0.062 A 
ATOM     22  H   LIG d   1       4.105   2.446  -9.544  0.00  0.00     0.062 H 
ATOM     23  C   LIG d   1       2.215  -0.325  -9.185  0.00  0.00    -0.061 A 
ATOM     24  H   LIG d   1       1.973   1.479 -10.308  0.00  0.00     0.062 H 
ATOM     25  C   LIG d   1       3.020  -1.030  -8.310  0.00  0.00    -0.057 A 
ATOM     26  H   LIG d   1       1.281  -0.749  -9.522  0.00  0.00     0.062 H 
ATOM     27  H   LIG d   1       2.716  -2.006  -7.964  0.00  0.00     0.062 H 
ENDBRANCH  15  17
BRANCH  15  28
ATOM     28  C   LIG d   1       4.966  -0.674  -5.544  0.00  0.00    -0.026 A 
ATOM     29  C   LIG d   1       6.099  -0.346  -4.824  0.00  0.00    -0.055 A 
ATOM     30  C   LIG d   1       5.981   0.193  -3.557  0.00  0.00    -0.043 A 
ATOM     31  H   LIG d   1       7.077  -0.506  -5.254  0.00  0.00     0.062 H 
ATOM     32  C   LIG d   1       4.728   0.392  -3.004  0.00  0.00     0.041 A 
ATOM     33  H   LIG d   1       6.866   0.455  -2.996  0.00  0.00     0.063 H 
ATOM     34  C   LIG d   1       3.595   0.057  -3.723  0.00  0.00    -0.043 A 
ATOM     35 CL   LIG d   1       4.579   1.063  -1.410  0.00  0.00    -0.084 Cl
ATOM     36  C   LIG d   1       3.713  -0.476  -4.992  0.00  0.00    -0.055 A 
ATOM     37  H   LIG d   1       2.616   0.213  -3.292  0.00  0.00     0.063 H 
ATOM     38  H   LIG d   1       2.829  -0.737  -5.554  0.00  0.00     0.062 H 
ENDBRANCH  15  28
ENDBRANCH   1  15
BRANCH   4  39
ATOM     39  C   LIG d   1       4.682  -6.887  -6.794  0.00  0.00     0.022 C 
ATOM     40  H   LIG d   1       3.601  -6.948  -6.914  0.00  0.00     0.045 H 
ATOM     41  H   LIG d   1       5.170  -7.421  -7.609  0.00  0.00     0.045 H 
BRANCH  39  42
ATOM     42  C   LIG d   1       5.082  -7.520  -5.459  0.00  0.00     0.061 C 
ATOM     43  H   LIG d   1       6.134  -7.801  -5.490  0.00  0.00     0.057 H 
ATOM     44  H   LIG d   1       4.922  -6.802  -4.655  0.00  0.00     0.057 H 
BRANCH  42  45
ATOM     45  O   LIG d   1       4.285  -8.683  -5.225  0.00  0.00    -0.373 OA
BRANCH  45  46
ATOM     46  C   LIG d   1       4.753  -9.502  -4.152  0.00  0.00     0.087 C 
ATOM     47  H   LIG d   1       5.437 -10.256  -4.542  0.00  0.00     0.062 H 
ATOM     48  H   LIG d   1       5.272  -8.883  -3.422  0.00  0.00     0.062 H 
BRANCH  46  49
ATOM     49  C   LIG d   1       3.581 -10.181  -3.490  0.00  0.00     0.067 C 
ATOM     50  O   LIG d   1       3.560 -11.396  -3.384  0.00  0.00    -0.547 OA
ATOM     51  O   LIG d   1       2.655  -9.515  -3.060  0.00  0.00    -0.547 OA
ENDBRANCH  46  49
ENDBRANCH  45  46
ENDBRANCH  42  45
ENDBRANCH  39  42
ENDBRANCH   4  39
TORSDOF 8
ENDMDL
MODEL 4
REMARK VINA RESULT:      -6.4      4.654      7.144
REMARK  8 active torsions:
REMARK  status: ('A' for Active; 'I' for Inactive)
REMARK    1  A    between atoms: C_4  and  C_7 
REMARK    2  A    between atoms: C_7  and  C_9 
REMARK    3  A    between atoms: C_7  and  N_16 
REMARK    4  A    between atoms: N_19  and  C_22 
REMARK    5  A    between atoms: C_22  and  C_23 
REMARK    6  A    between atoms: C_23  and  O_24 
REMARK    7  A    between atoms: O_24  and  C_25 
REMARK    8  A    between atoms: C_25  and  C_26 
ROOT
ATOM      1  N   LIG d   1       5.772  -2.187  -6.337  0.00  0.00    -0.289 N 
ATOM      2  C   LIG d   1       6.600  -2.286  -7.547  0.00  0.00     0.013 C 
ATOM      3  C   LIG d   1       5.707  -2.610  -8.747  0.00  0.00     0.012 C 
ATOM      4  N   LIG d   1       4.689  -1.561  -8.894  0.00  0.00    -0.298 N 
ATOM      5  C   LIG d   1       3.861  -1.462  -7.683  0.00  0.00     0.012 C 
ATOM      6  C   LIG d   1       4.754  -1.138  -6.483  0.00  0.00     0.013 C 
ATOM      7  H   LIG d   1       7.109  -1.338  -7.718  0.00  0.00     0.044 H 
ATOM      8  H   LIG d   1       7.337  -3.078  -7.418  0.00  0.00     0.044 H 
ATOM      9  H   LIG d   1       6.315  -2.655  -9.651  0.00  0.00     0.044 H 
ATOM     10  H   LIG d   1       5.218  -3.571  -8.588  0.00  0.00     0.044 H 
ATOM     11  H   LIG d   1       3.122  -0.669  -7.812  0.00  0.00     0.044 H 
ATOM     12  H   LIG d   1       3.351  -2.409  -7.513  0.00  0.00     0.044 H 
ATOM     13  H   LIG d   1       4.146  -1.093  -5.579  0.00  0.00     0.044 H 
ATOM     14  H   LIG d   1       5.242  -0.177  -6.642  0.00  0.00     0.044 H 
ENDROOT
BRANCH   1  15
ATOM     15  C   LIG d   1       6.603  -1.952  -5.148  0.00  0.00     0.061 C 
ATOM     16  H   LIG d   1       7.310  -1.148  -5.353  0.00  0.00     0.056 H 
BRANCH  15  17
ATOM     17  C   LIG d   1       5.723  -1.564  -3.989  0.00  0.00    -0.026 A 
ATOM     18  C   LIG d   1       5.888  -0.335  -3.377  0.00  0.00    -0.057 A 
ATOM     19  C   LIG d   1       5.081   0.021  -2.312  0.00  0.00    -0.061 A 
ATOM     20  H   LIG d   1       6.649   0.346  -3.729  0.00  0.00     0.062 H 
ATOM     21  C   LIG d   1       4.107  -0.850  -1.862  0.00  0.00    -0.062 A 
ATOM     22  H   LIG d   1       5.210   0.980  -1.834  0.00  0.00     0.062 H 
ATOM     23  C   LIG d   1       3.941  -2.079  -2.475  0.00  0.00    -0.061 A 
ATOM     24  H   LIG d   1       3.479  -0.574  -1.027  0.00  0.00     0.062 H 
ATOM     25  C   LIG d   1       4.750  -2.436  -3.537  0.00  0.00    -0.057 A 
ATOM     26  H   LIG d   1       3.181  -2.760  -2.122  0.00  0.00     0.062 H 
ATOM     27  H   LIG d   1       4.621  -3.395  -4.016  0.00  0.00     0.062 H 
ENDBRANCH  15  17
BRANCH  15  28
ATOM     28  C   LIG d   1       7.359  -3.211  -4.806  0.00  0.00    -0.026 A 
ATOM     29  C   LIG d   1       7.013  -4.408  -5.403  0.00  0.00    -0.055 A 
ATOM     30  C   LIG d   1       7.710  -5.561  -5.093  0.00  0.00    -0.043 A 
ATOM     31  H   LIG d   1       6.202  -4.443  -6.114  0.00  0.00     0.062 H 
ATOM     32  C   LIG d   1       8.746  -5.517  -4.177  0.00  0.00     0.041 A 
ATOM     33  H   LIG d   1       7.445  -6.496  -5.563  0.00  0.00     0.063 H 
ATOM     34  C   LIG d   1       9.087  -4.319  -3.576  0.00  0.00    -0.043 A 
ATOM     35 CL   LIG d   1       9.618  -6.966  -3.783  0.00  0.00    -0.084 Cl
ATOM     36  C   LIG d   1       8.394  -3.166  -3.890  0.00  0.00    -0.055 A 
ATOM     37  H   LIG d   1       9.897  -4.285  -2.861  0.00  0.00     0.063 H 
ATOM     38  H   LIG d   1       8.660  -2.230  -3.421  0.00  0.00     0.062 H 
ENDBRANCH  15  28
ENDBRANCH   1  15
BRANCH   4  39
ATOM     39  C   LIG d   1       3.857  -1.796 -10.082  0.00  0.00     0.022 C 
ATOM     40  H   LIG d   1       4.188  -2.707 -10.581  0.00  0.00     0.045 H 
ATOM     41  H   LIG d   1       2.816  -1.903  -9.780  0.00  0.00     0.045 H 
BRANCH  39  42
ATOM     42  C   LIG d   1       3.991  -0.612 -11.041  0.00  0.00     0.061 C 
ATOM     43  H   LIG d   1       5.031  -0.287 -11.076  0.00  0.00     0.057 H 
ATOM     44  H   LIG d   1       3.671  -0.913 -12.038  0.00  0.00     0.057 H 
BRANCH  42  45
ATOM     45  O   LIG d   1       3.172   0.467 -10.583  0.00  0.00    -0.373 OA
BRANCH  45  46
ATOM     46  C   LIG d   1       3.861   1.714 -10.472  0.00  0.00     0.087 C 
ATOM     47  H   LIG d   1       4.791   1.667 -11.039  0.00  0.00     0.062 H 
ATOM     48  H   LIG d   1       3.234   2.512 -10.868  0.00  0.00     0.062 H 
BRANCH  46  49
ATOM     49  C   LIG d   1       4.168   1.990  -9.022  0.00  0.00     0.067 C 
ATOM     50  O   LIG d   1       5.325   2.034  -8.642  0.00  0.00    -0.547 OA
ATOM     51  O   LIG d   1       3.259   2.171  -8.231  0.00  0.00    -0.547 OA
ENDBRANCH  46  49
ENDBRANCH  45  46
ENDBRANCH  42  45
ENDBRANCH  39  42
ENDBRANCH   4  39
TORSDOF 8
ENDMDL
MODEL 5
REMARK VINA RESULT:      -6.3      4.273      6.131
REMARK  8 active torsions:
REMARK  status: ('A' for Active; 'I' for Inactive)
REMARK    1  A    between atoms: C_4  and  C_7 
REMARK    2  A    between atoms: C_7  and  C_9 
REMARK    3  A    between atoms: C_7  and  N_16 
REMARK    4  A    between atoms: N_19  and  C_22 
REMARK    5  A    between atoms: C_22  and  C_23 
REMARK    6  A    between atoms: C_23  and  O_24 
REMARK    7  A    between atoms: O_24  and  C_25 
REMARK    8  A    between atoms: C_25  and  C_26 
ROOT
ATOM      1  N   LIG d   1       3.967  -1.968  -7.910  0.00  0.00    -0.289 N 
ATOM      2  C   LIG d   1       4.532  -3.281  -7.567  0.00  0.00     0.013 C 
ATOM      3  C   LIG d   1       3.543  -4.378  -7.965  0.00  0.00     0.012 C 
ATOM      4  N   LIG d   1       3.268  -4.286  -9.406  0.00  0.00    -0.298 N 
ATOM      5  C   LIG d   1       2.703  -2.974  -9.749  0.00  0.00     0.012 C 
ATOM      6  C   LIG d   1       3.692  -1.876  -9.351  0.00  0.00     0.013 C 
ATOM      7  H   LIG d   1       5.470  -3.424  -8.104  0.00  0.00     0.044 H 
ATOM      8  H   LIG d   1       4.714  -3.328  -6.494  0.00  0.00     0.044 H 
ATOM      9  H   LIG d   1       3.971  -5.355  -7.739  0.00  0.00     0.044 H 
ATOM     10  H   LIG d   1       2.613  -4.251  -7.410  0.00  0.00     0.044 H 
ATOM     11  H   LIG d   1       2.520  -2.925 -10.823  0.00  0.00     0.044 H 
ATOM     12  H   LIG d   1       1.765  -2.830  -9.214  0.00  0.00     0.044 H 
ATOM     13  H   LIG d   1       3.264  -0.900  -9.577  0.00  0.00     0.044 H 
ATOM     14  H   LIG d   1       4.621  -2.004  -9.906  0.00  0.00     0.044 H 
ENDROOT
BRANCH   1  15
ATOM     15  C   LIG d   1       4.855  -0.883  -7.472  0.00  0.00     0.061 C 
ATOM     16  H   LIG d   1       5.883  -1.121  -7.747  0.00  0.00     0.056 H 
BRANCH  15  17
ATOM     17  C   LIG d   1       4.443   0.404  -8.140  0.00  0.00    -0.026 A 
ATOM     18  C   LIG d   1       3.108   0.758  -8.194  0.00  0.00    -0.057 A 
ATOM     19  C   LIG d   1       2.730   1.938  -8.808  0.00  0.00    -0.061 A 
ATOM     20  H   LIG d   1       2.359   0.112  -7.759  0.00  0.00     0.062 H 
ATOM     21  C   LIG d   1       3.687   2.764  -9.365  0.00  0.00    -0.062 A 
ATOM     22  H   LIG d   1       1.687   2.214  -8.850  0.00  0.00     0.062 H 
ATOM     23  C   LIG d   1       5.023   2.410  -9.310  0.00  0.00    -0.061 A 
ATOM     24  H   LIG d   1       3.392   3.685  -9.848  0.00  0.00     0.062 H 
ATOM     25  C   LIG d   1       5.401   1.229  -8.699  0.00  0.00    -0.057 A 
ATOM     26  H   LIG d   1       5.771   3.056  -9.747  0.00  0.00     0.062 H 
ATOM     27  H   LIG d   1       6.443   0.953  -8.656  0.00  0.00     0.062 H 
ENDBRANCH  15  17
BRANCH  15  28
ATOM     28  C   LIG d   1       4.759  -0.726  -5.977  0.00  0.00    -0.026 A 
ATOM     29  C   LIG d   1       3.531  -0.509  -5.382  0.00  0.00    -0.055 A 
ATOM     30  C   LIG d   1       3.443  -0.370  -4.009  0.00  0.00    -0.043 A 
ATOM     31  H   LIG d   1       2.640  -0.452  -5.988  0.00  0.00     0.062 H 
ATOM     32  C   LIG d   1       4.586  -0.437  -3.233  0.00  0.00     0.041 A 
ATOM     33  H   LIG d   1       2.483  -0.207  -3.543  0.00  0.00     0.063 H 
ATOM     34  C   LIG d   1       5.816  -0.648  -3.830  0.00  0.00    -0.043 A 
ATOM     35 CL   LIG d   1       4.477  -0.257  -1.510  0.00  0.00    -0.084 Cl
ATOM     36  C   LIG d   1       5.903  -0.793  -5.201  0.00  0.00    -0.055 A 
ATOM     37  H   LIG d   1       6.709  -0.701  -3.223  0.00  0.00     0.063 H 
ATOM     38  H   LIG d   1       6.863  -0.957  -5.668  0.00  0.00     0.062 H 
ENDBRANCH  15  28
ENDBRANCH   1  15
BRANCH   4  39
ATOM     39  C   LIG d   1       2.379  -5.372  -9.843  0.00  0.00     0.022 C 
ATOM     40  H   LIG d   1       2.910  -6.014 -10.545  0.00  0.00     0.045 H 
ATOM     41  H   LIG d   1       2.067  -5.956  -8.978  0.00  0.00     0.045 H 
BRANCH  39  42
ATOM     42  C   LIG d   1       1.147  -4.778 -10.528  0.00  0.00     0.061 C 
ATOM     43  H   LIG d   1       0.809  -3.902  -9.974  0.00  0.00     0.057 H 
ATOM     44  H   LIG d   1       1.402  -4.487 -11.547  0.00  0.00     0.057 H 
BRANCH  42  45
ATOM     45  O   LIG d   1       0.102  -5.753 -10.559  0.00  0.00    -0.373 OA
BRANCH  45  46
ATOM     46  C   LIG d   1      -1.186  -5.236 -10.217  0.00  0.00     0.087 C 
ATOM     47  H   LIG d   1      -1.077  -4.233  -9.806  0.00  0.00     0.062 H 
ATOM     48  H   LIG d   1      -1.811  -5.198 -11.108  0.00  0.00     0.062 H 
BRANCH  46  49
ATOM     49  C   LIG d   1      -1.831  -6.133  -9.191  0.00  0.00     0.067 C 
ATOM     50  O   LIG d   1      -2.971  -5.915  -8.821  0.00  0.00    -0.547 OA
ATOM     51  O   LIG d   1      -1.211  -7.078  -8.733  0.00  0.00    -0.547 OA
ENDBRANCH  46  49
ENDBRANCH  45  46
ENDBRANCH  42  45
ENDBRANCH  39  42
ENDBRANCH   4  39
TORSDOF 8
ENDMDL
MODEL 6
REMARK VINA RESULT:      -6.2      1.866      3.052
REMARK  8 active torsions:
REMARK  status: ('A' for Active; 'I' for Inactive)
REMARK    1  A    between atoms: C_4  and  C_7 
REMARK    2  A    between atoms: C_7  and  C_9 
REMARK    3  A    between atoms: C_7  and  N_16 
REMARK    4  A    between atoms: N_19  and  C_22 
REMARK    5  A    between atoms: C_22  and  C_23 
REMARK    6  A    between atoms: C_23  and  O_24 
REMARK    7  A    between atoms: O_24  and  C_25 
REMARK    8  A    between atoms: C_25  and  C_26 
ROOT
ATOM      1  N   LIG d   1       5.558  -2.139  -5.628  0.00  0.00    -0.289 N 
ATOM      2  C   LIG d   1       5.395  -3.192  -6.640  0.00  0.00     0.013 C 
ATOM      3  C   LIG d   1       6.713  -3.956  -6.795  0.00  0.00     0.012 C 
ATOM      4  N   LIG d   1       7.097  -4.531  -5.498  0.00  0.00    -0.298 N 
ATOM      5  C   LIG d   1       7.260  -3.478  -4.486  0.00  0.00     0.012 C 
ATOM      6  C   LIG d   1       5.943  -2.714  -4.332  0.00  0.00     0.013 C 
ATOM      7  H   LIG d   1       4.611  -3.881  -6.326  0.00  0.00     0.044 H 
ATOM      8  H   LIG d   1       5.123  -2.740  -7.594  0.00  0.00     0.044 H 
ATOM      9  H   LIG d   1       6.586  -4.757  -7.524  0.00  0.00     0.044 H 
ATOM     10  H   LIG d   1       7.492  -3.273  -7.135  0.00  0.00     0.044 H 
ATOM     11  H   LIG d   1       7.533  -3.929  -3.532  0.00  0.00     0.044 H 
ATOM     12  H   LIG d   1       8.045  -2.790  -4.800  0.00  0.00     0.044 H 
ATOM     13  H   LIG d   1       6.069  -1.913  -3.603  0.00  0.00     0.044 H 
ATOM     14  H   LIG d   1       5.165  -3.396  -3.992  0.00  0.00     0.044 H 
ENDROOT
BRANCH   1  15
ATOM     15  C   LIG d   1       4.337  -1.333  -5.506  0.00  0.00     0.061 C 
ATOM     16  H   LIG d   1       3.471  -1.993  -5.443  0.00  0.00     0.056 H 
BRANCH  15  17
ATOM     17  C   LIG d   1       4.415  -0.488  -4.260  0.00  0.00    -0.026 A 
ATOM     18  C   LIG d   1       3.329  -0.410  -3.409  0.00  0.00    -0.057 A 
ATOM     19  C   LIG d   1       3.401   0.366  -2.266  0.00  0.00    -0.061 A 
ATOM     20  H   LIG d   1       2.424  -0.954  -3.636  0.00  0.00     0.062 H 
ATOM     21  C   LIG d   1       4.560   1.061  -1.976  0.00  0.00    -0.062 A 
ATOM     22  H   LIG d   1       2.554   0.427  -1.601  0.00  0.00     0.062 H 
ATOM     23  C   LIG d   1       5.646   0.982  -2.827  0.00  0.00    -0.061 A 
ATOM     24  H   LIG d   1       4.615   1.671  -1.085  0.00  0.00     0.062 H 
ATOM     25  C   LIG d   1       5.573   0.209  -3.971  0.00  0.00    -0.057 A 
ATOM     26  H   LIG d   1       6.551   1.527  -2.600  0.00  0.00     0.062 H 
ATOM     27  H   LIG d   1       6.421   0.147  -4.636  0.00  0.00     0.062 H 
ENDBRANCH  15  17
BRANCH  15  28
ATOM     28  C   LIG d   1       4.200  -0.440  -6.712  0.00  0.00    -0.026 A 
ATOM     29  C   LIG d   1       5.323  -0.057  -7.420  0.00  0.00    -0.055 A 
ATOM     30  C   LIG d   1       5.197   0.758  -8.529  0.00  0.00    -0.043 A 
ATOM     31  H   LIG d   1       6.300  -0.398  -7.109  0.00  0.00     0.062 H 
ATOM     32  C   LIG d   1       3.947   1.199  -8.923  0.00  0.00     0.041 A 
ATOM     33  H   LIG d   1       6.074   1.053  -9.086  0.00  0.00     0.063 H 
ATOM     34  C   LIG d   1       2.823   0.821  -8.211  0.00  0.00    -0.043 A 
ATOM     35 CL   LIG d   1       3.788   2.228 -10.313  0.00  0.00    -0.084 Cl
ATOM     36  C   LIG d   1       2.949   0.001  -7.105  0.00  0.00    -0.055 A 
ATOM     37  H   LIG d   1       1.846   1.165  -8.519  0.00  0.00     0.063 H 
ATOM     38  H   LIG d   1       2.073  -0.295  -6.549  0.00  0.00     0.062 H 
ENDBRANCH  15  28
ENDBRANCH   1  15
BRANCH   4  39
ATOM     39  C   LIG d   1       8.320  -5.336  -5.621  0.00  0.00     0.022 C 
ATOM     40  H   LIG d   1       8.587  -5.431  -6.673  0.00  0.00     0.045 H 
ATOM     41  H   LIG d   1       9.131  -4.850  -5.081  0.00  0.00     0.045 H 
BRANCH  39  42
ATOM     42  C   LIG d   1       8.076  -6.726  -5.030  0.00  0.00     0.061 C 
ATOM     43  H   LIG d   1       7.015  -6.848  -4.810  0.00  0.00     0.057 H 
ATOM     44  H   LIG d   1       8.387  -7.486  -5.748  0.00  0.00     0.057 H 
BRANCH  42  45
ATOM     45  O   LIG d   1       8.831  -6.871  -3.826  0.00  0.00    -0.373 OA
BRANCH  45  46
ATOM     46  C   LIG d   1       9.911  -5.944  -3.701  0.00  0.00     0.087 C 
ATOM     47  H   LIG d   1      10.856  -6.463  -3.861  0.00  0.00     0.062 H 
ATOM     48  H   LIG d   1       9.799  -5.154  -4.443  0.00  0.00     0.062 H 
BRANCH  46  49
ATOM     49  C   LIG d   1       9.897  -5.339  -2.320  0.00  0.00     0.067 C 
ATOM     50  O   LIG d   1       9.895  -4.128  -2.184  0.00  0.00    -0.547 OA
ATOM     51  O   LIG d   1       9.886  -6.063  -1.339  0.00  0.00    -0.547 OA
ENDBRANCH  46  49
ENDBRANCH  45  46
ENDBRANCH  42  45
ENDBRANCH  39  42
ENDBRANCH   4  39
TORSDOF 8
ENDMDL
MODEL 7
REMARK VINA RESULT:      -6.1      5.528      7.355
REMARK  8 active torsions:
REMARK  status: ('A' for Active; 'I' for Inactive)
REMARK    1  A    between atoms: C_4  and  C_7 
REMARK    2  A    between atoms: C_7  and  C_9 
REMARK    3  A    between atoms: C_7  and  N_16 
REMARK    4  A    between atoms: N_19  and  C_22 
REMARK    5  A    between atoms: C_22  and  C_23 
REMARK    6  A    between atoms: C_23  and  O_24 
REMARK    7  A    between atoms: O_24  and  C_25 
REMARK    8  A    between atoms: C_25  and  C_26 
ROOT
ATOM      1  N   LIG d   1       6.746  -0.099  -5.915  0.00  0.00    -0.289 N 
ATOM      2  C   LIG d   1       6.868   0.271  -7.332  0.00  0.00     0.013 C 
ATOM      3  C   LIG d   1       7.792   1.485  -7.462  0.00  0.00     0.012 C 
ATOM      4  N   LIG d   1       9.106   1.160  -6.890  0.00  0.00    -0.298 N 
ATOM      5  C   LIG d   1       8.984   0.790  -5.473  0.00  0.00     0.012 C 
ATOM      6  C   LIG d   1       8.060  -0.424  -5.343  0.00  0.00     0.013 C 
ATOM      7  H   LIG d   1       7.287  -0.565  -7.892  0.00  0.00     0.044 H 
ATOM      8  H   LIG d   1       5.884   0.520  -7.729  0.00  0.00     0.044 H 
ATOM      9  H   LIG d   1       7.908   1.744  -8.514  0.00  0.00     0.044 H 
ATOM     10  H   LIG d   1       7.360   2.330  -6.924  0.00  0.00     0.044 H 
ATOM     11  H   LIG d   1       9.968   0.542  -5.075  0.00  0.00     0.044 H 
ATOM     12  H   LIG d   1       8.566   1.626  -4.913  0.00  0.00     0.044 H 
ATOM     13  H   LIG d   1       7.944  -0.683  -4.291  0.00  0.00     0.044 H 
ATOM     14  H   LIG d   1       8.491  -1.268  -5.881  0.00  0.00     0.044 H 
ENDROOT
BRANCH   1  15
ATOM     15  C   LIG d   1       5.806  -1.214  -5.742  0.00  0.00     0.061 C 
ATOM     16  H   LIG d   1       6.330  -2.158  -5.892  0.00  0.00     0.056 H 
BRANCH  15  17
ATOM     17  C   LIG d   1       5.232  -1.175  -4.349  0.00  0.00    -0.026 A 
ATOM     18  C   LIG d   1       5.400  -0.051  -3.563  0.00  0.00    -0.057 A 
ATOM     19  C   LIG d   1       4.873  -0.015  -2.285  0.00  0.00    -0.061 A 
ATOM     20  H   LIG d   1       5.943   0.800  -3.947  0.00  0.00     0.062 H 
ATOM     21  C   LIG d   1       4.178  -1.104  -1.795  0.00  0.00    -0.062 A 
ATOM     22  H   LIG d   1       5.004   0.863  -1.671  0.00  0.00     0.062 H 
ATOM     23  C   LIG d   1       4.009  -2.229  -2.581  0.00  0.00    -0.061 A 
ATOM     24  H   LIG d   1       3.769  -1.079  -0.794  0.00  0.00     0.062 H 
ATOM     25  C   LIG d   1       4.537  -2.265  -3.858  0.00  0.00    -0.057 A 
ATOM     26  H   LIG d   1       3.466  -3.080  -2.197  0.00  0.00     0.062 H 
ATOM     27  H   LIG d   1       4.406  -3.143  -4.473  0.00  0.00     0.062 H 
ENDBRANCH  15  17
BRANCH  15  28
ATOM     28  C   LIG d   1       4.691  -1.094  -6.749  0.00  0.00    -0.026 A 
ATOM     29  C   LIG d   1       4.562  -2.035  -7.753  0.00  0.00    -0.055 A 
ATOM     30  C   LIG d   1       3.536  -1.927  -8.673  0.00  0.00    -0.043 A 
ATOM     31  H   LIG d   1       5.259  -2.856  -7.816  0.00  0.00     0.062 H 
ATOM     32  C   LIG d   1       2.646  -0.871  -8.595  0.00  0.00     0.041 A 
ATOM     33  H   LIG d   1       3.431  -2.666  -9.454  0.00  0.00     0.063 H 
ATOM     34  C   LIG d   1       2.779   0.074  -7.594  0.00  0.00    -0.043 A 
ATOM     35 CL   LIG d   1       1.361  -0.732  -9.754  0.00  0.00    -0.084 Cl
ATOM     36  C   LIG d   1       3.802  -0.037  -6.671  0.00  0.00    -0.055 A 
ATOM     37  H   LIG d   1       2.084   0.899  -7.533  0.00  0.00     0.063 H 
ATOM     38  H   LIG d   1       3.907   0.700  -5.889  0.00  0.00     0.062 H 
ENDBRANCH  15  28
ENDBRANCH   1  15
BRANCH   4  39
ATOM     39  C   LIG d   1      10.046   2.276  -7.063  0.00  0.00     0.022 C 
ATOM     40  H   LIG d   1      11.037   1.970  -6.728  0.00  0.00     0.045 H 
ATOM     41  H   LIG d   1      10.087   2.556  -8.115  0.00  0.00     0.045 H 
BRANCH  39  42
ATOM     42  C   LIG d   1       9.576   3.473  -6.234  0.00  0.00     0.061 C 
ATOM     43  H   LIG d   1       8.524   3.346  -5.976  0.00  0.00     0.057 H 
ATOM     44  H   LIG d   1      10.168   3.539  -5.322  0.00  0.00     0.057 H 
BRANCH  42  45
ATOM     45  O   LIG d   1       9.737   4.672  -6.995  0.00  0.00    -0.373 OA
BRANCH  45  46
ATOM     46  C   LIG d   1       9.980   4.450  -8.386  0.00  0.00     0.087 C 
ATOM     47  H   LIG d   1      10.916   4.929  -8.672  0.00  0.00     0.062 H 
ATOM     48  H   LIG d   1      10.045   3.380  -8.577  0.00  0.00     0.062 H 
BRANCH  46  49
ATOM     49  C   LIG d   1       8.848   5.035  -9.192  0.00  0.00     0.067 C 
ATOM     50  O   LIG d   1       8.809   6.234  -9.408  0.00  0.00    -0.547 OA
ATOM     51  O   LIG d   1       7.973   4.308  -9.630  0.00  0.00    -0.547 OA
ENDBRANCH  46  49
ENDBRANCH  45  46
ENDBRANCH  42  45
ENDBRANCH  39  42
ENDBRANCH   4  39
TORSDOF 8
ENDMDL
MODEL 8
REMARK VINA RESULT:      -6.1      5.422      7.291
REMARK  8 active torsions:
REMARK  status: ('A' for Active; 'I' for Inactive)
REMARK    1  A    between atoms: C_4  and  C_7 
REMARK    2  A    between atoms: C_7  and  C_9 
REMARK    3  A    between atoms: C_7  and  N_16 
REMARK    4  A    between atoms: N_19  and  C_22 
REMARK    5  A    between atoms: C_22  and  C_23 
REMARK    6  A    between atoms: C_23  and  O_24 
REMARK    7  A    between atoms: O_24  and  C_25 
REMARK    8  A    between atoms: C_25  and  C_26 
ROOT
ATOM      1  N   LIG d   1       6.110  -0.054  -6.125  0.00  0.00    -0.289 N 
ATOM      2  C   LIG d   1       6.854   0.016  -7.391  0.00  0.00     0.013 C 
ATOM      3  C   LIG d   1       7.698   1.293  -7.414  0.00  0.00     0.012 C 
ATOM      4  N   LIG d   1       8.616   1.290  -6.266  0.00  0.00    -0.298 N 
ATOM      5  C   LIG d   1       7.872   1.220  -5.001  0.00  0.00     0.012 C 
ATOM      6  C   LIG d   1       7.028  -0.056  -4.978  0.00  0.00     0.013 C 
ATOM      7  H   LIG d   1       7.507  -0.853  -7.477  0.00  0.00     0.044 H 
ATOM      8  H   LIG d   1       6.152   0.030  -8.224  0.00  0.00     0.044 H 
ATOM      9  H   LIG d   1       8.273   1.332  -8.339  0.00  0.00     0.044 H 
ATOM     10  H   LIG d   1       7.044   2.163  -7.354  0.00  0.00     0.044 H 
ATOM     11  H   LIG d   1       8.574   1.207  -4.166  0.00  0.00     0.044 H 
ATOM     12  H   LIG d   1       7.221   2.089  -4.913  0.00  0.00     0.044 H 
ATOM     13  H   LIG d   1       6.453  -0.096  -4.053  0.00  0.00     0.044 H 
ATOM     14  H   LIG d   1       7.682  -0.925  -5.037  0.00  0.00     0.044 H 
ENDROOT
BRANCH   1  15
ATOM     15  C   LIG d   1       5.228  -1.228  -6.097  0.00  0.00     0.061 C 
ATOM     16  H   LIG d   1       5.824  -2.133  -6.223  0.00  0.00     0.056 H 
BRANCH  15  17
ATOM     17  C   LIG d   1       4.506  -1.282  -4.775  0.00  0.00    -0.026 A 
ATOM     18  C   LIG d   1       4.645  -2.387  -3.957  0.00  0.00    -0.057 A 
ATOM     19  C   LIG d   1       3.983  -2.437  -2.744  0.00  0.00    -0.061 A 
ATOM     20  H   LIG d   1       5.271  -3.212  -4.264  0.00  0.00     0.062 H 
ATOM     21  C   LIG d   1       3.182  -1.381  -2.350  0.00  0.00    -0.062 A 
ATOM     22  H   LIG d   1       4.091  -3.299  -2.105  0.00  0.00     0.062 H 
ATOM     23  C   LIG d   1       3.044  -0.275  -3.169  0.00  0.00    -0.061 A 
ATOM     24  H   LIG d   1       2.661  -1.421  -1.405  0.00  0.00     0.062 H 
ATOM     25  C   LIG d   1       3.705  -0.226  -4.382  0.00  0.00    -0.057 A 
ATOM     26  H   LIG d   1       2.418   0.550  -2.861  0.00  0.00     0.062 H 
ATOM     27  H   LIG d   1       3.597   0.637  -5.022  0.00  0.00     0.062 H 
ENDBRANCH  15  17
BRANCH  15  28
ATOM     28  C   LIG d   1       4.223  -1.130  -7.215  0.00  0.00    -0.026 A 
ATOM     29  C   LIG d   1       3.513   0.041  -7.406  0.00  0.00    -0.055 A 
ATOM     30  C   LIG d   1       2.595   0.132  -8.435  0.00  0.00    -0.043 A 
ATOM     31  H   LIG d   1       3.679   0.885  -6.754  0.00  0.00     0.062 H 
ATOM     32  C   LIG d   1       2.379  -0.952  -9.267  0.00  0.00     0.041 A 
ATOM     33  H   LIG d   1       2.045   1.049  -8.588  0.00  0.00     0.063 H 
ATOM     34  C   LIG d   1       3.085  -2.124  -9.072  0.00  0.00    -0.043 A 
ATOM     35 CL   LIG d   1       1.222  -0.839 -10.556  0.00  0.00    -0.084 Cl
ATOM     36  C   LIG d   1       4.007  -2.214  -8.046  0.00  0.00    -0.055 A 
ATOM     37  H   LIG d   1       2.917  -2.971  -9.722  0.00  0.00     0.063 H 
ATOM     38  H   LIG d   1       4.559  -3.129  -7.893  0.00  0.00     0.062 H 
ENDBRANCH  15  28
ENDBRANCH   1  15
BRANCH   4  39
ATOM     39  C   LIG d   1       9.498   2.465  -6.294  0.00  0.00     0.022 C 
ATOM     40  H   LIG d   1      10.533   2.144  -6.180  0.00  0.00     0.045 H 
ATOM     41  H   LIG d   1       9.380   2.984  -7.245  0.00  0.00     0.045 H 
BRANCH  39  42
ATOM     42  C   LIG d   1       9.127   3.409  -5.149  0.00  0.00     0.061 C 
ATOM     43  H   LIG d   1       8.675   4.314  -5.555  0.00  0.00     0.057 H 
ATOM     44  H   LIG d   1       8.417   2.915  -4.486  0.00  0.00     0.057 H 
BRANCH  42  45
ATOM     45  O   LIG d   1      10.304   3.753  -4.415  0.00  0.00    -0.373 OA
BRANCH  45  46
ATOM     46  C   LIG d   1      10.228   3.453  -3.020  0.00  0.00     0.087 C 
ATOM     47  H   LIG d   1       9.246   3.039  -2.790  0.00  0.00     0.062 H 
ATOM     48  H   LIG d   1      10.998   2.726  -2.762  0.00  0.00     0.062 H 
BRANCH  46  49
ATOM     49  C   LIG d   1      10.443   4.714  -2.222  0.00  0.00     0.067 C 
ATOM     50  O   LIG d   1      11.282   4.741  -1.339  0.00  0.00    -0.547 OA
ATOM     51  O   LIG d   1       9.777   5.706  -2.462  0.00  0.00    -0.547 OA
ENDBRANCH  46  49
ENDBRANCH  45  46
ENDBRANCH  42  45
ENDBRANCH  39  42
ENDBRANCH   4  39
TORSDOF 8
ENDMDL
MODEL 9
REMARK VINA RESULT:      -6.0      3.682      6.133
REMARK  8 active torsions:
REMARK  status: ('A' for Active; 'I' for Inactive)
REMARK    1  A    between atoms: C_4  and  C_7 
REMARK    2  A    between atoms: C_7  and  C_9 
REMARK    3  A    between atoms: C_7  and  N_16 
REMARK    4  A    between atoms: N_19  and  C_22 
REMARK    5  A    between atoms: C_22  and  C_23 
REMARK    6  A    between atoms: C_23  and  O_24 
REMARK    7  A    between atoms: O_24  and  C_25 
REMARK    8  A    between atoms: C_25  and  C_26 
ROOT
ATOM      1  N   LIG d   1       5.626  -0.916  -6.247  0.00  0.00    -0.289 N 
ATOM      2  C   LIG d   1       6.236  -0.093  -7.301  0.00  0.00     0.013 C 
ATOM      3  C   LIG d   1       5.318  -0.074  -8.525  0.00  0.00     0.012 C 
ATOM      4  N   LIG d   1       4.004   0.459  -8.140  0.00  0.00    -0.298 N 
ATOM      5  C   LIG d   1       3.394  -0.363  -7.085  0.00  0.00     0.012 C 
ATOM      6  C   LIG d   1       4.312  -0.382  -5.861  0.00  0.00     0.013 C 
ATOM      7  H   LIG d   1       6.375   0.924  -6.934  0.00  0.00     0.044 H 
ATOM      8  H   LIG d   1       7.202  -0.516  -7.578  0.00  0.00     0.044 H 
ATOM      9  H   LIG d   1       5.754   0.559  -9.298  0.00  0.00     0.044 H 
ATOM     10  H   LIG d   1       5.200  -1.088  -8.908  0.00  0.00     0.044 H 
ATOM     11  H   LIG d   1       2.427   0.059  -6.808  0.00  0.00     0.044 H 
ATOM     12  H   LIG d   1       3.254  -1.379  -7.452  0.00  0.00     0.044 H 
ATOM     13  H   LIG d   1       3.876  -1.016  -5.089  0.00  0.00     0.044 H 
ATOM     14  H   LIG d   1       4.429   0.631  -5.479  0.00  0.00     0.044 H 
ENDROOT
BRANCH   1  15
ATOM     15  C   LIG d   1       6.514  -1.022  -5.082  0.00  0.00     0.061 C 
ATOM     16  H   LIG d   1       7.363  -0.349  -5.210  0.00  0.00     0.056 H 
BRANCH  15  17
ATOM     17  C   LIG d   1       5.756  -0.642  -3.836  0.00  0.00    -0.026 A 
ATOM     18  C   LIG d   1       5.812   0.654  -3.361  0.00  0.00    -0.057 A 
ATOM     19  C   LIG d   1       5.117   1.003  -2.218  0.00  0.00    -0.061 A 
ATOM     20  H   LIG d   1       6.400   1.396  -3.882  0.00  0.00     0.062 H 
ATOM     21  C   LIG d   1       4.365   0.054  -1.551  0.00  0.00    -0.062 A 
ATOM     22  H   LIG d   1       5.160   2.015  -1.847  0.00  0.00     0.062 H 
ATOM     23  C   LIG d   1       4.308  -1.243  -2.027  0.00  0.00    -0.061 A 
ATOM     24  H   LIG d   1       3.824   0.324  -0.655  0.00  0.00     0.062 H 
ATOM     25  C   LIG d   1       5.005  -1.592  -3.169  0.00  0.00    -0.057 A 
ATOM     26  H   LIG d   1       3.721  -1.985  -1.505  0.00  0.00     0.062 H 
ATOM     27  H   LIG d   1       4.961  -2.605  -3.541  0.00  0.00     0.062 H 
ENDBRANCH  15  17
BRANCH  15  28
ATOM     28  C   LIG d   1       7.012  -2.439  -4.956  0.00  0.00    -0.026 A 
ATOM     29  C   LIG d   1       8.086  -2.724  -4.135  0.00  0.00    -0.055 A 
ATOM     30  C   LIG d   1       8.538  -4.024  -4.015  0.00  0.00    -0.043 A 
ATOM     31  H   LIG d   1       8.569  -1.932  -3.583  0.00  0.00     0.062 H 
ATOM     32  C   LIG d   1       7.923  -5.039  -4.727  0.00  0.00     0.041 A 
ATOM     33  H   LIG d   1       9.374  -4.249  -3.368  0.00  0.00     0.063 H 
ATOM     34  C   LIG d   1       6.852  -4.752  -5.554  0.00  0.00    -0.043 A 
ATOM     35 CL   LIG d   1       8.495  -6.671  -4.582  0.00  0.00    -0.084 Cl
ATOM     36  C   LIG d   1       6.396  -3.452  -5.669  0.00  0.00    -0.055 A 
ATOM     37  H   LIG d   1       6.371  -5.544  -6.110  0.00  0.00     0.063 H 
ATOM     38  H   LIG d   1       5.560  -3.227  -6.314  0.00  0.00     0.062 H 
ENDBRANCH  15  28
ENDBRANCH   1  15
BRANCH   4  39
ATOM     39  C   LIG d   1       3.115   0.565  -9.305  0.00  0.00     0.022 C 
ATOM     40  H   LIG d   1       2.666   1.558  -9.329  0.00  0.00     0.045 H 
ATOM     41  H   LIG d   1       3.691   0.403 -10.216  0.00  0.00     0.045 H 
BRANCH  39  42
ATOM     42  C   LIG d   1       2.013  -0.491  -9.204  0.00  0.00     0.061 C 
ATOM     43  H   LIG d   1       2.134  -1.056  -8.280  0.00  0.00     0.057 H 
ATOM     44  H   LIG d   1       1.039  -0.001  -9.205  0.00  0.00     0.057 H 
BRANCH  42  45
ATOM     45  O   LIG d   1       2.101  -1.380 -10.320  0.00  0.00    -0.373 OA
BRANCH  45  46
ATOM     46  C   LIG d   1       2.059  -2.764  -9.966  0.00  0.00     0.087 C 
ATOM     47  H   LIG d   1       1.311  -2.917  -9.188  0.00  0.00     0.062 H 
ATOM     48  H   LIG d   1       1.798  -3.355 -10.843  0.00  0.00     0.062 H 
BRANCH  46  49
ATOM     49  C   LIG d   1       3.411  -3.193  -9.456  0.00  0.00     0.067 C 
ATOM     50  O   LIG d   1       3.523  -3.646  -8.330  0.00  0.00    -0.547 OA
ATOM     51  O   LIG d   1       4.393  -3.088 -10.172  0.00  0.00    -0.547 OA
ENDBRANCH  46  49
ENDBRANCH  45  46
ENDBRANCH  42  45
ENDBRANCH  39  42
ENDBRANCH   4  39
TORSDOF 8
ENDMDL
MODEL 10
REMARK VINA RESULT:      -5.7      6.485      8.832
REMARK  8 active torsions:
REMARK  status: ('A' for Active; 'I' for Inactive)
REMARK    1  A    between atoms: C_4  and  C_7 
REMARK    2  A    between atoms: C_7  and  C_9 
REMARK    3  A    between atoms: C_7  and  N_16 
REMARK    4  A    between atoms: N_19  and  C_22 
REMARK    5  A    between atoms: C_22  and  C_23 
REMARK    6  A    between atoms: C_23  and  O_24 
REMARK    7  A    between atoms: O_24  and  C_25 
REMARK    8  A    between atoms: C_25  and  C_26 
ROOT
ATOM      1  N   LIG d   1       8.063   1.436  -4.687  0.00  0.00    -0.289 N 
ATOM      2  C   LIG d   1       8.782   1.648  -5.951  0.00  0.00     0.013 C 
ATOM      3  C   LIG d   1       9.095   3.138  -6.112  0.00  0.00     0.012 C 
ATOM      4  N   LIG d   1       9.899   3.593  -4.969  0.00  0.00    -0.298 N 
ATOM      5  C   LIG d   1       9.180   3.380  -3.705  0.00  0.00     0.012 C 
ATOM      6  C   LIG d   1       8.867   1.891  -3.544  0.00  0.00     0.013 C 
ATOM      7  H   LIG d   1       9.712   1.080  -5.940  0.00  0.00     0.044 H 
ATOM      8  H   LIG d   1       8.161   1.316  -6.782  0.00  0.00     0.044 H 
ATOM      9  H   LIG d   1       9.655   3.294  -7.034  0.00  0.00     0.044 H 
ATOM     10  H   LIG d   1       8.165   3.704  -6.149  0.00  0.00     0.044 H 
ATOM     11  H   LIG d   1       9.801   3.713  -2.872  0.00  0.00     0.044 H 
ATOM     12  H   LIG d   1       8.251   3.949  -3.715  0.00  0.00     0.044 H 
ATOM     13  H   LIG d   1       8.307   1.734  -2.621  0.00  0.00     0.044 H 
ATOM     14  H   LIG d   1       9.797   1.325  -3.506  0.00  0.00     0.044 H 
ENDROOT
BRANCH   1  15
ATOM     15  C   LIG d   1       7.676   0.027  -4.532  0.00  0.00     0.061 C 
ATOM     16  H   LIG d   1       8.520  -0.540  -4.138  0.00  0.00     0.056 H 
BRANCH  15  17
ATOM     17  C   LIG d   1       6.514  -0.072  -3.577  0.00  0.00    -0.026 A 
ATOM     18  C   LIG d   1       5.900   1.076  -3.113  0.00  0.00    -0.057 A 
ATOM     19  C   LIG d   1       4.834   0.984  -2.237  0.00  0.00    -0.061 A 
ATOM     20  H   LIG d   1       6.253   2.045  -3.435  0.00  0.00     0.062 H 
ATOM     21  C   LIG d   1       4.383  -0.256  -1.826  0.00  0.00    -0.062 A 
ATOM     22  H   LIG d   1       4.354   1.881  -1.875  0.00  0.00     0.062 H 
ATOM     23  C   LIG d   1       4.997  -1.404  -2.290  0.00  0.00    -0.061 A 
ATOM     24  H   LIG d   1       3.552  -0.328  -1.138  0.00  0.00     0.062 H 
ATOM     25  C   LIG d   1       6.064  -1.313  -3.165  0.00  0.00    -0.057 A 
ATOM     26  H   LIG d   1       4.644  -2.373  -1.968  0.00  0.00     0.062 H 
ATOM     27  H   LIG d   1       6.543  -2.209  -3.528  0.00  0.00     0.062 H 
ENDBRANCH  15  17
BRANCH  15  28
ATOM     28  C   LIG d   1       7.275  -0.535  -5.871  0.00  0.00    -0.026 A 
ATOM     29  C   LIG d   1       8.000  -1.570  -6.431  0.00  0.00    -0.055 A 
ATOM     30  C   LIG d   1       7.629  -2.090  -7.657  0.00  0.00    -0.043 A 
ATOM     31  H   LIG d   1       8.853  -1.977  -5.908  0.00  0.00     0.062 H 
ATOM     32  C   LIG d   1       6.540  -1.565  -8.329  0.00  0.00     0.041 A 
ATOM     33  H   LIG d   1       8.191  -2.903  -8.092  0.00  0.00     0.063 H 
ATOM     34  C   LIG d   1       5.819  -0.525  -7.771  0.00  0.00    -0.043 A 
ATOM     35 CL   LIG d   1       6.077  -2.213  -9.872  0.00  0.00    -0.084 Cl
ATOM     36  C   LIG d   1       6.186  -0.010  -6.543  0.00  0.00    -0.055 A 
ATOM     37  H   LIG d   1       4.967  -0.115  -8.296  0.00  0.00     0.063 H 
ATOM     38  H   LIG d   1       5.624   0.802  -6.107  0.00  0.00     0.062 H 
ENDBRANCH  15  28
ENDBRANCH   1  15
BRANCH   4  39
ATOM     39  C   LIG d   1      10.286   5.001  -5.124  0.00  0.00     0.022 C 
ATOM     40  H   LIG d   1      11.340   5.118  -4.872  0.00  0.00     0.045 H 
ATOM     41  H   LIG d   1      10.121   5.312  -6.155  0.00  0.00     0.045 H 
BRANCH  39  42
ATOM     42  C   LIG d   1       9.440   5.868  -4.189  0.00  0.00     0.061 C 
ATOM     43  H   LIG d   1       8.718   6.438  -4.775  0.00  0.00     0.057 H 
ATOM     44  H   LIG d   1       8.911   5.230  -3.481  0.00  0.00     0.057 H 
BRANCH  42  45
ATOM     45  O   LIG d   1      10.290   6.769  -3.475  0.00  0.00    -0.373 OA
BRANCH  45  46
ATOM     46  C   LIG d   1      10.819   6.231  -2.261  0.00  0.00     0.087 C 
ATOM     47  H   LIG d   1      10.794   5.142  -2.306  0.00  0.00     0.062 H 
ATOM     48  H   LIG d   1      11.848   6.566  -2.134  0.00  0.00     0.062 H 
BRANCH  46  49
ATOM     49  C   LIG d   1       9.989   6.707  -1.097  0.00  0.00     0.067 C 
ATOM     50  O   LIG d   1      10.269   6.355   0.036  0.00  0.00    -0.547 OA
ATOM     51  O   LIG d   1       9.038   7.446  -1.288  0.00  0.00    -0.547 OA
ENDBRANCH  46  49
ENDBRANCH  45  46
ENDBRANCH  42  45
ENDBRANCH  39  42
ENDBRANCH   4  39
TORSDOF 8
ENDMDL
