MODEL 1
REMARK VINA RESULT:      -7.3      0.000      0.000
REMARK  11 active torsions:
REMARK  status: ('A' for Active; 'I' for Inactive)
REMARK    1  A    between atoms: C_1  and  C_2 
REMARK    2  A    between atoms: C_5  and  C_10 
REMARK    3  A    between atoms: C_6  and  O_9 
REMARK    4  A    between atoms: C_7  and  C_8 
REMARK    5  A    between atoms: C_10  and  C_12 
REMARK    6  A    between atoms: C_10  and  C_26 
REMARK    7  A    between atoms: C_12  and  C_13 
REMARK       I    between atoms: C_13  and  N_15 
REMARK    8  A    between atoms: N_15  and  C_16 
REMARK    9  A    between atoms: C_16  and  C_18 
REMARK   10  A    between atoms: C_16  and  C_19 
REMARK   11  A    between atoms: C_19  and  C_20 
ROOT
ATOM      1  C   LIG d   1       4.638  -2.551  -5.631  0.00  0.00     0.021 C 
ATOM      2  H   LIG d   1       3.612  -2.720  -5.957  0.00  0.00     0.040 H 
ENDROOT
BRANCH   1   3
ATOM      3  C   LIG d   1       5.363  -3.870  -5.546  0.00  0.00     0.002 A 
ATOM      4  C   LIG d   1       6.695  -3.906  -5.182  0.00  0.00    -0.054 A 
ATOM      5  C   LIG d   1       7.360  -5.115  -5.104  0.00  0.00    -0.058 A 
ATOM      6  H   LIG d   1       7.218  -2.987  -4.958  0.00  0.00     0.062 H 
ATOM      7  C   LIG d   1       6.693  -6.292  -5.391  0.00  0.00    -0.044 A 
ATOM      8  H   LIG d   1       8.400  -5.141  -4.819  0.00  0.00     0.062 H 
ATOM      9  C   LIG d   1       5.361  -6.262  -5.756  0.00  0.00    -0.006 A 
ATOM     10  C   LIG d   1       4.691  -5.050  -5.829  0.00  0.00     0.124 A 
BRANCH   7  11
ATOM     11  C   LIG d   1       7.421  -7.609  -5.305  0.00  0.00    -0.039 C 
ATOM     12  H   LIG d   1       8.007  -7.641  -4.387  0.00  0.00     0.028 H 
ATOM     13  H   LIG d   1       6.697  -8.425  -5.301  0.00  0.00     0.028 H 
ATOM     14  H   LIG d   1       8.083  -7.715  -6.164  0.00  0.00     0.028 H 
ENDBRANCH   7  11
BRANCH   9  15
ATOM     15  C   LIG d   1       4.636  -7.546  -6.067  0.00  0.00    -0.036 C 
ATOM     16  H   LIG d   1       5.158  -8.382  -5.602  0.00  0.00     0.028 H 
ATOM     17  H   LIG d   1       3.619  -7.491  -5.680  0.00  0.00     0.028 H 
ATOM     18  H   LIG d   1       4.606  -7.693  -7.148  0.00  0.00     0.028 H 
ENDBRANCH   9  15
BRANCH  10  19
ATOM     19  O   LIG d   1       3.378  -5.019  -6.182  0.00  0.00    -0.506 OA
ATOM     20  H   LIG d   1       3.095  -5.779  -6.709  0.00  0.00     0.292 HD
ENDBRANCH  10  19
ENDBRANCH   1   3
BRANCH   1  21
ATOM     21  C   LIG d   1       5.350  -1.643  -6.635  0.00  0.00     0.035 C 
ATOM     22  H   LIG d   1       6.423  -1.825  -6.592  0.00  0.00     0.037 H 
ATOM     23  H   LIG d   1       5.148  -0.600  -6.390  0.00  0.00     0.037 H 
BRANCH  21  24
ATOM     24  C   LIG d   1       4.844  -1.938  -8.025  0.00  0.00     0.214 C 
ATOM     25  O   LIG d   1       5.572  -1.777  -8.981  0.00  0.00    -0.276 OA
ATOM     26  N   LIG d   1       3.584  -2.379  -8.203  0.00  0.00    -0.312 N 
ATOM     27  H   LIG d   1       3.001  -2.506  -7.438  0.00  0.00     0.149 HD
BRANCH  26  28
ATOM     28  C   LIG d   1       3.092  -2.665  -9.554  0.00  0.00     0.024 C 
ATOM     29  H   LIG d   1       3.913  -2.576 -10.265  0.00  0.00     0.050 H 
BRANCH  28  30
ATOM     30  C   LIG d   1       2.528  -4.086  -9.600  0.00  0.00    -0.046 C 
ATOM     31  H   LIG d   1       3.265  -4.757 -10.040  0.00  0.00     0.025 H 
ATOM     32  H   LIG d   1       2.294  -4.417  -8.587  0.00  0.00     0.025 H 
ATOM     33  H   LIG d   1       1.620  -4.097 -10.203  0.00  0.00     0.025 H 
ENDBRANCH  28  30
BRANCH  28  34
ATOM     34  C   LIG d   1       1.991  -1.666  -9.917  0.00  0.00    -0.009 C 
ATOM     35  H   LIG d   1       1.184  -1.735  -9.190  0.00  0.00     0.033 H 
ATOM     36  H   LIG d   1       1.606  -1.896 -10.911  0.00  0.00     0.033 H 
BRANCH  34  37
ATOM     37  C   LIG d   1       2.558  -0.269  -9.910  0.00  0.00    -0.046 A 
ATOM     38  C   LIG d   1       3.404   0.138 -10.924  0.00  0.00    -0.059 A 
ATOM     39  C   LIG d   1       3.928   1.417 -10.915  0.00  0.00    -0.061 A 
ATOM     40  H   LIG d   1       3.659  -0.544 -11.721  0.00  0.00     0.062 H 
ATOM     41  C   LIG d   1       3.601   2.290  -9.894  0.00  0.00    -0.062 A 
ATOM     42  H   LIG d   1       4.593   1.734 -11.705  0.00  0.00     0.062 H 
ATOM     43  C   LIG d   1       2.751   1.885  -8.883  0.00  0.00    -0.061 A 
ATOM     44  H   LIG d   1       4.011   3.290  -9.887  0.00  0.00     0.062 H 
ATOM     45  C   LIG d   1       2.227   0.606  -8.892  0.00  0.00    -0.059 A 
ATOM     46  H   LIG d   1       2.496   2.567  -8.085  0.00  0.00     0.062 H 
ATOM     47  H   LIG d   1       1.562   0.289  -8.102  0.00  0.00     0.062 H 
ENDBRANCH  34  37
ENDBRANCH  28  34
ENDBRANCH  26  28
ENDBRANCH  21  24
ENDBRANCH   1  21
BRANCH   1  48
ATOM     48  C   LIG d   1       4.633  -1.894  -4.275  0.00  0.00    -0.039 A 
ATOM     49  C   LIG d   1       5.246  -0.667  -4.098  0.00  0.00    -0.058 A 
ATOM     50  C   LIG d   1       5.241  -0.064  -2.854  0.00  0.00    -0.061 A 
ATOM     51  H   LIG d   1       5.730  -0.180  -4.932  0.00  0.00     0.062 H 
ATOM     52  C   LIG d   1       4.622  -0.688  -1.787  0.00  0.00    -0.062 A 
ATOM     53  H   LIG d   1       5.721   0.894  -2.716  0.00  0.00     0.062 H 
ATOM     54  C   LIG d   1       4.009  -1.913  -1.963  0.00  0.00    -0.061 A 
ATOM     55  H   LIG d   1       4.618  -0.217  -0.815  0.00  0.00     0.062 H 
ATOM     56  C   LIG d   1       4.010  -2.514  -3.208  0.00  0.00    -0.058 A 
ATOM     57  H   LIG d   1       3.526  -2.400  -1.130  0.00  0.00     0.062 H 
ATOM     58  H   LIG d   1       3.527  -3.470  -3.347  0.00  0.00     0.062 H 
ENDBRANCH   1  48
TORSDOF 11
ENDMDL
MODEL 2
REMARK VINA RESULT:      -7.1      1.312      2.363
REMARK  11 active torsions:
REMARK  status: ('A' for Active; 'I' for Inactive)
REMARK    1  A    between atoms: C_1  and  C_2 
REMARK    2  A    between atoms: C_5  and  C_10 
REMARK    3  A    between atoms: C_6  and  O_9 
REMARK    4  A    between atoms: C_7  and  C_8 
REMARK    5  A    between atoms: C_10  and  C_12 
REMARK    6  A    between atoms: C_10  and  C_26 
REMARK    7  A    between atoms: C_12  and  C_13 
REMARK       I    between atoms: C_13  and  N_15 
REMARK    8  A    between atoms: N_15  and  C_16 
REMARK    9  A    between atoms: C_16  and  C_18 
REMARK   10  A    between atoms: C_16  and  C_19 
REMARK   11  A    between atoms: C_19  and  C_20 
ROOT
ATOM      1  C   LIG d   1       4.681  -2.162  -5.588  0.00  0.00     0.021 C 
ATOM      2  H   LIG d   1       3.662  -2.352  -5.925  0.00  0.00     0.040 H 
ENDROOT
BRANCH   1   3
ATOM      3  C   LIG d   1       5.439  -3.463  -5.521  0.00  0.00     0.002 A 
ATOM      4  C   LIG d   1       6.774  -3.468  -5.164  0.00  0.00    -0.054 A 
ATOM      5  C   LIG d   1       7.470  -4.661  -5.102  0.00  0.00    -0.058 A 
ATOM      6  H   LIG d   1       7.274  -2.538  -4.933  0.00  0.00     0.062 H 
ATOM      7  C   LIG d   1       6.832  -5.852  -5.397  0.00  0.00    -0.044 A 
ATOM      8  H   LIG d   1       8.512  -4.663  -4.823  0.00  0.00     0.062 H 
ATOM      9  C   LIG d   1       5.498  -5.852  -5.755  0.00  0.00    -0.006 A 
ATOM     10  C   LIG d   1       4.796  -4.657  -5.812  0.00  0.00     0.124 A 
BRANCH   7  11
ATOM     11  C   LIG d   1       7.594  -7.150  -5.329  0.00  0.00    -0.039 C 
ATOM     12  H   LIG d   1       8.034  -7.261  -4.338  0.00  0.00     0.028 H 
ATOM     13  H   LIG d   1       6.914  -7.981  -5.519  0.00  0.00     0.028 H 
ATOM     14  H   LIG d   1       8.384  -7.149  -6.080  0.00  0.00     0.028 H 
ENDBRANCH   7  11
BRANCH   9  15
ATOM     15  C   LIG d   1       4.804  -7.151  -6.076  0.00  0.00    -0.036 C 
ATOM     16  H   LIG d   1       4.318  -7.536  -5.179  0.00  0.00     0.028 H 
ATOM     17  H   LIG d   1       4.056  -6.981  -6.850  0.00  0.00     0.028 H 
ATOM     18  H   LIG d   1       5.536  -7.876  -6.431  0.00  0.00     0.028 H 
ENDBRANCH   9  15
BRANCH  10  19
ATOM     19  O   LIG d   1       3.481  -4.656  -6.158  0.00  0.00    -0.506 OA
ATOM     20  H   LIG d   1       3.019  -5.479  -5.948  0.00  0.00     0.292 HD
ENDBRANCH  10  19
ENDBRANCH   1   3
BRANCH   1  21
ATOM     21  C   LIG d   1       5.375  -1.218  -6.571  0.00  0.00     0.035 C 
ATOM     22  H   LIG d   1       6.181  -1.749  -7.077  0.00  0.00     0.037 H 
ATOM     23  H   LIG d   1       5.786  -0.366  -6.029  0.00  0.00     0.037 H 
BRANCH  21  24
ATOM     24  C   LIG d   1       4.377  -0.730  -7.589  0.00  0.00     0.214 C 
ATOM     25  O   LIG d   1       3.537  -1.488  -8.027  0.00  0.00    -0.276 OA
ATOM     26  N   LIG d   1       4.419   0.548  -8.015  0.00  0.00    -0.312 N 
ATOM     27  H   LIG d   1       5.091   1.155  -7.666  0.00  0.00     0.149 HD
BRANCH  26  28
ATOM     28  C   LIG d   1       3.448   1.022  -9.005  0.00  0.00     0.024 C 
ATOM     29  H   LIG d   1       2.643   0.294  -9.102  0.00  0.00     0.050 H 
BRANCH  28  30
ATOM     30  C   LIG d   1       2.872   2.365  -8.551  0.00  0.00    -0.046 C 
ATOM     31  H   LIG d   1       1.892   2.512  -9.004  0.00  0.00     0.025 H 
ATOM     32  H   LIG d   1       2.773   2.369  -7.465  0.00  0.00     0.025 H 
ATOM     33  H   LIG d   1       3.539   3.170  -8.858  0.00  0.00     0.025 H 
ENDBRANCH  28  30
BRANCH  28  34
ATOM     34  C   LIG d   1       4.144   1.197 -10.357  0.00  0.00    -0.009 C 
ATOM     35  H   LIG d   1       5.217   1.053 -10.235  0.00  0.00     0.033 H 
ATOM     36  H   LIG d   1       3.954   2.202 -10.736  0.00  0.00     0.033 H 
BRANCH  34  37
ATOM     37  C   LIG d   1       3.608   0.182 -11.333  0.00  0.00    -0.046 A 
ATOM     38  C   LIG d   1       4.345  -0.158 -12.452  0.00  0.00    -0.059 A 
ATOM     39  C   LIG d   1       3.851  -1.084 -13.350  0.00  0.00    -0.061 A 
ATOM     40  H   LIG d   1       5.306   0.304 -12.626  0.00  0.00     0.062 H 
ATOM     41  C   LIG d   1       2.622  -1.675 -13.127  0.00  0.00    -0.062 A 
ATOM     42  H   LIG d   1       4.426  -1.346 -14.227  0.00  0.00     0.062 H 
ATOM     43  C   LIG d   1       1.887  -1.339 -12.007  0.00  0.00    -0.061 A 
ATOM     44  H   LIG d   1       2.235  -2.399 -13.830  0.00  0.00     0.062 H 
ATOM     45  C   LIG d   1       2.381  -0.413 -11.108  0.00  0.00    -0.059 A 
ATOM     46  H   LIG d   1       0.925  -1.800 -11.834  0.00  0.00     0.062 H 
ATOM     47  H   LIG d   1       1.806  -0.150 -10.232  0.00  0.00     0.062 H 
ENDBRANCH  34  37
ENDBRANCH  28  34
ENDBRANCH  26  28
ENDBRANCH  21  24
ENDBRANCH   1  21
BRANCH   1  48
ATOM     48  C   LIG d   1       4.648  -1.529  -4.221  0.00  0.00    -0.039 A 
ATOM     49  C   LIG d   1       5.144  -0.252  -4.038  0.00  0.00    -0.058 A 
ATOM     50  C   LIG d   1       5.115   0.328  -2.783  0.00  0.00    -0.061 A 
ATOM     51  H   LIG d   1       5.557   0.292  -4.875  0.00  0.00     0.062 H 
ATOM     52  C   LIG d   1       4.586  -0.369  -1.712  0.00  0.00    -0.062 A 
ATOM     53  H   LIG d   1       5.503   1.326  -2.640  0.00  0.00     0.062 H 
ATOM     54  C   LIG d   1       4.089  -1.645  -1.895  0.00  0.00    -0.061 A 
ATOM     55  H   LIG d   1       4.563   0.085  -0.732  0.00  0.00     0.062 H 
ATOM     56  C   LIG d   1       4.115  -2.223  -3.151  0.00  0.00    -0.058 A 
ATOM     57  H   LIG d   1       3.677  -2.189  -1.059  0.00  0.00     0.062 H 
ATOM     58  H   LIG d   1       3.723  -3.220  -3.294  0.00  0.00     0.062 H 
ENDBRANCH   1  48
TORSDOF 11
ENDMDL
MODEL 3
REMARK VINA RESULT:      -6.8      1.242      4.396
REMARK  11 active torsions:
REMARK  status: ('A' for Active; 'I' for Inactive)
REMARK    1  A    between atoms: C_1  and  C_2 
REMARK    2  A    between atoms: C_5  and  C_10 
REMARK    3  A    between atoms: C_6  and  O_9 
REMARK    4  A    between atoms: C_7  and  C_8 
REMARK    5  A    between atoms: C_10  and  C_12 
REMARK    6  A    between atoms: C_10  and  C_26 
REMARK    7  A    between atoms: C_12  and  C_13 
REMARK       I    between atoms: C_13  and  N_15 
REMARK    8  A    between atoms: N_15  and  C_16 
REMARK    9  A    between atoms: C_16  and  C_18 
REMARK   10  A    between atoms: C_16  and  C_19 
REMARK   11  A    between atoms: C_19  and  C_20 
ROOT
ATOM      1  C   LIG d   1       5.929  -3.236  -5.935  0.00  0.00     0.021 C 
ATOM      2  H   LIG d   1       6.471  -2.660  -6.685  0.00  0.00     0.040 H 
ENDROOT
BRANCH   1   3
ATOM      3  C   LIG d   1       5.563  -2.338  -4.780  0.00  0.00     0.002 A 
ATOM      4  C   LIG d   1       4.629  -2.754  -3.851  0.00  0.00    -0.054 A 
ATOM      5  C   LIG d   1       4.293  -1.932  -2.791  0.00  0.00    -0.058 A 
ATOM      6  H   LIG d   1       4.161  -3.723  -3.952  0.00  0.00     0.062 H 
ATOM      7  C   LIG d   1       4.891  -0.692  -2.660  0.00  0.00    -0.044 A 
ATOM      8  H   LIG d   1       3.564  -2.258  -2.066  0.00  0.00     0.062 H 
ATOM      9  C   LIG d   1       5.825  -0.272  -3.586  0.00  0.00    -0.006 A 
ATOM     10  C   LIG d   1       6.168  -1.098  -4.647  0.00  0.00     0.124 A 
BRANCH   7  11
ATOM     11  C   LIG d   1       4.523   0.202  -1.503  0.00  0.00    -0.039 C 
ATOM     12  H   LIG d   1       3.467   0.462  -1.568  0.00  0.00     0.028 H 
ATOM     13  H   LIG d   1       4.712  -0.320  -0.565  0.00  0.00     0.028 H 
ATOM     14  H   LIG d   1       5.124   1.111  -1.540  0.00  0.00     0.028 H 
ENDBRANCH   7  11
BRANCH   9  15
ATOM     15  C   LIG d   1       6.476   1.080  -3.442  0.00  0.00    -0.036 C 
ATOM     16  H   LIG d   1       6.266   1.682  -4.326  0.00  0.00     0.028 H 
ATOM     17  H   LIG d   1       6.081   1.580  -2.558  0.00  0.00     0.028 H 
ATOM     18  H   LIG d   1       7.554   0.954  -3.336  0.00  0.00     0.028 H 
ENDBRANCH   9  15
BRANCH  10  19
ATOM     19  O   LIG d   1       7.091  -0.688  -5.557  0.00  0.00    -0.506 OA
ATOM     20  H   LIG d   1       7.088   0.265  -5.719  0.00  0.00     0.292 HD
ENDBRANCH  10  19
ENDBRANCH   1   3
BRANCH   1  21
ATOM     21  C   LIG d   1       4.655  -3.811  -6.556  0.00  0.00     0.035 C 
ATOM     22  H   LIG d   1       3.822  -3.678  -5.866  0.00  0.00     0.037 H 
ATOM     23  H   LIG d   1       4.795  -4.873  -6.756  0.00  0.00     0.037 H 
BRANCH  21  24
ATOM     24  C   LIG d   1       4.357  -3.093  -7.848  0.00  0.00     0.214 C 
ATOM     25  O   LIG d   1       5.184  -2.350  -8.332  0.00  0.00    -0.276 OA
ATOM     26  N   LIG d   1       3.172  -3.277  -8.463  0.00  0.00    -0.312 N 
ATOM     27  H   LIG d   1       2.511  -3.871  -8.075  0.00  0.00     0.149 HD
BRANCH  26  28
ATOM     28  C   LIG d   1       2.883  -2.578  -9.718  0.00  0.00     0.024 C 
ATOM     29  H   LIG d   1       3.805  -2.160 -10.121  0.00  0.00     0.050 H 
BRANCH  28  30
ATOM     30  C   LIG d   1       2.287  -3.564 -10.724  0.00  0.00    -0.046 C 
ATOM     31  H   LIG d   1       2.627  -3.311 -11.727  0.00  0.00     0.025 H 
ATOM     32  H   LIG d   1       2.609  -4.576 -10.476  0.00  0.00     0.025 H 
ATOM     33  H   LIG d   1       1.198  -3.510 -10.684  0.00  0.00     0.025 H 
ENDBRANCH  28  30
BRANCH  28  34
ATOM     34  C   LIG d   1       1.883  -1.450  -9.454  0.00  0.00    -0.009 C 
ATOM     35  H   LIG d   1       1.476  -1.553  -8.449  0.00  0.00     0.033 H 
ATOM     36  H   LIG d   1       1.073  -1.507 -10.182  0.00  0.00     0.033 H 
BRANCH  34  37
ATOM     37  C   LIG d   1       2.580  -0.120  -9.581  0.00  0.00    -0.046 A 
ATOM     38  C   LIG d   1       3.271   0.190 -10.738  0.00  0.00    -0.059 A 
ATOM     39  C   LIG d   1       3.915   1.407 -10.853  0.00  0.00    -0.061 A 
ATOM     40  H   LIG d   1       3.311  -0.521 -11.550  0.00  0.00     0.062 H 
ATOM     41  C   LIG d   1       3.864   2.317  -9.813  0.00  0.00    -0.062 A 
ATOM     42  H   LIG d   1       4.459   1.647 -11.755  0.00  0.00     0.062 H 
ATOM     43  C   LIG d   1       3.169   2.009  -8.659  0.00  0.00    -0.061 A 
ATOM     44  H   LIG d   1       4.368   3.268  -9.903  0.00  0.00     0.062 H 
ATOM     45  C   LIG d   1       2.524   0.792  -8.544  0.00  0.00    -0.059 A 
ATOM     46  H   LIG d   1       3.130   2.720  -7.847  0.00  0.00     0.062 H 
ATOM     47  H   LIG d   1       1.981   0.551  -7.642  0.00  0.00     0.062 H 
ENDBRANCH  34  37
ENDBRANCH  28  34
ENDBRANCH  26  28
ENDBRANCH  21  24
ENDBRANCH   1  21
BRANCH   1  48
ATOM     48  C   LIG d   1       6.799  -4.361  -5.440  0.00  0.00    -0.039 A 
ATOM     49  C   LIG d   1       6.463  -5.672  -5.722  0.00  0.00    -0.058 A 
ATOM     50  C   LIG d   1       7.261  -6.705  -5.267  0.00  0.00    -0.061 A 
ATOM     51  H   LIG d   1       5.574  -5.890  -6.297  0.00  0.00     0.062 H 
ATOM     52  C   LIG d   1       8.398  -6.426  -4.531  0.00  0.00    -0.062 A 
ATOM     53  H   LIG d   1       6.998  -7.729  -5.487  0.00  0.00     0.062 H 
ATOM     54  C   LIG d   1       8.735  -5.116  -4.249  0.00  0.00    -0.061 A 
ATOM     55  H   LIG d   1       9.022  -7.233  -4.176  0.00  0.00     0.062 H 
ATOM     56  C   LIG d   1       7.939  -4.084  -4.708  0.00  0.00    -0.058 A 
ATOM     57  H   LIG d   1       9.623  -4.899  -3.674  0.00  0.00     0.062 H 
ATOM     58  H   LIG d   1       8.205  -3.059  -4.491  0.00  0.00     0.062 H 
ENDBRANCH   1  48
TORSDOF 11
ENDMDL
MODEL 4
REMARK VINA RESULT:      -6.8      2.059      4.786
REMARK  11 active torsions:
REMARK  status: ('A' for Active; 'I' for Inactive)
REMARK    1  A    between atoms: C_1  and  C_2 
REMARK    2  A    between atoms: C_5  and  C_10 
REMARK    3  A    between atoms: C_6  and  O_9 
REMARK    4  A    between atoms: C_7  and  C_8 
REMARK    5  A    between atoms: C_10  and  C_12 
REMARK    6  A    between atoms: C_10  and  C_26 
REMARK    7  A    between atoms: C_12  and  C_13 
REMARK       I    between atoms: C_13  and  N_15 
REMARK    8  A    between atoms: N_15  and  C_16 
REMARK    9  A    between atoms: C_16  and  C_18 
REMARK   10  A    between atoms: C_16  and  C_19 
REMARK   11  A    between atoms: C_19  and  C_20 
ROOT
ATOM      1  C   LIG d   1       5.122  -1.507  -5.503  0.00  0.00     0.021 C 
ATOM      2  H   LIG d   1       6.173  -1.726  -5.689  0.00  0.00     0.040 H 
ENDROOT
BRANCH   1   3
ATOM      3  C   LIG d   1       4.617  -0.544  -6.548  0.00  0.00     0.002 A 
ATOM      4  C   LIG d   1       3.308  -0.103  -6.508  0.00  0.00    -0.054 A 
ATOM      5  C   LIG d   1       2.845   0.780  -7.465  0.00  0.00    -0.058 A 
ATOM      6  H   LIG d   1       2.646  -0.449  -5.727  0.00  0.00     0.062 H 
ATOM      7  C   LIG d   1       3.691   1.224  -8.465  0.00  0.00    -0.044 A 
ATOM      8  H   LIG d   1       1.822   1.123  -7.432  0.00  0.00     0.062 H 
ATOM      9  C   LIG d   1       5.000   0.787  -8.510  0.00  0.00    -0.006 A 
ATOM     10  C   LIG d   1       5.468  -0.095  -7.546  0.00  0.00     0.124 A 
BRANCH   7  11
ATOM     11  C   LIG d   1       3.182   2.187  -9.507  0.00  0.00    -0.039 C 
ATOM     12  H   LIG d   1       3.896   2.244 -10.329  0.00  0.00     0.028 H 
ATOM     13  H   LIG d   1       2.221   1.839  -9.885  0.00  0.00     0.028 H 
ATOM     14  H   LIG d   1       3.062   3.175  -9.062  0.00  0.00     0.028 H 
ENDBRANCH   7  11
BRANCH   9  15
ATOM     15  C   LIG d   1       5.920   1.272  -9.600  0.00  0.00    -0.036 C 
ATOM     16  H   LIG d   1       5.866   2.359  -9.666  0.00  0.00     0.028 H 
ATOM     17  H   LIG d   1       6.943   0.973  -9.371  0.00  0.00     0.028 H 
ATOM     18  H   LIG d   1       5.618   0.835 -10.552  0.00  0.00     0.028 H 
ENDBRANCH   9  15
BRANCH  10  19
ATOM     19  O   LIG d   1       6.758  -0.522  -7.585  0.00  0.00    -0.506 OA
ATOM     20  H   LIG d   1       6.996  -0.980  -8.403  0.00  0.00     0.292 HD
ENDBRANCH  10  19
ENDBRANCH   1   3
BRANCH   1  21
ATOM     21  C   LIG d   1       4.310  -2.801  -5.570  0.00  0.00     0.035 C 
ATOM     22  H   LIG d   1       3.250  -2.571  -5.476  0.00  0.00     0.037 H 
ATOM     23  H   LIG d   1       4.611  -3.462  -4.758  0.00  0.00     0.037 H 
BRANCH  21  24
ATOM     24  C   LIG d   1       4.561  -3.484  -6.891  0.00  0.00     0.214 C 
ATOM     25  O   LIG d   1       5.678  -3.500  -7.362  0.00  0.00    -0.276 OA
ATOM     26  N   LIG d   1       3.544  -4.073  -7.548  0.00  0.00    -0.312 N 
ATOM     27  H   LIG d   1       2.649  -4.059  -7.172  0.00  0.00     0.149 HD
BRANCH  26  28
ATOM     28  C   LIG d   1       3.788  -4.736  -8.832  0.00  0.00     0.024 C 
ATOM     29  H   LIG d   1       4.671  -4.303  -9.302  0.00  0.00     0.050 H 
BRANCH  28  30
ATOM     30  C   LIG d   1       4.013  -6.231  -8.599  0.00  0.00    -0.046 C 
ATOM     31  H   LIG d   1       3.124  -6.666  -8.143  0.00  0.00     0.025 H 
ATOM     32  H   LIG d   1       4.209  -6.722  -9.553  0.00  0.00     0.025 H 
ATOM     33  H   LIG d   1       4.867  -6.371  -7.937  0.00  0.00     0.025 H 
ENDBRANCH  28  30
BRANCH  28  34
ATOM     34  C   LIG d   1       2.576  -4.538  -9.746  0.00  0.00    -0.009 C 
ATOM     35  H   LIG d   1       1.661  -4.691  -9.174  0.00  0.00     0.033 H 
ATOM     36  H   LIG d   1       2.617  -5.258 -10.564  0.00  0.00     0.033 H 
BRANCH  34  37
ATOM     37  C   LIG d   1       2.591  -3.139 -10.306  0.00  0.00    -0.046 A 
ATOM     38  C   LIG d   1       1.472  -2.337 -10.192  0.00  0.00    -0.059 A 
ATOM     39  C   LIG d   1       1.484  -1.056 -10.710  0.00  0.00    -0.061 A 
ATOM     40  H   LIG d   1       0.586  -2.713  -9.700  0.00  0.00     0.062 H 
ATOM     41  C   LIG d   1       2.617  -0.576 -11.338  0.00  0.00    -0.062 A 
ATOM     42  H   LIG d   1       0.607  -0.430 -10.625  0.00  0.00     0.062 H 
ATOM     43  C   LIG d   1       3.738  -1.376 -11.449  0.00  0.00    -0.061 A 
ATOM     44  H   LIG d   1       2.626   0.425 -11.744  0.00  0.00     0.062 H 
ATOM     45  C   LIG d   1       3.726  -2.657 -10.930  0.00  0.00    -0.059 A 
ATOM     46  H   LIG d   1       4.624  -1.000 -11.941  0.00  0.00     0.062 H 
ATOM     47  H   LIG d   1       4.603  -3.282 -11.016  0.00  0.00     0.062 H 
ENDBRANCH  34  37
ENDBRANCH  28  34
ENDBRANCH  26  28
ENDBRANCH  21  24
ENDBRANCH   1  21
BRANCH   1  48
ATOM     48  C   LIG d   1       4.971  -0.889  -4.137  0.00  0.00    -0.039 A 
ATOM     49  C   LIG d   1       4.225  -1.532  -3.166  0.00  0.00    -0.058 A 
ATOM     50  C   LIG d   1       4.087  -0.965  -1.913  0.00  0.00    -0.061 A 
ATOM     51  H   LIG d   1       3.750  -2.476  -3.387  0.00  0.00     0.062 H 
ATOM     52  C   LIG d   1       4.695   0.244  -1.630  0.00  0.00    -0.062 A 
ATOM     53  H   LIG d   1       3.504  -1.466  -1.154  0.00  0.00     0.062 H 
ATOM     54  C   LIG d   1       5.441   0.886  -2.600  0.00  0.00    -0.061 A 
ATOM     55  H   LIG d   1       4.587   0.687  -0.651  0.00  0.00     0.062 H 
ATOM     56  C   LIG d   1       5.583   0.317  -3.852  0.00  0.00    -0.058 A 
ATOM     57  H   LIG d   1       5.916   1.830  -2.380  0.00  0.00     0.062 H 
ATOM     58  H   LIG d   1       6.169   0.818  -4.609  0.00  0.00     0.062 H 
ENDBRANCH   1  48
TORSDOF 11
ENDMDL
MODEL 5
REMARK VINA RESULT:      -6.7      6.883     10.394
REMARK  11 active torsions:
REMARK  status: ('A' for Active; 'I' for Inactive)
REMARK    1  A    between atoms: C_1  and  C_2 
REMARK    2  A    between atoms: C_5  and  C_10 
REMARK    3  A    between atoms: C_6  and  O_9 
REMARK    4  A    between atoms: C_7  and  C_8 
REMARK    5  A    between atoms: C_10  and  C_12 
REMARK    6  A    between atoms: C_10  and  C_26 
REMARK    7  A    between atoms: C_12  and  C_13 
REMARK       I    between atoms: C_13  and  N_15 
REMARK    8  A    between atoms: N_15  and  C_16 
REMARK    9  A    between atoms: C_16  and  C_18 
REMARK   10  A    between atoms: C_16  and  C_19 
REMARK   11  A    between atoms: C_19  and  C_20 
ROOT
ATOM      1  C   LIG d   1       9.692   4.323  -3.665  0.00  0.00     0.021 C 
ATOM      2  H   LIG d   1       8.638   4.507  -3.871  0.00  0.00     0.040 H 
ENDROOT
BRANCH   1   3
ATOM      3  C   LIG d   1      10.116   5.129  -2.463  0.00  0.00     0.002 A 
ATOM      4  C   LIG d   1      11.021   4.602  -1.562  0.00  0.00    -0.054 A 
ATOM      5  C   LIG d   1      11.411   5.339  -0.460  0.00  0.00    -0.058 A 
ATOM      6  H   LIG d   1      11.424   3.611  -1.719  0.00  0.00     0.062 H 
ATOM      7  C   LIG d   1      10.897   6.607  -0.257  0.00  0.00    -0.044 A 
ATOM      8  H   LIG d   1      12.118   4.926   0.243  0.00  0.00     0.062 H 
ATOM      9  C   LIG d   1       9.992   7.139  -1.156  0.00  0.00    -0.006 A 
ATOM     10  C   LIG d   1       9.604   6.402  -2.265  0.00  0.00     0.124 A 
BRANCH   7  11
ATOM     11  C   LIG d   1      11.324   7.409   0.945  0.00  0.00    -0.039 C 
ATOM     12  H   LIG d   1      12.412   7.466   0.975  0.00  0.00     0.028 H 
ATOM     13  H   LIG d   1      10.909   8.415   0.877  0.00  0.00     0.028 H 
ATOM     14  H   LIG d   1      10.960   6.926   1.852  0.00  0.00     0.028 H 
ENDBRANCH   7  11
BRANCH   9  15
ATOM     15  C   LIG d   1       9.432   8.520  -0.934  0.00  0.00    -0.036 C 
ATOM     16  H   LIG d   1       8.874   8.833  -1.817  0.00  0.00     0.028 H 
ATOM     17  H   LIG d   1       8.769   8.508  -0.069  0.00  0.00     0.028 H 
ATOM     18  H   LIG d   1      10.250   9.219  -0.755  0.00  0.00     0.028 H 
ENDBRANCH   9  15
BRANCH  10  19
ATOM     19  O   LIG d   1       8.718   6.926  -3.153  0.00  0.00    -0.506 OA
ATOM     20  H   LIG d   1       9.053   6.979  -4.058  0.00  0.00     0.292 HD
ENDBRANCH  10  19
ENDBRANCH   1   3
BRANCH   1  21
ATOM     21  C   LIG d   1       9.905   2.835  -3.382  0.00  0.00     0.035 C 
ATOM     22  H   LIG d   1       9.969   2.676  -2.306  0.00  0.00     0.037 H 
ATOM     23  H   LIG d   1      10.829   2.504  -3.854  0.00  0.00     0.037 H 
BRANCH  21  24
ATOM     24  C   LIG d   1       8.746   2.048  -3.939  0.00  0.00     0.214 C 
ATOM     25  O   LIG d   1       7.798   2.626  -4.425  0.00  0.00    -0.276 OA
ATOM     26  N   LIG d   1       8.764   0.701  -3.894  0.00  0.00    -0.312 N 
ATOM     27  H   LIG d   1       9.522   0.238  -3.503  0.00  0.00     0.149 HD
BRANCH  26  28
ATOM     28  C   LIG d   1       7.638  -0.064  -4.435  0.00  0.00     0.024 C 
ATOM     29  H   LIG d   1       6.855   0.621  -4.759  0.00  0.00     0.050 H 
BRANCH  28  30
ATOM     30  C   LIG d   1       8.114  -0.897  -5.626  0.00  0.00    -0.046 C 
ATOM     31  H   LIG d   1       8.677  -0.265  -6.311  0.00  0.00     0.025 H 
ATOM     32  H   LIG d   1       8.752  -1.707  -5.272  0.00  0.00     0.025 H 
ATOM     33  H   LIG d   1       7.251  -1.316  -6.145  0.00  0.00     0.025 H 
ENDBRANCH  28  30
BRANCH  28  34
ATOM     34  C   LIG d   1       7.085  -0.993  -3.351  0.00  0.00    -0.009 C 
ATOM     35  H   LIG d   1       7.696  -0.907  -2.453  0.00  0.00     0.033 H 
ATOM     36  H   LIG d   1       7.109  -2.023  -3.709  0.00  0.00     0.033 H 
BRANCH  34  37
ATOM     37  C   LIG d   1       5.664  -0.605  -3.033  0.00  0.00    -0.046 A 
ATOM     38  C   LIG d   1       5.361   0.706  -2.715  0.00  0.00    -0.059 A 
ATOM     39  C   LIG d   1       4.059   1.062  -2.418  0.00  0.00    -0.061 A 
ATOM     40  H   LIG d   1       6.143   1.452  -2.696  0.00  0.00     0.062 H 
ATOM     41  C   LIG d   1       3.060   0.107  -2.444  0.00  0.00    -0.062 A 
ATOM     42  H   LIG d   1       3.823   2.085  -2.165  0.00  0.00     0.062 H 
ATOM     43  C   LIG d   1       3.362  -1.202  -2.766  0.00  0.00    -0.061 A 
ATOM     44  H   LIG d   1       2.042   0.385  -2.211  0.00  0.00     0.062 H 
ATOM     45  C   LIG d   1       4.664  -1.557  -3.063  0.00  0.00    -0.059 A 
ATOM     46  H   LIG d   1       2.580  -1.947  -2.785  0.00  0.00     0.062 H 
ATOM     47  H   LIG d   1       4.900  -2.581  -3.315  0.00  0.00     0.062 H 
ENDBRANCH  34  37
ENDBRANCH  28  34
ENDBRANCH  26  28
ENDBRANCH  21  24
ENDBRANCH   1  21
BRANCH   1  48
ATOM     48  C   LIG d   1      10.516   4.731  -4.859  0.00  0.00    -0.039 A 
ATOM     49  C   LIG d   1      11.892   4.601  -4.826  0.00  0.00    -0.058 A 
ATOM     50  C   LIG d   1      12.648   4.975  -5.921  0.00  0.00    -0.061 A 
ATOM     51  H   LIG d   1      12.377   4.210  -3.944  0.00  0.00     0.062 H 
ATOM     52  C   LIG d   1      12.028   5.477  -7.050  0.00  0.00    -0.062 A 
ATOM     53  H   LIG d   1      13.723   4.875  -5.895  0.00  0.00     0.062 H 
ATOM     54  C   LIG d   1      10.652   5.606  -7.084  0.00  0.00    -0.061 A 
ATOM     55  H   LIG d   1      12.618   5.769  -7.906  0.00  0.00     0.062 H 
ATOM     56  C   LIG d   1       9.896   5.228  -5.990  0.00  0.00    -0.058 A 
ATOM     57  H   LIG d   1      10.168   5.998  -7.965  0.00  0.00     0.062 H 
ATOM     58  H   LIG d   1       8.821   5.325  -6.018  0.00  0.00     0.062 H 
ENDBRANCH   1  48
TORSDOF 11
ENDMDL
MODEL 6
REMARK VINA RESULT:      -6.6      1.434      2.194
REMARK  11 active torsions:
REMARK  status: ('A' for Active; 'I' for Inactive)
REMARK    1  A    between atoms: C_1  and  C_2 
REMARK    2  A    between atoms: C_5  and  C_10 
REMARK    3  A    between atoms: C_6  and  O_9 
REMARK    4  A    between atoms: C_7  and  C_8 
REMARK    5  A    between atoms: C_10  and  C_12 
REMARK    6  A    between atoms: C_10  and  C_26 
REMARK    7  A    between atoms: C_12  and  C_13 
REMARK       I    between atoms: C_13  and  N_15 
REMARK    8  A    between atoms: N_15  and  C_16 
REMARK    9  A    between atoms: C_16  and  C_18 
REMARK   10  A    between atoms: C_16  and  C_19 
REMARK   11  A    between atoms: C_19  and  C_20 
ROOT
ATOM      1  C   LIG d   1       6.063  -2.311  -5.207  0.00  0.00     0.021 C 
ATOM      2  H   LIG d   1       5.264  -2.805  -5.759  0.00  0.00     0.040 H 
ENDROOT
BRANCH   1   3
ATOM      3  C   LIG d   1       7.078  -3.335  -4.767  0.00  0.00     0.002 A 
ATOM      4  C   LIG d   1       8.076  -2.982  -3.880  0.00  0.00    -0.054 A 
ATOM      5  C   LIG d   1       9.007  -3.920  -3.475  0.00  0.00    -0.058 A 
ATOM      6  H   LIG d   1       8.130  -1.971  -3.502  0.00  0.00     0.062 H 
ATOM      7  C   LIG d   1       8.941  -5.215  -3.958  0.00  0.00    -0.044 A 
ATOM      8  H   LIG d   1       9.787  -3.643  -2.782  0.00  0.00     0.062 H 
ATOM      9  C   LIG d   1       7.945  -5.573  -4.845  0.00  0.00    -0.006 A 
ATOM     10  C   LIG d   1       7.007  -4.634  -5.247  0.00  0.00     0.124 A 
BRANCH   7  11
ATOM     11  C   LIG d   1       9.958  -6.236  -3.515  0.00  0.00    -0.039 C 
ATOM     12  H   LIG d   1       9.902  -7.109  -4.164  0.00  0.00     0.028 H 
ATOM     13  H   LIG d   1      10.957  -5.803  -3.574  0.00  0.00     0.028 H 
ATOM     14  H   LIG d   1       9.751  -6.533  -2.487  0.00  0.00     0.028 H 
ENDBRANCH   7  11
BRANCH   9  15
ATOM     15  C   LIG d   1       7.874  -6.984  -5.370  0.00  0.00    -0.036 C 
ATOM     16  H   LIG d   1       7.701  -7.672  -4.542  0.00  0.00     0.028 H 
ATOM     17  H   LIG d   1       7.057  -7.064  -6.086  0.00  0.00     0.028 H 
ATOM     18  H   LIG d   1       8.814  -7.236  -5.861  0.00  0.00     0.028 H 
ENDBRANCH   9  15
BRANCH  10  19
ATOM     19  O   LIG d   1       6.022  -4.986  -6.116  0.00  0.00    -0.506 OA
ATOM     20  H   LIG d   1       5.350  -4.303  -6.246  0.00  0.00     0.292 HD
ENDBRANCH  10  19
ENDBRANCH   1   3
BRANCH   1  21
ATOM     21  C   LIG d   1       6.740  -1.277  -6.108  0.00  0.00     0.035 C 
ATOM     22  H   LIG d   1       7.817  -1.448  -6.111  0.00  0.00     0.037 H 
ATOM     23  H   LIG d   1       6.533  -0.275  -5.732  0.00  0.00     0.037 H 
BRANCH  21  24
ATOM     24  C   LIG d   1       6.207  -1.408  -7.512  0.00  0.00     0.214 C 
ATOM     25  O   LIG d   1       6.630  -0.688  -8.391  0.00  0.00    -0.276 OA
ATOM     26  N   LIG d   1       5.257  -2.323  -7.788  0.00  0.00    -0.312 N 
ATOM     27  H   LIG d   1       4.917  -2.898  -7.085  0.00  0.00     0.149 HD
BRANCH  26  28
ATOM     28  C   LIG d   1       4.738  -2.449  -9.153  0.00  0.00     0.024 C 
ATOM     29  H   LIG d   1       5.357  -1.865  -9.833  0.00  0.00     0.050 H 
BRANCH  28  30
ATOM     30  C   LIG d   1       4.763  -3.920  -9.574  0.00  0.00    -0.046 C 
ATOM     31  H   LIG d   1       4.070  -4.074 -10.400  0.00  0.00     0.025 H 
ATOM     32  H   LIG d   1       5.771  -4.189  -9.890  0.00  0.00     0.025 H 
ATOM     33  H   LIG d   1       4.468  -4.544  -8.730  0.00  0.00     0.025 H 
ENDBRANCH  28  30
BRANCH  28  34
ATOM     34  C   LIG d   1       3.298  -1.930  -9.200  0.00  0.00    -0.009 C 
ATOM     35  H   LIG d   1       2.797  -2.163  -8.262  0.00  0.00     0.033 H 
ATOM     36  H   LIG d   1       2.768  -2.407 -10.024  0.00  0.00     0.033 H 
BRANCH  34  37
ATOM     37  C   LIG d   1       3.309  -0.437  -9.407  0.00  0.00    -0.046 A 
ATOM     38  C   LIG d   1       2.773   0.398  -8.444  0.00  0.00    -0.059 A 
ATOM     39  C   LIG d   1       2.778   1.766  -8.636  0.00  0.00    -0.061 A 
ATOM     40  H   LIG d   1       2.346  -0.020  -7.544  0.00  0.00     0.062 H 
ATOM     41  C   LIG d   1       3.324   2.301  -9.788  0.00  0.00    -0.062 A 
ATOM     42  H   LIG d   1       2.354   2.418  -7.886  0.00  0.00     0.062 H 
ATOM     43  C   LIG d   1       3.865   1.467 -10.747  0.00  0.00    -0.061 A 
ATOM     44  H   LIG d   1       3.328   3.370  -9.938  0.00  0.00     0.062 H 
ATOM     45  C   LIG d   1       3.860   0.098 -10.556  0.00  0.00    -0.059 A 
ATOM     46  H   LIG d   1       4.291   1.885 -11.648  0.00  0.00     0.062 H 
ATOM     47  H   LIG d   1       4.283  -0.553 -11.306  0.00  0.00     0.062 H 
ENDBRANCH  34  37
ENDBRANCH  28  34
ENDBRANCH  26  28
ENDBRANCH  21  24
ENDBRANCH   1  21
BRANCH   1  48
ATOM     48  C   LIG d   1       5.487  -1.623  -3.997  0.00  0.00    -0.039 A 
ATOM     49  C   LIG d   1       4.593  -2.291  -3.181  0.00  0.00    -0.058 A 
ATOM     50  C   LIG d   1       4.064  -1.659  -2.071  0.00  0.00    -0.061 A 
ATOM     51  H   LIG d   1       4.306  -3.306  -3.412  0.00  0.00     0.062 H 
ATOM     52  C   LIG d   1       4.432  -0.359  -1.775  0.00  0.00    -0.062 A 
ATOM     53  H   LIG d   1       3.365  -2.181  -1.434  0.00  0.00     0.062 H 
ATOM     54  C   LIG d   1       5.326   0.309  -2.590  0.00  0.00    -0.061 A 
ATOM     55  H   LIG d   1       4.019   0.135  -0.908  0.00  0.00     0.062 H 
ATOM     56  C   LIG d   1       5.858  -0.325  -3.698  0.00  0.00    -0.058 A 
ATOM     57  H   LIG d   1       5.612   1.324  -2.360  0.00  0.00     0.062 H 
ATOM     58  H   LIG d   1       6.560   0.196  -4.333  0.00  0.00     0.062 H 
ENDBRANCH   1  48
TORSDOF 11
ENDMDL
MODEL 7
REMARK VINA RESULT:      -6.6      2.113      3.002
REMARK  11 active torsions:
REMARK  status: ('A' for Active; 'I' for Inactive)
REMARK    1  A    between atoms: C_1  and  C_2 
REMARK    2  A    between atoms: C_5  and  C_10 
REMARK    3  A    between atoms: C_6  and  O_9 
REMARK    4  A    between atoms: C_7  and  C_8 
REMARK    5  A    between atoms: C_10  and  C_12 
REMARK    6  A    between atoms: C_10  and  C_26 
REMARK    7  A    between atoms: C_12  and  C_13 
REMARK       I    between atoms: C_13  and  N_15 
REMARK    8  A    between atoms: N_15  and  C_16 
REMARK    9  A    between atoms: C_16  and  C_18 
REMARK   10  A    between atoms: C_16  and  C_19 
REMARK   11  A    between atoms: C_19  and  C_20 
ROOT
ATOM      1  C   LIG d   1       5.606  -0.699  -5.617  0.00  0.00     0.021 C 
ATOM      2  H   LIG d   1       5.011  -0.347  -6.459  0.00  0.00     0.040 H 
ENDROOT
BRANCH   1   3
ATOM      3  C   LIG d   1       5.650  -2.206  -5.628  0.00  0.00     0.002 A 
ATOM      4  C   LIG d   1       6.595  -2.875  -4.875  0.00  0.00    -0.054 A 
ATOM      5  C   LIG d   1       6.636  -4.257  -4.883  0.00  0.00    -0.058 A 
ATOM      6  H   LIG d   1       7.303  -2.318  -4.278  0.00  0.00     0.062 H 
ATOM      7  C   LIG d   1       5.731  -4.972  -5.646  0.00  0.00    -0.044 A 
ATOM      8  H   LIG d   1       7.375  -4.779  -4.294  0.00  0.00     0.062 H 
ATOM      9  C   LIG d   1       4.784  -4.308  -6.401  0.00  0.00    -0.006 A 
ATOM     10  C   LIG d   1       4.738  -2.921  -6.389  0.00  0.00     0.124 A 
BRANCH   7  11
ATOM     11  C   LIG d   1       5.778  -6.479  -5.654  0.00  0.00    -0.039 C 
ATOM     12  H   LIG d   1       6.737  -6.810  -6.052  0.00  0.00     0.028 H 
ATOM     13  H   LIG d   1       5.659  -6.851  -4.636  0.00  0.00     0.028 H 
ATOM     14  H   LIG d   1       4.972  -6.865  -6.278  0.00  0.00     0.028 H 
ENDBRANCH   7  11
BRANCH   9  15
ATOM     15  C   LIG d   1       3.799  -5.088  -7.232  0.00  0.00    -0.036 C 
ATOM     16  H   LIG d   1       3.393  -5.909  -6.640  0.00  0.00     0.028 H 
ATOM     17  H   LIG d   1       2.988  -4.431  -7.546  0.00  0.00     0.028 H 
ATOM     18  H   LIG d   1       4.303  -5.490  -8.112  0.00  0.00     0.028 H 
ENDBRANCH   9  15
BRANCH  10  19
ATOM     19  O   LIG d   1       3.804  -2.266  -7.127  0.00  0.00    -0.506 OA
ATOM     20  H   LIG d   1       2.895  -2.539  -6.943  0.00  0.00     0.292 HD
ENDBRANCH  10  19
ENDBRANCH   1   3
BRANCH   1  21
ATOM     21  C   LIG d   1       7.028  -0.147  -5.732  0.00  0.00     0.035 C 
ATOM     22  H   LIG d   1       7.743  -0.966  -5.653  0.00  0.00     0.037 H 
ATOM     23  H   LIG d   1       7.207   0.569  -4.930  0.00  0.00     0.037 H 
BRANCH  21  24
ATOM     24  C   LIG d   1       7.195   0.539  -7.064  0.00  0.00     0.214 C 
ATOM     25  O   LIG d   1       7.371   1.737  -7.110  0.00  0.00    -0.276 OA
ATOM     26  N   LIG d   1       7.146  -0.180  -8.202  0.00  0.00    -0.312 N 
ATOM     27  H   LIG d   1       7.003  -1.139  -8.165  0.00  0.00     0.149 HD
BRANCH  26  28
ATOM     28  C   LIG d   1       7.307   0.487  -9.497  0.00  0.00     0.024 C 
ATOM     29  H   LIG d   1       7.330   1.566  -9.349  0.00  0.00     0.050 H 
BRANCH  28  30
ATOM     30  C   LIG d   1       8.617   0.033 -10.144  0.00  0.00    -0.046 C 
ATOM     31  H   LIG d   1       8.578  -1.040 -10.331  0.00  0.00     0.025 H 
ATOM     32  H   LIG d   1       8.758   0.560 -11.088  0.00  0.00     0.025 H 
ATOM     33  H   LIG d   1       9.449   0.255  -9.476  0.00  0.00     0.025 H 
ENDBRANCH  28  30
BRANCH  28  34
ATOM     34  C   LIG d   1       6.133   0.121 -10.408  0.00  0.00    -0.009 C 
ATOM     35  H   LIG d   1       6.013  -0.961 -10.429  0.00  0.00     0.033 H 
ATOM     36  H   LIG d   1       6.331   0.483 -11.417  0.00  0.00     0.033 H 
BRANCH  34  37
ATOM     37  C   LIG d   1       4.872   0.758  -9.884  0.00  0.00    -0.046 A 
ATOM     38  C   LIG d   1       3.725   0.001  -9.739  0.00  0.00    -0.059 A 
ATOM     39  C   LIG d   1       2.566   0.586  -9.264  0.00  0.00    -0.061 A 
ATOM     40  H   LIG d   1       3.732  -1.047 -10.003  0.00  0.00     0.062 H 
ATOM     41  C   LIG d   1       2.558   1.926  -8.927  0.00  0.00    -0.062 A 
ATOM     42  H   LIG d   1       1.668  -0.004  -9.156  0.00  0.00     0.062 H 
ATOM     43  C   LIG d   1       3.706   2.682  -9.066  0.00  0.00    -0.061 A 
ATOM     44  H   LIG d   1       1.652   2.384  -8.556  0.00  0.00     0.062 H 
ATOM     45  C   LIG d   1       4.864   2.097  -9.542  0.00  0.00    -0.059 A 
ATOM     46  H   LIG d   1       3.698   3.730  -8.804  0.00  0.00     0.062 H 
ATOM     47  H   LIG d   1       5.762   2.688  -9.651  0.00  0.00     0.062 H 
ENDBRANCH  34  37
ENDBRANCH  28  34
ENDBRANCH  26  28
ENDBRANCH  21  24
ENDBRANCH   1  21
BRANCH   1  48
ATOM     48  C   LIG d   1       4.985  -0.224  -4.330  0.00  0.00    -0.039 A 
ATOM     49  C   LIG d   1       3.671  -0.540  -4.037  0.00  0.00    -0.058 A 
ATOM     50  C   LIG d   1       3.102  -0.104  -2.855  0.00  0.00    -0.061 A 
ATOM     51  H   LIG d   1       3.090  -1.126  -4.733  0.00  0.00     0.062 H 
ATOM     52  C   LIG d   1       3.846   0.647  -1.965  0.00  0.00    -0.062 A 
ATOM     53  H   LIG d   1       2.075  -0.350  -2.628  0.00  0.00     0.062 H 
ATOM     54  C   LIG d   1       5.160   0.963  -2.257  0.00  0.00    -0.061 A 
ATOM     55  H   LIG d   1       3.401   0.988  -1.042  0.00  0.00     0.062 H 
ATOM     56  C   LIG d   1       5.731   0.523  -3.436  0.00  0.00    -0.058 A 
ATOM     57  H   LIG d   1       5.741   1.550  -1.562  0.00  0.00     0.062 H 
ATOM     58  H   LIG d   1       6.759   0.767  -3.662  0.00  0.00     0.062 H 
ENDBRANCH   1  48
TORSDOF 11
ENDMDL
MODEL 8
REMARK VINA RESULT:      -6.5      3.516      7.668
REMARK  11 active torsions:
REMARK  status: ('A' for Active; 'I' for Inactive)
REMARK    1  A    between atoms: C_1  and  C_2 
REMARK    2  A    between atoms: C_5  and  C_10 
REMARK    3  A    between atoms: C_6  and  O_9 
REMARK    4  A    between atoms: C_7  and  C_8 
REMARK    5  A    between atoms: C_10  and  C_12 
REMARK    6  A    between atoms: C_10  and  C_26 
REMARK    7  A    between atoms: C_12  and  C_13 
REMARK       I    between atoms: C_13  and  N_15 
REMARK    8  A    between atoms: N_15  and  C_16 
REMARK    9  A    between atoms: C_16  and  C_18 
REMARK   10  A    between atoms: C_16  and  C_19 
REMARK   11  A    between atoms: C_19  and  C_20 
ROOT
ATOM      1  C   LIG d   1       6.420   0.391  -7.708  0.00  0.00     0.021 C 
ATOM      2  H   LIG d   1       5.853   0.420  -6.779  0.00  0.00     0.040 H 
ENDROOT
BRANCH   1   3
ATOM      3  C   LIG d   1       7.538   1.401  -7.647  0.00  0.00     0.002 A 
ATOM      4  C   LIG d   1       8.091   1.892  -8.814  0.00  0.00    -0.054 A 
ATOM      5  C   LIG d   1       9.115   2.818  -8.759  0.00  0.00    -0.058 A 
ATOM      6  H   LIG d   1       7.723   1.551  -9.771  0.00  0.00     0.062 H 
ATOM      7  C   LIG d   1       9.589   3.256  -7.535  0.00  0.00    -0.044 A 
ATOM      8  H   LIG d   1       9.547   3.201  -9.671  0.00  0.00     0.062 H 
ATOM      9  C   LIG d   1       9.039   2.768  -6.365  0.00  0.00    -0.006 A 
ATOM     10  C   LIG d   1       8.007   1.843  -6.419  0.00  0.00     0.124 A 
BRANCH   7  11
ATOM     11  C   LIG d   1      10.706   4.266  -7.478  0.00  0.00    -0.039 C 
ATOM     12  H   LIG d   1      10.694   4.872  -8.384  0.00  0.00     0.028 H 
ATOM     13  H   LIG d   1      10.570   4.910  -6.609  0.00  0.00     0.028 H 
ATOM     14  H   LIG d   1      11.662   3.748  -7.399  0.00  0.00     0.028 H 
ENDBRANCH   7  11
BRANCH   9  15
ATOM     15  C   LIG d   1       9.555   3.246  -5.033  0.00  0.00    -0.036 C 
ATOM     16  H   LIG d   1       9.730   2.389  -4.381  0.00  0.00     0.028 H 
ATOM     17  H   LIG d   1      10.489   3.788  -5.179  0.00  0.00     0.028 H 
ATOM     18  H   LIG d   1       8.820   3.907  -4.574  0.00  0.00     0.028 H 
ENDBRANCH   9  15
BRANCH  10  19
ATOM     19  O   LIG d   1       7.461   1.366  -5.269  0.00  0.00    -0.506 OA
ATOM     20  H   LIG d   1       7.384   2.026  -4.567  0.00  0.00     0.292 HD
ENDBRANCH  10  19
ENDBRANCH   1   3
BRANCH   1  21
ATOM     21  C   LIG d   1       7.008  -1.008  -7.904  0.00  0.00     0.035 C 
ATOM     22  H   LIG d   1       8.094  -0.939  -7.971  0.00  0.00     0.037 H 
ATOM     23  H   LIG d   1       6.615  -1.443  -8.822  0.00  0.00     0.037 H 
BRANCH  21  24
ATOM     24  C   LIG d   1       6.630  -1.879  -6.733  0.00  0.00     0.214 C 
ATOM     25  O   LIG d   1       5.770  -2.724  -6.859  0.00  0.00    -0.276 OA
ATOM     26  N   LIG d   1       7.248  -1.717  -5.546  0.00  0.00    -0.312 N 
ATOM     27  H   LIG d   1       7.935  -1.040  -5.445  0.00  0.00     0.149 HD
BRANCH  26  28
ATOM     28  C   LIG d   1       6.880  -2.564  -4.408  0.00  0.00     0.024 C 
ATOM     29  H   LIG d   1       5.883  -2.973  -4.568  0.00  0.00     0.050 H 
BRANCH  28  30
ATOM     30  C   LIG d   1       7.887  -3.708  -4.278  0.00  0.00    -0.046 C 
ATOM     31  H   LIG d   1       8.843  -3.401  -4.700  0.00  0.00     0.025 H 
ATOM     32  H   LIG d   1       8.019  -3.958  -3.224  0.00  0.00     0.025 H 
ATOM     33  H   LIG d   1       7.516  -4.582  -4.814  0.00  0.00     0.025 H 
ENDBRANCH  28  30
BRANCH  28  34
ATOM     34  C   LIG d   1       6.889  -1.727  -3.127  0.00  0.00    -0.009 C 
ATOM     35  H   LIG d   1       7.641  -0.944  -3.210  0.00  0.00     0.033 H 
ATOM     36  H   LIG d   1       7.124  -2.368  -2.277  0.00  0.00     0.033 H 
BRANCH  34  37
ATOM     37  C   LIG d   1       5.532  -1.103  -2.925  0.00  0.00    -0.046 A 
ATOM     38  C   LIG d   1       5.431   0.227  -2.562  0.00  0.00    -0.059 A 
ATOM     39  C   LIG d   1       4.187   0.799  -2.371  0.00  0.00    -0.061 A 
ATOM     40  H   LIG d   1       6.324   0.819  -2.423  0.00  0.00     0.062 H 
ATOM     41  C   LIG d   1       3.045   0.042  -2.549  0.00  0.00    -0.062 A 
ATOM     42  H   LIG d   1       4.109   1.837  -2.082  0.00  0.00     0.062 H 
ATOM     43  C   LIG d   1       3.145  -1.286  -2.916  0.00  0.00    -0.061 A 
ATOM     44  H   LIG d   1       2.073   0.489  -2.399  0.00  0.00     0.062 H 
ATOM     45  C   LIG d   1       4.389  -1.858  -3.108  0.00  0.00    -0.059 A 
ATOM     46  H   LIG d   1       2.252  -1.877  -3.054  0.00  0.00     0.062 H 
ATOM     47  H   LIG d   1       4.468  -2.896  -3.395  0.00  0.00     0.062 H 
ENDBRANCH  34  37
ENDBRANCH  28  34
ENDBRANCH  26  28
ENDBRANCH  21  24
ENDBRANCH   1  21
BRANCH   1  48
ATOM     48  C   LIG d   1       5.510   0.719  -8.864  0.00  0.00    -0.039 A 
ATOM     49  C   LIG d   1       5.501  -0.086  -9.988  0.00  0.00    -0.058 A 
ATOM     50  C   LIG d   1       4.667   0.216 -11.048  0.00  0.00    -0.061 A 
ATOM     51  H   LIG d   1       6.148  -0.949 -10.039  0.00  0.00     0.062 H 
ATOM     52  C   LIG d   1       3.839   1.321 -10.982  0.00  0.00    -0.062 A 
ATOM     53  H   LIG d   1       4.660  -0.413 -11.926  0.00  0.00     0.062 H 
ATOM     54  C   LIG d   1       3.847   2.126  -9.859  0.00  0.00    -0.061 A 
ATOM     55  H   LIG d   1       3.187   1.557 -11.811  0.00  0.00     0.062 H 
ATOM     56  C   LIG d   1       4.679   1.821  -8.797  0.00  0.00    -0.058 A 
ATOM     57  H   LIG d   1       3.202   2.989  -9.808  0.00  0.00     0.062 H 
ATOM     58  H   LIG d   1       4.682   2.448  -7.918  0.00  0.00     0.062 H 
ENDBRANCH   1  48
TORSDOF 11
ENDMDL
MODEL 9
REMARK VINA RESULT:      -6.2      2.199      7.141
REMARK  11 active torsions:
REMARK  status: ('A' for Active; 'I' for Inactive)
REMARK    1  A    between atoms: C_1  and  C_2 
REMARK    2  A    between atoms: C_5  and  C_10 
REMARK    3  A    between atoms: C_6  and  O_9 
REMARK    4  A    between atoms: C_7  and  C_8 
REMARK    5  A    between atoms: C_10  and  C_12 
REMARK    6  A    between atoms: C_10  and  C_26 
REMARK    7  A    between atoms: C_12  and  C_13 
REMARK       I    between atoms: C_13  and  N_15 
REMARK    8  A    between atoms: N_15  and  C_16 
REMARK    9  A    between atoms: C_16  and  C_18 
REMARK   10  A    between atoms: C_16  and  C_19 
REMARK   11  A    between atoms: C_19  and  C_20 
ROOT
ATOM      1  C   LIG d   1       5.389  -1.519  -5.225  0.00  0.00     0.021 C 
ATOM      2  H   LIG d   1       6.458  -1.688  -5.351  0.00  0.00     0.040 H 
ENDROOT
BRANCH   1   3
ATOM      3  C   LIG d   1       4.869  -0.706  -6.383  0.00  0.00     0.002 A 
ATOM      4  C   LIG d   1       3.553  -0.286  -6.396  0.00  0.00    -0.054 A 
ATOM      5  C   LIG d   1       3.074   0.460  -7.457  0.00  0.00    -0.058 A 
ATOM      6  H   LIG d   1       2.896  -0.541  -5.576  0.00  0.00     0.062 H 
ATOM      7  C   LIG d   1       3.912   0.788  -8.507  0.00  0.00    -0.044 A 
ATOM      8  H   LIG d   1       2.046   0.788  -7.466  0.00  0.00     0.062 H 
ATOM      9  C   LIG d   1       5.229   0.371  -8.499  0.00  0.00    -0.006 A 
ATOM     10  C   LIG d   1       5.712  -0.373  -7.432  0.00  0.00     0.124 A 
BRANCH   7  11
ATOM     11  C   LIG d   1       3.388   1.602  -9.662  0.00  0.00    -0.039 C 
ATOM     12  H   LIG d   1       3.275   0.961 -10.536  0.00  0.00     0.028 H 
ATOM     13  H   LIG d   1       2.420   2.028  -9.397  0.00  0.00     0.028 H 
ATOM     14  H   LIG d   1       4.088   2.406  -9.889  0.00  0.00     0.028 H 
ENDBRANCH   7  11
BRANCH   9  15
ATOM     15  C   LIG d   1       6.141   0.729  -9.643  0.00  0.00    -0.036 C 
ATOM     16  H   LIG d   1       7.171   0.493  -9.376  0.00  0.00     0.028 H 
ATOM     17  H   LIG d   1       5.855   0.159 -10.527  0.00  0.00     0.028 H 
ATOM     18  H   LIG d   1       6.056   1.795  -9.856  0.00  0.00     0.028 H 
ENDBRANCH   9  15
BRANCH  10  19
ATOM     19  O   LIG d   1       7.009  -0.780  -7.419  0.00  0.00    -0.506 OA
ATOM     20  H   LIG d   1       7.120  -1.739  -7.374  0.00  0.00     0.292 HD
ENDBRANCH  10  19
ENDBRANCH   1   3
BRANCH   1  21
ATOM     21  C   LIG d   1       4.662  -2.864  -5.180  0.00  0.00     0.035 C 
ATOM     22  H   LIG d   1       3.842  -2.858  -5.897  0.00  0.00     0.037 H 
ATOM     23  H   LIG d   1       4.267  -3.030  -4.178  0.00  0.00     0.037 H 
BRANCH  21  24
ATOM     24  C   LIG d   1       5.627  -3.969  -5.528  0.00  0.00     0.214 C 
ATOM     25  O   LIG d   1       5.290  -5.127  -5.410  0.00  0.00    -0.276 OA
ATOM     26  N   LIG d   1       6.864  -3.668  -5.969  0.00  0.00    -0.312 N 
ATOM     27  H   LIG d   1       7.135  -2.740  -6.061  0.00  0.00     0.149 HD
BRANCH  26  28
ATOM     28  C   LIG d   1       7.802  -4.742  -6.307  0.00  0.00     0.024 C 
ATOM     29  H   LIG d   1       7.477  -5.669  -5.836  0.00  0.00     0.050 H 
BRANCH  28  30
ATOM     30  C   LIG d   1       7.841  -4.925  -7.825  0.00  0.00    -0.046 C 
ATOM     31  H   LIG d   1       6.826  -4.904  -8.220  0.00  0.00     0.025 H 
ATOM     32  H   LIG d   1       8.421  -4.117  -8.274  0.00  0.00     0.025 H 
ATOM     33  H   LIG d   1       8.306  -5.882  -8.064  0.00  0.00     0.025 H 
ENDBRANCH  28  30
BRANCH  28  34
ATOM     34  C   LIG d   1       9.200  -4.375  -5.801  0.00  0.00    -0.009 C 
ATOM     35  H   LIG d   1       9.332  -3.295  -5.849  0.00  0.00     0.033 H 
ATOM     36  H   LIG d   1       9.950  -4.861  -6.424  0.00  0.00     0.033 H 
BRANCH  34  37
ATOM     37  C   LIG d   1       9.355  -4.838  -4.375  0.00  0.00    -0.046 A 
ATOM     38  C   LIG d   1       9.509  -3.912  -3.361  0.00  0.00    -0.059 A 
ATOM     39  C   LIG d   1       9.657  -4.336  -2.054  0.00  0.00    -0.061 A 
ATOM     40  H   LIG d   1       9.517  -2.856  -3.590  0.00  0.00     0.062 H 
ATOM     41  C   LIG d   1       9.646  -5.686  -1.761  0.00  0.00    -0.062 A 
ATOM     42  H   LIG d   1       9.782  -3.611  -1.262  0.00  0.00     0.062 H 
ATOM     43  C   LIG d   1       9.488  -6.612  -2.773  0.00  0.00    -0.061 A 
ATOM     44  H   LIG d   1       9.763  -6.018  -0.739  0.00  0.00     0.062 H 
ATOM     45  C   LIG d   1       9.339  -6.188  -4.080  0.00  0.00    -0.059 A 
ATOM     46  H   LIG d   1       9.480  -7.668  -2.544  0.00  0.00     0.062 H 
ATOM     47  H   LIG d   1       9.215  -6.912  -4.872  0.00  0.00     0.062 H 
ENDBRANCH  34  37
ENDBRANCH  28  34
ENDBRANCH  26  28
ENDBRANCH  21  24
ENDBRANCH   1  21
BRANCH   1  48
ATOM     48  C   LIG d   1       5.147  -0.773  -3.939  0.00  0.00    -0.039 A 
ATOM     49  C   LIG d   1       5.650   0.504  -3.774  0.00  0.00    -0.058 A 
ATOM     50  C   LIG d   1       5.428   1.188  -2.593  0.00  0.00    -0.061 A 
ATOM     51  H   LIG d   1       6.218   0.967  -4.568  0.00  0.00     0.062 H 
ATOM     52  C   LIG d   1       4.702   0.595  -1.577  0.00  0.00    -0.062 A 
ATOM     53  H   LIG d   1       5.821   2.186  -2.465  0.00  0.00     0.062 H 
ATOM     54  C   LIG d   1       4.198  -0.681  -1.741  0.00  0.00    -0.061 A 
ATOM     55  H   LIG d   1       4.528   1.129  -0.655  0.00  0.00     0.062 H 
ATOM     56  C   LIG d   1       4.417  -1.364  -2.924  0.00  0.00    -0.058 A 
ATOM     57  H   LIG d   1       3.632  -1.144  -0.948  0.00  0.00     0.062 H 
ATOM     58  H   LIG d   1       4.020  -2.360  -3.053  0.00  0.00     0.062 H 
ENDBRANCH   1  48
TORSDOF 11
ENDMDL
MODEL 10
REMARK VINA RESULT:      -6.2      3.711      7.522
REMARK  11 active torsions:
REMARK  status: ('A' for Active; 'I' for Inactive)
REMARK    1  A    between atoms: C_1  and  C_2 
REMARK    2  A    between atoms: C_5  and  C_10 
REMARK    3  A    between atoms: C_6  and  O_9 
REMARK    4  A    between atoms: C_7  and  C_8 
REMARK    5  A    between atoms: C_10  and  C_12 
REMARK    6  A    between atoms: C_10  and  C_26 
REMARK    7  A    between atoms: C_12  and  C_13 
REMARK       I    between atoms: C_13  and  N_15 
REMARK    8  A    between atoms: N_15  and  C_16 
REMARK    9  A    between atoms: C_16  and  C_18 
REMARK   10  A    between atoms: C_16  and  C_19 
REMARK   11  A    between atoms: C_19  and  C_20 
ROOT
ATOM      1  C   LIG d   1       6.587   0.560  -8.025  0.00  0.00     0.021 C 
ATOM      2  H   LIG d   1       7.078   1.308  -7.403  0.00  0.00     0.040 H 
ENDROOT
BRANCH   1   3
ATOM      3  C   LIG d   1       7.393   0.341  -9.280  0.00  0.00     0.002 A 
ATOM      4  C   LIG d   1       7.047  -0.670 -10.156  0.00  0.00    -0.054 A 
ATOM      5  C   LIG d   1       7.785  -0.871 -11.308  0.00  0.00    -0.058 A 
ATOM      6  H   LIG d   1       6.199  -1.304  -9.941  0.00  0.00     0.062 H 
ATOM      7  C   LIG d   1       8.871  -0.060 -11.585  0.00  0.00    -0.044 A 
ATOM      8  H   LIG d   1       7.514  -1.661 -11.991  0.00  0.00     0.062 H 
ATOM      9  C   LIG d   1       9.221   0.952 -10.712  0.00  0.00    -0.006 A 
ATOM     10  C   LIG d   1       8.478   1.158  -9.559  0.00  0.00     0.124 A 
BRANCH   7  11
ATOM     11  C   LIG d   1       9.674  -0.282 -12.841  0.00  0.00    -0.039 C 
ATOM     12  H   LIG d   1       9.739  -1.350 -13.047  0.00  0.00     0.028 H 
ATOM     13  H   LIG d   1       9.186   0.219 -13.677  0.00  0.00     0.028 H 
ATOM     14  H   LIG d   1      10.677   0.125 -12.709  0.00  0.00     0.028 H 
ENDBRANCH   7  11
BRANCH   9  15
ATOM     15  C   LIG d   1      10.404   1.834 -11.016  0.00  0.00    -0.036 C 
ATOM     16  H   LIG d   1      10.753   1.639 -12.031  0.00  0.00     0.028 H 
ATOM     17  H   LIG d   1      10.110   2.879 -10.926  0.00  0.00     0.028 H 
ATOM     18  H   LIG d   1      11.207   1.621 -10.309  0.00  0.00     0.028 H 
ENDBRANCH   9  15
BRANCH  10  19
ATOM     19  O   LIG d   1       8.817   2.157  -8.702  0.00  0.00    -0.506 OA
ATOM     20  H   LIG d   1       9.010   1.856  -7.804  0.00  0.00     0.292 HD
ENDBRANCH  10  19
ENDBRANCH   1   3
BRANCH   1  21
ATOM     21  C   LIG d   1       6.481  -0.756  -7.252  0.00  0.00     0.035 C 
ATOM     22  H   LIG d   1       7.120  -1.504  -7.720  0.00  0.00     0.037 H 
ATOM     23  H   LIG d   1       5.448  -1.103  -7.263  0.00  0.00     0.037 H 
BRANCH  21  24
ATOM     24  C   LIG d   1       6.922  -0.538  -5.827  0.00  0.00     0.214 C 
ATOM     25  O   LIG d   1       7.389  -1.458  -5.190  0.00  0.00    -0.276 OA
ATOM     26  N   LIG d   1       6.796   0.679  -5.262  0.00  0.00    -0.312 N 
ATOM     27  H   LIG d   1       6.421   1.415  -5.771  0.00  0.00     0.149 HD
BRANCH  26  28
ATOM     28  C   LIG d   1       7.224   0.890  -3.877  0.00  0.00     0.024 C 
ATOM     29  H   LIG d   1       7.544  -0.058  -3.447  0.00  0.00     0.050 H 
BRANCH  28  30
ATOM     30  C   LIG d   1       8.389   1.882  -3.849  0.00  0.00    -0.046 C 
ATOM     31  H   LIG d   1       9.156   1.562  -4.554  0.00  0.00     0.025 H 
ATOM     32  H   LIG d   1       8.029   2.873  -4.130  0.00  0.00     0.025 H 
ATOM     33  H   LIG d   1       8.811   1.920  -2.845  0.00  0.00     0.025 H 
ENDBRANCH  28  30
BRANCH  28  34
ATOM     34  C   LIG d   1       6.056   1.453  -3.063  0.00  0.00    -0.009 C 
ATOM     35  H   LIG d   1       5.659   2.336  -3.560  0.00  0.00     0.033 H 
ATOM     36  H   LIG d   1       6.406   1.723  -2.066  0.00  0.00     0.033 H 
BRANCH  34  37
ATOM     37  C   LIG d   1       4.975   0.409  -2.949  0.00  0.00    -0.046 A 
ATOM     38  C   LIG d   1       5.254  -0.816  -2.373  0.00  0.00    -0.059 A 
ATOM     39  C   LIG d   1       4.265  -1.775  -2.274  0.00  0.00    -0.061 A 
ATOM     40  H   LIG d   1       6.248  -1.025  -2.004  0.00  0.00     0.062 H 
ATOM     41  C   LIG d   1       2.994  -1.507  -2.746  0.00  0.00    -0.062 A 
ATOM     42  H   LIG d   1       4.485  -2.734  -1.828  0.00  0.00     0.062 H 
ATOM     43  C   LIG d   1       2.713  -0.281  -3.317  0.00  0.00    -0.061 A 
ATOM     44  H   LIG d   1       2.220  -2.257  -2.669  0.00  0.00     0.062 H 
ATOM     45  C   LIG d   1       3.702   0.678  -3.416  0.00  0.00    -0.059 A 
ATOM     46  H   LIG d   1       1.719  -0.073  -3.687  0.00  0.00     0.062 H 
ATOM     47  H   LIG d   1       3.483   1.637  -3.863  0.00  0.00     0.062 H 
ENDBRANCH  34  37
ENDBRANCH  28  34
ENDBRANCH  26  28
ENDBRANCH  21  24
ENDBRANCH   1  21
BRANCH   1  48
ATOM     48  C   LIG d   1       5.206   1.039  -8.392  0.00  0.00    -0.039 A 
ATOM     49  C   LIG d   1       5.051   2.179  -9.158  0.00  0.00    -0.058 A 
ATOM     50  C   LIG d   1       3.784   2.619  -9.494  0.00  0.00    -0.061 A 
ATOM     51  H   LIG d   1       5.919   2.727  -9.492  0.00  0.00     0.062 H 
ATOM     52  C   LIG d   1       2.673   1.917  -9.066  0.00  0.00    -0.062 A 
ATOM     53  H   LIG d   1       3.663   3.510 -10.092  0.00  0.00     0.062 H 
ATOM     54  C   LIG d   1       2.828   0.777  -8.300  0.00  0.00    -0.061 A 
ATOM     55  H   LIG d   1       1.683   2.261  -9.328  0.00  0.00     0.062 H 
ATOM     56  C   LIG d   1       4.095   0.335  -7.968  0.00  0.00    -0.058 A 
ATOM     57  H   LIG d   1       1.960   0.230  -7.965  0.00  0.00     0.062 H 
ATOM     58  H   LIG d   1       4.216  -0.558  -7.373  0.00  0.00     0.062 H 
ENDBRANCH   1  48
TORSDOF 11
ENDMDL
