MODEL 1
REMARK VINA RESULT:      -6.7      0.000      0.000
REMARK  8 active torsions:
REMARK  status: ('A' for Active; 'I' for Inactive)
REMARK    1  A    between atoms: C_1  and  C_2 
REMARK    2  A    between atoms: C_2  and  O_3 
REMARK    3  A    between atoms: O_3  and  P_4 
REMARK    4  A    between atoms: P_4  and  N_6 
REMARK    5  A    between atoms: P_4  and  O_25 
REMARK    6  A    between atoms: N_6  and  C_7 
REMARK    7  A    between atoms: O_25  and  C_26 
REMARK    8  A    between atoms: C_26  and  C_27 
ROOT
ATOM      1  C   LIG d   1       3.907  -0.599  -5.929  0.00  0.00     0.141 C 
ATOM      2  S   LIG d   1       4.418  -1.913  -6.899  0.00  0.00    -0.018 SA
ATOM      3  N   LIG d   1       3.745  -0.764  -4.601  0.00  0.00    -0.311 N 
ATOM      4  C   LIG d   1       3.197   0.315  -3.772  0.00  0.00     0.018 C 
ATOM      5  C   LIG d   1       4.091   0.556  -2.563  0.00  0.00    -0.006 C 
ATOM      6  H   LIG d   1       3.559   1.210  -1.873  0.00  0.00     0.033 H 
ATOM      7  C   LIG d   1       4.398  -0.753  -1.836  0.00  0.00    -0.037 C 
ATOM      8  C   LIG d   1       5.097  -1.698  -2.817  0.00  0.00     0.016 C 
ATOM      9  H   LIG d   1       5.404  -2.611  -2.305  0.00  0.00     0.038 H 
ATOM     10  C   LIG d   1       4.107  -2.034  -3.952  0.00  0.00     0.022 C 
ATOM     11  C   LIG d   1       6.300  -1.009  -3.418  0.00  0.00     0.027 C 
ATOM     12  C   LIG d   1       7.328  -1.796  -3.835  0.00  0.00    -0.042 C 
ATOM     13  C   LIG d   1       8.446  -1.233  -4.461  0.00  0.00    -0.055 C 
ATOM     14  C   LIG d   1       8.476   0.115  -4.670  0.00  0.00     0.003 C 
ATOM     15  C   LIG d   1       7.398   0.896  -4.231  0.00  0.00     0.252 C 
ATOM     16  O   LIG d   1       7.383   2.093  -4.468  0.00  0.00    -0.268 OA
ATOM     17  N   LIG d   1       6.372   0.335  -3.545  0.00  0.00    -0.312 N 
ATOM     18  C   LIG d   1       5.394   1.236  -2.944  0.00  0.00     0.031 C 
ATOM     19  H   LIG d   1       3.136   1.229  -4.363  0.00  0.00     0.047 H 
ATOM     20  H   LIG d   1       2.200   0.039  -3.433  0.00  0.00     0.047 H 
ATOM     21  H   LIG d   1       5.052  -0.558  -0.986  0.00  0.00     0.028 H 
ATOM     22  H   LIG d   1       3.469  -1.207  -1.489  0.00  0.00     0.028 H 
ATOM     23  H   LIG d   1       3.216  -2.508  -3.542  0.00  0.00     0.047 H 
ATOM     24  H   LIG d   1       4.582  -2.698  -4.675  0.00  0.00     0.047 H 
ATOM     25  H   LIG d   1       7.282  -2.863  -3.682  0.00  0.00     0.064 H 
ATOM     26  H   LIG d   1       9.271  -1.856  -4.775  0.00  0.00     0.062 H 
ATOM     27  H   LIG d   1       9.318   0.574  -5.166  0.00  0.00     0.067 H 
ATOM     28  H   LIG d   1       5.179   2.043  -3.644  0.00  0.00     0.050 H 
ATOM     29  H   LIG d   1       5.846   1.661  -2.048  0.00  0.00     0.050 H 
ENDROOT
BRANCH   1  30
ATOM     30  N   LIG d   1       3.665   0.601  -6.493  0.00  0.00    -0.234 N 
ATOM     31  H   LIG d   1       3.775   1.413  -5.972  0.00  0.00     0.159 HD
BRANCH  30  32
ATOM     32  P   LIG d   1       3.187   0.690  -8.059  0.00  0.00     0.428 P 
ATOM     33  O   LIG d   1       2.684   2.053  -8.345  0.00  0.00    -0.236 OA
BRANCH  32  34
ATOM     34  O   LIG d   1       2.015  -0.382  -8.323  0.00  0.00    -0.294 OA
BRANCH  34  35
ATOM     35  C   LIG d   1       1.544  -0.714  -9.631  0.00  0.00     0.056 C 
ATOM     36  H   LIG d   1       1.987  -0.036 -10.360  0.00  0.00     0.056 H 
ATOM     37  H   LIG d   1       0.458  -0.620  -9.661  0.00  0.00     0.056 H 
BRANCH  35  38
ATOM     38  C   LIG d   1       1.940  -2.153  -9.965  0.00  0.00    -0.041 C 
ATOM     39  H   LIG d   1       1.733  -2.353 -11.016  0.00  0.00     0.025 H 
ATOM     40  H   LIG d   1       3.004  -2.291  -9.771  0.00  0.00     0.025 H 
ATOM     41  H   LIG d   1       1.367  -2.841  -9.344  0.00  0.00     0.025 H 
ENDBRANCH  35  38
ENDBRANCH  34  35
ENDBRANCH  32  34
BRANCH  32  42
ATOM     42  O   LIG d   1       4.437   0.366  -9.021  0.00  0.00    -0.294 OA
BRANCH  42  43
ATOM     43  C   LIG d   1       4.813   1.203 -10.116  0.00  0.00     0.056 C 
ATOM     44  H   LIG d   1       4.457   2.218  -9.937  0.00  0.00     0.056 H 
ATOM     45  H   LIG d   1       5.898   1.210 -10.213  0.00  0.00     0.056 H 
BRANCH  43  46
ATOM     46  C   LIG d   1       4.189   0.666 -11.407  0.00  0.00    -0.041 C 
ATOM     47  H   LIG d   1       3.992   1.494 -12.087  0.00  0.00     0.025 H 
ATOM     48  H   LIG d   1       4.878  -0.036 -11.878  0.00  0.00     0.025 H 
ATOM     49  H   LIG d   1       3.254   0.156 -11.174  0.00  0.00     0.025 H 
ENDBRANCH  43  46
ENDBRANCH  42  43
ENDBRANCH  32  42
ENDBRANCH  30  32
ENDBRANCH   1  30
TORSDOF 8
ENDMDL
MODEL 2
REMARK VINA RESULT:      -6.2      2.740      4.586
REMARK  8 active torsions:
REMARK  status: ('A' for Active; 'I' for Inactive)
REMARK    1  A    between atoms: C_1  and  C_2 
REMARK    2  A    between atoms: C_2  and  O_3 
REMARK    3  A    between atoms: O_3  and  P_4 
REMARK    4  A    between atoms: P_4  and  N_6 
REMARK    5  A    between atoms: P_4  and  O_25 
REMARK    6  A    between atoms: N_6  and  C_7 
REMARK    7  A    between atoms: O_25  and  C_26 
REMARK    8  A    between atoms: C_26  and  C_27 
ROOT
ATOM      1  C   LIG d   1       7.286   0.477  -5.454  0.00  0.00     0.141 C 
ATOM      2  S   LIG d   1       8.303   1.197  -4.281  0.00  0.00    -0.018 SA
ATOM      3  N   LIG d   1       6.863  -0.792  -5.291  0.00  0.00    -0.311 N 
ATOM      4  C   LIG d   1       6.087  -1.465  -6.340  0.00  0.00     0.018 C 
ATOM      5  C   LIG d   1       4.831  -2.089  -5.747  0.00  0.00    -0.006 C 
ATOM      6  H   LIG d   1       4.391  -2.744  -6.499  0.00  0.00     0.033 H 
ATOM      7  C   LIG d   1       5.164  -2.935  -4.518  0.00  0.00    -0.037 C 
ATOM      8  C   LIG d   1       5.834  -2.033  -3.478  0.00  0.00     0.016 C 
ATOM      9  H   LIG d   1       6.009  -2.589  -2.557  0.00  0.00     0.038 H 
ATOM     10  C   LIG d   1       7.174  -1.537  -4.061  0.00  0.00     0.022 C 
ATOM     11  C   LIG d   1       4.957  -0.833  -3.204  0.00  0.00     0.027 C 
ATOM     12  C   LIG d   1       5.062  -0.247  -1.982  0.00  0.00    -0.042 C 
ATOM     13  C   LIG d   1       4.330   0.907  -1.681  0.00  0.00    -0.055 C 
ATOM     14  C   LIG d   1       3.528   1.448  -2.642  0.00  0.00     0.003 C 
ATOM     15  C   LIG d   1       3.445   0.821  -3.893  0.00  0.00     0.252 C 
ATOM     16  O   LIG d   1       2.782   1.331  -4.782  0.00  0.00    -0.268 OA
ATOM     17  N   LIG d   1       4.094  -0.347  -4.125  0.00  0.00    -0.312 N 
ATOM     18  C   LIG d   1       3.797  -1.043  -5.372  0.00  0.00     0.031 C 
ATOM     19  H   LIG d   1       5.803  -0.738  -7.102  0.00  0.00     0.047 H 
ATOM     20  H   LIG d   1       6.696  -2.244  -6.796  0.00  0.00     0.047 H 
ATOM     21  H   LIG d   1       4.249  -3.357  -4.103  0.00  0.00     0.028 H 
ATOM     22  H   LIG d   1       5.845  -3.739  -4.799  0.00  0.00     0.028 H 
ATOM     23  H   LIG d   1       7.817  -2.386  -4.294  0.00  0.00     0.047 H 
ATOM     24  H   LIG d   1       7.670  -0.880  -3.346  0.00  0.00     0.047 H 
ATOM     25  H   LIG d   1       5.717  -0.675  -1.237  0.00  0.00     0.064 H 
ATOM     26  H   LIG d   1       4.399   1.361  -0.703  0.00  0.00     0.062 H 
ATOM     27  H   LIG d   1       2.965   2.348  -2.443  0.00  0.00     0.067 H 
ATOM     28  H   LIG d   1       3.726  -0.313  -6.177  0.00  0.00     0.050 H 
ATOM     29  H   LIG d   1       2.829  -1.530  -5.254  0.00  0.00     0.050 H 
ENDROOT
BRANCH   1  30
ATOM     30  N   LIG d   1       6.909   1.178  -6.541  0.00  0.00    -0.234 N 
ATOM     31  H   LIG d   1       6.005   1.526  -6.606  0.00  0.00     0.159 HD
BRANCH  30  32
ATOM     32  P   LIG d   1       7.978   1.447  -7.756  0.00  0.00     0.428 P 
ATOM     33  O   LIG d   1       8.818   2.618  -7.423  0.00  0.00    -0.236 OA
BRANCH  32  34
ATOM     34  O   LIG d   1       7.175   1.732  -9.122  0.00  0.00    -0.294 OA
BRANCH  34  35
ATOM     35  C   LIG d   1       5.857   1.236  -9.369  0.00  0.00     0.056 C 
ATOM     36  H   LIG d   1       5.617   0.463  -8.638  0.00  0.00     0.056 H 
ATOM     37  H   LIG d   1       5.809   0.814 -10.373  0.00  0.00     0.056 H 
BRANCH  35  38
ATOM     38  C   LIG d   1       4.851   2.382  -9.250  0.00  0.00    -0.041 C 
ATOM     39  H   LIG d   1       4.724   2.857 -10.222  0.00  0.00     0.025 H 
ATOM     40  H   LIG d   1       3.892   1.990  -8.909  0.00  0.00     0.025 H 
ATOM     41  H   LIG d   1       5.218   3.115  -8.532  0.00  0.00     0.025 H 
ENDBRANCH  35  38
ENDBRANCH  34  35
ENDBRANCH  32  34
BRANCH  32  42
ATOM     42  O   LIG d   1       8.913   0.150  -7.944  0.00  0.00    -0.294 OA
BRANCH  42  43
ATOM     43  C   LIG d   1      10.294   0.127  -7.577  0.00  0.00     0.056 C 
ATOM     44  H   LIG d   1      10.904  -0.039  -8.466  0.00  0.00     0.056 H 
ATOM     45  H   LIG d   1      10.566   1.081  -7.124  0.00  0.00     0.056 H 
BRANCH  43  46
ATOM     46  C   LIG d   1      10.537  -1.002  -6.574  0.00  0.00    -0.041 C 
ATOM     47  H   LIG d   1      11.571  -0.967  -6.230  0.00  0.00     0.025 H 
ATOM     48  H   LIG d   1       9.866  -0.883  -5.723  0.00  0.00     0.025 H 
ATOM     49  H   LIG d   1      10.347  -1.962  -7.054  0.00  0.00     0.025 H 
ENDBRANCH  43  46
ENDBRANCH  42  43
ENDBRANCH  32  42
ENDBRANCH  30  32
ENDBRANCH   1  30
TORSDOF 8
ENDMDL
MODEL 3
REMARK VINA RESULT:      -6.2      2.851      4.854
REMARK  8 active torsions:
REMARK  status: ('A' for Active; 'I' for Inactive)
REMARK    1  A    between atoms: C_1  and  C_2 
REMARK    2  A    between atoms: C_2  and  O_3 
REMARK    3  A    between atoms: O_3  and  P_4 
REMARK    4  A    between atoms: P_4  and  N_6 
REMARK    5  A    between atoms: P_4  and  O_25 
REMARK    6  A    between atoms: N_6  and  C_7 
REMARK    7  A    between atoms: O_25  and  C_26 
REMARK    8  A    between atoms: C_26  and  C_27 
ROOT
ATOM      1  C   LIG d   1       7.278   0.430  -5.462  0.00  0.00     0.141 C 
ATOM      2  S   LIG d   1       8.311   1.165  -4.311  0.00  0.00    -0.018 SA
ATOM      3  N   LIG d   1       6.828  -0.824  -5.260  0.00  0.00    -0.311 N 
ATOM      4  C   LIG d   1       6.039  -1.512  -6.288  0.00  0.00     0.018 C 
ATOM      5  C   LIG d   1       4.770  -2.091  -5.677  0.00  0.00    -0.006 C 
ATOM      6  H   LIG d   1       4.316  -2.759  -6.408  0.00  0.00     0.033 H 
ATOM      7  C   LIG d   1       5.085  -2.905  -4.422  0.00  0.00    -0.037 C 
ATOM      8  C   LIG d   1       5.774  -1.986  -3.410  0.00  0.00     0.016 C 
ATOM      9  H   LIG d   1       5.937  -2.516  -2.472  0.00  0.00     0.038 H 
ATOM     10  C   LIG d   1       7.124  -1.536  -4.007  0.00  0.00     0.022 C 
ATOM     11  C   LIG d   1       4.923  -0.760  -3.174  0.00  0.00     0.027 C 
ATOM     12  C   LIG d   1       5.041  -0.138  -1.970  0.00  0.00    -0.042 C 
ATOM     13  C   LIG d   1       4.333   1.039  -1.705  0.00  0.00    -0.055 C 
ATOM     14  C   LIG d   1       3.543   1.568  -2.684  0.00  0.00     0.003 C 
ATOM     15  C   LIG d   1       3.446   0.904  -3.915  0.00  0.00     0.252 C 
ATOM     16  O   LIG d   1       2.794   1.400  -4.819  0.00  0.00    -0.268 OA
ATOM     17  N   LIG d   1       4.070  -0.284  -4.109  0.00  0.00    -0.312 N 
ATOM     18  C   LIG d   1       3.758  -1.012  -5.334  0.00  0.00     0.031 C 
ATOM     19  H   LIG d   1       5.770  -0.804  -7.072  0.00  0.00     0.047 H 
ATOM     20  H   LIG d   1       6.631  -2.318  -6.719  0.00  0.00     0.047 H 
ATOM     21  H   LIG d   1       4.162  -3.295  -3.994  0.00  0.00     0.028 H 
ATOM     22  H   LIG d   1       5.749  -3.732  -4.677  0.00  0.00     0.028 H 
ATOM     23  H   LIG d   1       7.749  -2.406  -4.213  0.00  0.00     0.047 H 
ATOM     24  H   LIG d   1       7.634  -0.869  -3.313  0.00  0.00     0.047 H 
ATOM     25  H   LIG d   1       5.686  -0.556  -1.213  0.00  0.00     0.064 H 
ATOM     26  H   LIG d   1       4.412   1.523  -0.743  0.00  0.00     0.062 H 
ATOM     27  H   LIG d   1       2.998   2.485  -2.513  0.00  0.00     0.067 H 
ATOM     28  H   LIG d   1       3.703  -0.306  -6.162  0.00  0.00     0.050 H 
ATOM     29  H   LIG d   1       2.781  -1.474  -5.202  0.00  0.00     0.050 H 
ENDROOT
BRANCH   1  30
ATOM     30  N   LIG d   1       6.916   1.105  -6.571  0.00  0.00    -0.234 N 
ATOM     31  H   LIG d   1       6.013   1.450  -6.656  0.00  0.00     0.159 HD
BRANCH  30  32
ATOM     32  P   LIG d   1       8.002   1.347  -7.775  0.00  0.00     0.428 P 
ATOM     33  O   LIG d   1       8.869   0.155  -7.905  0.00  0.00    -0.236 OA
BRANCH  32  34
ATOM     34  O   LIG d   1       8.906   2.635  -7.431  0.00  0.00    -0.294 OA
BRANCH  34  35
ATOM     35  C   LIG d   1       9.179   3.670  -8.377  0.00  0.00     0.056 C 
ATOM     36  H   LIG d   1       8.243   4.028  -8.805  0.00  0.00     0.056 H 
ATOM     37  H   LIG d   1       9.815   3.277  -9.172  0.00  0.00     0.056 H 
BRANCH  35  38
ATOM     38  C   LIG d   1       9.896   4.826  -7.676  0.00  0.00    -0.041 C 
ATOM     39  H   LIG d   1      10.965   4.615  -7.629  0.00  0.00     0.025 H 
ATOM     40  H   LIG d   1       9.731   5.747  -8.235  0.00  0.00     0.025 H 
ATOM     41  H   LIG d   1       9.503   4.938  -6.667  0.00  0.00     0.025 H 
ENDBRANCH  35  38
ENDBRANCH  34  35
ENDBRANCH  32  34
BRANCH  32  42
ATOM     42  O   LIG d   1       7.221   1.596  -9.161  0.00  0.00    -0.294 OA
BRANCH  42  43
ATOM     43  C   LIG d   1       5.933   1.043  -9.438  0.00  0.00     0.056 C 
ATOM     44  H   LIG d   1       5.947   0.562 -10.417  0.00  0.00     0.056 H 
ATOM     45  H   LIG d   1       5.682   0.307  -8.675  0.00  0.00     0.056 H 
BRANCH  43  46
ATOM     46  C   LIG d   1       4.887   2.160  -9.434  0.00  0.00    -0.041 C 
ATOM     47  H   LIG d   1       5.151   2.909 -10.180  0.00  0.00     0.025 H 
ATOM     48  H   LIG d   1       3.908   1.741  -9.670  0.00  0.00     0.025 H 
ATOM     49  H   LIG d   1       4.855   2.624  -8.448  0.00  0.00     0.025 H 
ENDBRANCH  43  46
ENDBRANCH  42  43
ENDBRANCH  32  42
ENDBRANCH  30  32
ENDBRANCH   1  30
TORSDOF 8
ENDMDL
MODEL 4
REMARK VINA RESULT:      -5.9      1.322      2.074
REMARK  8 active torsions:
REMARK  status: ('A' for Active; 'I' for Inactive)
REMARK    1  A    between atoms: C_1  and  C_2 
REMARK    2  A    between atoms: C_2  and  O_3 
REMARK    3  A    between atoms: O_3  and  P_4 
REMARK    4  A    between atoms: P_4  and  N_6 
REMARK    5  A    between atoms: P_4  and  O_25 
REMARK    6  A    between atoms: N_6  and  C_7 
REMARK    7  A    between atoms: O_25  and  C_26 
REMARK    8  A    between atoms: C_26  and  C_27 
ROOT
ATOM      1  C   LIG d   1       3.764  -0.947  -5.629  0.00  0.00     0.141 C 
ATOM      2  S   LIG d   1       4.255  -2.320  -6.526  0.00  0.00    -0.018 SA
ATOM      3  N   LIG d   1       3.708  -1.007  -4.283  0.00  0.00    -0.311 N 
ATOM      4  C   LIG d   1       3.180   0.120  -3.505  0.00  0.00     0.018 C 
ATOM      5  C   LIG d   1       4.150   0.491  -2.392  0.00  0.00    -0.006 C 
ATOM      6  H   LIG d   1       3.645   1.182  -1.718  0.00  0.00     0.033 H 
ATOM      7  C   LIG d   1       4.563  -0.742  -1.587  0.00  0.00    -0.037 C 
ATOM      8  C   LIG d   1       5.224  -1.741  -2.539  0.00  0.00     0.016 C 
ATOM      9  H   LIG d   1       5.604  -2.596  -1.980  0.00  0.00     0.038 H 
ATOM     10  C   LIG d   1       4.168  -2.205  -3.564  0.00  0.00     0.022 C 
ATOM     11  C   LIG d   1       6.351  -1.065  -3.285  0.00  0.00     0.027 C 
ATOM     12  C   LIG d   1       7.376  -1.848  -3.715  0.00  0.00    -0.042 C 
ATOM     13  C   LIG d   1       8.421  -1.302  -4.469  0.00  0.00    -0.055 C 
ATOM     14  C   LIG d   1       8.381   0.024  -4.787  0.00  0.00     0.003 C 
ATOM     15  C   LIG d   1       7.308   0.803  -4.331  0.00  0.00     0.252 C 
ATOM     16  O   LIG d   1       7.228   1.974  -4.663  0.00  0.00    -0.268 OA
ATOM     17  N   LIG d   1       6.359   0.266  -3.525  0.00  0.00    -0.312 N 
ATOM     18  C   LIG d   1       5.393   1.180  -2.926  0.00  0.00     0.031 C 
ATOM     19  H   LIG d   1       3.039   0.979  -4.161  0.00  0.00     0.047 H 
ATOM     20  H   LIG d   1       2.222  -0.161  -3.068  0.00  0.00     0.047 H 
ATOM     21  H   LIG d   1       5.269  -0.454  -0.809  0.00  0.00     0.028 H 
ATOM     22  H   LIG d   1       3.681  -1.196  -1.134  0.00  0.00     0.028 H 
ATOM     23  H   LIG d   1       3.329  -2.672  -3.049  0.00  0.00     0.047 H 
ATOM     24  H   LIG d   1       4.614  -2.910  -4.265  0.00  0.00     0.047 H 
ATOM     25  H   LIG d   1       7.384  -2.900  -3.473  0.00  0.00     0.064 H 
ATOM     26  H   LIG d   1       9.245  -1.920  -4.794  0.00  0.00     0.062 H 
ATOM     27  H   LIG d   1       9.165   0.468  -5.382  0.00  0.00     0.067 H 
ATOM     28  H   LIG d   1       5.094   1.918  -3.670  0.00  0.00     0.050 H 
ATOM     29  H   LIG d   1       5.893   1.694  -2.105  0.00  0.00     0.050 H 
ENDROOT
BRANCH   1  30
ATOM     30  N   LIG d   1       3.433   0.192  -6.267  0.00  0.00    -0.234 N 
ATOM     31  H   LIG d   1       2.785   0.799  -5.875  0.00  0.00     0.159 HD
BRANCH  30  32
ATOM     32  P   LIG d   1       4.127   0.556  -7.708  0.00  0.00     0.428 P 
ATOM     33  O   LIG d   1       3.871  -0.539  -8.670  0.00  0.00    -0.236 OA
BRANCH  32  34
ATOM     34  O   LIG d   1       5.715   0.735  -7.508  0.00  0.00    -0.294 OA
BRANCH  34  35
ATOM     35  C   LIG d   1       6.681   0.142  -8.378  0.00  0.00     0.056 C 
ATOM     36  H   LIG d   1       6.170  -0.443  -9.143  0.00  0.00     0.056 H 
ATOM     37  H   LIG d   1       7.338  -0.509  -7.801  0.00  0.00     0.056 H 
BRANCH  35  38
ATOM     38  C   LIG d   1       7.510   1.242  -9.044  0.00  0.00    -0.041 C 
ATOM     39  H   LIG d   1       7.640   2.071  -8.349  0.00  0.00     0.025 H 
ATOM     40  H   LIG d   1       8.486   0.843  -9.321  0.00  0.00     0.025 H 
ATOM     41  H   LIG d   1       6.995   1.594  -9.938  0.00  0.00     0.025 H 
ENDBRANCH  35  38
ENDBRANCH  34  35
ENDBRANCH  32  34
BRANCH  32  42
ATOM     42  O   LIG d   1       3.500   1.927  -8.275  0.00  0.00    -0.294 OA
BRANCH  42  43
ATOM     43  C   LIG d   1       4.035   2.617  -9.406  0.00  0.00     0.056 C 
ATOM     44  H   LIG d   1       3.521   3.572  -9.525  0.00  0.00     0.056 H 
ATOM     45  H   LIG d   1       5.100   2.795  -9.253  0.00  0.00     0.056 H 
BRANCH  43  46
ATOM     46  C   LIG d   1       3.835   1.769 -10.664  0.00  0.00    -0.041 C 
ATOM     47  H   LIG d   1       2.816   1.898 -11.030  0.00  0.00     0.025 H 
ATOM     48  H   LIG d   1       4.540   2.087 -11.432  0.00  0.00     0.025 H 
ATOM     49  H   LIG d   1       4.005   0.719 -10.425  0.00  0.00     0.025 H 
ENDBRANCH  43  46
ENDBRANCH  42  43
ENDBRANCH  32  42
ENDBRANCH  30  32
ENDBRANCH   1  30
TORSDOF 8
ENDMDL
MODEL 5
REMARK VINA RESULT:      -5.9      2.462      6.468
REMARK  8 active torsions:
REMARK  status: ('A' for Active; 'I' for Inactive)
REMARK    1  A    between atoms: C_1  and  C_2 
REMARK    2  A    between atoms: C_2  and  O_3 
REMARK    3  A    between atoms: O_3  and  P_4 
REMARK    4  A    between atoms: P_4  and  N_6 
REMARK    5  A    between atoms: P_4  and  O_25 
REMARK    6  A    between atoms: N_6  and  C_7 
REMARK    7  A    between atoms: O_25  and  C_26 
REMARK    8  A    between atoms: C_26  and  C_27 
ROOT
ATOM      1  C   LIG d   1       5.788  -0.757  -6.114  0.00  0.00     0.141 C 
ATOM      2  S   LIG d   1       4.955  -2.223  -5.819  0.00  0.00    -0.018 SA
ATOM      3  N   LIG d   1       6.537  -0.619  -7.227  0.00  0.00    -0.311 N 
ATOM      4  C   LIG d   1       7.349   0.584  -7.440  0.00  0.00     0.018 C 
ATOM      5  C   LIG d   1       7.084   1.160  -8.825  0.00  0.00    -0.006 C 
ATOM      6  H   LIG d   1       7.840   1.919  -9.026  0.00  0.00     0.033 H 
ATOM      7  C   LIG d   1       7.197   0.080  -9.901  0.00  0.00    -0.037 C 
ATOM      8  C   LIG d   1       6.175  -1.018  -9.592  0.00  0.00     0.016 C 
ATOM      9  H   LIG d   1       6.173  -1.763 -10.388  0.00  0.00     0.038 H 
ATOM     10  C   LIG d   1       6.563  -1.676  -8.251  0.00  0.00     0.022 C 
ATOM     11  C   LIG d   1       4.800  -0.408  -9.446  0.00  0.00     0.027 C 
ATOM     12  C   LIG d   1       3.731  -1.198  -9.733  0.00  0.00    -0.042 C 
ATOM     13  C   LIG d   1       2.427  -0.722  -9.558  0.00  0.00    -0.055 C 
ATOM     14  C   LIG d   1       2.246   0.540  -9.071  0.00  0.00     0.003 C 
ATOM     15  C   LIG d   1       3.370   1.327  -8.782  0.00  0.00     0.252 C 
ATOM     16  O   LIG d   1       3.221   2.432  -8.285  0.00  0.00    -0.268 OA
ATOM     17  N   LIG d   1       4.619   0.872  -9.049  0.00  0.00    -0.312 N 
ATOM     18  C   LIG d   1       5.720   1.819  -8.916  0.00  0.00     0.031 C 
ATOM     19  H   LIG d   1       7.097   1.329  -6.686  0.00  0.00     0.047 H 
ATOM     20  H   LIG d   1       8.405   0.327  -7.353  0.00  0.00     0.047 H 
ATOM     21  H   LIG d   1       6.986   0.512 -10.879  0.00  0.00     0.028 H 
ATOM     22  H   LIG d   1       8.202  -0.343  -9.893  0.00  0.00     0.028 H 
ATOM     23  H   LIG d   1       7.564  -2.100  -8.320  0.00  0.00     0.047 H 
ATOM     24  H   LIG d   1       5.845  -2.455  -7.997  0.00  0.00     0.047 H 
ATOM     25  H   LIG d   1       3.889  -2.201 -10.099  0.00  0.00     0.064 H 
ATOM     26  H   LIG d   1       1.578  -1.342  -9.804  0.00  0.00     0.062 H 
ATOM     27  H   LIG d   1       1.251   0.927  -8.909  0.00  0.00     0.067 H 
ATOM     28  H   LIG d   1       5.561   2.424  -8.024  0.00  0.00     0.050 H 
ATOM     29  H   LIG d   1       5.700   2.471  -9.789  0.00  0.00     0.050 H 
ENDROOT
BRANCH   1  30
ATOM     30  N   LIG d   1       5.696   0.260  -5.235  0.00  0.00    -0.234 N 
ATOM     31  H   LIG d   1       5.198   1.060  -5.466  0.00  0.00     0.159 HD
BRANCH  30  32
ATOM     32  P   LIG d   1       6.426   0.145  -3.770  0.00  0.00     0.428 P 
ATOM     33  O   LIG d   1       7.464  -0.908  -3.817  0.00  0.00    -0.236 OA
BRANCH  32  34
ATOM     34  O   LIG d   1       5.328  -0.232  -2.653  0.00  0.00    -0.294 OA
BRANCH  34  35
ATOM     35  C   LIG d   1       4.740   0.737  -1.782  0.00  0.00     0.056 C 
ATOM     36  H   LIG d   1       5.480   1.496  -1.529  0.00  0.00     0.056 H 
ATOM     37  H   LIG d   1       4.398   0.245  -0.870  0.00  0.00     0.056 H 
BRANCH  35  38
ATOM     38  C   LIG d   1       3.550   1.396  -2.482  0.00  0.00    -0.041 C 
ATOM     39  H   LIG d   1       2.788   0.645  -2.690  0.00  0.00     0.025 H 
ATOM     40  H   LIG d   1       3.132   2.168  -1.836  0.00  0.00     0.025 H 
ATOM     41  H   LIG d   1       3.882   1.846  -3.417  0.00  0.00     0.025 H 
ENDBRANCH  35  38
ENDBRANCH  34  35
ENDBRANCH  32  34
BRANCH  32  42
ATOM     42  O   LIG d   1       7.107   1.555  -3.397  0.00  0.00    -0.294 OA
BRANCH  42  43
ATOM     43  C   LIG d   1       8.038   2.220  -4.253  0.00  0.00     0.056 C 
ATOM     44  H   LIG d   1       8.297   1.565  -5.086  0.00  0.00     0.056 H 
ATOM     45  H   LIG d   1       7.588   3.136  -4.638  0.00  0.00     0.056 H 
BRANCH  43  46
ATOM     46  C   LIG d   1       9.302   2.565  -3.463  0.00  0.00    -0.041 C 
ATOM     47  H   LIG d   1       9.129   2.383  -2.403  0.00  0.00     0.025 H 
ATOM     48  H   LIG d   1      10.127   1.942  -3.809  0.00  0.00     0.025 H 
ATOM     49  H   LIG d   1       9.551   3.615  -3.616  0.00  0.00     0.025 H 
ENDBRANCH  43  46
ENDBRANCH  42  43
ENDBRANCH  32  42
ENDBRANCH  30  32
ENDBRANCH   1  30
TORSDOF 8
ENDMDL
MODEL 6
REMARK VINA RESULT:      -5.8      3.124      5.187
REMARK  8 active torsions:
REMARK  status: ('A' for Active; 'I' for Inactive)
REMARK    1  A    between atoms: C_1  and  C_2 
REMARK    2  A    between atoms: C_2  and  O_3 
REMARK    3  A    between atoms: O_3  and  P_4 
REMARK    4  A    between atoms: P_4  and  N_6 
REMARK    5  A    between atoms: P_4  and  O_25 
REMARK    6  A    between atoms: N_6  and  C_7 
REMARK    7  A    between atoms: O_25  and  C_26 
REMARK    8  A    between atoms: C_26  and  C_27 
ROOT
ATOM      1  C   LIG d   1       7.393   0.542  -5.342  0.00  0.00     0.141 C 
ATOM      2  S   LIG d   1       8.306   1.342  -4.135  0.00  0.00    -0.018 SA
ATOM      3  N   LIG d   1       7.000  -0.734  -5.155  0.00  0.00    -0.311 N 
ATOM      4  C   LIG d   1       6.318  -1.473  -6.224  0.00  0.00     0.018 C 
ATOM      5  C   LIG d   1       5.046  -2.116  -5.690  0.00  0.00    -0.006 C 
ATOM      6  H   LIG d   1       4.678  -2.814  -6.441  0.00  0.00     0.033 H 
ATOM      7  C   LIG d   1       5.322  -2.901  -4.407  0.00  0.00    -0.037 C 
ATOM      8  C   LIG d   1       5.892  -1.936  -3.364  0.00  0.00     0.016 C 
ATOM      9  H   LIG d   1       6.022  -2.449  -2.411  0.00  0.00     0.038 H 
ATOM     10  C   LIG d   1       7.252  -1.418  -3.877  0.00  0.00     0.022 C 
ATOM     11  C   LIG d   1       4.961  -0.758  -3.198  0.00  0.00     0.027 C 
ATOM     12  C   LIG d   1       4.966  -0.121  -1.997  0.00  0.00    -0.042 C 
ATOM     13  C   LIG d   1       4.179   1.018  -1.792  0.00  0.00    -0.055 C 
ATOM     14  C   LIG d   1       3.427   1.494  -2.826  0.00  0.00     0.003 C 
ATOM     15  C   LIG d   1       3.447   0.815  -4.053  0.00  0.00     0.252 C 
ATOM     16  O   LIG d   1       2.830   1.267  -5.003  0.00  0.00    -0.268 OA
ATOM     17  N   LIG d   1       4.147  -0.337  -4.193  0.00  0.00    -0.312 N 
ATOM     18  C   LIG d   1       3.956  -1.091  -5.427  0.00  0.00     0.031 C 
ATOM     19  H   LIG d   1       6.063  -0.787  -7.032  0.00  0.00     0.047 H 
ATOM     20  H   LIG d   1       6.981  -2.248  -6.606  0.00  0.00     0.047 H 
ATOM     21  H   LIG d   1       4.395  -3.337  -4.036  0.00  0.00     0.028 H 
ATOM     22  H   LIG d   1       6.045  -3.691  -4.610  0.00  0.00     0.028 H 
ATOM     23  H   LIG d   1       7.935  -2.253  -4.032  0.00  0.00     0.047 H 
ATOM     24  H   LIG d   1       7.678  -0.717  -3.159  0.00  0.00     0.047 H 
ATOM     25  H   LIG d   1       5.582  -0.496  -1.194  0.00  0.00     0.064 H 
ATOM     26  H   LIG d   1       4.168   1.513  -0.832  0.00  0.00     0.062 H 
ATOM     27  H   LIG d   1       2.823   2.381  -2.702  0.00  0.00     0.067 H 
ATOM     28  H   LIG d   1       3.917  -0.396  -6.264  0.00  0.00     0.050 H 
ATOM     29  H   LIG d   1       2.999  -1.606  -5.352  0.00  0.00     0.050 H 
ENDROOT
BRANCH   1  30
ATOM     30  N   LIG d   1       7.068   1.187  -6.480  0.00  0.00    -0.234 N 
ATOM     31  H   LIG d   1       6.160   1.502  -6.617  0.00  0.00     0.159 HD
BRANCH  30  32
ATOM     32  P   LIG d   1       8.207   1.443  -7.632  0.00  0.00     0.428 P 
ATOM     33  O   LIG d   1       7.602   1.268  -8.971  0.00  0.00    -0.236 OA
BRANCH  32  34
ATOM     34  O   LIG d   1       9.407   0.387  -7.442  0.00  0.00    -0.294 OA
BRANCH  34  35
ATOM     35  C   LIG d   1       9.723  -0.614  -8.412  0.00  0.00     0.056 C 
ATOM     36  H   LIG d   1       8.976  -0.602  -9.205  0.00  0.00     0.056 H 
ATOM     37  H   LIG d   1       9.729  -1.595  -7.934  0.00  0.00     0.056 H 
BRANCH  35  38
ATOM     38  C   LIG d   1      11.104  -0.330  -9.007  0.00  0.00    -0.041 C 
ATOM     39  H   LIG d   1      11.776  -1.157  -8.778  0.00  0.00     0.025 H 
ATOM     40  H   LIG d   1      11.018  -0.220 -10.088  0.00  0.00     0.025 H 
ATOM     41  H   LIG d   1      11.501   0.591  -8.579  0.00  0.00     0.025 H 
ENDBRANCH  35  38
ENDBRANCH  34  35
ENDBRANCH  32  34
BRANCH  32  42
ATOM     42  O   LIG d   1       8.783   2.940  -7.494  0.00  0.00    -0.294 OA
BRANCH  42  43
ATOM     43  C   LIG d   1      10.148   3.222  -7.182  0.00  0.00     0.056 C 
ATOM     44  H   LIG d   1      10.668   2.291  -6.951  0.00  0.00     0.056 H 
ATOM     45  H   LIG d   1      10.625   3.703  -8.036  0.00  0.00     0.056 H 
BRANCH  43  46
ATOM     46  C   LIG d   1      10.213   4.155  -5.971  0.00  0.00    -0.041 C 
ATOM     47  H   LIG d   1      10.494   5.156  -6.298  0.00  0.00     0.025 H 
ATOM     48  H   LIG d   1       9.236   4.192  -5.488  0.00  0.00     0.025 H 
ATOM     49  H   LIG d   1      10.954   3.782  -5.264  0.00  0.00     0.025 H 
ENDBRANCH  43  46
ENDBRANCH  42  43
ENDBRANCH  32  42
ENDBRANCH  30  32
ENDBRANCH   1  30
TORSDOF 8
ENDMDL
MODEL 7
REMARK VINA RESULT:      -5.8      2.417      6.780
REMARK  8 active torsions:
REMARK  status: ('A' for Active; 'I' for Inactive)
REMARK    1  A    between atoms: C_1  and  C_2 
REMARK    2  A    between atoms: C_2  and  O_3 
REMARK    3  A    between atoms: O_3  and  P_4 
REMARK    4  A    between atoms: P_4  and  N_6 
REMARK    5  A    between atoms: P_4  and  O_25 
REMARK    6  A    between atoms: N_6  and  C_7 
REMARK    7  A    between atoms: O_25  and  C_26 
REMARK    8  A    between atoms: C_26  and  C_27 
ROOT
ATOM      1  C   LIG d   1       5.014  -0.744  -7.428  0.00  0.00     0.141 C 
ATOM      2  S   LIG d   1       6.522  -1.521  -7.658  0.00  0.00    -0.018 SA
ATOM      3  N   LIG d   1       4.683   0.322  -8.185  0.00  0.00    -0.311 N 
ATOM      4  C   LIG d   1       3.448   1.070  -7.925  0.00  0.00     0.018 C 
ATOM      5  C   LIG d   1       2.657   1.244  -9.214  0.00  0.00    -0.006 C 
ATOM      6  H   LIG d   1       1.863   1.967  -9.030  0.00  0.00     0.033 H 
ATOM      7  C   LIG d   1       3.543   1.786 -10.336  0.00  0.00    -0.037 C 
ATOM      8  C   LIG d   1       4.693   0.801 -10.562  0.00  0.00     0.016 C 
ATOM      9  H   LIG d   1       5.297   1.118 -11.412  0.00  0.00     0.038 H 
ATOM     10  C   LIG d   1       5.556   0.764  -9.283  0.00  0.00     0.022 C 
ATOM     11  C   LIG d   1       4.137  -0.583 -10.806  0.00  0.00     0.027 C 
ATOM     12  C   LIG d   1       4.887  -1.435 -11.555  0.00  0.00    -0.042 C 
ATOM     13  C   LIG d   1       4.467  -2.753 -11.767  0.00  0.00    -0.055 C 
ATOM     14  C   LIG d   1       3.306  -3.176 -11.188  0.00  0.00     0.003 C 
ATOM     15  C   LIG d   1       2.559  -2.273 -10.419  0.00  0.00     0.252 C 
ATOM     16  O   LIG d   1       1.554  -2.658  -9.844  0.00  0.00    -0.268 OA
ATOM     17  N   LIG d   1       2.944  -0.978 -10.308  0.00  0.00    -0.312 N 
ATOM     18  C   LIG d   1       2.013  -0.056  -9.667  0.00  0.00     0.031 C 
ATOM     19  H   LIG d   1       2.841   0.528  -7.200  0.00  0.00     0.047 H 
ATOM     20  H   LIG d   1       3.698   2.051  -7.522  0.00  0.00     0.047 H 
ATOM     21  H   LIG d   1       2.959   1.885 -11.251  0.00  0.00     0.028 H 
ATOM     22  H   LIG d   1       3.944   2.758 -10.048  0.00  0.00     0.028 H 
ATOM     23  H   LIG d   1       5.947   1.758  -9.068  0.00  0.00     0.047 H 
ATOM     24  H   LIG d   1       6.378   0.060  -9.410  0.00  0.00     0.047 H 
ATOM     25  H   LIG d   1       5.813  -1.092 -11.990  0.00  0.00     0.064 H 
ATOM     26  H   LIG d   1       5.053  -3.424 -12.378  0.00  0.00     0.062 H 
ATOM     27  H   LIG d   1       2.967  -4.193 -11.321  0.00  0.00     0.067 H 
ATOM     28  H   LIG d   1       1.566  -0.546  -8.803  0.00  0.00     0.050 H 
ATOM     29  H   LIG d   1       1.228   0.172 -10.387  0.00  0.00     0.050 H 
ENDROOT
BRANCH   1  30
ATOM     30  N   LIG d   1       4.158  -1.197  -6.492  0.00  0.00    -0.234 N 
ATOM     31  H   LIG d   1       3.373  -1.705  -6.755  0.00  0.00     0.159 HD
BRANCH  30  32
ATOM     32  P   LIG d   1       4.441  -0.893  -4.905  0.00  0.00     0.428 P 
ATOM     33  O   LIG d   1       4.909  -2.130  -4.242  0.00  0.00    -0.236 OA
BRANCH  32  34
ATOM     34  O   LIG d   1       3.081  -0.389  -4.205  0.00  0.00    -0.294 OA
BRANCH  34  35
ATOM     35  C   LIG d   1       2.930  -0.278  -2.789  0.00  0.00     0.056 C 
ATOM     36  H   LIG d   1       3.437  -1.112  -2.302  0.00  0.00     0.056 H 
ATOM     37  H   LIG d   1       1.870  -0.299  -2.533  0.00  0.00     0.056 H 
BRANCH  35  38
ATOM     38  C   LIG d   1       3.543   1.040  -2.312  0.00  0.00    -0.041 C 
ATOM     39  H   LIG d   1       3.025   1.874  -2.786  0.00  0.00     0.025 H 
ATOM     40  H   LIG d   1       3.442   1.117  -1.229  0.00  0.00     0.025 H 
ATOM     41  H   LIG d   1       4.599   1.068  -2.581  0.00  0.00     0.025 H 
ENDBRANCH  35  38
ENDBRANCH  34  35
ENDBRANCH  32  34
BRANCH  32  42
ATOM     42  O   LIG d   1       5.569   0.248  -4.770  0.00  0.00    -0.294 OA
BRANCH  42  43
ATOM     43  C   LIG d   1       6.783   0.060  -4.041  0.00  0.00     0.056 C 
ATOM     44  H   LIG d   1       6.561  -0.403  -3.079  0.00  0.00     0.056 H 
ATOM     45  H   LIG d   1       7.452  -0.586  -4.610  0.00  0.00     0.056 H 
BRANCH  43  46
ATOM     46  C   LIG d   1       7.456   1.415  -3.812  0.00  0.00    -0.041 C 
ATOM     47  H   LIG d   1       7.918   1.753  -4.740  0.00  0.00     0.025 H 
ATOM     48  H   LIG d   1       6.709   2.142  -3.493  0.00  0.00     0.025 H 
ATOM     49  H   LIG d   1       8.219   1.316  -3.040  0.00  0.00     0.025 H 
ENDBRANCH  43  46
ENDBRANCH  42  43
ENDBRANCH  32  42
ENDBRANCH  30  32
ENDBRANCH   1  30
TORSDOF 8
ENDMDL
MODEL 8
REMARK VINA RESULT:      -5.6      2.285      3.577
REMARK  8 active torsions:
REMARK  status: ('A' for Active; 'I' for Inactive)
REMARK    1  A    between atoms: C_1  and  C_2 
REMARK    2  A    between atoms: C_2  and  O_3 
REMARK    3  A    between atoms: O_3  and  P_4 
REMARK    4  A    between atoms: P_4  and  N_6 
REMARK    5  A    between atoms: P_4  and  O_25 
REMARK    6  A    between atoms: N_6  and  C_7 
REMARK    7  A    between atoms: O_25  and  C_26 
REMARK    8  A    between atoms: C_26  and  C_27 
ROOT
ATOM      1  C   LIG d   1       5.039  -0.871  -6.922  0.00  0.00     0.141 C 
ATOM      2  S   LIG d   1       5.663   0.665  -7.347  0.00  0.00    -0.018 SA
ATOM      3  N   LIG d   1       5.773  -1.710  -6.163  0.00  0.00    -0.311 N 
ATOM      4  C   LIG d   1       5.305  -3.073  -5.885  0.00  0.00     0.018 C 
ATOM      5  C   LIG d   1       5.370  -3.357  -4.391  0.00  0.00    -0.006 C 
ATOM      6  H   LIG d   1       5.215  -4.426  -4.242  0.00  0.00     0.033 H 
ATOM      7  C   LIG d   1       6.741  -2.994  -3.821  0.00  0.00    -0.037 C 
ATOM      8  C   LIG d   1       6.991  -1.505  -4.075  0.00  0.00     0.016 C 
ATOM      9  H   LIG d   1       7.925  -1.195  -3.607  0.00  0.00     0.038 H 
ATOM     10  C   LIG d   1       7.063  -1.281  -5.601  0.00  0.00     0.022 C 
ATOM     11  C   LIG d   1       5.840  -0.694  -3.526  0.00  0.00     0.027 C 
ATOM     12  C   LIG d   1       6.101   0.584  -3.143  0.00  0.00    -0.042 C 
ATOM     13  C   LIG d   1       5.072   1.415  -2.687  0.00  0.00    -0.055 C 
ATOM     14  C   LIG d   1       3.797   0.929  -2.657  0.00  0.00     0.003 C 
ATOM     15  C   LIG d   1       3.561  -0.392  -3.063  0.00  0.00     0.252 C 
ATOM     16  O   LIG d   1       2.418  -0.817  -3.102  0.00  0.00    -0.268 OA
ATOM     17  N   LIG d   1       4.591  -1.202  -3.411  0.00  0.00    -0.312 N 
ATOM     18  C   LIG d   1       4.293  -2.614  -3.621  0.00  0.00     0.031 C 
ATOM     19  H   LIG d   1       4.275  -3.178  -6.227  0.00  0.00     0.047 H 
ATOM     20  H   LIG d   1       5.935  -3.786  -6.416  0.00  0.00     0.047 H 
ATOM     21  H   LIG d   1       6.758  -3.190  -2.749  0.00  0.00     0.028 H 
ATOM     22  H   LIG d   1       7.513  -3.584  -4.315  0.00  0.00     0.028 H 
ATOM     23  H   LIG d   1       7.870  -1.878  -6.027  0.00  0.00     0.047 H 
ATOM     24  H   LIG d   1       7.228  -0.225  -5.815  0.00  0.00     0.047 H 
ATOM     25  H   LIG d   1       7.111   0.962  -3.191  0.00  0.00     0.064 H 
ATOM     26  H   LIG d   1       5.282   2.424  -2.365  0.00  0.00     0.062 H 
ATOM     27  H   LIG d   1       2.980   1.553  -2.326  0.00  0.00     0.067 H 
ATOM     28  H   LIG d   1       3.351  -2.701  -4.162  0.00  0.00     0.050 H 
ATOM     29  H   LIG d   1       4.178  -3.075  -2.641  0.00  0.00     0.050 H 
ENDROOT
BRANCH   1  30
ATOM     30  N   LIG d   1       3.816  -1.243  -7.346  0.00  0.00    -0.234 N 
ATOM     31  H   LIG d   1       3.102  -1.387  -6.705  0.00  0.00     0.159 HD
BRANCH  30  32
ATOM     32  P   LIG d   1       3.531  -1.449  -8.948  0.00  0.00     0.428 P 
ATOM     33  O   LIG d   1       2.599  -2.583  -9.141  0.00  0.00    -0.236 OA
BRANCH  32  34
ATOM     34  O   LIG d   1       4.919  -1.760  -9.703  0.00  0.00    -0.294 OA
BRANCH  34  35
ATOM     35  C   LIG d   1       5.366  -3.085  -9.995  0.00  0.00     0.056 C 
ATOM     36  H   LIG d   1       5.475  -3.203 -11.073  0.00  0.00     0.056 H 
ATOM     37  H   LIG d   1       4.637  -3.806  -9.623  0.00  0.00     0.056 H 
BRANCH  35  38
ATOM     38  C   LIG d   1       6.715  -3.329  -9.316  0.00  0.00    -0.041 C 
ATOM     39  H   LIG d   1       7.064  -4.335  -9.550  0.00  0.00     0.025 H 
ATOM     40  H   LIG d   1       7.441  -2.600  -9.676  0.00  0.00     0.025 H 
ATOM     41  H   LIG d   1       6.602  -3.227  -8.237  0.00  0.00     0.025 H 
ENDBRANCH  35  38
ENDBRANCH  34  35
ENDBRANCH  32  34
BRANCH  32  42
ATOM     42  O   LIG d   1       2.878  -0.109  -9.555  0.00  0.00    -0.294 OA
BRANCH  42  43
ATOM     43  C   LIG d   1       3.542   0.712 -10.518  0.00  0.00     0.056 C 
ATOM     44  H   LIG d   1       4.570   0.370 -10.640  0.00  0.00     0.056 H 
ATOM     45  H   LIG d   1       3.021   0.647 -11.473  0.00  0.00     0.056 H 
BRANCH  43  46
ATOM     46  C   LIG d   1       3.543   2.165 -10.036  0.00  0.00    -0.041 C 
ATOM     47  H   LIG d   1       2.549   2.592 -10.167  0.00  0.00     0.025 H 
ATOM     48  H   LIG d   1       3.816   2.197  -8.981  0.00  0.00     0.025 H 
ATOM     49  H   LIG d   1       4.265   2.739 -10.616  0.00  0.00     0.025 H 
ENDBRANCH  43  46
ENDBRANCH  42  43
ENDBRANCH  32  42
ENDBRANCH  30  32
ENDBRANCH   1  30
TORSDOF 8
ENDMDL
MODEL 9
REMARK VINA RESULT:      -5.6      2.153      3.867
REMARK  8 active torsions:
REMARK  status: ('A' for Active; 'I' for Inactive)
REMARK    1  A    between atoms: C_1  and  C_2 
REMARK    2  A    between atoms: C_2  and  O_3 
REMARK    3  A    between atoms: O_3  and  P_4 
REMARK    4  A    between atoms: P_4  and  N_6 
REMARK    5  A    between atoms: P_4  and  O_25 
REMARK    6  A    between atoms: N_6  and  C_7 
REMARK    7  A    between atoms: O_25  and  C_26 
REMARK    8  A    between atoms: C_26  and  C_27 
ROOT
ATOM      1  C   LIG d   1       5.064  -0.894  -6.992  0.00  0.00     0.141 C 
ATOM      2  S   LIG d   1       5.553   0.684  -7.441  0.00  0.00    -0.018 SA
ATOM      3  N   LIG d   1       5.877  -1.662  -6.240  0.00  0.00    -0.311 N 
ATOM      4  C   LIG d   1       5.528  -3.056  -5.943  0.00  0.00     0.018 C 
ATOM      5  C   LIG d   1       5.642  -3.321  -4.448  0.00  0.00    -0.006 C 
ATOM      6  H   LIG d   1       5.577  -4.397  -4.288  0.00  0.00     0.033 H 
ATOM      7  C   LIG d   1       6.988  -2.840  -3.905  0.00  0.00    -0.037 C 
ATOM      8  C   LIG d   1       7.110  -1.338  -4.176  0.00  0.00     0.016 C 
ATOM      9  H   LIG d   1       8.024  -0.949  -3.727  0.00  0.00     0.038 H 
ATOM     10  C   LIG d   1       7.137  -1.124  -5.704  0.00  0.00     0.022 C 
ATOM     11  C   LIG d   1       5.905  -0.620  -3.613  0.00  0.00     0.027 C 
ATOM     12  C   LIG d   1       6.068   0.679  -3.245  0.00  0.00    -0.042 C 
ATOM     13  C   LIG d   1       4.981   1.427  -2.777  0.00  0.00    -0.055 C 
ATOM     14  C   LIG d   1       3.751   0.838  -2.721  0.00  0.00     0.003 C 
ATOM     15  C   LIG d   1       3.619  -0.502  -3.111  0.00  0.00     0.252 C 
ATOM     16  O   LIG d   1       2.513  -1.020  -3.126  0.00  0.00    -0.268 OA
ATOM     17  N   LIG d   1       4.706  -1.227  -3.471  0.00  0.00    -0.312 N 
ATOM     18  C   LIG d   1       4.521  -2.661  -3.665  0.00  0.00     0.031 C 
ATOM     19  H   LIG d   1       4.505  -3.250  -6.265  0.00  0.00     0.047 H 
ATOM     20  H   LIG d   1       6.205  -3.720  -6.479  0.00  0.00     0.047 H 
ATOM     21  H   LIG d   1       7.039  -3.025  -2.832  0.00  0.00     0.028 H 
ATOM     22  H   LIG d   1       7.797  -3.370  -4.408  0.00  0.00     0.028 H 
ATOM     23  H   LIG d   1       7.983  -1.656  -6.140  0.00  0.00     0.047 H 
ATOM     24  H   LIG d   1       7.211  -0.060  -5.929  0.00  0.00     0.047 H 
ATOM     25  H   LIG d   1       7.042   1.138  -3.314  0.00  0.00     0.064 H 
ATOM     26  H   LIG d   1       5.114   2.452  -2.466  0.00  0.00     0.062 H 
ATOM     27  H   LIG d   1       2.892   1.396  -2.380  0.00  0.00     0.067 H 
ATOM     28  H   LIG d   1       3.580  -2.830  -4.188  0.00  0.00     0.050 H 
ATOM     29  H   LIG d   1       4.461  -3.120  -2.679  0.00  0.00     0.050 H 
ENDROOT
BRANCH   1  30
ATOM     30  N   LIG d   1       3.868  -1.369  -7.391  0.00  0.00    -0.234 N 
ATOM     31  H   LIG d   1       3.146  -1.469  -6.750  0.00  0.00     0.159 HD
BRANCH  30  32
ATOM     32  P   LIG d   1       3.630  -1.775  -8.962  0.00  0.00     0.428 P 
ATOM     33  O   LIG d   1       4.939  -1.935  -9.635  0.00  0.00    -0.236 OA
BRANCH  32  34
ATOM     34  O   LIG d   1       2.788  -0.613  -9.694  0.00  0.00    -0.294 OA
BRANCH  34  35
ATOM     35  C   LIG d   1       3.133  -0.095 -10.981  0.00  0.00     0.056 C 
ATOM     36  H   LIG d   1       2.227   0.049 -11.570  0.00  0.00     0.056 H 
ATOM     37  H   LIG d   1       3.790  -0.800 -11.492  0.00  0.00     0.056 H 
BRANCH  35  38
ATOM     38  C   LIG d   1       3.853   1.244 -10.815  0.00  0.00    -0.041 C 
ATOM     39  H   LIG d   1       4.578   1.369 -11.619  0.00  0.00     0.025 H 
ATOM     40  H   LIG d   1       3.125   2.055 -10.853  0.00  0.00     0.025 H 
ATOM     41  H   LIG d   1       4.368   1.263  -9.855  0.00  0.00     0.025 H 
ENDBRANCH  35  38
ENDBRANCH  34  35
ENDBRANCH  32  34
BRANCH  32  42
ATOM     42  O   LIG d   1       2.813  -3.160  -9.041  0.00  0.00    -0.294 OA
BRANCH  42  43
ATOM     43  C   LIG d   1       2.820  -4.002 -10.195  0.00  0.00     0.056 C 
ATOM     44  H   LIG d   1       2.076  -3.646 -10.909  0.00  0.00     0.056 H 
ATOM     45  H   LIG d   1       3.807  -3.980 -10.656  0.00  0.00     0.056 H 
BRANCH  43  46
ATOM     46  C   LIG d   1       2.483  -5.437  -9.781  0.00  0.00    -0.041 C 
ATOM     47  H   LIG d   1       2.391  -6.059 -10.671  0.00  0.00     0.025 H 
ATOM     48  H   LIG d   1       3.277  -5.828  -9.145  0.00  0.00     0.025 H 
ATOM     49  H   LIG d   1       1.541  -5.445  -9.233  0.00  0.00     0.025 H 
ENDBRANCH  43  46
ENDBRANCH  42  43
ENDBRANCH  32  42
ENDBRANCH  30  32
ENDBRANCH   1  30
TORSDOF 8
ENDMDL
MODEL 10
REMARK VINA RESULT:      -5.6      2.636      6.807
REMARK  8 active torsions:
REMARK  status: ('A' for Active; 'I' for Inactive)
REMARK    1  A    between atoms: C_1  and  C_2 
REMARK    2  A    between atoms: C_2  and  O_3 
REMARK    3  A    between atoms: O_3  and  P_4 
REMARK    4  A    between atoms: P_4  and  N_6 
REMARK    5  A    between atoms: P_4  and  O_25 
REMARK    6  A    between atoms: N_6  and  C_7 
REMARK    7  A    between atoms: O_25  and  C_26 
REMARK    8  A    between atoms: C_26  and  C_27 
ROOT
ATOM      1  C   LIG d   1       5.197  -0.650  -7.518  0.00  0.00     0.141 C 
ATOM      2  S   LIG d   1       6.725  -1.348  -7.847  0.00  0.00    -0.018 SA
ATOM      3  N   LIG d   1       4.782   0.423  -8.221  0.00  0.00    -0.311 N 
ATOM      4  C   LIG d   1       3.529   1.106  -7.876  0.00  0.00     0.018 C 
ATOM      5  C   LIG d   1       2.667   1.282  -9.119  0.00  0.00    -0.006 C 
ATOM      6  H   LIG d   1       1.852   1.962  -8.872  0.00  0.00     0.033 H 
ATOM      7  C   LIG d   1       3.470   1.900 -10.263  0.00  0.00    -0.037 C 
ATOM      8  C   LIG d   1       4.650   0.976 -10.579  0.00  0.00     0.016 C 
ATOM      9  H   LIG d   1       5.195   1.348 -11.447  0.00  0.00     0.038 H 
ATOM     10  C   LIG d   1       5.577   0.939  -9.346  0.00  0.00     0.022 C 
ATOM     11  C   LIG d   1       4.145  -0.424 -10.841  0.00  0.00     0.027 C 
ATOM     12  C   LIG d   1       4.893  -1.216 -11.654  0.00  0.00    -0.042 C 
ATOM     13  C   LIG d   1       4.522  -2.545 -11.890  0.00  0.00    -0.055 C 
ATOM     14  C   LIG d   1       3.412  -3.039 -11.269  0.00  0.00     0.003 C 
ATOM     15  C   LIG d   1       2.666  -2.196 -10.434  0.00  0.00     0.252 C 
ATOM     16  O   LIG d   1       1.709  -2.644  -9.824  0.00  0.00    -0.268 OA
ATOM     17  N   LIG d   1       2.997  -0.888 -10.299  0.00  0.00    -0.312 N 
ATOM     18  C   LIG d   1       2.060  -0.030  -9.582  0.00  0.00     0.031 C 
ATOM     19  H   LIG d   1       2.985   0.513  -7.141  0.00  0.00     0.047 H 
ATOM     20  H   LIG d   1       3.756   2.084  -7.453  0.00  0.00     0.047 H 
ATOM     21  H   LIG d   1       2.837   2.000 -11.145  0.00  0.00     0.028 H 
ATOM     22  H   LIG d   1       3.842   2.880  -9.963  0.00  0.00     0.028 H 
ATOM     23  H   LIG d   1       5.934   1.944  -9.117  0.00  0.00     0.047 H 
ATOM     24  H   LIG d   1       6.423   0.278  -9.536  0.00  0.00     0.047 H 
ATOM     25  H   LIG d   1       5.780  -0.818 -12.122  0.00  0.00     0.064 H 
ATOM     26  H   LIG d   1       5.106  -3.169 -12.551  0.00  0.00     0.062 H 
ATOM     27  H   LIG d   1       3.112  -4.066 -11.419  0.00  0.00     0.067 H 
ATOM     28  H   LIG d   1       1.679  -0.568  -8.714  0.00  0.00     0.050 H 
ATOM     29  H   LIG d   1       1.230   0.183 -10.254  0.00  0.00     0.050 H 
ENDROOT
BRANCH   1  30
ATOM     30  N   LIG d   1       4.411  -1.171  -6.556  0.00  0.00    -0.234 N 
ATOM     31  H   LIG d   1       3.695  -1.782  -6.792  0.00  0.00     0.159 HD
BRANCH  30  32
ATOM     32  P   LIG d   1       4.664  -0.774  -4.985  0.00  0.00     0.428 P 
ATOM     33  O   LIG d   1       5.790   0.182  -4.893  0.00  0.00    -0.236 OA
BRANCH  32  34
ATOM     34  O   LIG d   1       5.016  -2.103  -4.147  0.00  0.00    -0.294 OA
BRANCH  34  35
ATOM     35  C   LIG d   1       5.405  -3.332  -4.764  0.00  0.00     0.056 C 
ATOM     36  H   LIG d   1       5.106  -3.323  -5.812  0.00  0.00     0.056 H 
ATOM     37  H   LIG d   1       4.918  -4.164  -4.254  0.00  0.00     0.056 H 
BRANCH  35  38
ATOM     38  C   LIG d   1       6.923  -3.493  -4.667  0.00  0.00    -0.041 C 
ATOM     39  H   LIG d   1       7.283  -4.070  -5.519  0.00  0.00     0.025 H 
ATOM     40  H   LIG d   1       7.394  -2.509  -4.670  0.00  0.00     0.025 H 
ATOM     41  H   LIG d   1       7.175  -4.013  -3.744  0.00  0.00     0.025 H 
ENDBRANCH  35  38
ENDBRANCH  34  35
ENDBRANCH  32  34
BRANCH  32  42
ATOM     42  O   LIG d   1       3.334  -0.096  -4.382  0.00  0.00    -0.294 OA
BRANCH  42  43
ATOM     43  C   LIG d   1       3.011  -0.120  -2.990  0.00  0.00     0.056 C 
ATOM     44  H   LIG d   1       1.929  -0.063  -2.867  0.00  0.00     0.056 H 
ATOM     45  H   LIG d   1       3.379  -1.046  -2.547  0.00  0.00     0.056 H 
BRANCH  43  46
ATOM     46  C   LIG d   1       3.667   1.074  -2.294  0.00  0.00    -0.041 C 
ATOM     47  H   LIG d   1       3.021   1.425  -1.489  0.00  0.00     0.025 H 
ATOM     48  H   LIG d   1       4.629   0.771  -1.881  0.00  0.00     0.025 H 
ATOM     49  H   LIG d   1       3.818   1.878  -3.015  0.00  0.00     0.025 H 
ENDBRANCH  43  46
ENDBRANCH  42  43
ENDBRANCH  32  42
ENDBRANCH  30  32
ENDBRANCH   1  30
TORSDOF 8
ENDMDL
