MODEL 1
REMARK VINA RESULT:      -7.5      0.000      0.000
REMARK  4 active torsions:
REMARK  status: ('A' for Active; 'I' for Inactive)
REMARK    1  A    between atoms: C_5  and  C_7 
REMARK    2  A    between atoms: C_14  and  O_18 
REMARK    3  A    between atoms: O_18  and  C_19 
REMARK    4  A    between atoms: C_19  and  C_21 
ROOT
ATOM      1  C   LIG d   1       4.658  -3.003  -3.931  0.00  0.00    -0.007 C 
ATOM      2  C   LIG d   1       4.486  -3.124  -5.272  0.00  0.00     0.176 A 
ATOM      3  C   LIG d   1       4.235  -4.373  -6.008  0.00  0.00     0.232 A 
ATOM      4  O   LIG d   1       4.139  -5.500  -5.553  0.00  0.00    -0.283 OA
ATOM      5  C   LIG d   1       4.126  -3.956  -7.417  0.00  0.00     0.068 A 
ATOM      6  C   LIG d   1       3.896  -4.654  -8.604  0.00  0.00    -0.044 A 
ATOM      7  C   LIG d   1       3.846  -3.980  -9.791  0.00  0.00    -0.018 A 
ATOM      8  C   LIG d   1       4.025  -2.599  -9.820  0.00  0.00     0.136 A 
ATOM      9  C   LIG d   1       4.255  -1.894  -8.650  0.00  0.00     0.024 A 
ATOM     10  C   LIG d   1       4.308  -2.564  -7.434  0.00  0.00     0.143 A 
ATOM     11  O   LIG d   1       4.514  -2.116  -6.176  0.00  0.00    -0.451 OA
ATOM     12  H   LIG d   1       4.731  -3.886  -3.315  0.00  0.00     0.066 H 
ATOM     13  H   LIG d   1       3.756  -5.724  -8.583  0.00  0.00     0.063 H 
ATOM     14  H   LIG d   1       3.667  -4.519 -10.710  0.00  0.00     0.065 H 
ATOM     15  H   LIG d   1       4.393  -0.824  -8.683  0.00  0.00     0.069 H 
ENDROOT
BRANCH   1  16
ATOM     16  C   LIG d   1       4.747  -1.670  -3.320  0.00  0.00    -0.007 A 
ATOM     17  C   LIG d   1       5.963  -0.977  -3.317  0.00  0.00     0.025 A 
ATOM     18  C   LIG d   1       6.037   0.277  -2.746  0.00  0.00    -0.047 A 
ATOM     19 BR   LIG d   1       7.500  -1.753  -4.101  0.00  0.00    -0.050 Br
ATOM     20  C   LIG d   1       4.915   0.844  -2.167  0.00  0.00    -0.061 A 
ATOM     21  H   LIG d   1       6.974   0.816  -2.746  0.00  0.00     0.063 H 
ATOM     22  C   LIG d   1       3.711   0.162  -2.160  0.00  0.00    -0.061 A 
ATOM     23  H   LIG d   1       4.981   1.823  -1.717  0.00  0.00     0.062 H 
ATOM     24  C   LIG d   1       3.618  -1.088  -2.732  0.00  0.00    -0.053 A 
ATOM     25  H   LIG d   1       2.840   0.613  -1.706  0.00  0.00     0.062 H 
ATOM     26  H   LIG d   1       2.677  -1.618  -2.726  0.00  0.00     0.062 H 
ENDBRANCH   1  16
BRANCH   8  27
ATOM     27  O   LIG d   1       3.973  -1.939 -11.005  0.00  0.00    -0.420 OA
BRANCH  27  28
ATOM     28  C   LIG d   1       3.008  -1.011 -11.172  0.00  0.00     0.380 C 
ATOM     29  O   LIG d   1       2.067  -1.239 -11.908  0.00  0.00    -0.241 OA
BRANCH  28  30
ATOM     30  C   LIG d   1       3.094   0.270 -10.468  0.00  0.00     0.212 A 
ATOM     31  O   LIG d   1       2.335   0.651  -9.418  0.00  0.00    -0.456 OA
ATOM     32  C   LIG d   1       2.694   1.883  -9.035  0.00  0.00     0.093 A 
ATOM     33  C   LIG d   1       3.688   2.317  -9.841  0.00  0.00    -0.023 A 
ATOM     34  H   LIG d   1       2.259   2.439  -8.217  0.00  0.00     0.103 H 
ATOM     35  C   LIG d   1       3.951   1.292 -10.763  0.00  0.00    -0.009 A 
ATOM     36  H   LIG d   1       4.186   3.274  -9.788  0.00  0.00     0.065 H 
ATOM     37  H   LIG d   1       4.689   1.308 -11.552  0.00  0.00     0.066 H 
ENDBRANCH  28  30
ENDBRANCH  27  28
ENDBRANCH   8  27
TORSDOF 4
ENDMDL
MODEL 2
REMARK VINA RESULT:      -7.3      6.454      9.795
REMARK  4 active torsions:
REMARK  status: ('A' for Active; 'I' for Inactive)
REMARK    1  A    between atoms: C_5  and  C_7 
REMARK    2  A    between atoms: C_14  and  O_18 
REMARK    3  A    between atoms: O_18  and  C_19 
REMARK    4  A    between atoms: C_19  and  C_21 
ROOT
ATOM      1  C   LIG d   1       6.836   0.385  -4.895  0.00  0.00    -0.007 C 
ATOM      2  C   LIG d   1       7.754   1.379  -4.787  0.00  0.00     0.176 A 
ATOM      3  C   LIG d   1       8.568   1.933  -5.881  0.00  0.00     0.232 A 
ATOM      4  O   LIG d   1       8.564   1.603  -7.055  0.00  0.00    -0.283 OA
ATOM      5  C   LIG d   1       9.391   2.974  -5.239  0.00  0.00     0.068 A 
ATOM      6  C   LIG d   1      10.358   3.857  -5.719  0.00  0.00    -0.044 A 
ATOM      7  C   LIG d   1      10.966   4.732  -4.864  0.00  0.00    -0.018 A 
ATOM      8  C   LIG d   1      10.622   4.744  -3.515  0.00  0.00     0.136 A 
ATOM      9  C   LIG d   1       9.664   3.872  -3.024  0.00  0.00     0.024 A 
ATOM     10  C   LIG d   1       9.036   2.977  -3.881  0.00  0.00     0.143 A 
ATOM     11  O   LIG d   1       8.087   2.042  -3.655  0.00  0.00    -0.451 OA
ATOM     12  H   LIG d   1       6.730  -0.153  -5.824  0.00  0.00     0.066 H 
ATOM     13  H   LIG d   1      10.626   3.850  -6.765  0.00  0.00     0.063 H 
ATOM     14  H   LIG d   1      11.715   5.416  -5.236  0.00  0.00     0.065 H 
ATOM     15  H   LIG d   1       9.406   3.890  -1.976  0.00  0.00     0.069 H 
ENDROOT
BRANCH   1  16
ATOM     16  C   LIG d   1       5.987   0.043  -3.745  0.00  0.00    -0.007 A 
ATOM     17  C   LIG d   1       5.712  -1.297  -3.448  0.00  0.00     0.025 A 
ATOM     18  C   LIG d   1       4.919  -1.611  -2.364  0.00  0.00    -0.047 A 
ATOM     19 BR   LIG d   1       6.432  -2.675  -4.526  0.00  0.00    -0.050 Br
ATOM     20  C   LIG d   1       4.387  -0.604  -1.577  0.00  0.00    -0.061 A 
ATOM     21  H   LIG d   1       4.709  -2.645  -2.130  0.00  0.00     0.063 H 
ATOM     22  C   LIG d   1       4.650   0.724  -1.868  0.00  0.00    -0.061 A 
ATOM     23  H   LIG d   1       3.763  -0.856  -0.733  0.00  0.00     0.062 H 
ATOM     24  C   LIG d   1       5.445   1.055  -2.944  0.00  0.00    -0.053 A 
ATOM     25  H   LIG d   1       4.230   1.503  -1.249  0.00  0.00     0.062 H 
ATOM     26  H   LIG d   1       5.649   2.091  -3.168  0.00  0.00     0.062 H 
ENDBRANCH   1  16
BRANCH   8  27
ATOM     27  O   LIG d   1      11.232   5.618  -2.673  0.00  0.00    -0.420 OA
BRANCH  27  28
ATOM     28  C   LIG d   1      10.453   6.444  -1.945  0.00  0.00     0.380 C 
ATOM     29  O   LIG d   1       9.513   7.012  -2.468  0.00  0.00    -0.241 OA
BRANCH  28  30
ATOM     30  C   LIG d   1      10.740   6.659  -0.525  0.00  0.00     0.212 A 
ATOM     31  O   LIG d   1      10.643   5.733   0.453  0.00  0.00    -0.456 OA
ATOM     32  C   LIG d   1      10.985   6.285   1.624  0.00  0.00     0.093 A 
ATOM     33  C   LIG d   1      11.300   7.583   1.416  0.00  0.00    -0.023 A 
ATOM     34  H   LIG d   1      11.003   5.778   2.577  0.00  0.00     0.103 H 
ATOM     35  C   LIG d   1      11.146   7.832   0.044  0.00  0.00    -0.009 A 
ATOM     36  H   LIG d   1      11.612   8.295   2.166  0.00  0.00     0.065 H 
ATOM     37  H   LIG d   1      11.317   8.770  -0.464  0.00  0.00     0.066 H 
ENDBRANCH  28  30
ENDBRANCH  27  28
ENDBRANCH   8  27
TORSDOF 4
ENDMDL
MODEL 3
REMARK VINA RESULT:      -7.3      4.249      7.408
REMARK  4 active torsions:
REMARK  status: ('A' for Active; 'I' for Inactive)
REMARK    1  A    between atoms: C_5  and  C_7 
REMARK    2  A    between atoms: C_14  and  O_18 
REMARK    3  A    between atoms: O_18  and  C_19 
REMARK    4  A    between atoms: C_19  and  C_21 
ROOT
ATOM      1  C   LIG d   1       6.243  -2.412  -4.373  0.00  0.00    -0.007 C 
ATOM      2  C   LIG d   1       6.212  -3.677  -4.865  0.00  0.00     0.176 A 
ATOM      3  C   LIG d   1       7.378  -4.536  -5.129  0.00  0.00     0.232 A 
ATOM      4  O   LIG d   1       8.555  -4.269  -4.958  0.00  0.00    -0.283 OA
ATOM      5  C   LIG d   1       6.802  -5.790  -5.648  0.00  0.00     0.068 A 
ATOM      6  C   LIG d   1       7.366  -6.991  -6.081  0.00  0.00    -0.044 A 
ATOM      7  C   LIG d   1       6.558  -8.002  -6.519  0.00  0.00    -0.018 A 
ATOM      8  C   LIG d   1       5.176  -7.837  -6.535  0.00  0.00     0.136 A 
ATOM      9  C   LIG d   1       4.603  -6.650  -6.109  0.00  0.00     0.024 A 
ATOM     10  C   LIG d   1       5.410  -5.611  -5.660  0.00  0.00     0.143 A 
ATOM     11  O   LIG d   1       5.104  -4.378  -5.201  0.00  0.00    -0.451 OA
ATOM     12  H   LIG d   1       7.187  -1.905  -4.246  0.00  0.00     0.066 H 
ATOM     13  H   LIG d   1       8.437  -7.121  -6.068  0.00  0.00     0.063 H 
ATOM     14  H   LIG d   1       6.994  -8.932  -6.853  0.00  0.00     0.065 H 
ATOM     15  H   LIG d   1       3.530  -6.532  -6.127  0.00  0.00     0.069 H 
ENDROOT
BRANCH   1  16
ATOM     16  C   LIG d   1       4.989  -1.734  -4.015  0.00  0.00    -0.007 A 
ATOM     17  C   LIG d   1       4.391  -0.842  -4.914  0.00  0.00     0.025 A 
ATOM     18  C   LIG d   1       3.211  -0.213  -4.573  0.00  0.00    -0.047 A 
ATOM     19 BR   LIG d   1       5.192  -0.507  -6.594  0.00  0.00    -0.050 Br
ATOM     20  C   LIG d   1       2.626  -0.453  -3.341  0.00  0.00    -0.061 A 
ATOM     21  H   LIG d   1       2.745   0.472  -5.266  0.00  0.00     0.063 H 
ATOM     22  C   LIG d   1       3.215  -1.329  -2.446  0.00  0.00    -0.061 A 
ATOM     23  H   LIG d   1       1.706   0.046  -3.079  0.00  0.00     0.062 H 
ATOM     24  C   LIG d   1       4.390  -1.970  -2.772  0.00  0.00    -0.053 A 
ATOM     25  H   LIG d   1       2.752  -1.510  -1.486  0.00  0.00     0.062 H 
ATOM     26  H   LIG d   1       4.847  -2.653  -2.072  0.00  0.00     0.062 H 
ENDBRANCH   1  16
BRANCH   8  27
ATOM     27  O   LIG d   1       4.383  -8.849  -6.972  0.00  0.00    -0.420 OA
BRANCH  27  28
ATOM     28  C   LIG d   1       4.591 -10.081  -6.464  0.00  0.00     0.380 C 
ATOM     29  O   LIG d   1       4.882 -11.002  -7.204  0.00  0.00    -0.241 OA
BRANCH  28  30
ATOM     30  C   LIG d   1       4.466 -10.311  -5.024  0.00  0.00     0.212 A 
ATOM     31  O   LIG d   1       3.422  -9.944  -4.249  0.00  0.00    -0.456 OA
ATOM     32  C   LIG d   1       3.654 -10.319  -2.985  0.00  0.00     0.093 A 
ATOM     33  C   LIG d   1       4.858 -10.929  -2.926  0.00  0.00    -0.023 A 
ATOM     34  H   LIG d   1       2.988 -10.159  -2.150  0.00  0.00     0.103 H 
ATOM     35  C   LIG d   1       5.386 -10.929  -4.225  0.00  0.00    -0.009 A 
ATOM     36  H   LIG d   1       5.327 -11.340  -2.043  0.00  0.00     0.065 H 
ATOM     37  H   LIG d   1       6.337 -11.338  -4.535  0.00  0.00     0.066 H 
ENDBRANCH  28  30
ENDBRANCH  27  28
ENDBRANCH   8  27
TORSDOF 4
ENDMDL
MODEL 4
REMARK VINA RESULT:      -7.2      3.095      6.798
REMARK  4 active torsions:
REMARK  status: ('A' for Active; 'I' for Inactive)
REMARK    1  A    between atoms: C_5  and  C_7 
REMARK    2  A    between atoms: C_14  and  O_18 
REMARK    3  A    between atoms: O_18  and  C_19 
REMARK    4  A    between atoms: C_19  and  C_21 
ROOT
ATOM      1  C   LIG d   1       4.633  -0.634  -6.093  0.00  0.00    -0.007 C 
ATOM      2  C   LIG d   1       4.622  -1.937  -6.473  0.00  0.00     0.176 A 
ATOM      3  C   LIG d   1       4.890  -2.451  -7.826  0.00  0.00     0.232 A 
ATOM      4  O   LIG d   1       5.163  -1.811  -8.827  0.00  0.00    -0.283 OA
ATOM      5  C   LIG d   1       4.752  -3.913  -7.700  0.00  0.00     0.068 A 
ATOM      6  C   LIG d   1       4.879  -4.965  -8.607  0.00  0.00    -0.044 A 
ATOM      7  C   LIG d   1       4.689  -6.252  -8.189  0.00  0.00    -0.018 A 
ATOM      8  C   LIG d   1       4.369  -6.515  -6.859  0.00  0.00     0.136 A 
ATOM      9  C   LIG d   1       4.240  -5.480  -5.948  0.00  0.00     0.024 A 
ATOM     10  C   LIG d   1       4.430  -4.166  -6.357  0.00  0.00     0.143 A 
ATOM     11  O   LIG d   1       4.363  -3.000  -5.677  0.00  0.00    -0.451 OA
ATOM     12  H   LIG d   1       4.740   0.143  -6.834  0.00  0.00     0.066 H 
ATOM     13  H   LIG d   1       5.127  -4.763  -9.638  0.00  0.00     0.063 H 
ATOM     14  H   LIG d   1       4.787  -7.067  -8.891  0.00  0.00     0.065 H 
ATOM     15  H   LIG d   1       3.991  -5.695  -4.919  0.00  0.00     0.069 H 
ENDROOT
BRANCH   1  16
ATOM     16  C   LIG d   1       4.500  -0.283  -4.673  0.00  0.00    -0.007 A 
ATOM     17  C   LIG d   1       5.636   0.020  -3.913  0.00  0.00     0.025 A 
ATOM     18  C   LIG d   1       5.502   0.353  -2.581  0.00  0.00    -0.047 A 
ATOM     19 BR   LIG d   1       7.350  -0.022  -4.712  0.00  0.00    -0.050 Br
ATOM     20  C   LIG d   1       4.249   0.379  -1.994  0.00  0.00    -0.061 A 
ATOM     21  H   LIG d   1       6.378   0.591  -1.994  0.00  0.00     0.063 H 
ATOM     22  C   LIG d   1       3.122   0.075  -2.736  0.00  0.00    -0.061 A 
ATOM     23  H   LIG d   1       4.152   0.636  -0.950  0.00  0.00     0.062 H 
ATOM     24  C   LIG d   1       3.237  -0.255  -4.069  0.00  0.00    -0.053 A 
ATOM     25  H   LIG d   1       2.148   0.097  -2.269  0.00  0.00     0.062 H 
ATOM     26  H   LIG d   1       2.356  -0.491  -4.647  0.00  0.00     0.062 H 
ENDBRANCH   1  16
BRANCH   8  27
ATOM     27  O   LIG d   1       4.183  -7.797  -6.453  0.00  0.00    -0.420 OA
BRANCH  27  28
ATOM     28  C   LIG d   1       5.157  -8.378  -5.721  0.00  0.00     0.380 C 
ATOM     29  O   LIG d   1       6.324  -8.200  -6.012  0.00  0.00    -0.241 OA
BRANCH  28  30
ATOM     30  C   LIG d   1       4.808  -9.223  -4.578  0.00  0.00     0.212 A 
ATOM     31  O   LIG d   1       3.558  -9.513  -4.158  0.00  0.00    -0.456 OA
ATOM     32  C   LIG d   1       3.623 -10.315  -3.087  0.00  0.00     0.093 A 
ATOM     33  C   LIG d   1       4.923 -10.547  -2.797  0.00  0.00    -0.023 A 
ATOM     34  H   LIG d   1       2.777 -10.709  -2.544  0.00  0.00     0.103 H 
ATOM     35  C   LIG d   1       5.689  -9.853  -3.745  0.00  0.00    -0.009 A 
ATOM     36  H   LIG d   1       5.301 -11.153  -1.987  0.00  0.00     0.065 H 
ATOM     37  H   LIG d   1       6.767  -9.822  -3.806  0.00  0.00     0.066 H 
ENDBRANCH  28  30
ENDBRANCH  27  28
ENDBRANCH   8  27
TORSDOF 4
ENDMDL
MODEL 5
REMARK VINA RESULT:      -7.1      5.674      8.305
REMARK  4 active torsions:
REMARK  status: ('A' for Active; 'I' for Inactive)
REMARK    1  A    between atoms: C_5  and  C_7 
REMARK    2  A    between atoms: C_14  and  O_18 
REMARK    3  A    between atoms: O_18  and  C_19 
REMARK    4  A    between atoms: C_19  and  C_21 
ROOT
ATOM      1  C   LIG d   1       5.772  -0.732  -5.886  0.00  0.00    -0.007 C 
ATOM      2  C   LIG d   1       6.711   0.247  -5.926  0.00  0.00     0.176 A 
ATOM      3  C   LIG d   1       7.460   0.686  -7.114  0.00  0.00     0.232 A 
ATOM      4  O   LIG d   1       7.373   0.256  -8.252  0.00  0.00    -0.283 OA
ATOM      5  C   LIG d   1       8.339   1.761  -6.620  0.00  0.00     0.068 A 
ATOM      6  C   LIG d   1       9.287   2.578  -7.238  0.00  0.00    -0.044 A 
ATOM      7  C   LIG d   1       9.964   3.510  -6.504  0.00  0.00    -0.018 A 
ATOM      8  C   LIG d   1       9.711   3.647  -5.142  0.00  0.00     0.136 A 
ATOM      9  C   LIG d   1       8.773   2.842  -4.515  0.00  0.00     0.024 A 
ATOM     10  C   LIG d   1       8.075   1.889  -5.248  0.00  0.00     0.143 A 
ATOM     11  O   LIG d   1       7.129   0.998  -4.880  0.00  0.00    -0.451 OA
ATOM     12  H   LIG d   1       5.596  -1.347  -6.755  0.00  0.00     0.066 H 
ATOM     13  H   LIG d   1       9.485   2.474  -8.294  0.00  0.00     0.063 H 
ATOM     14  H   LIG d   1      10.697   4.143  -6.982  0.00  0.00     0.065 H 
ATOM     15  H   LIG d   1       8.584   2.956  -3.458  0.00  0.00     0.069 H 
ENDROOT
BRANCH   1  16
ATOM     16  C   LIG d   1       4.995  -0.954  -4.659  0.00  0.00    -0.007 A 
ATOM     17  C   LIG d   1       3.665  -0.525  -4.580  0.00  0.00     0.025 A 
ATOM     18  C   LIG d   1       2.941  -0.742  -3.426  0.00  0.00    -0.047 A 
ATOM     19 BR   LIG d   1       2.859   0.344  -6.055  0.00  0.00    -0.050 Br
ATOM     20  C   LIG d   1       3.530  -1.373  -2.344  0.00  0.00    -0.061 A 
ATOM     21  H   LIG d   1       1.913  -0.415  -3.365  0.00  0.00     0.063 H 
ATOM     22  C   LIG d   1       4.847  -1.795  -2.412  0.00  0.00    -0.061 A 
ATOM     23  H   LIG d   1       2.960  -1.535  -1.442  0.00  0.00     0.062 H 
ATOM     24  C   LIG d   1       5.583  -1.591  -3.559  0.00  0.00    -0.053 A 
ATOM     25  H   LIG d   1       5.299  -2.286  -1.562  0.00  0.00     0.062 H 
ATOM     26  H   LIG d   1       6.609  -1.922  -3.610  0.00  0.00     0.062 H 
ENDBRANCH   1  16
BRANCH   8  27
ATOM     27  O   LIG d   1      10.388   4.577  -4.421  0.00  0.00    -0.420 OA
BRANCH  27  28
ATOM     28  C   LIG d   1       9.694   5.619  -3.920  0.00  0.00     0.380 C 
ATOM     29  O   LIG d   1       8.874   6.192  -4.611  0.00  0.00    -0.241 OA
BRANCH  28  30
ATOM     30  C   LIG d   1       9.929   6.061  -2.543  0.00  0.00     0.212 A 
ATOM     31  O   LIG d   1      10.547   5.350  -1.576  0.00  0.00    -0.456 OA
ATOM     32  C   LIG d   1      10.582   6.071  -0.448  0.00  0.00     0.093 A 
ATOM     33  C   LIG d   1       9.978   7.259  -0.673  0.00  0.00    -0.023 A 
ATOM     34  H   LIG d   1      11.020   5.754   0.487  0.00  0.00     0.103 H 
ATOM     35  C   LIG d   1       9.556   7.262  -2.010  0.00  0.00    -0.009 A 
ATOM     36  H   LIG d   1       9.844   8.056   0.044  0.00  0.00     0.065 H 
ATOM     37  H   LIG d   1       9.037   8.061  -2.521  0.00  0.00     0.066 H 
ENDBRANCH  28  30
ENDBRANCH  27  28
ENDBRANCH   8  27
TORSDOF 4
ENDMDL
MODEL 6
REMARK VINA RESULT:      -7.0      4.229      6.839
REMARK  4 active torsions:
REMARK  status: ('A' for Active; 'I' for Inactive)
REMARK    1  A    between atoms: C_5  and  C_7 
REMARK    2  A    between atoms: C_14  and  O_18 
REMARK    3  A    between atoms: O_18  and  C_19 
REMARK    4  A    between atoms: C_19  and  C_21 
ROOT
ATOM      1  C   LIG d   1       5.220  -9.128  -5.404  0.00  0.00    -0.007 C 
ATOM      2  C   LIG d   1       5.077  -7.837  -5.796  0.00  0.00     0.176 A 
ATOM      3  C   LIG d   1       4.340  -7.364  -6.979  0.00  0.00     0.232 A 
ATOM      4  O   LIG d   1       3.740  -8.035  -7.801  0.00  0.00    -0.283 OA
ATOM      5  C   LIG d   1       4.492  -5.899  -6.948  0.00  0.00     0.068 A 
ATOM      6  C   LIG d   1       4.038  -4.874  -7.779  0.00  0.00    -0.044 A 
ATOM      7  C   LIG d   1       4.345  -3.575  -7.489  0.00  0.00    -0.018 A 
ATOM      8  C   LIG d   1       5.111  -3.271  -6.366  0.00  0.00     0.136 A 
ATOM      9  C   LIG d   1       5.570  -4.278  -5.533  0.00  0.00     0.024 A 
ATOM     10  C   LIG d   1       5.266  -5.605  -5.814  0.00  0.00     0.143 A 
ATOM     11  O   LIG d   1       5.586  -6.750  -5.172  0.00  0.00    -0.451 OA
ATOM     12  H   LIG d   1       4.869  -9.927  -6.038  0.00  0.00     0.066 H 
ATOM     13  H   LIG d   1       3.443  -5.107  -8.650  0.00  0.00     0.063 H 
ATOM     14  H   LIG d   1       3.993  -2.781  -8.131  0.00  0.00     0.065 H 
ATOM     15  H   LIG d   1       6.164  -4.032  -4.665  0.00  0.00     0.069 H 
ENDROOT
BRANCH   1  16
ATOM     16  C   LIG d   1       5.853  -9.437  -4.114  0.00  0.00    -0.007 A 
ATOM     17  C   LIG d   1       5.142 -10.136  -3.131  0.00  0.00     0.025 A 
ATOM     18  C   LIG d   1       5.745 -10.427  -1.925  0.00  0.00    -0.047 A 
ATOM     19 BR   LIG d   1       3.362 -10.687  -3.458  0.00  0.00    -0.050 Br
ATOM     20  C   LIG d   1       7.045 -10.020  -1.681  0.00  0.00    -0.061 A 
ATOM     21  H   LIG d   1       5.199 -10.969  -1.166  0.00  0.00     0.063 H 
ATOM     22  C   LIG d   1       7.752  -9.323  -2.646  0.00  0.00    -0.061 A 
ATOM     23  H   LIG d   1       7.509 -10.246  -0.734  0.00  0.00     0.062 H 
ATOM     24  C   LIG d   1       7.167  -9.029  -3.859  0.00  0.00    -0.053 A 
ATOM     25  H   LIG d   1       8.767  -9.009  -2.448  0.00  0.00     0.062 H 
ATOM     26  H   LIG d   1       7.721  -8.487  -4.610  0.00  0.00     0.062 H 
ENDBRANCH   1  16
BRANCH   8  27
ATOM     27  O   LIG d   1       5.410  -1.977  -6.086  0.00  0.00    -0.420 OA
BRANCH  27  28
ATOM     28  C   LIG d   1       4.461  -1.220  -5.499  0.00  0.00     0.380 C 
ATOM     29  O   LIG d   1       3.624  -0.658  -6.179  0.00  0.00    -0.241 OA
BRANCH  28  30
ATOM     30  C   LIG d   1       4.438  -1.073  -4.042  0.00  0.00     0.212 A 
ATOM     31  O   LIG d   1       4.694   0.060  -3.354  0.00  0.00    -0.456 OA
ATOM     32  C   LIG d   1       4.578  -0.181  -2.042  0.00  0.00     0.093 A 
ATOM     33  C   LIG d   1       4.252  -1.480  -1.865  0.00  0.00    -0.023 A 
ATOM     34  H   LIG d   1       4.724   0.544  -1.254  0.00  0.00     0.103 H 
ATOM     35  C   LIG d   1       4.160  -2.061  -3.139  0.00  0.00    -0.009 A 
ATOM     36  H   LIG d   1       4.092  -1.979  -0.921  0.00  0.00     0.065 H 
ATOM     37  H   LIG d   1       3.916  -3.089  -3.364  0.00  0.00     0.066 H 
ENDBRANCH  28  30
ENDBRANCH  27  28
ENDBRANCH   8  27
TORSDOF 4
ENDMDL
MODEL 7
REMARK VINA RESULT:      -6.9      3.568      7.867
REMARK  4 active torsions:
REMARK  status: ('A' for Active; 'I' for Inactive)
REMARK    1  A    between atoms: C_5  and  C_7 
REMARK    2  A    between atoms: C_14  and  O_18 
REMARK    3  A    between atoms: O_18  and  C_19 
REMARK    4  A    between atoms: C_19  and  C_21 
ROOT
ATOM      1  C   LIG d   1       2.932   0.517  -6.887  0.00  0.00    -0.007 C 
ATOM      2  C   LIG d   1       3.892  -0.071  -6.129  0.00  0.00     0.176 A 
ATOM      3  C   LIG d   1       3.722  -0.592  -4.763  0.00  0.00     0.232 A 
ATOM      4  O   LIG d   1       2.711  -0.588  -4.082  0.00  0.00    -0.283 OA
ATOM      5  C   LIG d   1       5.051  -1.119  -4.401  0.00  0.00     0.068 A 
ATOM      6  C   LIG d   1       5.553  -1.738  -3.256  0.00  0.00    -0.044 A 
ATOM      7  C   LIG d   1       6.862  -2.127  -3.210  0.00  0.00    -0.018 A 
ATOM      8  C   LIG d   1       7.695  -1.908  -4.304  0.00  0.00     0.136 A 
ATOM      9  C   LIG d   1       7.211  -1.294  -5.447  0.00  0.00     0.024 A 
ATOM     10  C   LIG d   1       5.882  -0.892  -5.510  0.00  0.00     0.143 A 
ATOM     11  O   LIG d   1       5.178  -0.284  -6.490  0.00  0.00    -0.451 OA
ATOM     12  H   LIG d   1       1.967   0.741  -6.459  0.00  0.00     0.066 H 
ATOM     13  H   LIG d   1       4.908  -1.909  -2.407  0.00  0.00     0.063 H 
ATOM     14  H   LIG d   1       7.251  -2.607  -2.324  0.00  0.00     0.065 H 
ATOM     15  H   LIG d   1       7.865  -1.128  -6.290  0.00  0.00     0.069 H 
ENDROOT
BRANCH   1  16
ATOM     16  C   LIG d   1       3.208   0.848  -8.292  0.00  0.00    -0.007 A 
ATOM     17  C   LIG d   1       3.240  -0.164  -9.260  0.00  0.00     0.025 A 
ATOM     18  C   LIG d   1       3.494   0.156 -10.577  0.00  0.00    -0.047 A 
ATOM     19 BR   LIG d   1       2.929  -1.962  -8.764  0.00  0.00    -0.050 Br
ATOM     20  C   LIG d   1       3.728   1.471 -10.941  0.00  0.00    -0.061 A 
ATOM     21  H   LIG d   1       3.516  -0.622 -11.327  0.00  0.00     0.063 H 
ATOM     22  C   LIG d   1       3.703   2.475  -9.989  0.00  0.00    -0.061 A 
ATOM     23  H   LIG d   1       3.931   1.714 -11.973  0.00  0.00     0.062 H 
ATOM     24  C   LIG d   1       3.445   2.175  -8.670  0.00  0.00    -0.053 A 
ATOM     25  H   LIG d   1       3.887   3.499 -10.282  0.00  0.00     0.062 H 
ATOM     26  H   LIG d   1       3.426   2.960  -7.929  0.00  0.00     0.062 H 
ENDBRANCH   1  16
BRANCH   8  27
ATOM     27  O   LIG d   1       8.994  -2.300  -4.249  0.00  0.00    -0.420 OA
BRANCH  27  28
ATOM     28  C   LIG d   1       9.289  -3.568  -4.601  0.00  0.00     0.380 C 
ATOM     29  O   LIG d   1       9.415  -3.860  -5.774  0.00  0.00    -0.241 OA
BRANCH  28  30
ATOM     30  C   LIG d   1       9.455  -4.594  -3.569  0.00  0.00     0.212 A 
ATOM     31  O   LIG d   1       9.414  -5.930  -3.764  0.00  0.00    -0.456 OA
ATOM     32  C   LIG d   1       9.608  -6.555  -2.596  0.00  0.00     0.093 A 
ATOM     33  C   LIG d   1       9.769  -5.627  -1.627  0.00  0.00    -0.023 A 
ATOM     34  H   LIG d   1       9.629  -7.625  -2.451  0.00  0.00     0.103 H 
ATOM     35  C   LIG d   1       9.673  -4.368  -2.239  0.00  0.00    -0.009 A 
ATOM     36  H   LIG d   1       9.940  -5.818  -0.577  0.00  0.00     0.065 H 
ATOM     37  H   LIG d   1       9.756  -3.407  -1.754  0.00  0.00     0.066 H 
ENDBRANCH  28  30
ENDBRANCH  27  28
ENDBRANCH   8  27
TORSDOF 4
ENDMDL
MODEL 8
REMARK VINA RESULT:      -6.8      4.720      7.268
REMARK  4 active torsions:
REMARK  status: ('A' for Active; 'I' for Inactive)
REMARK    1  A    between atoms: C_5  and  C_7 
REMARK    2  A    between atoms: C_14  and  O_18 
REMARK    3  A    between atoms: O_18  and  C_19 
REMARK    4  A    between atoms: C_19  and  C_21 
ROOT
ATOM      1  C   LIG d   1      10.340   3.185  -5.120  0.00  0.00    -0.007 C 
ATOM      2  C   LIG d   1       9.603   2.074  -4.871  0.00  0.00     0.176 A 
ATOM      3  C   LIG d   1       9.826   0.736  -5.442  0.00  0.00     0.232 A 
ATOM      4  O   LIG d   1      10.694   0.394  -6.225  0.00  0.00    -0.283 OA
ATOM      5  C   LIG d   1       8.761  -0.098  -4.855  0.00  0.00     0.068 A 
ATOM      6  C   LIG d   1       8.422  -1.445  -4.988  0.00  0.00    -0.044 A 
ATOM      7  C   LIG d   1       7.354  -1.949  -4.300  0.00  0.00    -0.018 A 
ATOM      8  C   LIG d   1       6.605  -1.123  -3.467  0.00  0.00     0.136 A 
ATOM      9  C   LIG d   1       6.931   0.216  -3.326  0.00  0.00     0.024 A 
ATOM     10  C   LIG d   1       8.013   0.745  -4.018  0.00  0.00     0.143 A 
ATOM     11  O   LIG d   1       8.528   1.994  -4.052  0.00  0.00    -0.451 OA
ATOM     12  H   LIG d   1      11.108   3.165  -5.878  0.00  0.00     0.066 H 
ATOM     13  H   LIG d   1       9.002  -2.088  -5.633  0.00  0.00     0.063 H 
ATOM     14  H   LIG d   1       7.091  -2.992  -4.402  0.00  0.00     0.065 H 
ATOM     15  H   LIG d   1       6.343   0.849  -2.678  0.00  0.00     0.069 H 
ENDROOT
BRANCH   1  16
ATOM     16  C   LIG d   1      10.093   4.416  -4.357  0.00  0.00    -0.007 A 
ATOM     17  C   LIG d   1       9.854   5.623  -5.026  0.00  0.00     0.025 A 
ATOM     18  C   LIG d   1       9.618   6.773  -4.302  0.00  0.00    -0.047 A 
ATOM     19 BR   LIG d   1       9.847   5.674  -6.917  0.00  0.00    -0.050 Br
ATOM     20  C   LIG d   1       9.628   6.739  -2.918  0.00  0.00    -0.061 A 
ATOM     21  H   LIG d   1       9.429   7.705  -4.816  0.00  0.00     0.063 H 
ATOM     22  C   LIG d   1       9.869   5.551  -2.250  0.00  0.00    -0.061 A 
ATOM     23  H   LIG d   1       9.447   7.643  -2.358  0.00  0.00     0.062 H 
ATOM     24  C   LIG d   1      10.101   4.391  -2.957  0.00  0.00    -0.053 A 
ATOM     25  H   LIG d   1       9.875   5.533  -1.170  0.00  0.00     0.062 H 
ATOM     26  H   LIG d   1      10.289   3.466  -2.433  0.00  0.00     0.062 H 
ENDBRANCH   1  16
BRANCH   8  27
ATOM     27  O   LIG d   1       5.547  -1.634  -2.787  0.00  0.00    -0.420 OA
BRANCH  27  28
ATOM     28  C   LIG d   1       4.467  -2.023  -3.496  0.00  0.00     0.380 C 
ATOM     29  O   LIG d   1       4.122  -3.189  -3.485  0.00  0.00    -0.241 OA
BRANCH  28  30
ATOM     30  C   LIG d   1       3.712  -1.043  -4.279  0.00  0.00     0.212 A 
ATOM     31  O   LIG d   1       3.892  -0.765  -5.588  0.00  0.00    -0.456 OA
ATOM     32  C   LIG d   1       3.022   0.181  -5.964  0.00  0.00     0.093 A 
ATOM     33  C   LIG d   1       2.273   0.533  -4.896  0.00  0.00    -0.023 A 
ATOM     34  H   LIG d   1       2.936   0.597  -6.958  0.00  0.00     0.103 H 
ATOM     35  C   LIG d   1       2.707  -0.244  -3.812  0.00  0.00    -0.009 A 
ATOM     36  H   LIG d   1       1.488   1.275  -4.879  0.00  0.00     0.065 H 
ATOM     37  H   LIG d   1       2.321  -0.217  -2.804  0.00  0.00     0.066 H 
ENDBRANCH  28  30
ENDBRANCH  27  28
ENDBRANCH   8  27
TORSDOF 4
ENDMDL
MODEL 9
REMARK VINA RESULT:      -6.8      3.196      7.704
REMARK  4 active torsions:
REMARK  status: ('A' for Active; 'I' for Inactive)
REMARK    1  A    between atoms: C_5  and  C_7 
REMARK    2  A    between atoms: C_14  and  O_18 
REMARK    3  A    between atoms: O_18  and  C_19 
REMARK    4  A    between atoms: C_19  and  C_21 
ROOT
ATOM      1  C   LIG d   1       1.769  -3.766 -11.476  0.00  0.00    -0.007 C 
ATOM      2  C   LIG d   1       2.088  -2.748 -10.637  0.00  0.00     0.176 A 
ATOM      3  C   LIG d   1       1.863  -1.315 -10.884  0.00  0.00     0.232 A 
ATOM      4  O   LIG d   1       1.360  -0.797 -11.866  0.00  0.00    -0.283 OA
ATOM      5  C   LIG d   1       2.383  -0.646  -9.677  0.00  0.00     0.068 A 
ATOM      6  C   LIG d   1       2.465   0.692  -9.288  0.00  0.00    -0.044 A 
ATOM      7  C   LIG d   1       3.012   1.016  -8.079  0.00  0.00    -0.018 A 
ATOM      8  C   LIG d   1       3.486   0.016  -7.234  0.00  0.00     0.136 A 
ATOM      9  C   LIG d   1       3.411  -1.316  -7.608  0.00  0.00     0.024 A 
ATOM     10  C   LIG d   1       2.858  -1.663  -8.834  0.00  0.00     0.143 A 
ATOM     11  O   LIG d   1       2.672  -2.866  -9.421  0.00  0.00    -0.451 OA
ATOM     12  H   LIG d   1       1.411  -3.553 -12.471  0.00  0.00     0.066 H 
ATOM     13  H   LIG d   1       2.097   1.469  -9.941  0.00  0.00     0.063 H 
ATOM     14  H   LIG d   1       3.076   2.051  -7.777  0.00  0.00     0.065 H 
ATOM     15  H   LIG d   1       3.783  -2.084  -6.946  0.00  0.00     0.069 H 
ENDROOT
BRANCH   1  16
ATOM     16  C   LIG d   1       1.912  -5.158 -11.027  0.00  0.00    -0.007 A 
ATOM     17  C   LIG d   1       0.799  -5.863 -10.555  0.00  0.00     0.025 A 
ATOM     18  C   LIG d   1       0.940  -7.171 -10.141  0.00  0.00    -0.047 A 
ATOM     19 BR   LIG d   1      -0.897  -5.027 -10.491  0.00  0.00    -0.050 Br
ATOM     20  C   LIG d   1       2.181  -7.783 -10.181  0.00  0.00    -0.061 A 
ATOM     21  H   LIG d   1       0.082  -7.719  -9.780  0.00  0.00     0.063 H 
ATOM     22  C   LIG d   1       3.288  -7.091 -10.642  0.00  0.00    -0.061 A 
ATOM     23  H   LIG d   1       2.286  -8.806  -9.852  0.00  0.00     0.062 H 
ATOM     24  C   LIG d   1       3.163  -5.785 -11.065  0.00  0.00    -0.053 A 
ATOM     25  H   LIG d   1       4.253  -7.576 -10.670  0.00  0.00     0.062 H 
ATOM     26  H   LIG d   1       4.028  -5.248 -11.424  0.00  0.00     0.062 H 
ENDBRANCH   1  16
BRANCH   8  27
ATOM     27  O   LIG d   1       4.027   0.349  -6.035  0.00  0.00    -0.420 OA
BRANCH  27  28
ATOM     28  C   LIG d   1       3.241   0.271  -4.941  0.00  0.00     0.380 C 
ATOM     29  O   LIG d   1       2.214   0.920  -4.883  0.00  0.00    -0.241 OA
BRANCH  28  30
ATOM     30  C   LIG d   1       3.623  -0.596  -3.825  0.00  0.00     0.212 A 
ATOM     31  O   LIG d   1       3.572  -1.945  -3.813  0.00  0.00    -0.456 OA
ATOM     32  C   LIG d   1       4.000  -2.396  -2.627  0.00  0.00     0.093 A 
ATOM     33  C   LIG d   1       4.327  -1.339  -1.852  0.00  0.00    -0.023 A 
ATOM     34  H   LIG d   1       4.070  -3.434  -2.337  0.00  0.00     0.103 H 
ATOM     35  C   LIG d   1       4.089  -0.181  -2.609  0.00  0.00    -0.009 A 
ATOM     36  H   LIG d   1       4.701  -1.376  -0.840  0.00  0.00     0.065 H 
ATOM     37  H   LIG d   1       4.245   0.840  -2.293  0.00  0.00     0.066 H 
ENDBRANCH  28  30
ENDBRANCH  27  28
ENDBRANCH   8  27
TORSDOF 4
ENDMDL
