MODEL 1
REMARK VINA RESULT:      -7.5      0.000      0.000
REMARK  5 active torsions:
REMARK  status: ('A' for Active; 'I' for Inactive)
REMARK    1  A    between atoms: C_1  and  O_2 
REMARK    2  A    between atoms: O_2  and  C_3 
REMARK    3  A    between atoms: C_7  and  C_9 
REMARK    4  A    between atoms: C_9  and  N_10 
REMARK    5  A    between atoms: C_20  and  C_21 
ROOT
ATOM      1  N   LIG d   1       5.420  -4.123  -5.389  0.00  0.00    -0.262 N 
ATOM      2  C   LIG d   1       5.166  -3.337  -6.605  0.00  0.00     0.034 C 
ATOM      3  C   LIG d   1       4.356  -4.158  -7.576  0.00  0.00     0.051 A 
ATOM      4  C   LIG d   1       4.264  -5.533  -7.440  0.00  0.00     0.130 A 
ATOM      5  C   LIG d   1       3.517  -6.282  -8.349  0.00  0.00    -0.019 A 
ATOM      6  C   LIG d   1       2.867  -5.667  -9.381  0.00  0.00    -0.044 A 
ATOM      7  C   LIG d   1       2.949  -4.282  -9.526  0.00  0.00     0.068 A 
ATOM      8  C   LIG d   1       3.698  -3.516  -8.619  0.00  0.00     0.147 A 
ATOM      9  O   LIG d   1       3.632  -2.210  -8.960  0.00  0.00    -0.451 OA
ATOM     10  C   LIG d   1       2.872  -2.015 -10.062  0.00  0.00     0.176 A 
ATOM     11  C   LIG d   1       2.610  -0.826 -10.655  0.00  0.00    -0.008 C 
ATOM     12  C   LIG d   1       2.382  -3.335 -10.502  0.00  0.00     0.232 A 
ATOM     13  O   LIG d   1       1.668  -3.586 -11.457  0.00  0.00    -0.283 OA
ATOM     14  O   LIG d   1       4.898  -6.175  -6.424  0.00  0.00    -0.476 OA
ATOM     15  C   LIG d   1       5.930  -5.458  -5.744  0.00  0.00     0.144 C 
ATOM     16  H   LIG d   1       4.610  -2.425  -6.343  0.00  0.00     0.048 H 
ATOM     17  H   LIG d   1       6.124  -3.061  -7.069  0.00  0.00     0.048 H 
ATOM     18  H   LIG d   1       3.452  -7.355  -8.237  0.00  0.00     0.065 H 
ATOM     19  H   LIG d   1       2.289  -6.252 -10.082  0.00  0.00     0.063 H 
ATOM     20  H   LIG d   1       2.049  -0.794 -11.600  0.00  0.00     0.066 H 
ATOM     21  H   LIG d   1       6.807  -5.352  -6.400  0.00  0.00     0.087 H 
ATOM     22  H   LIG d   1       6.219  -5.995  -4.829  0.00  0.00     0.087 H 
ENDROOT
BRANCH   1  23
ATOM     23  C   LIG d   1       6.353  -3.423  -4.495  0.00  0.00     0.028 C 
ATOM     24  H   LIG d   1       7.148  -2.953  -5.092  0.00  0.00     0.048 H 
ATOM     25  H   LIG d   1       6.798  -4.143  -3.792  0.00  0.00     0.048 H 
BRANCH  23  26
ATOM     26  C   LIG d   1       5.609  -2.363  -3.724  0.00  0.00    -0.030 A 
ATOM     27  C   LIG d   1       4.379  -2.650  -3.163  0.00  0.00    -0.057 A 
ATOM     28  C   LIG d   1       3.697  -1.680  -2.452  0.00  0.00    -0.058 A 
ATOM     29  H   LIG d   1       3.951  -3.636  -3.279  0.00  0.00     0.062 H 
ATOM     30  C   LIG d   1       4.239  -0.418  -2.308  0.00  0.00    -0.020 A 
ATOM     31  H   LIG d   1       2.738  -1.909  -2.011  0.00  0.00     0.062 H 
ATOM     32  C   LIG d   1       5.472  -0.125  -2.874  0.00  0.00     0.120 A 
ATOM     33  H   LIG d   1       3.704   0.341  -1.757  0.00  0.00     0.065 H 
ATOM     34  C   LIG d   1       6.156  -1.102  -3.583  0.00  0.00    -0.015 A 
ATOM     35  H   LIG d   1       7.116  -0.876  -4.025  0.00  0.00     0.066 H 
BRANCH  32  36
ATOM     36  O   LIG d   1       6.008   1.116  -2.735  0.00  0.00    -0.495 OA
BRANCH  36  37
ATOM     37  C   LIG d   1       7.086   1.458  -3.609  0.00  0.00     0.079 C 
ATOM     38  H   LIG d   1       7.381   0.572  -4.190  0.00  0.00     0.066 H 
ATOM     39  H   LIG d   1       7.942   1.808  -3.015  0.00  0.00     0.066 H 
ATOM     40  H   LIG d   1       6.764   2.256  -4.295  0.00  0.00     0.066 H 
ENDBRANCH  36  37
ENDBRANCH  32  36
ENDBRANCH  23  26
ENDBRANCH   1  23
BRANCH  11  41
ATOM     41  C   LIG d   1       3.078   0.424 -10.033  0.00  0.00    -0.019 A 
ATOM     42  C   LIG d   1       4.274   1.029 -10.444  0.00  0.00    -0.036 A 
ATOM     43  C   LIG d   1       4.674   2.200  -9.834  0.00  0.00     0.028 A 
ATOM     44  H   LIG d   1       4.873   0.586 -11.227  0.00  0.00     0.064 H 
ATOM     45  N   LIG d   1       3.949   2.748  -8.879  0.00  0.00    -0.263 NA
ATOM     46  H   LIG d   1       5.593   2.674 -10.144  0.00  0.00     0.083 H 
ATOM     47  C   LIG d   1       2.818   2.214  -8.461  0.00  0.00     0.028 A 
ATOM     48  C   LIG d   1       2.338   1.046  -9.018  0.00  0.00    -0.036 A 
ATOM     49  H   LIG d   1       2.258   2.698  -7.676  0.00  0.00     0.083 H 
ATOM     50  H   LIG d   1       1.408   0.616  -8.674  0.00  0.00     0.064 H 
ENDBRANCH  11  41
TORSDOF 5
ENDMDL
MODEL 2
REMARK VINA RESULT:      -7.0      4.982      8.953
REMARK  5 active torsions:
REMARK  status: ('A' for Active; 'I' for Inactive)
REMARK    1  A    between atoms: C_1  and  O_2 
REMARK    2  A    between atoms: O_2  and  C_3 
REMARK    3  A    between atoms: C_7  and  C_9 
REMARK    4  A    between atoms: C_9  and  N_10 
REMARK    5  A    between atoms: C_20  and  C_21 
ROOT
ATOM      1  N   LIG d   1       7.156   0.784  -4.375  0.00  0.00    -0.262 N 
ATOM      2  C   LIG d   1       8.206   1.793  -4.166  0.00  0.00     0.034 C 
ATOM      3  C   LIG d   1       8.630   2.361  -5.497  0.00  0.00     0.051 A 
ATOM      4  C   LIG d   1       8.332   1.703  -6.679  0.00  0.00     0.130 A 
ATOM      5  C   LIG d   1       8.737   2.236  -7.903  0.00  0.00    -0.019 A 
ATOM      6  C   LIG d   1       9.429   3.412  -7.948  0.00  0.00    -0.044 A 
ATOM      7  C   LIG d   1       9.733   4.086  -6.765  0.00  0.00     0.068 A 
ATOM      8  C   LIG d   1       9.332   3.560  -5.526  0.00  0.00     0.147 A 
ATOM      9  O   LIG d   1       9.736   4.380  -4.530  0.00  0.00    -0.451 OA
ATOM     10  C   LIG d   1      10.401   5.459  -5.004  0.00  0.00     0.176 A 
ATOM     11  C   LIG d   1      10.932   6.462  -4.265  0.00  0.00    -0.008 C 
ATOM     12  C   LIG d   1      10.445   5.343  -6.474  0.00  0.00     0.232 A 
ATOM     13  O   LIG d   1      10.955   6.113  -7.269  0.00  0.00    -0.283 OA
ATOM     14  O   LIG d   1       7.644   0.532  -6.667  0.00  0.00    -0.476 OA
ATOM     15  C   LIG d   1       7.567  -0.166  -5.422  0.00  0.00     0.144 C 
ATOM     16  H   LIG d   1       7.816   2.601  -3.530  0.00  0.00     0.048 H 
ATOM     17  H   LIG d   1       9.071   1.324  -3.676  0.00  0.00     0.048 H 
ATOM     18  H   LIG d   1       8.502   1.715  -8.819  0.00  0.00     0.065 H 
ATOM     19  H   LIG d   1       9.740   3.821  -8.899  0.00  0.00     0.063 H 
ATOM     20  H   LIG d   1      11.528   7.248  -4.750  0.00  0.00     0.066 H 
ATOM     21  H   LIG d   1       8.550  -0.589  -5.169  0.00  0.00     0.087 H 
ATOM     22  H   LIG d   1       6.826  -0.976  -5.492  0.00  0.00     0.087 H 
ENDROOT
BRANCH   1  23
ATOM     23  C   LIG d   1       6.843   0.084  -3.122  0.00  0.00     0.028 C 
ATOM     24  H   LIG d   1       7.006   0.764  -2.272  0.00  0.00     0.048 H 
ATOM     25  H   LIG d   1       7.496  -0.795  -3.019  0.00  0.00     0.048 H 
BRANCH  23  26
ATOM     26  C   LIG d   1       5.403  -0.359  -3.141  0.00  0.00    -0.030 A 
ATOM     27  C   LIG d   1       4.986  -1.390  -2.321  0.00  0.00    -0.057 A 
ATOM     28  C   LIG d   1       3.664  -1.796  -2.333  0.00  0.00    -0.058 A 
ATOM     29  H   LIG d   1       5.694  -1.878  -1.666  0.00  0.00     0.062 H 
ATOM     30  C   LIG d   1       2.758  -1.178  -3.172  0.00  0.00    -0.020 A 
ATOM     31  H   LIG d   1       3.341  -2.600  -1.688  0.00  0.00     0.062 H 
ATOM     32  C   LIG d   1       3.175  -0.145  -4.001  0.00  0.00     0.120 A 
ATOM     33  H   LIG d   1       1.727  -1.498  -3.186  0.00  0.00     0.065 H 
ATOM     34  C   LIG d   1       4.501   0.263  -3.983  0.00  0.00    -0.015 A 
ATOM     35  H   LIG d   1       4.827   1.067  -4.627  0.00  0.00     0.066 H 
BRANCH  32  36
ATOM     36  O   LIG d   1       2.286   0.466  -4.828  0.00  0.00    -0.495 OA
BRANCH  36  37
ATOM     37  C   LIG d   1       2.595   0.466  -6.224  0.00  0.00     0.079 C 
ATOM     38  H   LIG d   1       3.298  -0.351  -6.443  0.00  0.00     0.066 H 
ATOM     39  H   LIG d   1       3.053   1.427  -6.498  0.00  0.00     0.066 H 
ATOM     40  H   LIG d   1       1.672   0.321  -6.804  0.00  0.00     0.066 H 
ENDBRANCH  36  37
ENDBRANCH  32  36
ENDBRANCH  23  26
ENDBRANCH   1  23
BRANCH  11  41
ATOM     41  C   LIG d   1      10.709   6.499  -2.810  0.00  0.00    -0.019 A 
ATOM     42  C   LIG d   1      11.443   5.672  -1.947  0.00  0.00    -0.036 A 
ATOM     43  C   LIG d   1      11.202   5.741  -0.591  0.00  0.00     0.028 A 
ATOM     44  H   LIG d   1      12.186   4.993  -2.339  0.00  0.00     0.064 H 
ATOM     45  N   LIG d   1      10.297   6.567  -0.104  0.00  0.00    -0.263 NA
ATOM     46  H   LIG d   1      11.762   5.109   0.082  0.00  0.00     0.083 H 
ATOM     47  C   LIG d   1       9.584   7.363  -0.878  0.00  0.00     0.028 A 
ATOM     48  C   LIG d   1       9.762   7.366  -2.246  0.00  0.00    -0.036 A 
ATOM     49  H   LIG d   1       8.854   8.023  -0.435  0.00  0.00     0.083 H 
ATOM     50  H   LIG d   1       9.178   8.023  -2.874  0.00  0.00     0.064 H 
ENDBRANCH  11  41
TORSDOF 5
ENDMDL
MODEL 3
REMARK VINA RESULT:      -6.9      1.154      2.087
REMARK  5 active torsions:
REMARK  status: ('A' for Active; 'I' for Inactive)
REMARK    1  A    between atoms: C_1  and  O_2 
REMARK    2  A    between atoms: O_2  and  C_3 
REMARK    3  A    between atoms: C_7  and  C_9 
REMARK    4  A    between atoms: C_9  and  N_10 
REMARK    5  A    between atoms: C_20  and  C_21 
ROOT
ATOM      1  N   LIG d   1       6.776  -3.472  -4.901  0.00  0.00    -0.262 N 
ATOM      2  C   LIG d   1       6.196  -2.927  -6.137  0.00  0.00     0.034 C 
ATOM      3  C   LIG d   1       5.365  -3.988  -6.814  0.00  0.00     0.051 A 
ATOM      4  C   LIG d   1       5.512  -5.325  -6.483  0.00  0.00     0.130 A 
ATOM      5  C   LIG d   1       4.743  -6.297  -7.122  0.00  0.00    -0.019 A 
ATOM      6  C   LIG d   1       3.836  -5.941  -8.078  0.00  0.00    -0.044 A 
ATOM      7  C   LIG d   1       3.676  -4.597  -8.419  0.00  0.00     0.068 A 
ATOM      8  C   LIG d   1       4.445  -3.608  -7.784  0.00  0.00     0.147 A 
ATOM      9  O   LIG d   1       4.118  -2.392  -8.274  0.00  0.00    -0.451 OA
ATOM     10  C   LIG d   1       3.157  -2.472  -9.223  0.00  0.00     0.176 A 
ATOM     11  C   LIG d   1       2.615  -1.434  -9.905  0.00  0.00    -0.008 C 
ATOM     12  C   LIG d   1       2.808  -3.896  -9.381  0.00  0.00     0.232 A 
ATOM     13  O   LIG d   1       1.986  -4.384 -10.136  0.00  0.00    -0.283 OA
ATOM     14  O   LIG d   1       6.405  -5.711  -5.535  0.00  0.00    -0.476 OA
ATOM     15  C   LIG d   1       7.416  -4.770  -5.171  0.00  0.00     0.144 C 
ATOM     16  H   LIG d   1       5.559  -2.064  -5.894  0.00  0.00     0.048 H 
ATOM     17  H   LIG d   1       7.004  -2.609  -6.811  0.00  0.00     0.048 H 
ATOM     18  H   LIG d   1       4.865  -7.338  -6.859  0.00  0.00     0.065 H 
ATOM     19  H   LIG d   1       3.241  -6.698  -8.570  0.00  0.00     0.063 H 
ATOM     20  H   LIG d   1       1.900  -1.624 -10.717  0.00  0.00     0.066 H 
ATOM     21  H   LIG d   1       8.139  -4.659  -5.993  0.00  0.00     0.087 H 
ATOM     22  H   LIG d   1       7.941  -5.114  -4.266  0.00  0.00     0.087 H 
ENDROOT
BRANCH   1  23
ATOM     23  C   LIG d   1       7.731  -2.526  -4.307  0.00  0.00     0.028 C 
ATOM     24  H   LIG d   1       8.469  -2.226  -5.065  0.00  0.00     0.048 H 
ATOM     25  H   LIG d   1       8.248  -3.008  -3.463  0.00  0.00     0.048 H 
BRANCH  23  26
ATOM     26  C   LIG d   1       6.992  -1.309  -3.815  0.00  0.00    -0.030 A 
ATOM     27  C   LIG d   1       7.524  -0.050  -4.014  0.00  0.00    -0.057 A 
ATOM     28  C   LIG d   1       6.845   1.070  -3.567  0.00  0.00    -0.058 A 
ATOM     29  H   LIG d   1       8.472   0.061  -4.522  0.00  0.00     0.062 H 
ATOM     30  C   LIG d   1       5.638   0.931  -2.912  0.00  0.00    -0.020 A 
ATOM     31  H   LIG d   1       7.262   2.053  -3.727  0.00  0.00     0.062 H 
ATOM     32  C   LIG d   1       5.103  -0.333  -2.707  0.00  0.00     0.120 A 
ATOM     33  H   LIG d   1       5.110   1.804  -2.559  0.00  0.00     0.065 H 
ATOM     34  C   LIG d   1       5.783  -1.454  -3.160  0.00  0.00    -0.015 A 
ATOM     35  H   LIG d   1       5.368  -2.439  -3.001  0.00  0.00     0.066 H 
BRANCH  32  36
ATOM     36  O   LIG d   1       3.914  -0.474  -2.062  0.00  0.00    -0.495 OA
BRANCH  36  37
ATOM     37  C   LIG d   1       2.756  -0.675  -2.876  0.00  0.00     0.079 C 
ATOM     38  H   LIG d   1       1.919  -1.009  -2.245  0.00  0.00     0.066 H 
ATOM     39  H   LIG d   1       2.971  -1.440  -3.636  0.00  0.00     0.066 H 
ATOM     40  H   LIG d   1       2.487   0.269  -3.372  0.00  0.00     0.066 H 
ENDBRANCH  36  37
ENDBRANCH  32  36
ENDBRANCH  23  26
ENDBRANCH   1  23
BRANCH  11  41
ATOM     41  C   LIG d   1       2.985  -0.053  -9.556  0.00  0.00    -0.019 A 
ATOM     42  C   LIG d   1       2.576   0.518  -8.342  0.00  0.00    -0.036 A 
ATOM     43  C   LIG d   1       2.947   1.815  -8.056  0.00  0.00     0.028 A 
ATOM     44  H   LIG d   1       1.981  -0.050  -7.641  0.00  0.00     0.064 H 
ATOM     45  N   LIG d   1       3.674   2.515  -8.904  0.00  0.00    -0.263 NA
ATOM     46  H   LIG d   1       2.638   2.264  -7.123  0.00  0.00     0.083 H 
ATOM     47  C   LIG d   1       4.080   2.019 -10.057  0.00  0.00     0.028 A 
ATOM     48  C   LIG d   1       3.761   0.728 -10.424  0.00  0.00    -0.036 A 
ATOM     49  H   LIG d   1       4.673   2.630 -10.720  0.00  0.00     0.083 H 
ATOM     50  H   LIG d   1       4.101   0.326 -11.367  0.00  0.00     0.064 H 
ENDBRANCH  11  41
TORSDOF 5
ENDMDL
MODEL 4
REMARK VINA RESULT:      -6.8      2.567      6.362
REMARK  5 active torsions:
REMARK  status: ('A' for Active; 'I' for Inactive)
REMARK    1  A    between atoms: C_1  and  O_2 
REMARK    2  A    between atoms: O_2  and  C_3 
REMARK    3  A    between atoms: C_7  and  C_9 
REMARK    4  A    between atoms: C_9  and  N_10 
REMARK    5  A    between atoms: C_20  and  C_21 
ROOT
ATOM      1  N   LIG d   1       4.786  -2.187  -9.651  0.00  0.00    -0.262 N 
ATOM      2  C   LIG d   1       4.780  -2.279  -8.183  0.00  0.00     0.034 C 
ATOM      3  C   LIG d   1       5.922  -3.152  -7.729  0.00  0.00     0.051 A 
ATOM      4  C   LIG d   1       6.560  -4.006  -8.613  0.00  0.00     0.130 A 
ATOM      5  C   LIG d   1       7.611  -4.814  -8.178  0.00  0.00    -0.019 A 
ATOM      6  C   LIG d   1       8.023  -4.769  -6.877  0.00  0.00    -0.044 A 
ATOM      7  C   LIG d   1       7.391  -3.910  -5.977  0.00  0.00     0.068 A 
ATOM      8  C   LIG d   1       6.332  -3.092  -6.401  0.00  0.00     0.147 A 
ATOM      9  O   LIG d   1       5.881  -2.353  -5.363  0.00  0.00    -0.451 OA
ATOM     10  C   LIG d   1       6.570  -2.608  -4.227  0.00  0.00     0.176 A 
ATOM     11  C   LIG d   1       6.364  -2.033  -3.018  0.00  0.00    -0.008 C 
ATOM     12  C   LIG d   1       7.588  -3.627  -4.544  0.00  0.00     0.232 A 
ATOM     13  O   LIG d   1       8.408  -4.123  -3.792  0.00  0.00    -0.283 OA
ATOM     14  O   LIG d   1       6.174  -4.073  -9.914  0.00  0.00    -0.476 OA
ATOM     15  C   LIG d   1       4.894  -3.531 -10.242  0.00  0.00     0.144 C 
ATOM     16  H   LIG d   1       4.895  -1.273  -7.753  0.00  0.00     0.048 H 
ATOM     17  H   LIG d   1       3.829  -2.716  -7.847  0.00  0.00     0.048 H 
ATOM     18  H   LIG d   1       8.101  -5.479  -8.874  0.00  0.00     0.065 H 
ATOM     19  H   LIG d   1       8.838  -5.396  -6.545  0.00  0.00     0.063 H 
ATOM     20  H   LIG d   1       6.927  -2.380  -2.141  0.00  0.00     0.066 H 
ATOM     21  H   LIG d   1       4.099  -4.175  -9.837  0.00  0.00     0.087 H 
ATOM     22  H   LIG d   1       4.786  -3.460 -11.335  0.00  0.00     0.087 H 
ENDROOT
BRANCH   1  23
ATOM     23  C   LIG d   1       3.587  -1.491 -10.139  0.00  0.00     0.028 C 
ATOM     24  H   LIG d   1       2.691  -1.955  -9.701  0.00  0.00     0.048 H 
ATOM     25  H   LIG d   1       3.541  -1.565 -11.235  0.00  0.00     0.048 H 
BRANCH  23  26
ATOM     26  C   LIG d   1       3.650  -0.041  -9.735  0.00  0.00    -0.030 A 
ATOM     27  C   LIG d   1       2.499   0.619  -9.347  0.00  0.00    -0.057 A 
ATOM     28  C   LIG d   1       2.554   1.949  -8.972  0.00  0.00    -0.058 A 
ATOM     29  H   LIG d   1       1.555   0.094  -9.336  0.00  0.00     0.062 H 
ATOM     30  C   LIG d   1       3.759   2.624  -8.992  0.00  0.00    -0.020 A 
ATOM     31  H   LIG d   1       1.654   2.461  -8.666  0.00  0.00     0.062 H 
ATOM     32  C   LIG d   1       4.916   1.965  -9.385  0.00  0.00     0.120 A 
ATOM     33  H   LIG d   1       3.802   3.664  -8.703  0.00  0.00     0.065 H 
ATOM     34  C   LIG d   1       4.858   0.630  -9.756  0.00  0.00    -0.015 A 
ATOM     35  H   LIG d   1       5.757   0.115 -10.063  0.00  0.00     0.066 H 
BRANCH  32  36
ATOM     36  O   LIG d   1       6.103   2.627  -9.406  0.00  0.00    -0.495 OA
BRANCH  36  37
ATOM     37  C   LIG d   1       7.215   1.981  -8.781  0.00  0.00     0.079 C 
ATOM     38  H   LIG d   1       7.113   2.052  -7.688  0.00  0.00     0.066 H 
ATOM     39  H   LIG d   1       8.147   2.472  -9.095  0.00  0.00     0.066 H 
ATOM     40  H   LIG d   1       7.240   0.922  -9.080  0.00  0.00     0.066 H 
ENDBRANCH  36  37
ENDBRANCH  32  36
ENDBRANCH  23  26
ENDBRANCH   1  23
BRANCH  11  41
ATOM     41  C   LIG d   1       5.382  -0.945  -2.881  0.00  0.00    -0.019 A 
ATOM     42  C   LIG d   1       4.014  -1.221  -2.739  0.00  0.00    -0.036 A 
ATOM     43  C   LIG d   1       3.131  -0.171  -2.612  0.00  0.00     0.028 A 
ATOM     44  H   LIG d   1       3.659  -2.242  -2.728  0.00  0.00     0.064 H 
ATOM     45  N   LIG d   1       3.555   1.078  -2.624  0.00  0.00    -0.263 NA
ATOM     46  H   LIG d   1       2.075  -0.373  -2.503  0.00  0.00     0.083 H 
ATOM     47  C   LIG d   1       4.831   1.384  -2.755  0.00  0.00     0.028 A 
ATOM     48  C   LIG d   1       5.787   0.397  -2.882  0.00  0.00    -0.036 A 
ATOM     49  H   LIG d   1       5.132   2.421  -2.759  0.00  0.00     0.083 H 
ATOM     50  H   LIG d   1       6.831   0.655  -2.984  0.00  0.00     0.064 H 
ENDBRANCH  11  41
TORSDOF 5
ENDMDL
MODEL 5
REMARK VINA RESULT:      -6.6      2.820      8.242
REMARK  5 active torsions:
REMARK  status: ('A' for Active; 'I' for Inactive)
REMARK    1  A    between atoms: C_1  and  O_2 
REMARK    2  A    between atoms: O_2  and  C_3 
REMARK    3  A    between atoms: C_7  and  C_9 
REMARK    4  A    between atoms: C_9  and  N_10 
REMARK    5  A    between atoms: C_20  and  C_21 
ROOT
ATOM      1  N   LIG d   1       7.027   0.769  -9.781  0.00  0.00    -0.262 N 
ATOM      2  C   LIG d   1       7.026   0.419  -8.353  0.00  0.00     0.034 C 
ATOM      3  C   LIG d   1       7.956   1.343  -7.608  0.00  0.00     0.051 A 
ATOM      4  C   LIG d   1       8.911   2.086  -8.282  0.00  0.00     0.130 A 
ATOM      5  C   LIG d   1       9.770   2.932  -7.580  0.00  0.00    -0.019 A 
ATOM      6  C   LIG d   1       9.677   3.037  -6.222  0.00  0.00    -0.044 A 
ATOM      7  C   LIG d   1       8.718   2.297  -5.532  0.00  0.00     0.068 A 
ATOM      8  C   LIG d   1       7.847   1.441  -6.225  0.00  0.00     0.147 A 
ATOM      9  O   LIG d   1       7.012   0.834  -5.353  0.00  0.00    -0.451 OA
ATOM     10  C   LIG d   1       7.249   1.218  -4.078  0.00  0.00     0.176 A 
ATOM     11  C   LIG d   1       6.586   0.793  -2.976  0.00  0.00    -0.008 C 
ATOM     12  C   LIG d   1       8.363   2.185  -4.106  0.00  0.00     0.232 A 
ATOM     13  O   LIG d   1       8.874   2.762  -3.163  0.00  0.00    -0.283 OA
ATOM     14  O   LIG d   1       9.028   2.004  -9.634  0.00  0.00    -0.476 OA
ATOM     15  C   LIG d   1       8.409   0.887 -10.274  0.00  0.00     0.144 C 
ATOM     16  H   LIG d   1       6.008   0.522  -7.950  0.00  0.00     0.048 H 
ATOM     17  H   LIG d   1       7.366  -0.619  -8.230  0.00  0.00     0.048 H 
ATOM     18  H   LIG d   1      10.513   3.506  -8.114  0.00  0.00     0.065 H 
ATOM     19  H   LIG d   1      10.345   3.695  -5.683  0.00  0.00     0.063 H 
ATOM     20  H   LIG d   1       6.921   1.107  -1.977  0.00  0.00     0.066 H 
ATOM     21  H   LIG d   1       8.962  -0.034 -10.038  0.00  0.00     0.087 H 
ATOM     22  H   LIG d   1       8.397   1.039 -11.364  0.00  0.00     0.087 H 
ENDROOT
BRANCH   1  23
ATOM     23  C   LIG d   1       6.270  -0.218 -10.564  0.00  0.00     0.028 C 
ATOM     24  H   LIG d   1       6.645  -1.228 -10.340  0.00  0.00     0.048 H 
ATOM     25  H   LIG d   1       6.395  -0.009 -11.637  0.00  0.00     0.048 H 
BRANCH  23  26
ATOM     26  C   LIG d   1       4.809  -0.133 -10.203  0.00  0.00    -0.030 A 
ATOM     27  C   LIG d   1       4.192   1.099 -10.107  0.00  0.00    -0.057 A 
ATOM     28  C   LIG d   1       2.850   1.180  -9.780  0.00  0.00    -0.058 A 
ATOM     29  H   LIG d   1       4.758   2.002 -10.291  0.00  0.00     0.062 H 
ATOM     30  C   LIG d   1       2.127   0.029  -9.538  0.00  0.00    -0.020 A 
ATOM     31  H   LIG d   1       2.370   2.144  -9.710  0.00  0.00     0.062 H 
ATOM     32  C   LIG d   1       2.746  -1.210  -9.629  0.00  0.00     0.120 A 
ATOM     33  H   LIG d   1       1.081   0.092  -9.278  0.00  0.00     0.065 H 
ATOM     34  C   LIG d   1       4.090  -1.288  -9.962  0.00  0.00    -0.015 A 
ATOM     35  H   LIG d   1       4.574  -2.252 -10.034  0.00  0.00     0.066 H 
BRANCH  32  36
ATOM     36  O   LIG d   1       2.036  -2.345  -9.392  0.00  0.00    -0.495 OA
BRANCH  36  37
ATOM     37  C   LIG d   1       1.558  -3.060 -10.533  0.00  0.00     0.079 C 
ATOM     38  H   LIG d   1       1.225  -4.062 -10.225  0.00  0.00     0.066 H 
ATOM     39  H   LIG d   1       2.365  -3.153 -11.273  0.00  0.00     0.066 H 
ATOM     40  H   LIG d   1       0.713  -2.514 -10.980  0.00  0.00     0.066 H 
ENDBRANCH  36  37
ENDBRANCH  32  36
ENDBRANCH  23  26
ENDBRANCH   1  23
BRANCH  11  41
ATOM     41  C   LIG d   1       5.418  -0.091  -3.117  0.00  0.00    -0.019 A 
ATOM     42  C   LIG d   1       5.574  -1.482  -3.208  0.00  0.00    -0.036 A 
ATOM     43  C   LIG d   1       4.451  -2.273  -3.338  0.00  0.00     0.028 A 
ATOM     44  H   LIG d   1       6.557  -1.928  -3.174  0.00  0.00     0.064 H 
ATOM     45  N   LIG d   1       3.247  -1.738  -3.379  0.00  0.00    -0.263 NA
ATOM     46  H   LIG d   1       4.560  -3.345  -3.408  0.00  0.00     0.083 H 
ATOM     47  C   LIG d   1       3.053  -0.436  -3.298  0.00  0.00     0.028 A 
ATOM     48  C   LIG d   1       4.118   0.431  -3.159  0.00  0.00    -0.036 A 
ATOM     49  H   LIG d   1       2.049  -0.043  -3.336  0.00  0.00     0.083 H 
ATOM     50  H   LIG d   1       3.952   1.496  -3.089  0.00  0.00     0.064 H 
ENDBRANCH  11  41
TORSDOF 5
ENDMDL
MODEL 6
REMARK VINA RESULT:      -6.3      2.531      5.547
REMARK  5 active torsions:
REMARK  status: ('A' for Active; 'I' for Inactive)
REMARK    1  A    between atoms: C_1  and  O_2 
REMARK    2  A    between atoms: O_2  and  C_3 
REMARK    3  A    between atoms: C_7  and  C_9 
REMARK    4  A    between atoms: C_9  and  N_10 
REMARK    5  A    between atoms: C_20  and  C_21 
ROOT
ATOM      1  N   LIG d   1       3.021   0.246  -6.745  0.00  0.00    -0.262 N 
ATOM      2  C   LIG d   1       2.519  -0.590  -7.845  0.00  0.00     0.034 C 
ATOM      3  C   LIG d   1       3.010  -0.040  -9.160  0.00  0.00     0.051 A 
ATOM      4  C   LIG d   1       3.495   1.254  -9.254  0.00  0.00     0.130 A 
ATOM      5  C   LIG d   1       3.940   1.753 -10.477  0.00  0.00    -0.019 A 
ATOM      6  C   LIG d   1       3.904   0.971 -11.596  0.00  0.00    -0.044 A 
ATOM      7  C   LIG d   1       3.421  -0.335 -11.515  0.00  0.00     0.068 A 
ATOM      8  C   LIG d   1       2.969  -0.850 -10.289  0.00  0.00     0.147 A 
ATOM      9  O   LIG d   1       2.551  -2.125 -10.456  0.00  0.00    -0.451 OA
ATOM     10  C   LIG d   1       2.686  -2.536 -11.738  0.00  0.00     0.176 A 
ATOM     11  C   LIG d   1       2.358  -3.756 -12.227  0.00  0.00    -0.008 C 
ATOM     12  C   LIG d   1       3.254  -1.413 -12.507  0.00  0.00     0.232 A 
ATOM     13  O   LIG d   1       3.525  -1.382 -13.694  0.00  0.00    -0.283 OA
ATOM     14  O   LIG d   1       3.545   2.057  -8.158  0.00  0.00    -0.476 OA
ATOM     15  C   LIG d   1       2.762   1.667  -7.029  0.00  0.00     0.144 C 
ATOM     16  H   LIG d   1       2.884  -1.620  -7.720  0.00  0.00     0.048 H 
ATOM     17  H   LIG d   1       1.420  -0.587  -7.835  0.00  0.00     0.048 H 
ATOM     18  H   LIG d   1       4.314   2.765 -10.541  0.00  0.00     0.065 H 
ATOM     19  H   LIG d   1       4.251   1.362 -12.542  0.00  0.00     0.063 H 
ATOM     20  H   LIG d   1       2.429  -3.953 -13.306  0.00  0.00     0.066 H 
ATOM     21  H   LIG d   1       1.693   1.809  -7.247  0.00  0.00     0.087 H 
ATOM     22  H   LIG d   1       3.040   2.272  -6.153  0.00  0.00     0.087 H 
ENDROOT
BRANCH   1  23
ATOM     23  C   LIG d   1       2.421  -0.154  -5.465  0.00  0.00     0.028 C 
ATOM     24  H   LIG d   1       2.186  -1.229  -5.491  0.00  0.00     0.048 H 
ATOM     25  H   LIG d   1       1.497   0.419  -5.298  0.00  0.00     0.048 H 
BRANCH  23  26
ATOM     26  C   LIG d   1       3.393   0.121  -4.346  0.00  0.00    -0.030 A 
ATOM     27  C   LIG d   1       3.088   1.063  -3.382  0.00  0.00    -0.057 A 
ATOM     28  C   LIG d   1       3.977   1.314  -2.353  0.00  0.00    -0.058 A 
ATOM     29  H   LIG d   1       2.153   1.603  -3.432  0.00  0.00     0.062 H 
ATOM     30  C   LIG d   1       5.175   0.631  -2.291  0.00  0.00    -0.020 A 
ATOM     31  H   LIG d   1       3.734   2.049  -1.599  0.00  0.00     0.062 H 
ATOM     32  C   LIG d   1       5.485  -0.313  -3.260  0.00  0.00     0.120 A 
ATOM     33  H   LIG d   1       5.871   0.830  -1.489  0.00  0.00     0.065 H 
ATOM     34  C   LIG d   1       4.590  -0.566  -4.289  0.00  0.00    -0.015 A 
ATOM     35  H   LIG d   1       4.830  -1.301  -5.045  0.00  0.00     0.066 H 
BRANCH  32  36
ATOM     36  O   LIG d   1       6.664  -0.987  -3.202  0.00  0.00    -0.495 OA
BRANCH  36  37
ATOM     37  C   LIG d   1       6.755  -2.198  -3.957  0.00  0.00     0.079 C 
ATOM     38  H   LIG d   1       7.627  -2.777  -3.617  0.00  0.00     0.066 H 
ATOM     39  H   LIG d   1       6.869  -1.957  -5.023  0.00  0.00     0.066 H 
ATOM     40  H   LIG d   1       5.840  -2.791  -3.811  0.00  0.00     0.066 H 
ENDBRANCH  36  37
ENDBRANCH  32  36
ENDBRANCH  23  26
ENDBRANCH   1  23
BRANCH  11  41
ATOM     41  C   LIG d   1       1.906  -4.816 -11.312  0.00  0.00    -0.019 A 
ATOM     42  C   LIG d   1       0.545  -4.979 -11.015  0.00  0.00    -0.036 A 
ATOM     43  C   LIG d   1       0.165  -5.987 -10.153  0.00  0.00     0.028 A 
ATOM     44  H   LIG d   1      -0.195  -4.325 -11.454  0.00  0.00     0.064 H 
ATOM     45  N   LIG d   1       1.061  -6.789  -9.613  0.00  0.00    -0.263 NA
ATOM     46  H   LIG d   1      -0.880  -6.120  -9.918  0.00  0.00     0.083 H 
ATOM     47  C   LIG d   1       2.351  -6.673  -9.864  0.00  0.00     0.028 A 
ATOM     48  C   LIG d   1       2.821  -5.697 -10.719  0.00  0.00    -0.036 A 
ATOM     49  H   LIG d   1       3.048  -7.353  -9.398  0.00  0.00     0.083 H 
ATOM     50  H   LIG d   1       3.878  -5.610 -10.924  0.00  0.00     0.064 H 
ENDBRANCH  11  41
TORSDOF 5
ENDMDL
MODEL 7
REMARK VINA RESULT:      -6.3      5.391      8.542
REMARK  5 active torsions:
REMARK  status: ('A' for Active; 'I' for Inactive)
REMARK    1  A    between atoms: C_1  and  O_2 
REMARK    2  A    between atoms: O_2  and  C_3 
REMARK    3  A    between atoms: C_7  and  C_9 
REMARK    4  A    between atoms: C_9  and  N_10 
REMARK    5  A    between atoms: C_20  and  C_21 
ROOT
ATOM      1  N   LIG d   1      10.133   3.630  -4.648  0.00  0.00    -0.262 N 
ATOM      2  C   LIG d   1       9.051   2.640  -4.753  0.00  0.00     0.034 C 
ATOM      3  C   LIG d   1       9.628   1.302  -5.138  0.00  0.00     0.051 A 
ATOM      4  C   LIG d   1      10.899   1.204  -5.679  0.00  0.00     0.130 A 
ATOM      5  C   LIG d   1      11.419  -0.039  -6.038  0.00  0.00    -0.019 A 
ATOM      6  C   LIG d   1      10.680  -1.174  -5.858  0.00  0.00    -0.044 A 
ATOM      7  C   LIG d   1       9.399  -1.090  -5.311  0.00  0.00     0.068 A 
ATOM      8  C   LIG d   1       8.864   0.156  -4.946  0.00  0.00     0.147 A 
ATOM      9  O   LIG d   1       7.621  -0.011  -4.443  0.00  0.00    -0.451 OA
ATOM     10  C   LIG d   1       7.251  -1.313  -4.435  0.00  0.00     0.176 A 
ATOM     11  C   LIG d   1       6.069  -1.808  -3.995  0.00  0.00    -0.008 C 
ATOM     12  C   LIG d   1       8.370  -2.095  -4.992  0.00  0.00     0.232 A 
ATOM     13  O   LIG d   1       8.431  -3.301  -5.154  0.00  0.00    -0.283 OA
ATOM     14  O   LIG d   1      11.659   2.314  -5.870  0.00  0.00    -0.476 OA
ATOM     15  C   LIG d   1      10.988   3.575  -5.845  0.00  0.00     0.144 C 
ATOM     16  H   LIG d   1       8.539   2.553  -3.783  0.00  0.00     0.048 H 
ATOM     17  H   LIG d   1       8.332   2.963  -5.520  0.00  0.00     0.048 H 
ATOM     18  H   LIG d   1      12.410  -0.106  -6.462  0.00  0.00     0.065 H 
ATOM     19  H   LIG d   1      11.087  -2.135  -6.137  0.00  0.00     0.063 H 
ATOM     20  H   LIG d   1       5.842  -2.876  -4.115  0.00  0.00     0.066 H 
ATOM     21  H   LIG d   1      10.366   3.686  -6.746  0.00  0.00     0.087 H 
ATOM     22  H   LIG d   1      11.725   4.391  -5.806  0.00  0.00     0.087 H 
ENDROOT
BRANCH   1  23
ATOM     23  C   LIG d   1       9.592   4.981  -4.447  0.00  0.00     0.028 C 
ATOM     24  H   LIG d   1       8.498   4.958  -4.559  0.00  0.00     0.048 H 
ATOM     25  H   LIG d   1      10.023   5.664  -5.195  0.00  0.00     0.048 H 
BRANCH  23  26
ATOM     26  C   LIG d   1       9.946   5.463  -3.064  0.00  0.00    -0.030 A 
ATOM     27  C   LIG d   1      10.886   4.783  -2.314  0.00  0.00    -0.057 A 
ATOM     28  C   LIG d   1      11.215   5.226  -1.046  0.00  0.00    -0.058 A 
ATOM     29  H   LIG d   1      11.366   3.904  -2.721  0.00  0.00     0.062 H 
ATOM     30  C   LIG d   1      10.598   6.344  -0.522  0.00  0.00    -0.020 A 
ATOM     31  H   LIG d   1      11.953   4.693  -0.464  0.00  0.00     0.062 H 
ATOM     32  C   LIG d   1       9.650   7.027  -1.271  0.00  0.00     0.120 A 
ATOM     33  H   LIG d   1      10.852   6.687   0.470  0.00  0.00     0.065 H 
ATOM     34  C   LIG d   1       9.325   6.583  -2.544  0.00  0.00    -0.015 A 
ATOM     35  H   LIG d   1       8.587   7.114  -3.130  0.00  0.00     0.066 H 
BRANCH  32  36
ATOM     36  O   LIG d   1       9.040   8.129  -0.758  0.00  0.00    -0.495 OA
BRANCH  36  37
ATOM     37  C   LIG d   1       9.625   9.395  -1.068  0.00  0.00     0.079 C 
ATOM     38  H   LIG d   1      10.222   9.308  -1.988  0.00  0.00     0.066 H 
ATOM     39  H   LIG d   1      10.274   9.712  -0.239  0.00  0.00     0.066 H 
ATOM     40  H   LIG d   1       8.829  10.141  -1.216  0.00  0.00     0.066 H 
ENDBRANCH  36  37
ENDBRANCH  32  36
ENDBRANCH  23  26
ENDBRANCH   1  23
BRANCH  11  41
ATOM     41  C   LIG d   1       5.090  -0.913  -3.357  0.00  0.00    -0.019 A 
ATOM     42  C   LIG d   1       3.715  -1.075  -3.578  0.00  0.00    -0.036 A 
ATOM     43  C   LIG d   1       2.833  -0.214  -2.959  0.00  0.00     0.028 A 
ATOM     44  H   LIG d   1       3.352  -1.862  -4.223  0.00  0.00     0.064 H 
ATOM     45  N   LIG d   1       3.267   0.749  -2.170  0.00  0.00    -0.263 NA
ATOM     46  H   LIG d   1       1.772  -0.331  -3.123  0.00  0.00     0.083 H 
ATOM     47  C   LIG d   1       4.551   0.938  -1.933  0.00  0.00     0.028 A 
ATOM     48  C   LIG d   1       5.504   0.121  -2.506  0.00  0.00    -0.036 A 
ATOM     49  H   LIG d   1       4.860   1.740  -1.281  0.00  0.00     0.083 H 
ATOM     50  H   LIG d   1       6.554   0.279  -2.304  0.00  0.00     0.064 H 
ENDBRANCH  11  41
TORSDOF 5
ENDMDL
MODEL 8
REMARK VINA RESULT:      -6.3      3.017      8.312
REMARK  5 active torsions:
REMARK  status: ('A' for Active; 'I' for Inactive)
REMARK    1  A    between atoms: C_1  and  O_2 
REMARK    2  A    between atoms: O_2  and  C_3 
REMARK    3  A    between atoms: C_7  and  C_9 
REMARK    4  A    between atoms: C_9  and  N_10 
REMARK    5  A    between atoms: C_20  and  C_21 
ROOT
ATOM      1  N   LIG d   1       1.363  -3.192 -10.727  0.00  0.00    -0.262 N 
ATOM      2  C   LIG d   1       2.540  -3.221  -9.846  0.00  0.00     0.034 C 
ATOM      3  C   LIG d   1       2.713  -1.874  -9.191  0.00  0.00     0.051 A 
ATOM      4  C   LIG d   1       2.081  -0.751  -9.698  0.00  0.00     0.130 A 
ATOM      5  C   LIG d   1       2.254   0.491  -9.087  0.00  0.00    -0.019 A 
ATOM      6  C   LIG d   1       3.047   0.611  -7.981  0.00  0.00    -0.044 A 
ATOM      7  C   LIG d   1       3.686  -0.513  -7.459  0.00  0.00     0.068 A 
ATOM      8  C   LIG d   1       3.521  -1.769  -8.065  0.00  0.00     0.147 A 
ATOM      9  O   LIG d   1       4.231  -2.699  -7.389  0.00  0.00    -0.451 OA
ATOM     10  C   LIG d   1       4.890  -2.163  -6.336  0.00  0.00     0.176 A 
ATOM     11  C   LIG d   1       5.685  -2.829  -5.464  0.00  0.00    -0.008 C 
ATOM     12  C   LIG d   1       4.584  -0.721  -6.309  0.00  0.00     0.232 A 
ATOM     13  O   LIG d   1       4.984   0.113  -5.515  0.00  0.00    -0.283 OA
ATOM     14  O   LIG d   1       1.284  -0.838 -10.796  0.00  0.00    -0.476 OA
ATOM     15  C   LIG d   1       1.414  -2.010 -11.603  0.00  0.00     0.144 C 
ATOM     16  H   LIG d   1       2.400  -3.990  -9.072  0.00  0.00     0.048 H 
ATOM     17  H   LIG d   1       3.435  -3.457 -10.440  0.00  0.00     0.048 H 
ATOM     18  H   LIG d   1       1.759   1.362  -9.490  0.00  0.00     0.065 H 
ATOM     19  H   LIG d   1       3.177   1.575  -7.511  0.00  0.00     0.063 H 
ATOM     20  H   LIG d   1       6.240  -2.276  -4.694  0.00  0.00     0.066 H 
ATOM     21  H   LIG d   1       2.374  -1.992 -12.139  0.00  0.00     0.087 H 
ATOM     22  H   LIG d   1       0.589  -2.057 -12.330  0.00  0.00     0.087 H 
ENDROOT
BRANCH   1  23
ATOM     23  C   LIG d   1       1.265  -4.429 -11.515  0.00  0.00     0.028 C 
ATOM     24  H   LIG d   1       2.261  -4.889 -11.599  0.00  0.00     0.048 H 
ATOM     25  H   LIG d   1       0.884  -4.194 -12.520  0.00  0.00     0.048 H 
BRANCH  23  26
ATOM     26  C   LIG d   1       0.324  -5.387 -10.832  0.00  0.00    -0.030 A 
ATOM     27  C   LIG d   1       0.640  -6.730 -10.756  0.00  0.00    -0.057 A 
ATOM     28  C   LIG d   1      -0.219  -7.611 -10.125  0.00  0.00    -0.058 A 
ATOM     29  H   LIG d   1       1.562  -7.092 -11.189  0.00  0.00     0.062 H 
ATOM     30  C   LIG d   1      -1.401  -7.152  -9.577  0.00  0.00    -0.020 A 
ATOM     31  H   LIG d   1       0.032  -8.659 -10.065  0.00  0.00     0.062 H 
ATOM     32  C   LIG d   1      -1.723  -5.804  -9.656  0.00  0.00     0.120 A 
ATOM     33  H   LIG d   1      -2.074  -7.840  -9.089  0.00  0.00     0.065 H 
ATOM     34  C   LIG d   1      -0.856  -4.922 -10.285  0.00  0.00    -0.015 A 
ATOM     35  H   LIG d   1      -1.105  -3.872 -10.347  0.00  0.00     0.066 H 
BRANCH  32  36
ATOM     36  O   LIG d   1      -2.885  -5.348  -9.117  0.00  0.00    -0.495 OA
BRANCH  36  37
ATOM     37  C   LIG d   1      -3.891  -4.904 -10.030  0.00  0.00     0.079 C 
ATOM     38  H   LIG d   1      -3.412  -4.442 -10.906  0.00  0.00     0.066 H 
ATOM     39  H   LIG d   1      -4.536  -4.165  -9.534  0.00  0.00     0.066 H 
ATOM     40  H   LIG d   1      -4.499  -5.762 -10.354  0.00  0.00     0.066 H 
ENDBRANCH  36  37
ENDBRANCH  32  36
ENDBRANCH  23  26
ENDBRANCH   1  23
BRANCH  11  41
ATOM     41  C   LIG d   1       5.804  -4.294  -5.551  0.00  0.00    -0.019 A 
ATOM     42  C   LIG d   1       4.676  -5.117  -5.425  0.00  0.00    -0.036 A 
ATOM     43  C   LIG d   1       4.834  -6.484  -5.514  0.00  0.00     0.028 A 
ATOM     44  H   LIG d   1       3.698  -4.687  -5.262  0.00  0.00     0.064 H 
ATOM     45  N   LIG d   1       6.023  -7.018  -5.712  0.00  0.00    -0.263 NA
ATOM     46  H   LIG d   1       3.971  -7.127  -5.418  0.00  0.00     0.083 H 
ATOM     47  C   LIG d   1       7.111  -6.282  -5.836  0.00  0.00     0.028 A 
ATOM     48  C   LIG d   1       7.047  -4.905  -5.767  0.00  0.00    -0.036 A 
ATOM     49  H   LIG d   1       8.064  -6.763  -5.998  0.00  0.00     0.083 H 
ATOM     50  H   LIG d   1       7.941  -4.308  -5.874  0.00  0.00     0.064 H 
ENDBRANCH  11  41
TORSDOF 5
ENDMDL
MODEL 9
REMARK VINA RESULT:      -6.3      4.583      9.284
REMARK  5 active torsions:
REMARK  status: ('A' for Active; 'I' for Inactive)
REMARK    1  A    between atoms: C_1  and  O_2 
REMARK    2  A    between atoms: O_2  and  C_3 
REMARK    3  A    between atoms: C_7  and  C_9 
REMARK    4  A    between atoms: C_9  and  N_10 
REMARK    5  A    between atoms: C_20  and  C_21 
ROOT
ATOM      1  N   LIG d   1       7.028  -3.269  -4.744  0.00  0.00    -0.262 N 
ATOM      2  C   LIG d   1       7.554  -4.634  -4.594  0.00  0.00     0.034 C 
ATOM      3  C   LIG d   1       8.986  -4.574  -4.126  0.00  0.00     0.051 A 
ATOM      4  C   LIG d   1       9.722  -3.406  -4.239  0.00  0.00     0.130 A 
ATOM      5  C   LIG d   1      11.048  -3.365  -3.809  0.00  0.00    -0.019 A 
ATOM      6  C   LIG d   1      11.633  -4.475  -3.269  0.00  0.00    -0.044 A 
ATOM      7  C   LIG d   1      10.901  -5.656  -3.146  0.00  0.00     0.068 A 
ATOM      8  C   LIG d   1       9.566  -5.711  -3.576  0.00  0.00     0.147 A 
ATOM      9  O   LIG d   1       9.067  -6.949  -3.358  0.00  0.00    -0.451 OA
ATOM     10  C   LIG d   1       9.983  -7.769  -2.795  0.00  0.00     0.176 A 
ATOM     11  C   LIG d   1       9.795  -9.067  -2.455  0.00  0.00    -0.008 C 
ATOM     12  C   LIG d   1      11.225  -6.994  -2.621  0.00  0.00     0.232 A 
ATOM     13  O   LIG d   1      12.282  -7.374  -2.149  0.00  0.00    -0.283 OA
ATOM     14  O   LIG d   1       9.168  -2.285  -4.771  0.00  0.00    -0.476 OA
ATOM     15  C   LIG d   1       7.966  -2.447  -5.525  0.00  0.00     0.144 C 
ATOM     16  H   LIG d   1       6.950  -5.181  -3.855  0.00  0.00     0.048 H 
ATOM     17  H   LIG d   1       7.507  -5.153  -5.562  0.00  0.00     0.048 H 
ATOM     18  H   LIG d   1      11.616  -2.451  -3.903  0.00  0.00     0.065 H 
ATOM     19  H   LIG d   1      12.661  -4.438  -2.936  0.00  0.00     0.063 H 
ATOM     20  H   LIG d   1      10.638  -9.666  -2.082  0.00  0.00     0.066 H 
ATOM     21  H   LIG d   1       8.187  -2.949  -6.479  0.00  0.00     0.087 H 
ATOM     22  H   LIG d   1       7.513  -1.464  -5.724  0.00  0.00     0.087 H 
ENDROOT
BRANCH   1  23
ATOM     23  C   LIG d   1       5.696  -3.285  -5.365  0.00  0.00     0.028 C 
ATOM     24  H   LIG d   1       5.286  -4.305  -5.326  0.00  0.00     0.048 H 
ATOM     25  H   LIG d   1       5.777  -2.961  -6.413  0.00  0.00     0.048 H 
BRANCH  23  26
ATOM     26  C   LIG d   1       4.783  -2.347  -4.617  0.00  0.00    -0.030 A 
ATOM     27  C   LIG d   1       4.442  -2.614  -3.305  0.00  0.00    -0.057 A 
ATOM     28  C   LIG d   1       3.608  -1.753  -2.616  0.00  0.00    -0.058 A 
ATOM     29  H   LIG d   1       4.830  -3.496  -2.816  0.00  0.00     0.062 H 
ATOM     30  C   LIG d   1       3.105  -0.629  -3.240  0.00  0.00    -0.020 A 
ATOM     31  H   LIG d   1       3.346  -1.963  -1.589  0.00  0.00     0.062 H 
ATOM     32  C   LIG d   1       3.442  -0.361  -4.560  0.00  0.00     0.120 A 
ATOM     33  H   LIG d   1       2.450   0.040  -2.704  0.00  0.00     0.065 H 
ATOM     34  C   LIG d   1       4.283  -1.224  -5.247  0.00  0.00    -0.015 A 
ATOM     35  H   LIG d   1       4.547  -1.017  -6.275  0.00  0.00     0.066 H 
BRANCH  32  36
ATOM     36  O   LIG d   1       2.949   0.745  -5.178  0.00  0.00    -0.495 OA
BRANCH  36  37
ATOM     37  C   LIG d   1       2.752   0.664  -6.591  0.00  0.00     0.079 C 
ATOM     38  H   LIG d   1       3.494   1.297  -7.101  0.00  0.00     0.066 H 
ATOM     39  H   LIG d   1       1.740   1.011  -6.841  0.00  0.00     0.066 H 
ATOM     40  H   LIG d   1       2.873  -0.380  -6.919  0.00  0.00     0.066 H 
ENDBRANCH  36  37
ENDBRANCH  32  36
ENDBRANCH  23  26
ENDBRANCH   1  23
BRANCH  11  41
ATOM     41  C   LIG d   1       8.460  -9.674  -2.585  0.00  0.00    -0.019 A 
ATOM     42  C   LIG d   1       7.537  -9.617  -1.531  0.00  0.00    -0.036 A 
ATOM     43  C   LIG d   1       6.297 -10.199  -1.697  0.00  0.00     0.028 A 
ATOM     44  H   LIG d   1       7.792  -9.125  -0.603  0.00  0.00     0.064 H 
ATOM     45  N   LIG d   1       5.977 -10.801  -2.825  0.00  0.00    -0.263 NA
ATOM     46  H   LIG d   1       5.579 -10.160  -0.891  0.00  0.00     0.083 H 
ATOM     47  C   LIG d   1       6.813 -10.879  -3.842  0.00  0.00     0.028 A 
ATOM     48  C   LIG d   1       8.073 -10.320  -3.767  0.00  0.00    -0.036 A 
ATOM     49  H   LIG d   1       6.507 -11.382  -4.746  0.00  0.00     0.083 H 
ATOM     50  H   LIG d   1       8.752 -10.383  -4.605  0.00  0.00     0.064 H 
ENDBRANCH  11  41
TORSDOF 5
ENDMDL
