MODEL 1
REMARK VINA RESULT:      -3.6      0.000      0.000
REMARK  7 active torsions:
REMARK  status: ('A' for Active; 'I' for Inactive)
REMARK    1  A    between atoms: C_1  and  O_2 
REMARK    2  A    between atoms: O_2  and  P_3 
REMARK    3  A    between atoms: P_3  and  C_5 
REMARK    4  A    between atoms: P_3  and  O_8 
REMARK    5  A    between atoms: C_5  and  C_6 
REMARK    6  A    between atoms: C_6  and  O_7 
REMARK    7  A    between atoms: O_8  and  C_9 
ROOT
ATOM      1  P   LIG d   1       4.320   0.659  -2.750  0.00  0.00     0.335 P 
ATOM      2  O   LIG d   1       3.326   1.477  -2.020  0.00  0.00    -0.258 OA
ENDROOT
BRANCH   1   3
ATOM      3  O   LIG d   1       5.776   1.331  -2.610  0.00  0.00    -0.311 OA
BRANCH   3   4
ATOM      4  C   LIG d   1       6.830   1.108  -3.549  0.00  0.00     0.046 C 
ATOM      5  H   LIG d   1       6.908   1.966  -4.216  0.00  0.00     0.053 H 
ATOM      6  H   LIG d   1       7.771   0.977  -3.016  0.00  0.00     0.053 H 
ATOM      7  H   LIG d   1       6.614   0.213  -4.132  0.00  0.00     0.053 H 
ENDBRANCH   3   4
ENDBRANCH   1   3
BRANCH   1   8
ATOM      8  C   LIG d   1       4.356  -1.023  -2.047  0.00  0.00     0.073 C 
ATOM      9  H   LIG d   1       3.364  -1.284  -1.679  0.00  0.00     0.041 H 
ATOM     10  H   LIG d   1       5.069  -1.057  -1.223  0.00  0.00     0.041 H 
BRANCH   8  11
ATOM     11  C   LIG d   1       4.777  -2.019  -3.128  0.00  0.00     0.055 C 
ATOM     12  H   LIG d   1       5.195  -2.909  -2.659  0.00  0.00     0.056 H 
ATOM     13  H   LIG d   1       5.529  -1.561  -3.772  0.00  0.00     0.056 H 
BRANCH  11  14
ATOM     14  O   LIG d   1       3.638  -2.383  -3.911  0.00  0.00    -0.394 OA
ATOM     15  H   LIG d   1       3.811  -3.082  -4.556  0.00  0.00     0.209 HD
ENDBRANCH  11  14
ENDBRANCH   8  11
ENDBRANCH   1   8
BRANCH   1  16
ATOM     16  O   LIG d   1       3.913   0.581  -4.305  0.00  0.00    -0.311 OA
BRANCH  16  17
ATOM     17  C   LIG d   1       2.568   0.730  -4.767  0.00  0.00     0.046 C 
ATOM     18  H   LIG d   1       2.529   1.507  -5.529  0.00  0.00     0.053 H 
ATOM     19  H   LIG d   1       2.224  -0.213  -5.192  0.00  0.00     0.053 H 
ATOM     20  H   LIG d   1       1.926   1.008  -3.931  0.00  0.00     0.053 H 
ENDBRANCH  16  17
ENDBRANCH   1  16
TORSDOF 7
ENDMDL
MODEL 2
REMARK VINA RESULT:      -3.4      1.561      3.614
REMARK  7 active torsions:
REMARK  status: ('A' for Active; 'I' for Inactive)
REMARK    1  A    between atoms: C_1  and  O_2 
REMARK    2  A    between atoms: O_2  and  P_3 
REMARK    3  A    between atoms: P_3  and  C_5 
REMARK    4  A    between atoms: P_3  and  O_8 
REMARK    5  A    between atoms: C_5  and  C_6 
REMARK    6  A    between atoms: C_6  and  O_7 
REMARK    7  A    between atoms: O_8  and  C_9 
ROOT
ATOM      1  P   LIG d   1       4.511  -0.911  -3.730  0.00  0.00     0.335 P 
ATOM      2  O   LIG d   1       3.790  -2.163  -4.051  0.00  0.00    -0.258 OA
ENDROOT
BRANCH   1   3
ATOM      3  O   LIG d   1       3.877   0.305  -4.574  0.00  0.00    -0.311 OA
BRANCH   3   4
ATOM      4  C   LIG d   1       2.474   0.440  -4.810  0.00  0.00     0.046 C 
ATOM      5  H   LIG d   1       1.934   0.315  -3.872  0.00  0.00     0.053 H 
ATOM      6  H   LIG d   1       2.267   1.429  -5.218  0.00  0.00     0.053 H 
ATOM      7  H   LIG d   1       2.150  -0.321  -5.519  0.00  0.00     0.053 H 
ENDBRANCH   3   4
ENDBRANCH   1   3
BRANCH   1   8
ATOM      8  C   LIG d   1       4.356  -0.561  -1.948  0.00  0.00     0.073 C 
ATOM      9  H   LIG d   1       5.111  -1.125  -1.400  0.00  0.00     0.041 H 
ATOM     10  H   LIG d   1       3.364  -0.855  -1.605  0.00  0.00     0.041 H 
BRANCH   8  11
ATOM     11  C   LIG d   1       4.560   0.935  -1.702  0.00  0.00     0.055 C 
ATOM     12  H   LIG d   1       4.793   1.101  -0.650  0.00  0.00     0.056 H 
ATOM     13  H   LIG d   1       3.648   1.474  -1.961  0.00  0.00     0.056 H 
BRANCH  11  14
ATOM     14  O   LIG d   1       5.639   1.408  -2.510  0.00  0.00    -0.394 OA
ATOM     15  H   LIG d   1       6.353   0.766  -2.629  0.00  0.00     0.209 HD
ENDBRANCH  11  14
ENDBRANCH   8  11
ENDBRANCH   1   8
BRANCH   1  16
ATOM     16  O   LIG d   1       6.066  -1.075  -4.112  0.00  0.00    -0.311 OA
BRANCH  16  17
ATOM     17  C   LIG d   1       6.971  -1.890  -3.364  0.00  0.00     0.046 C 
ATOM     18  H   LIG d   1       6.458  -2.792  -3.032  0.00  0.00     0.053 H 
ATOM     19  H   LIG d   1       7.818  -2.164  -3.992  0.00  0.00     0.053 H 
ATOM     20  H   LIG d   1       7.327  -1.334  -2.496  0.00  0.00     0.053 H 
ENDBRANCH  16  17
ENDBRANCH   1  16
TORSDOF 7
ENDMDL
MODEL 3
REMARK VINA RESULT:      -3.3      1.989      3.635
REMARK  7 active torsions:
REMARK  status: ('A' for Active; 'I' for Inactive)
REMARK    1  A    between atoms: C_1  and  O_2 
REMARK    2  A    between atoms: O_2  and  P_3 
REMARK    3  A    between atoms: P_3  and  C_5 
REMARK    4  A    between atoms: P_3  and  O_8 
REMARK    5  A    between atoms: C_5  and  C_6 
REMARK    6  A    between atoms: C_6  and  O_7 
REMARK    7  A    between atoms: O_8  and  C_9 
ROOT
ATOM      1  P   LIG d   1       5.965   0.275  -3.326  0.00  0.00     0.335 P 
ATOM      2  O   LIG d   1       6.874  -0.882  -3.168  0.00  0.00    -0.258 OA
ENDROOT
BRANCH   1   3
ATOM      3  O   LIG d   1       5.237   0.195  -4.760  0.00  0.00    -0.311 OA
BRANCH   3   4
ATOM      4  C   LIG d   1       4.644  -1.002  -5.266  0.00  0.00     0.046 C 
ATOM      5  H   LIG d   1       5.232  -1.862  -4.946  0.00  0.00     0.053 H 
ATOM      6  H   LIG d   1       3.628  -1.095  -4.882  0.00  0.00     0.053 H 
ATOM      7  H   LIG d   1       4.619  -0.963  -6.355  0.00  0.00     0.053 H 
ENDBRANCH   3   4
ENDBRANCH   1   3
BRANCH   1   8
ATOM      8  C   LIG d   1       4.710   0.246  -2.005  0.00  0.00     0.073 C 
ATOM      9  H   LIG d   1       5.153   0.603  -1.074  0.00  0.00     0.041 H 
ATOM     10  H   LIG d   1       4.350  -0.773  -1.867  0.00  0.00     0.041 H 
BRANCH   8  11
ATOM     11  C   LIG d   1       3.540   1.153  -2.392  0.00  0.00     0.055 C 
ATOM     12  H   LIG d   1       3.134   1.623  -1.497  0.00  0.00     0.056 H 
ATOM     13  H   LIG d   1       2.763   0.559  -2.874  0.00  0.00     0.056 H 
BRANCH  11  14
ATOM     14  O   LIG d   1       3.997   2.161  -3.295  0.00  0.00    -0.394 OA
ATOM     15  H   LIG d   1       3.371   2.369  -4.002  0.00  0.00     0.209 HD
ENDBRANCH  11  14
ENDBRANCH   8  11
ENDBRANCH   1   8
BRANCH   1  16
ATOM     16  O   LIG d   1       6.814   1.640  -3.230  0.00  0.00    -0.311 OA
BRANCH  16  17
ATOM     17  C   LIG d   1       8.065   1.828  -3.894  0.00  0.00     0.046 C 
ATOM     18  H   LIG d   1       8.306   2.890  -3.923  0.00  0.00     0.053 H 
ATOM     19  H   LIG d   1       8.846   1.292  -3.355  0.00  0.00     0.053 H 
ATOM     20  H   LIG d   1       7.997   1.443  -4.912  0.00  0.00     0.053 H 
ENDBRANCH  16  17
ENDBRANCH   1  16
TORSDOF 7
ENDMDL
MODEL 4
REMARK VINA RESULT:      -3.3      2.068      3.124
REMARK  7 active torsions:
REMARK  status: ('A' for Active; 'I' for Inactive)
REMARK    1  A    between atoms: C_1  and  O_2 
REMARK    2  A    between atoms: O_2  and  P_3 
REMARK    3  A    between atoms: P_3  and  C_5 
REMARK    4  A    between atoms: P_3  and  O_8 
REMARK    5  A    between atoms: C_5  and  C_6 
REMARK    6  A    between atoms: C_6  and  O_7 
REMARK    7  A    between atoms: O_8  and  C_9 
ROOT
ATOM      1  P   LIG d   1       4.572  -1.396  -3.174  0.00  0.00     0.335 P 
ATOM      2  O   LIG d   1       3.850  -2.688  -3.129  0.00  0.00    -0.258 OA
ENDROOT
BRANCH   1   3
ATOM      3  O   LIG d   1       6.140  -1.648  -2.905  0.00  0.00    -0.311 OA
BRANCH   3   4
ATOM      4  C   LIG d   1       7.001  -2.276  -3.856  0.00  0.00     0.046 C 
ATOM      5  H   LIG d   1       8.040  -2.090  -3.584  0.00  0.00     0.053 H 
ATOM      6  H   LIG d   1       6.815  -3.350  -3.862  0.00  0.00     0.053 H 
ATOM      7  H   LIG d   1       6.807  -1.868  -4.848  0.00  0.00     0.053 H 
ENDBRANCH   3   4
ENDBRANCH   1   3
BRANCH   1   8
ATOM      8  C   LIG d   1       4.351  -0.634  -4.815  0.00  0.00     0.073 C 
ATOM      9  H   LIG d   1       4.367  -1.409  -5.581  0.00  0.00     0.041 H 
ATOM     10  H   LIG d   1       5.159   0.074  -4.998  0.00  0.00     0.041 H 
BRANCH   8  11
ATOM     11  C   LIG d   1       3.010   0.100  -4.860  0.00  0.00     0.055 C 
ATOM     12  H   LIG d   1       2.682   0.194  -5.895  0.00  0.00     0.056 H 
ATOM     13  H   LIG d   1       3.123   1.093  -4.423  0.00  0.00     0.056 H 
BRANCH  11  14
ATOM     14  O   LIG d   1       2.037  -0.638  -4.117  0.00  0.00    -0.394 OA
ATOM     15  H   LIG d   1       1.646  -0.146  -3.383  0.00  0.00     0.209 HD
ENDBRANCH  11  14
ENDBRANCH   8  11
ENDBRANCH   1   8
BRANCH   1  16
ATOM     16  O   LIG d   1       3.985  -0.414  -2.042  0.00  0.00    -0.311 OA
BRANCH  16  17
ATOM     17  C   LIG d   1       4.606   0.823  -1.684  0.00  0.00     0.046 C 
ATOM     18  H   LIG d   1       4.596   1.496  -2.541  0.00  0.00     0.053 H 
ATOM     19  H   LIG d   1       4.060   1.278  -0.859  0.00  0.00     0.053 H 
ATOM     20  H   LIG d   1       5.637   0.636  -1.381  0.00  0.00     0.053 H 
ENDBRANCH  16  17
ENDBRANCH   1  16
TORSDOF 7
ENDMDL
MODEL 5
REMARK VINA RESULT:      -3.2      8.216      9.801
REMARK  7 active torsions:
REMARK  status: ('A' for Active; 'I' for Inactive)
REMARK    1  A    between atoms: C_1  and  O_2 
REMARK    2  A    between atoms: O_2  and  P_3 
REMARK    3  A    between atoms: P_3  and  C_5 
REMARK    4  A    between atoms: P_3  and  O_8 
REMARK    5  A    between atoms: C_5  and  C_6 
REMARK    6  A    between atoms: C_6  and  O_7 
REMARK    7  A    between atoms: O_8  and  C_9 
ROOT
ATOM      1  P   LIG d   1      10.464   7.163  -1.331  0.00  0.00     0.335 P 
ATOM      2  O   LIG d   1      11.898   6.989  -1.650  0.00  0.00    -0.258 OA
ENDROOT
BRANCH   1   3
ATOM      3  O   LIG d   1      10.202   6.755   0.205  0.00  0.00    -0.311 OA
BRANCH   3   4
ATOM      4  C   LIG d   1      11.112   5.957   0.964  0.00  0.00     0.046 C 
ATOM      5  H   LIG d   1      11.087   6.270   2.007  0.00  0.00     0.053 H 
ATOM      6  H   LIG d   1      10.822   4.908   0.893  0.00  0.00     0.053 H 
ATOM      7  H   LIG d   1      12.121   6.082   0.571  0.00  0.00     0.053 H 
ENDBRANCH   3   4
ENDBRANCH   1   3
BRANCH   1   8
ATOM      8  C   LIG d   1       9.991   8.905  -1.586  0.00  0.00     0.073 C 
ATOM      9  H   LIG d   1       9.807   9.080  -2.646  0.00  0.00     0.041 H 
ATOM     10  H   LIG d   1      10.799   9.554  -1.247  0.00  0.00     0.041 H 
BRANCH   8  11
ATOM     11  C   LIG d   1       8.721   9.211  -0.791  0.00  0.00     0.055 C 
ATOM     12  H   LIG d   1       8.264  10.123  -1.174  0.00  0.00     0.056 H 
ATOM     13  H   LIG d   1       8.974   9.346   0.261  0.00  0.00     0.056 H 
BRANCH  11  14
ATOM     14  O   LIG d   1       7.802   8.125  -0.923  0.00  0.00    -0.394 OA
ATOM     15  H   LIG d   1       8.172   7.265  -0.680  0.00  0.00     0.209 HD
ENDBRANCH  11  14
ENDBRANCH   8  11
ENDBRANCH   1   8
BRANCH   1  16
ATOM     16  O   LIG d   1       9.582   6.221  -2.293  0.00  0.00    -0.311 OA
BRANCH  16  17
ATOM     17  C   LIG d   1       9.999   4.916  -2.702  0.00  0.00     0.046 C 
ATOM     18  H   LIG d   1       9.670   4.733  -3.724  0.00  0.00     0.053 H 
ATOM     19  H   LIG d   1      11.085   4.850  -2.653  0.00  0.00     0.053 H 
ATOM     20  H   LIG d   1       9.559   4.171  -2.039  0.00  0.00     0.053 H 
ENDBRANCH  16  17
ENDBRANCH   1  16
TORSDOF 7
ENDMDL
MODEL 6
REMARK VINA RESULT:      -3.2      1.542      3.266
REMARK  7 active torsions:
REMARK  status: ('A' for Active; 'I' for Inactive)
REMARK    1  A    between atoms: C_1  and  O_2 
REMARK    2  A    between atoms: O_2  and  P_3 
REMARK    3  A    between atoms: P_3  and  C_5 
REMARK    4  A    between atoms: P_3  and  O_8 
REMARK    5  A    between atoms: C_5  and  C_6 
REMARK    6  A    between atoms: C_6  and  O_7 
REMARK    7  A    between atoms: O_8  and  C_9 
ROOT
ATOM      1  P   LIG d   1       5.062   0.221  -2.933  0.00  0.00     0.335 P 
ATOM      2  O   LIG d   1       5.396   1.472  -2.217  0.00  0.00    -0.258 OA
ENDROOT
BRANCH   1   3
ATOM      3  O   LIG d   1       4.143   0.561  -4.211  0.00  0.00    -0.311 OA
BRANCH   3   4
ATOM      4  C   LIG d   1       4.038  -0.301  -5.345  0.00  0.00     0.046 C 
ATOM      5  H   LIG d   1       2.988  -0.435  -5.603  0.00  0.00     0.053 H 
ATOM      6  H   LIG d   1       4.564   0.144  -6.190  0.00  0.00     0.053 H 
ATOM      7  H   LIG d   1       4.481  -1.268  -5.109  0.00  0.00     0.053 H 
ENDBRANCH   3   4
ENDBRANCH   1   3
BRANCH   1   8
ATOM      8  C   LIG d   1       6.597  -0.591  -3.487  0.00  0.00     0.073 C 
ATOM      9  H   LIG d   1       6.379  -1.241  -4.334  0.00  0.00     0.041 H 
ATOM     10  H   LIG d   1       7.009  -1.184  -2.671  0.00  0.00     0.041 H 
BRANCH   8  11
ATOM     11  C   LIG d   1       7.612   0.473  -3.909  0.00  0.00     0.055 C 
ATOM     12  H   LIG d   1       8.342   0.029  -4.587  0.00  0.00     0.056 H 
ATOM     13  H   LIG d   1       8.124   0.858  -3.027  0.00  0.00     0.056 H 
BRANCH  11  14
ATOM     14  O   LIG d   1       6.935   1.542  -4.571  0.00  0.00    -0.394 OA
ATOM     15  H   LIG d   1       7.260   2.421  -4.333  0.00  0.00     0.209 HD
ENDBRANCH  11  14
ENDBRANCH   8  11
ENDBRANCH   1   8
BRANCH   1  16
ATOM     16  O   LIG d   1       4.260  -0.765  -1.944  0.00  0.00    -0.311 OA
BRANCH  16  17
ATOM     17  C   LIG d   1       3.875  -2.092  -2.311  0.00  0.00     0.046 C 
ATOM     18  H   LIG d   1       3.627  -2.119  -3.371  0.00  0.00     0.053 H 
ATOM     19  H   LIG d   1       4.698  -2.777  -2.112  0.00  0.00     0.053 H 
ATOM     20  H   LIG d   1       3.003  -2.390  -1.727  0.00  0.00     0.053 H 
ENDBRANCH  16  17
ENDBRANCH   1  16
TORSDOF 7
ENDMDL
MODEL 7
REMARK VINA RESULT:      -3.2      1.828      2.091
REMARK  7 active torsions:
REMARK  status: ('A' for Active; 'I' for Inactive)
REMARK    1  A    between atoms: C_1  and  O_2 
REMARK    2  A    between atoms: O_2  and  P_3 
REMARK    3  A    between atoms: P_3  and  C_5 
REMARK    4  A    between atoms: P_3  and  O_8 
REMARK    5  A    between atoms: C_5  and  C_6 
REMARK    6  A    between atoms: C_6  and  O_7 
REMARK    7  A    between atoms: O_8  and  C_9 
ROOT
ATOM      1  P   LIG d   1       3.492   0.140  -4.178  0.00  0.00     0.335 P 
ATOM      2  O   LIG d   1       2.478  -0.706  -3.511  0.00  0.00    -0.258 OA
ENDROOT
BRANCH   1   3
ATOM      3  O   LIG d   1       3.950   1.318  -3.180  0.00  0.00    -0.311 OA
BRANCH   3   4
ATOM      4  C   LIG d   1       4.465   1.072  -1.871  0.00  0.00     0.046 C 
ATOM      5  H   LIG d   1       4.997   0.122  -1.862  0.00  0.00     0.053 H 
ATOM      6  H   LIG d   1       5.149   1.874  -1.593  0.00  0.00     0.053 H 
ATOM      7  H   LIG d   1       3.641   1.034  -1.158  0.00  0.00     0.053 H 
ENDBRANCH   3   4
ENDBRANCH   1   3
BRANCH   1   8
ATOM      8  C   LIG d   1       4.938  -0.879  -4.619  0.00  0.00     0.073 C 
ATOM      9  H   LIG d   1       5.840  -0.431  -4.201  0.00  0.00     0.041 H 
ATOM     10  H   LIG d   1       5.029  -0.932  -5.703  0.00  0.00     0.041 H 
BRANCH   8  11
ATOM     11  C   LIG d   1       4.761  -2.288  -4.051  0.00  0.00     0.055 C 
ATOM     12  H   LIG d   1       4.337  -2.225  -3.049  0.00  0.00     0.056 H 
ATOM     13  H   LIG d   1       5.730  -2.787  -4.004  0.00  0.00     0.056 H 
BRANCH  11  14
ATOM     14  O   LIG d   1       3.882  -3.035  -4.894  0.00  0.00    -0.394 OA
ATOM     15  H   LIG d   1       4.156  -3.064  -5.821  0.00  0.00     0.209 HD
ENDBRANCH  11  14
ENDBRANCH   8  11
ENDBRANCH   1   8
BRANCH   1  16
ATOM     16  O   LIG d   1       2.862   0.782  -5.513  0.00  0.00    -0.311 OA
BRANCH  16  17
ATOM     17  C   LIG d   1       2.986   0.178  -6.802  0.00  0.00     0.046 C 
ATOM     18  H   LIG d   1       2.840  -0.898  -6.715  0.00  0.00     0.053 H 
ATOM     19  H   LIG d   1       2.233   0.593  -7.471  0.00  0.00     0.053 H 
ATOM     20  H   LIG d   1       3.980   0.379  -7.203  0.00  0.00     0.053 H 
ENDBRANCH  16  17
ENDBRANCH   1  16
TORSDOF 7
ENDMDL
MODEL 8
REMARK VINA RESULT:      -3.0      1.872      2.649
REMARK  7 active torsions:
REMARK  status: ('A' for Active; 'I' for Inactive)
REMARK    1  A    between atoms: C_1  and  O_2 
REMARK    2  A    between atoms: O_2  and  P_3 
REMARK    3  A    between atoms: P_3  and  C_5 
REMARK    4  A    between atoms: P_3  and  O_8 
REMARK    5  A    between atoms: C_5  and  C_6 
REMARK    6  A    between atoms: C_6  and  O_7 
REMARK    7  A    between atoms: O_8  and  C_9 
ROOT
ATOM      1  P   LIG d   1       5.734   0.068  -3.495  0.00  0.00     0.335 P 
ATOM      2  O   LIG d   1       5.201   0.019  -4.875  0.00  0.00    -0.258 OA
ENDROOT
BRANCH   1   3
ATOM      3  O   LIG d   1       6.437   1.495  -3.242  0.00  0.00    -0.311 OA
BRANCH   3   4
ATOM      4  C   LIG d   1       7.694   1.856  -3.817  0.00  0.00     0.046 C 
ATOM      5  H   LIG d   1       8.479   1.753  -3.069  0.00  0.00     0.053 H 
ATOM      6  H   LIG d   1       7.909   1.201  -4.662  0.00  0.00     0.053 H 
ATOM      7  H   LIG d   1       7.653   2.890  -4.160  0.00  0.00     0.053 H 
ENDBRANCH   3   4
ENDBRANCH   1   3
BRANCH   1   8
ATOM      8  C   LIG d   1       4.370  -0.157  -2.308  0.00  0.00     0.073 C 
ATOM      9  H   LIG d   1       3.562   0.536  -2.547  0.00  0.00     0.041 H 
ATOM     10  H   LIG d   1       4.730   0.040  -1.299  0.00  0.00     0.041 H 
BRANCH   8  11
ATOM     11  C   LIG d   1       3.850  -1.593  -2.394  0.00  0.00     0.055 C 
ATOM     12  H   LIG d   1       3.117  -1.761  -1.605  0.00  0.00     0.056 H 
ATOM     13  H   LIG d   1       4.681  -2.288  -2.272  0.00  0.00     0.056 H 
BRANCH  11  14
ATOM     14  O   LIG d   1       3.237  -1.803  -3.667  0.00  0.00    -0.394 OA
ATOM     15  H   LIG d   1       2.753  -1.035  -4.002  0.00  0.00     0.209 HD
ENDBRANCH  11  14
ENDBRANCH   8  11
ENDBRANCH   1   8
BRANCH   1  16
ATOM     16  O   LIG d   1       6.818  -1.106  -3.296  0.00  0.00    -0.311 OA
BRANCH  16  17
ATOM     17  C   LIG d   1       7.172  -2.023  -4.334  0.00  0.00     0.046 C 
ATOM     18  H   LIG d   1       7.893  -2.745  -3.951  0.00  0.00     0.053 H 
ATOM     19  H   LIG d   1       6.280  -2.547  -4.676  0.00  0.00     0.053 H 
ATOM     20  H   LIG d   1       7.614  -1.475  -5.167  0.00  0.00     0.053 H 
ENDBRANCH  16  17
ENDBRANCH   1  16
TORSDOF 7
ENDMDL
MODEL 9
REMARK VINA RESULT:      -3.0      1.863      2.345
REMARK  7 active torsions:
REMARK  status: ('A' for Active; 'I' for Inactive)
REMARK    1  A    between atoms: C_1  and  O_2 
REMARK    2  A    between atoms: O_2  and  P_3 
REMARK    3  A    between atoms: P_3  and  C_5 
REMARK    4  A    between atoms: P_3  and  O_8 
REMARK    5  A    between atoms: C_5  and  C_6 
REMARK    6  A    between atoms: C_6  and  O_7 
REMARK    7  A    between atoms: O_8  and  C_9 
ROOT
ATOM      1  P   LIG d   1       4.533  -1.267  -3.605  0.00  0.00     0.335 P 
ATOM      2  O   LIG d   1       3.344  -1.912  -3.005  0.00  0.00    -0.258 OA
ENDROOT
BRANCH   1   3
ATOM      3  O   LIG d   1       5.233  -0.310  -2.516  0.00  0.00    -0.311 OA
BRANCH   3   4
ATOM      4  C   LIG d   1       4.513   0.662  -1.757  0.00  0.00     0.046 C 
ATOM      5  H   LIG d   1       3.619   0.960  -2.304  0.00  0.00     0.053 H 
ATOM      6  H   LIG d   1       4.225   0.234  -0.797  0.00  0.00     0.053 H 
ATOM      7  H   LIG d   1       5.145   1.535  -1.591  0.00  0.00     0.053 H 
ENDBRANCH   3   4
ENDBRANCH   1   3
BRANCH   1   8
ATOM      8  C   LIG d   1       5.715  -2.549  -4.137  0.00  0.00     0.073 C 
ATOM      9  H   LIG d   1       5.724  -3.360  -3.408  0.00  0.00     0.041 H 
ATOM     10  H   LIG d   1       6.712  -2.117  -4.210  0.00  0.00     0.041 H 
BRANCH   8  11
ATOM     11  C   LIG d   1       5.294  -3.097  -5.502  0.00  0.00     0.055 C 
ATOM     12  H   LIG d   1       5.815  -4.035  -5.693  0.00  0.00     0.056 H 
ATOM     13  H   LIG d   1       5.549  -2.375  -6.278  0.00  0.00     0.056 H 
BRANCH  11  14
ATOM     14  O   LIG d   1       3.884  -3.325  -5.509  0.00  0.00    -0.394 OA
ATOM     15  H   LIG d   1       3.399  -2.773  -6.138  0.00  0.00     0.209 HD
ENDBRANCH  11  14
ENDBRANCH   8  11
ENDBRANCH   1   8
BRANCH   1  16
ATOM     16  O   LIG d   1       4.084  -0.391  -4.878  0.00  0.00    -0.311 OA
BRANCH  16  17
ATOM     17  C   LIG d   1       2.802   0.234  -4.981  0.00  0.00     0.046 C 
ATOM     18  H   LIG d   1       2.102  -0.259  -4.307  0.00  0.00     0.053 H 
ATOM     19  H   LIG d   1       2.888   1.286  -4.711  0.00  0.00     0.053 H 
ATOM     20  H   LIG d   1       2.439   0.149  -6.006  0.00  0.00     0.053 H 
ENDBRANCH  16  17
ENDBRANCH   1  16
TORSDOF 7
ENDMDL
MODEL 10
REMARK VINA RESULT:      -3.0      8.790     10.495
REMARK  7 active torsions:
REMARK  status: ('A' for Active; 'I' for Inactive)
REMARK    1  A    between atoms: C_1  and  O_2 
REMARK    2  A    between atoms: O_2  and  P_3 
REMARK    3  A    between atoms: P_3  and  C_5 
REMARK    4  A    between atoms: P_3  and  O_8 
REMARK    5  A    between atoms: C_5  and  C_6 
REMARK    6  A    between atoms: C_6  and  O_7 
REMARK    7  A    between atoms: O_8  and  C_9 
ROOT
ATOM      1  P   LIG d   1       9.525   7.823  -1.147  0.00  0.00     0.335 P 
ATOM      2  O   LIG d   1       8.070   7.851  -0.881  0.00  0.00    -0.258 OA
ENDROOT
BRANCH   1   3
ATOM      3  O   LIG d   1       9.789   7.245  -2.627  0.00  0.00    -0.311 OA
BRANCH   3   4
ATOM      4  C   LIG d   1       9.957   5.853  -2.899  0.00  0.00     0.046 C 
ATOM      5  H   LIG d   1       9.078   5.476  -3.420  0.00  0.00     0.053 H 
ATOM      6  H   LIG d   1      10.838   5.708  -3.525  0.00  0.00     0.053 H 
ATOM      7  H   LIG d   1      10.085   5.312  -1.962  0.00  0.00     0.053 H 
ENDBRANCH   3   4
ENDBRANCH   1   3
BRANCH   1   8
ATOM      8  C   LIG d   1      10.198   9.513  -1.026  0.00  0.00     0.073 C 
ATOM      9  H   LIG d   1      11.255   9.504  -1.293  0.00  0.00     0.041 H 
ATOM     10  H   LIG d   1      10.085   9.877  -0.005  0.00  0.00     0.041 H 
BRANCH   8  11
ATOM     11  C   LIG d   1       9.439  10.434  -1.983  0.00  0.00     0.055 C 
ATOM     12  H   LIG d   1       9.549  10.066  -3.004  0.00  0.00     0.056 H 
ATOM     13  H   LIG d   1       9.845  11.444  -1.916  0.00  0.00     0.056 H 
BRANCH  11  14
ATOM     14  O   LIG d   1       8.055  10.453  -1.630  0.00  0.00    -0.394 OA
ATOM     15  H   LIG d   1       7.472  10.760  -2.338  0.00  0.00     0.209 HD
ENDBRANCH  11  14
ENDBRANCH   8  11
ENDBRANCH   1   8
BRANCH   1  16
ATOM     16  O   LIG d   1      10.251   6.878  -0.065  0.00  0.00    -0.311 OA
BRANCH  16  17
ATOM     17  C   LIG d   1      11.222   7.362   0.866  0.00  0.00     0.046 C 
ATOM     18  H   LIG d   1      10.892   8.318   1.271  0.00  0.00     0.053 H 
ATOM     19  H   LIG d   1      11.338   6.643   1.676  0.00  0.00     0.053 H 
ATOM     20  H   LIG d   1      12.177   7.493   0.357  0.00  0.00     0.053 H 
ENDBRANCH  16  17
ENDBRANCH   1  16
TORSDOF 7
ENDMDL
