MODEL 1
REMARK VINA RESULT:      -6.5      0.000      0.000
REMARK  4 active torsions:
REMARK  status: ('A' for Active; 'I' for Inactive)
REMARK    1  A    between atoms: N_5  and  N_6 
REMARK       I    between atoms: N_6  and  C_7 
REMARK    2  A    between atoms: C_7  and  C_9 
REMARK    3  A    between atoms: C_9  and  C_10 
REMARK    4  A    between atoms: C_9  and  C_14 
ROOT
ATOM      1  N   LIG d   1       3.599  -0.525  -5.118  0.00  0.00    -0.220 N 
ATOM      2  C   LIG d   1       4.759  -0.221  -4.505  0.00  0.00     0.252 C 
ATOM      3  O   LIG d   1       5.712   0.149  -5.159  0.00  0.00    -0.273 OA
ATOM      4  H   LIG d   1       2.837  -0.821  -4.595  0.00  0.00     0.176 HD
ENDROOT
BRANCH   2   5
ATOM      5  C   LIG d   1       4.875  -0.340  -3.007  0.00  0.00     0.226 C 
ATOM      6  H   LIG d   1       5.927  -0.350  -2.724  0.00  0.00     0.058 H 
BRANCH   5   7
ATOM      7  C   LIG d   1       4.180   0.852  -2.345  0.00  0.00     0.409 C 
ATOM      8  F   LIG d   1       4.670   1.013  -1.044  0.00  0.00    -0.170 F 
ATOM      9  F   LIG d   1       4.434   2.011  -3.086  0.00  0.00    -0.170 F 
ATOM     10  F   LIG d   1       2.801   0.620  -2.298  0.00  0.00    -0.170 F 
ENDBRANCH   5   7
BRANCH   5  11
ATOM     11  C   LIG d   1       4.209  -1.638  -2.545  0.00  0.00     0.409 C 
ATOM     12  F   LIG d   1       4.737  -2.715  -3.265  0.00  0.00    -0.170 F 
ATOM     13  F   LIG d   1       4.451  -1.827  -1.180  0.00  0.00    -0.170 F 
ATOM     14  F   LIG d   1       2.830  -1.561  -2.768  0.00  0.00    -0.170 F 
ENDBRANCH   5  11
ENDBRANCH   2   5
BRANCH   1  15
ATOM     15  N   LIG d   1       3.492  -0.415  -6.511  0.00  0.00    -0.234 N 
ATOM     16  C   LIG d   1       3.938  -1.299  -7.436  0.00  0.00     0.138 A 
ATOM     17  N   LIG d   1       3.636  -0.818  -8.610  0.00  0.00    -0.137 NA
ATOM     18  H   LIG d   1       4.445  -2.232  -7.236  0.00  0.00     0.106 H 
ATOM     19  N   LIG d   1       3.031   0.309  -8.474  0.00  0.00    -0.137 NA
ATOM     20  C   LIG d   1       2.919   0.597  -7.206  0.00  0.00     0.138 A 
ATOM     21  H   LIG d   1       2.456   1.479  -6.789  0.00  0.00     0.106 H 
ENDBRANCH   1  15
TORSDOF 4
ENDMDL
MODEL 2
REMARK VINA RESULT:      -6.5      0.896      2.666
REMARK  4 active torsions:
REMARK  status: ('A' for Active; 'I' for Inactive)
REMARK    1  A    between atoms: N_5  and  N_6 
REMARK       I    between atoms: N_6  and  C_7 
REMARK    2  A    between atoms: C_7  and  C_9 
REMARK    3  A    between atoms: C_9  and  C_10 
REMARK    4  A    between atoms: C_9  and  C_14 
ROOT
ATOM      1  N   LIG d   1       3.065  -0.222  -5.543  0.00  0.00    -0.220 N 
ATOM      2  C   LIG d   1       4.135  -0.104  -4.732  0.00  0.00     0.252 C 
ATOM      3  O   LIG d   1       5.242   0.038  -5.207  0.00  0.00    -0.273 OA
ATOM      4  H   LIG d   1       2.180  -0.336  -5.163  0.00  0.00     0.176 HD
ENDROOT
BRANCH   2   5
ATOM      5  C   LIG d   1       3.956  -0.148  -3.236  0.00  0.00     0.226 C 
ATOM      6  H   LIG d   1       2.910  -0.342  -3.001  0.00  0.00     0.058 H 
BRANCH   5   7
ATOM      7  C   LIG d   1       4.826  -1.263  -2.651  0.00  0.00     0.409 C 
ATOM      8  F   LIG d   1       4.402  -1.549  -1.348  0.00  0.00    -0.170 F 
ATOM      9  F   LIG d   1       4.710  -2.410  -3.442  0.00  0.00    -0.170 F 
ATOM     10  F   LIG d   1       6.161  -0.846  -2.624  0.00  0.00    -0.170 F 
ENDBRANCH   5   7
BRANCH   5  11
ATOM     11  C   LIG d   1       4.374   1.195  -2.633  0.00  0.00     0.409 C 
ATOM     12  F   LIG d   1       3.489   2.192  -3.055  0.00  0.00    -0.170 F 
ATOM     13  F   LIG d   1       4.347   1.107  -1.236  0.00  0.00    -0.170 F 
ATOM     14  F   LIG d   1       5.670   1.513  -3.054  0.00  0.00    -0.170 F 
ENDBRANCH   5  11
ENDBRANCH   2   5
BRANCH   1  15
ATOM     15  N   LIG d   1       3.231  -0.182  -6.933  0.00  0.00    -0.234 N 
ATOM     16  C   LIG d   1       3.053   0.888  -7.745  0.00  0.00     0.138 A 
ATOM     17  N   LIG d   1       3.312   0.499  -8.963  0.00  0.00    -0.137 NA
ATOM     18  H   LIG d   1       2.758   1.882  -7.439  0.00  0.00     0.106 H 
ATOM     19  N   LIG d   1       3.638  -0.746  -8.960  0.00  0.00    -0.137 NA
ATOM     20  C   LIG d   1       3.603  -1.206  -7.739  0.00  0.00     0.138 A 
ATOM     21  H   LIG d   1       3.828  -2.215  -7.430  0.00  0.00     0.106 H 
ENDBRANCH   1  15
TORSDOF 4
ENDMDL
MODEL 3
REMARK VINA RESULT:      -5.9      1.679      2.332
REMARK  4 active torsions:
REMARK  status: ('A' for Active; 'I' for Inactive)
REMARK    1  A    between atoms: N_5  and  N_6 
REMARK       I    between atoms: N_6  and  C_7 
REMARK    2  A    between atoms: C_7  and  C_9 
REMARK    3  A    between atoms: C_9  and  C_10 
REMARK    4  A    between atoms: C_9  and  C_14 
ROOT
ATOM      1  N   LIG d   1       5.438   0.074  -5.625  0.00  0.00    -0.220 N 
ATOM      2  C   LIG d   1       4.692  -0.679  -4.795  0.00  0.00     0.252 C 
ATOM      3  O   LIG d   1       4.158  -1.688  -5.207  0.00  0.00    -0.273 OA
ATOM      4  H   LIG d   1       5.865   0.881  -5.296  0.00  0.00     0.176 HD
ENDROOT
BRANCH   2   5
ATOM      5  C   LIG d   1       4.520  -0.270  -3.355  0.00  0.00     0.226 C 
ATOM      6  H   LIG d   1       5.258   0.492  -3.103  0.00  0.00     0.058 H 
BRANCH   5   7
ATOM      7  C   LIG d   1       3.113   0.296  -3.150  0.00  0.00     0.409 C 
ATOM      8  F   LIG d   1       2.692   0.936  -4.321  0.00  0.00    -0.170 F 
ATOM      9  F   LIG d   1       2.230  -0.744  -2.844  0.00  0.00    -0.170 F 
ATOM     10  F   LIG d   1       3.131   1.218  -2.097  0.00  0.00    -0.170 F 
ENDBRANCH   5   7
BRANCH   5  11
ATOM     11  C   LIG d   1       4.715  -1.489  -2.451  0.00  0.00     0.409 C 
ATOM     12  F   LIG d   1       3.766  -2.465  -2.773  0.00  0.00    -0.170 F 
ATOM     13  F   LIG d   1       6.001  -2.008  -2.638  0.00  0.00    -0.170 F 
ATOM     14  F   LIG d   1       4.556  -1.109  -1.114  0.00  0.00    -0.170 F 
ENDBRANCH   5  11
ENDBRANCH   2   5
BRANCH   1  15
ATOM     15  N   LIG d   1       5.598  -0.306  -6.964  0.00  0.00    -0.234 N 
ATOM     16  C   LIG d   1       4.815   0.048  -8.012  0.00  0.00     0.138 A 
ATOM     17  N   LIG d   1       5.312  -0.518  -9.077  0.00  0.00    -0.137 NA
ATOM     18  H   LIG d   1       3.943   0.685  -7.972  0.00  0.00     0.106 H 
ATOM     19  N   LIG d   1       6.354  -1.202  -8.758  0.00  0.00    -0.137 NA
ATOM     20  C   LIG d   1       6.569  -1.102  -7.474  0.00  0.00     0.138 A 
ATOM     21  H   LIG d   1       7.372  -1.567  -6.923  0.00  0.00     0.106 H 
ENDBRANCH   1  15
TORSDOF 4
ENDMDL
MODEL 4
REMARK VINA RESULT:      -5.9      1.549      2.431
REMARK  4 active torsions:
REMARK  status: ('A' for Active; 'I' for Inactive)
REMARK    1  A    between atoms: N_5  and  N_6 
REMARK       I    between atoms: N_6  and  C_7 
REMARK    2  A    between atoms: C_7  and  C_9 
REMARK    3  A    between atoms: C_9  and  C_10 
REMARK    4  A    between atoms: C_9  and  C_14 
ROOT
ATOM      1  N   LIG d   1       4.076  -1.175  -6.320  0.00  0.00    -0.220 N 
ATOM      2  C   LIG d   1       4.159  -0.689  -5.066  0.00  0.00     0.252 C 
ATOM      3  O   LIG d   1       3.913   0.479  -4.851  0.00  0.00    -0.273 OA
ATOM      4  H   LIG d   1       4.273  -2.109  -6.492  0.00  0.00     0.176 HD
ENDROOT
BRANCH   2   5
ATOM      5  C   LIG d   1       4.558  -1.596  -3.931  0.00  0.00     0.226 C 
ATOM      6  H   LIG d   1       4.539  -2.632  -4.270  0.00  0.00     0.058 H 
BRANCH   5   7
ATOM      7  C   LIG d   1       5.970  -1.239  -3.463  0.00  0.00     0.409 C 
ATOM      8  F   LIG d   1       5.985   0.078  -2.989  0.00  0.00    -0.170 F 
ATOM      9  F   LIG d   1       6.357  -2.107  -2.438  0.00  0.00    -0.170 F 
ATOM     10  F   LIG d   1       6.860  -1.356  -4.536  0.00  0.00    -0.170 F 
ENDBRANCH   5   7
BRANCH   5  11
ATOM     11  C   LIG d   1       3.577  -1.422  -2.769  0.00  0.00     0.409 C 
ATOM     12  F   LIG d   1       4.015  -0.382  -1.942  0.00  0.00    -0.170 F 
ATOM     13  F   LIG d   1       2.308  -1.115  -3.272  0.00  0.00    -0.170 F 
ATOM     14  F   LIG d   1       3.512  -2.608  -2.031  0.00  0.00    -0.170 F 
ENDBRANCH   5  11
ENDBRANCH   2   5
BRANCH   1  15
ATOM     15  N   LIG d   1       3.706  -0.332  -7.375  0.00  0.00    -0.234 N 
ATOM     16  C   LIG d   1       4.526   0.436  -8.133  0.00  0.00     0.138 A 
ATOM     17  N   LIG d   1       3.781   1.062  -9.001  0.00  0.00    -0.137 NA
ATOM     18  H   LIG d   1       5.600   0.511  -8.038  0.00  0.00     0.106 H 
ATOM     19  N   LIG d   1       2.549   0.733  -8.832  0.00  0.00    -0.137 NA
ATOM     20  C   LIG d   1       2.453  -0.119  -7.847  0.00  0.00     0.138 A 
ATOM     21  H   LIG d   1       1.544  -0.570  -7.478  0.00  0.00     0.106 H 
ENDBRANCH   1  15
TORSDOF 4
ENDMDL
MODEL 5
REMARK VINA RESULT:      -5.9      2.718      3.674
REMARK  4 active torsions:
REMARK  status: ('A' for Active; 'I' for Inactive)
REMARK    1  A    between atoms: N_5  and  N_6 
REMARK       I    between atoms: N_6  and  C_7 
REMARK    2  A    between atoms: C_7  and  C_9 
REMARK    3  A    between atoms: C_9  and  C_10 
REMARK    4  A    between atoms: C_9  and  C_14 
ROOT
ATOM      1  N   LIG d   1       6.032  -0.615  -5.182  0.00  0.00    -0.220 N 
ATOM      2  C   LIG d   1       5.296  -0.121  -4.168  0.00  0.00     0.252 C 
ATOM      3  O   LIG d   1       5.581   0.954  -3.681  0.00  0.00    -0.273 OA
ATOM      4  H   LIG d   1       5.804  -1.475  -5.571  0.00  0.00     0.176 HD
ENDROOT
BRANCH   2   5
ATOM      5  C   LIG d   1       4.122  -0.901  -3.636  0.00  0.00     0.226 C 
ATOM      6  H   LIG d   1       3.822  -1.650  -4.369  0.00  0.00     0.058 H 
BRANCH   5   7
ATOM      7  C   LIG d   1       4.519  -1.595  -2.331  0.00  0.00     0.409 C 
ATOM      8  F   LIG d   1       3.661  -2.676  -2.098  0.00  0.00    -0.170 F 
ATOM      9  F   LIG d   1       5.835  -2.057  -2.428  0.00  0.00    -0.170 F 
ATOM     10  F   LIG d   1       4.420  -0.686  -1.272  0.00  0.00    -0.170 F 
ENDBRANCH   5   7
BRANCH   5  11
ATOM     11  C   LIG d   1       2.954   0.051  -3.372  0.00  0.00     0.409 C 
ATOM     12  F   LIG d   1       2.645   0.747  -4.546  0.00  0.00    -0.170 F 
ATOM     13  F   LIG d   1       1.837  -0.684  -2.958  0.00  0.00    -0.170 F 
ATOM     14  F   LIG d   1       3.310   0.961  -2.371  0.00  0.00    -0.170 F 
ENDBRANCH   5  11
ENDBRANCH   2   5
BRANCH   1  15
ATOM     15  N   LIG d   1       7.123   0.110  -5.676  0.00  0.00    -0.234 N 
ATOM     16  C   LIG d   1       8.351   0.219  -5.114  0.00  0.00     0.138 A 
ATOM     17  N   LIG d   1       9.069   0.981  -5.893  0.00  0.00    -0.137 NA
ATOM     18  H   LIG d   1       8.677  -0.244  -4.194  0.00  0.00     0.106 H 
ATOM     19  N   LIG d   1       8.365   1.353  -6.904  0.00  0.00    -0.137 NA
ATOM     20  C   LIG d   1       7.166   0.844  -6.814  0.00  0.00     0.138 A 
ATOM     21  H   LIG d   1       6.359   0.983  -7.518  0.00  0.00     0.106 H 
ENDBRANCH   1  15
TORSDOF 4
ENDMDL
MODEL 6
REMARK VINA RESULT:      -5.7      3.680      5.460
REMARK  4 active torsions:
REMARK  status: ('A' for Active; 'I' for Inactive)
REMARK    1  A    between atoms: N_5  and  N_6 
REMARK       I    between atoms: N_6  and  C_7 
REMARK    2  A    between atoms: C_7  and  C_9 
REMARK    3  A    between atoms: C_9  and  C_10 
REMARK    4  A    between atoms: C_9  and  C_14 
ROOT
ATOM      1  N   LIG d   1       2.639  -0.097  -5.047  0.00  0.00    -0.220 N 
ATOM      2  C   LIG d   1       3.387   0.016  -6.162  0.00  0.00     0.252 C 
ATOM      3  O   LIG d   1       4.591   0.131  -6.074  0.00  0.00    -0.273 OA
ATOM      4  H   LIG d   1       1.676  -0.190  -5.117  0.00  0.00     0.176 HD
ENDROOT
BRANCH   2   5
ATOM      5  C   LIG d   1       2.728  -0.002  -7.517  0.00  0.00     0.226 C 
ATOM      6  H   LIG d   1       1.651  -0.118  -7.396  0.00  0.00     0.058 H 
BRANCH   5   7
ATOM      7  C   LIG d   1       3.019   1.313  -8.243  0.00  0.00     0.409 C 
ATOM      8  F   LIG d   1       2.526   2.383  -7.487  0.00  0.00    -0.170 F 
ATOM      9  F   LIG d   1       4.400   1.459  -8.411  0.00  0.00    -0.170 F 
ATOM     10  F   LIG d   1       2.395   1.302  -9.495  0.00  0.00    -0.170 F 
ENDBRANCH   5   7
BRANCH   5  11
ATOM     11  C   LIG d   1       3.279  -1.170  -8.338  0.00  0.00     0.409 C 
ATOM     12  F   LIG d   1       2.288  -1.636  -9.207  0.00  0.00    -0.170 F 
ATOM     13  F   LIG d   1       4.384  -0.739  -9.079  0.00  0.00    -0.170 F 
ATOM     14  F   LIG d   1       3.668  -2.202  -7.478  0.00  0.00    -0.170 F 
ENDBRANCH   5  11
ENDBRANCH   2   5
BRANCH   1  15
ATOM     15  N   LIG d   1       3.252  -0.081  -3.787  0.00  0.00    -0.234 N 
ATOM     16  C   LIG d   1       3.586   1.011  -3.057  0.00  0.00     0.138 A 
ATOM     17  N   LIG d   1       4.130   0.586  -1.950  0.00  0.00    -0.137 NA
ATOM     18  H   LIG d   1       3.426   2.042  -3.337  0.00  0.00     0.106 H 
ATOM     19  N   LIG d   1       4.157  -0.701  -1.946  0.00  0.00    -0.137 NA
ATOM     20  C   LIG d   1       3.629  -1.154  -3.051  0.00  0.00     0.138 A 
ATOM     21  H   LIG d   1       3.515  -2.191  -3.326  0.00  0.00     0.106 H 
ENDBRANCH   1  15
TORSDOF 4
ENDMDL
MODEL 7
REMARK VINA RESULT:      -5.6      2.975      3.693
REMARK  4 active torsions:
REMARK  status: ('A' for Active; 'I' for Inactive)
REMARK    1  A    between atoms: N_5  and  N_6 
REMARK       I    between atoms: N_6  and  C_7 
REMARK    2  A    between atoms: C_7  and  C_9 
REMARK    3  A    between atoms: C_9  and  C_10 
REMARK    4  A    between atoms: C_9  and  C_14 
ROOT
ATOM      1  N   LIG d   1       4.895  -2.450  -5.447  0.00  0.00    -0.220 N 
ATOM      2  C   LIG d   1       4.413  -1.997  -4.273  0.00  0.00     0.252 C 
ATOM      3  O   LIG d   1       3.918  -2.773  -3.482  0.00  0.00    -0.273 OA
ATOM      4  H   LIG d   1       5.291  -1.829  -6.079  0.00  0.00     0.176 HD
ENDROOT
BRANCH   2   5
ATOM      5  C   LIG d   1       4.489  -0.529  -3.941  0.00  0.00     0.226 C 
ATOM      6  H   LIG d   1       4.937   0.009  -4.777  0.00  0.00     0.058 H 
BRANCH   5   7
ATOM      7  C   LIG d   1       3.080   0.009  -3.685  0.00  0.00     0.409 C 
ATOM      8  F   LIG d   1       2.367   0.044  -4.889  0.00  0.00    -0.170 F 
ATOM      9  F   LIG d   1       2.419  -0.823  -2.776  0.00  0.00    -0.170 F 
ATOM     10  F   LIG d   1       3.165   1.303  -3.158  0.00  0.00    -0.170 F 
ENDBRANCH   5   7
BRANCH   5  11
ATOM     11  C   LIG d   1       5.345  -0.332  -2.689  0.00  0.00     0.409 C 
ATOM     12  F   LIG d   1       6.431  -1.213  -2.723  0.00  0.00    -0.170 F 
ATOM     13  F   LIG d   1       5.815   0.985  -2.647  0.00  0.00    -0.170 F 
ATOM     14  F   LIG d   1       4.574  -0.588  -1.550  0.00  0.00    -0.170 F 
ENDBRANCH   5  11
ENDBRANCH   2   5
BRANCH   1  15
ATOM     15  N   LIG d   1       4.825  -3.814  -5.755  0.00  0.00    -0.234 N 
ATOM     16  C   LIG d   1       3.919  -4.423  -6.558  0.00  0.00     0.138 A 
ATOM     17  N   LIG d   1       4.209  -5.695  -6.577  0.00  0.00    -0.137 NA
ATOM     18  H   LIG d   1       3.110  -3.943  -7.089  0.00  0.00     0.106 H 
ATOM     19  N   LIG d   1       5.238  -5.915  -5.835  0.00  0.00    -0.137 NA
ATOM     20  C   LIG d   1       5.650  -4.793  -5.312  0.00  0.00     0.138 A 
ATOM     21  H   LIG d   1       6.492  -4.669  -4.648  0.00  0.00     0.106 H 
ENDBRANCH   1  15
TORSDOF 4
ENDMDL
MODEL 8
REMARK VINA RESULT:      -5.6      3.060      4.419
REMARK  4 active torsions:
REMARK  status: ('A' for Active; 'I' for Inactive)
REMARK    1  A    between atoms: N_5  and  N_6 
REMARK       I    between atoms: N_6  and  C_7 
REMARK    2  A    between atoms: C_7  and  C_9 
REMARK    3  A    between atoms: C_9  and  C_10 
REMARK    4  A    between atoms: C_9  and  C_14 
ROOT
ATOM      1  N   LIG d   1       6.312  -1.565  -4.572  0.00  0.00    -0.220 N 
ATOM      2  C   LIG d   1       5.976  -0.749  -3.554  0.00  0.00     0.252 C 
ATOM      3  O   LIG d   1       6.828  -0.360  -2.784  0.00  0.00    -0.273 OA
ATOM      4  H   LIG d   1       5.630  -1.877  -5.188  0.00  0.00     0.176 HD
ENDROOT
BRANCH   2   5
ATOM      5  C   LIG d   1       4.543  -0.319  -3.373  0.00  0.00     0.226 C 
ATOM      6  H   LIG d   1       4.076  -0.191  -4.349  0.00  0.00     0.058 H 
BRANCH   5   7
ATOM      7  C   LIG d   1       3.786  -1.387  -2.581  0.00  0.00     0.409 C 
ATOM      8  F   LIG d   1       2.465  -0.971  -2.381  0.00  0.00    -0.170 F 
ATOM      9  F   LIG d   1       3.793  -2.590  -3.295  0.00  0.00    -0.170 F 
ATOM     10  F   LIG d   1       4.407  -1.576  -1.342  0.00  0.00    -0.170 F 
ENDBRANCH   5   7
BRANCH   5  11
ATOM     11  C   LIG d   1       4.501   1.006  -2.609  0.00  0.00     0.409 C 
ATOM     12  F   LIG d   1       4.589   0.756  -1.235  0.00  0.00    -0.170 F 
ATOM     13  F   LIG d   1       5.576   1.809  -3.006  0.00  0.00    -0.170 F 
ATOM     14  F   LIG d   1       3.299   1.666  -2.886  0.00  0.00    -0.170 F 
ENDBRANCH   5  11
ENDBRANCH   2   5
BRANCH   1  15
ATOM     15  N   LIG d   1       7.643  -1.965  -4.741  0.00  0.00    -0.234 N 
ATOM     16  C   LIG d   1       8.603  -1.326  -5.452  0.00  0.00     0.138 A 
ATOM     17  N   LIG d   1       9.696  -2.030  -5.350  0.00  0.00    -0.137 NA
ATOM     18  H   LIG d   1       8.486  -0.401  -5.998  0.00  0.00     0.106 H 
ATOM     19  N   LIG d   1       9.477  -3.067  -4.621  0.00  0.00    -0.137 NA
ATOM     20  C   LIG d   1       8.233  -3.070  -4.225  0.00  0.00     0.138 A 
ATOM     21  H   LIG d   1       7.763  -3.816  -3.602  0.00  0.00     0.106 H 
ENDBRANCH   1  15
TORSDOF 4
ENDMDL
MODEL 9
REMARK VINA RESULT:      -5.4      4.364      6.178
REMARK  4 active torsions:
REMARK  status: ('A' for Active; 'I' for Inactive)
REMARK    1  A    between atoms: N_5  and  N_6 
REMARK       I    between atoms: N_6  and  C_7 
REMARK    2  A    between atoms: C_7  and  C_9 
REMARK    3  A    between atoms: C_9  and  C_10 
REMARK    4  A    between atoms: C_9  and  C_14 
ROOT
ATOM      1  N   LIG d   1       4.371   0.275  -6.169  0.00  0.00    -0.220 N 
ATOM      2  C   LIG d   1       3.722   0.184  -7.347  0.00  0.00     0.252 C 
ATOM      3  O   LIG d   1       2.785  -0.577  -7.465  0.00  0.00    -0.273 OA
ATOM      4  H   LIG d   1       5.121   0.883  -6.075  0.00  0.00     0.176 HD
ENDROOT
BRANCH   2   5
ATOM      5  C   LIG d   1       4.161   1.027  -8.517  0.00  0.00     0.226 C 
ATOM      6  H   LIG d   1       5.022   1.630  -8.227  0.00  0.00     0.058 H 
BRANCH   5   7
ATOM      7  C   LIG d   1       4.546   0.117  -9.685  0.00  0.00     0.409 C 
ATOM      8  F   LIG d   1       5.215  -1.011  -9.198  0.00  0.00    -0.170 F 
ATOM      9  F   LIG d   1       3.392  -0.282 -10.367  0.00  0.00    -0.170 F 
ATOM     10  F   LIG d   1       5.387   0.814 -10.560  0.00  0.00    -0.170 F 
ENDBRANCH   5   7
BRANCH   5  11
ATOM     11  C   LIG d   1       3.014   1.945  -8.943  0.00  0.00     0.409 C 
ATOM     12  F   LIG d   1       1.927   1.171  -9.361  0.00  0.00    -0.170 F 
ATOM     13  F   LIG d   1       2.627   2.743  -7.860  0.00  0.00    -0.170 F 
ATOM     14  F   LIG d   1       3.437   2.763  -9.996  0.00  0.00    -0.170 F 
ENDBRANCH   5  11
ENDBRANCH   2   5
BRANCH   1  15
ATOM     15  N   LIG d   1       3.964  -0.509  -5.082  0.00  0.00    -0.234 N 
ATOM     16  C   LIG d   1       4.416  -1.743  -4.751  0.00  0.00     0.138 A 
ATOM     17  N   LIG d   1       3.780  -2.113  -3.674  0.00  0.00    -0.137 NA
ATOM     18  H   LIG d   1       5.169  -2.311  -5.278  0.00  0.00     0.106 H 
ATOM     19  N   LIG d   1       2.960  -1.189  -3.315  0.00  0.00    -0.137 NA
ATOM     20  C   LIG d   1       3.038  -0.186  -4.147  0.00  0.00     0.138 A 
ATOM     21  H   LIG d   1       2.468   0.730  -4.099  0.00  0.00     0.106 H 
ENDBRANCH   1  15
TORSDOF 4
ENDMDL
