MODEL 1
REMARK VINA RESULT:      -5.7      0.000      0.000
REMARK  7 active torsions:
REMARK  status: ('A' for Active; 'I' for Inactive)
REMARK    1  A    between atoms: C_1  and  C_2 
REMARK    2  A    between atoms: C_3  and  C_17 
REMARK    3  A    between atoms: C_9  and  O_13 
REMARK    4  A    between atoms: O_13  and  C_14 
REMARK    5  A    between atoms: C_14  and  C_15 
REMARK    6  A    between atoms: C_20  and  O_23 
REMARK    7  A    between atoms: O_23  and  C_24 
ROOT
ATOM      1  C   LIG d   1       8.743   0.041  -4.987  0.00  0.00     0.114 A 
ATOM      2  C   LIG d   1       8.178   1.060  -4.290  0.00  0.00     0.067 A 
ATOM      3  C   LIG d   1       6.849   0.853  -3.689  0.00  0.00     0.200 A 
ATOM      4  O   LIG d   1       6.293   1.732  -3.052  0.00  0.00    -0.286 OA
ATOM      5  C   LIG d   1       6.225  -0.466  -3.895  0.00  0.00     0.065 A 
ATOM      6  C   LIG d   1       4.967  -0.763  -3.365  0.00  0.00    -0.044 A 
ATOM      7  C   LIG d   1       4.418  -1.994  -3.575  0.00  0.00    -0.019 A 
ATOM      8  C   LIG d   1       5.106  -2.956  -4.313  0.00  0.00     0.125 A 
ATOM      9  C   LIG d   1       6.354  -2.677  -4.844  0.00  0.00     0.023 A 
ATOM     10  C   LIG d   1       6.927  -1.429  -4.640  0.00  0.00     0.142 A 
ATOM     11  O   LIG d   1       8.142  -1.141  -5.149  0.00  0.00    -0.459 OA
ATOM     12  H   LIG d   1       4.431  -0.019  -2.794  0.00  0.00     0.063 H 
ATOM     13  H   LIG d   1       3.444  -2.225  -3.167  0.00  0.00     0.065 H 
ATOM     14  H   LIG d   1       6.880  -3.428  -5.414  0.00  0.00     0.069 H 
ENDROOT
BRANCH   2  15
ATOM     15  C   LIG d   1       8.884   2.355  -4.137  0.00  0.00    -0.011 A 
ATOM     16  C   LIG d   1       9.770   2.547  -3.078  0.00  0.00    -0.050 A 
ATOM     17  C   LIG d   1      10.426   3.751  -2.938  0.00  0.00    -0.019 A 
ATOM     18  H   LIG d   1       9.942   1.752  -2.367  0.00  0.00     0.062 H 
ATOM     19  C   LIG d   1      10.205   4.773  -3.852  0.00  0.00     0.120 A 
ATOM     20  H   LIG d   1      11.111   3.901  -2.117  0.00  0.00     0.065 H 
ATOM     21  C   LIG d   1       9.324   4.586  -4.908  0.00  0.00    -0.019 A 
ATOM     22  C   LIG d   1       8.669   3.381  -5.056  0.00  0.00    -0.050 A 
ATOM     23  H   LIG d   1       9.155   5.382  -5.617  0.00  0.00     0.065 H 
ATOM     24  H   LIG d   1       7.986   3.234  -5.880  0.00  0.00     0.062 H 
BRANCH  19  25
ATOM     25  O   LIG d   1      10.854   5.960  -3.713  0.00  0.00    -0.495 OA
BRANCH  25  26
ATOM     26  C   LIG d   1      11.493   6.208  -2.459  0.00  0.00     0.079 C 
ATOM     27  H   LIG d   1      12.457   6.688  -2.632  0.00  0.00     0.066 H 
ATOM     28  H   LIG d   1      10.865   6.861  -1.854  0.00  0.00     0.066 H 
ATOM     29  H   LIG d   1      11.645   5.263  -1.936  0.00  0.00     0.066 H 
ENDBRANCH  25  26
ENDBRANCH  19  25
ENDBRANCH   2  15
BRANCH   1  30
ATOM     30  C   LIG d   1      10.103   0.251  -5.603  0.00  0.00    -0.006 C 
ATOM     31  H   LIG d   1      10.830  -0.388  -5.103  0.00  0.00     0.031 H 
ATOM     32  H   LIG d   1      10.065  -0.001  -6.662  0.00  0.00     0.031 H 
ATOM     33  H   LIG d   1      10.396   1.295  -5.487  0.00  0.00     0.031 H 
ENDBRANCH   1  30
BRANCH   8  34
ATOM     34  O   LIG d   1       4.545  -4.175  -4.518  0.00  0.00    -0.486 OA
BRANCH  34  35
ATOM     35  C   LIG d   1       5.273  -5.096  -5.332  0.00  0.00     0.129 C 
ATOM     36  H   LIG d   1       6.017  -4.555  -5.917  0.00  0.00     0.076 H 
ATOM     37  H   LIG d   1       5.772  -5.827  -4.696  0.00  0.00     0.076 H 
BRANCH  35  38
ATOM     38  C   LIG d   1       4.322  -5.805  -6.261  0.00  0.00     0.079 C 
ATOM     39  O   LIG d   1       3.215  -5.358  -6.449  0.00  0.00    -0.546 OA
ATOM     40  O   LIG d   1       4.704  -6.933  -6.879  0.00  0.00    -0.546 OA
ENDBRANCH  35  38
ENDBRANCH  34  35
ENDBRANCH   8  34
TORSDOF 7
ENDMDL
MODEL 2
REMARK VINA RESULT:      -5.6      4.077      8.381
REMARK  7 active torsions:
REMARK  status: ('A' for Active; 'I' for Inactive)
REMARK    1  A    between atoms: C_1  and  C_2 
REMARK    2  A    between atoms: C_3  and  C_17 
REMARK    3  A    between atoms: C_9  and  O_13 
REMARK    4  A    between atoms: O_13  and  C_14 
REMARK    5  A    between atoms: C_14  and  C_15 
REMARK    6  A    between atoms: C_20  and  O_23 
REMARK    7  A    between atoms: O_23  and  C_24 
ROOT
ATOM      1  C   LIG d   1      10.697   6.823  -0.422  0.00  0.00     0.114 A 
ATOM      2  C   LIG d   1      10.571   7.999  -1.090  0.00  0.00     0.067 A 
ATOM      3  C   LIG d   1      10.183   7.965  -2.511  0.00  0.00     0.200 A 
ATOM      4  O   LIG d   1      10.055   8.989  -3.161  0.00  0.00    -0.286 OA
ATOM      5  C   LIG d   1       9.959   6.636  -3.107  0.00  0.00     0.065 A 
ATOM      6  C   LIG d   1       9.587   6.497  -4.446  0.00  0.00    -0.044 A 
ATOM      7  C   LIG d   1       9.387   5.251  -4.967  0.00  0.00    -0.019 A 
ATOM      8  C   LIG d   1       9.550   4.120  -4.169  0.00  0.00     0.125 A 
ATOM      9  C   LIG d   1       9.918   4.243  -2.840  0.00  0.00     0.023 A 
ATOM     10  C   LIG d   1      10.126   5.502  -2.294  0.00  0.00     0.142 A 
ATOM     11  O   LIG d   1      10.483   5.639  -1.002  0.00  0.00    -0.459 OA
ATOM     12  H   LIG d   1       9.461   7.371  -5.067  0.00  0.00     0.063 H 
ATOM     13  H   LIG d   1       9.101   5.142  -6.003  0.00  0.00     0.065 H 
ATOM     14  H   LIG d   1      10.042   3.361  -2.229  0.00  0.00     0.069 H 
ENDROOT
BRANCH   2  15
ATOM     15  C   LIG d   1      10.820   9.289  -0.404  0.00  0.00    -0.011 A 
ATOM     16  C   LIG d   1      12.122   9.768  -0.266  0.00  0.00    -0.050 A 
ATOM     17  C   LIG d   1      12.350  10.969   0.372  0.00  0.00    -0.019 A 
ATOM     18  H   LIG d   1      12.951   9.199  -0.658  0.00  0.00     0.062 H 
ATOM     19  C   LIG d   1      11.284  11.702   0.877  0.00  0.00     0.120 A 
ATOM     20  H   LIG d   1      13.359  11.340   0.480  0.00  0.00     0.065 H 
ATOM     21  C   LIG d   1       9.987  11.228   0.741  0.00  0.00    -0.019 A 
ATOM     22  C   LIG d   1       9.751  10.030   0.099  0.00  0.00    -0.050 A 
ATOM     23  H   LIG d   1       9.160  11.801   1.134  0.00  0.00     0.065 H 
ATOM     24  H   LIG d   1       8.741   9.664  -0.010  0.00  0.00     0.062 H 
BRANCH  19  25
ATOM     25  O   LIG d   1      11.512  12.886   1.504  0.00  0.00    -0.495 OA
BRANCH  25  26
ATOM     26  C   LIG d   1      11.132  14.074   0.807  0.00  0.00     0.079 C 
ATOM     27  H   LIG d   1      11.540  14.048  -0.205  0.00  0.00     0.066 H 
ATOM     28  H   LIG d   1      10.045  14.136   0.758  0.00  0.00     0.066 H 
ATOM     29  H   LIG d   1      11.522  14.945   1.334  0.00  0.00     0.066 H 
ENDBRANCH  25  26
ENDBRANCH  19  25
ENDBRANCH   2  15
BRANCH   1  30
ATOM     30  C   LIG d   1      11.094   6.856   1.032  0.00  0.00    -0.006 C 
ATOM     31  H   LIG d   1      12.014   7.431   1.143  0.00  0.00     0.031 H 
ATOM     32  H   LIG d   1      10.301   7.323   1.615  0.00  0.00     0.031 H 
ATOM     33  H   LIG d   1      11.257   5.838   1.387  0.00  0.00     0.031 H 
ENDBRANCH   1  30
BRANCH   8  34
ATOM     34  O   LIG d   1       9.353   2.887  -4.702  0.00  0.00    -0.486 OA
BRANCH  34  35
ATOM     35  C   LIG d   1       8.889   1.865  -3.819  0.00  0.00     0.129 C 
ATOM     36  H   LIG d   1       9.485   0.963  -3.962  0.00  0.00     0.076 H 
ATOM     37  H   LIG d   1       8.983   2.205  -2.789  0.00  0.00     0.076 H 
BRANCH  35  38
ATOM     38  C   LIG d   1       7.443   1.563  -4.118  0.00  0.00     0.079 C 
ATOM     39  O   LIG d   1       6.600   1.744  -3.271  0.00  0.00    -0.546 OA
ATOM     40  O   LIG d   1       7.092   1.092  -5.324  0.00  0.00    -0.546 OA
ENDBRANCH  35  38
ENDBRANCH  34  35
ENDBRANCH   8  34
TORSDOF 7
ENDMDL
MODEL 3
REMARK VINA RESULT:      -5.5      9.678     13.398
REMARK  7 active torsions:
REMARK  status: ('A' for Active; 'I' for Inactive)
REMARK    1  A    between atoms: C_1  and  C_2 
REMARK    2  A    between atoms: C_3  and  C_17 
REMARK    3  A    between atoms: C_9  and  O_13 
REMARK    4  A    between atoms: O_13  and  C_14 
REMARK    5  A    between atoms: C_14  and  C_15 
REMARK    6  A    between atoms: C_20  and  O_23 
REMARK    7  A    between atoms: O_23  and  C_24 
ROOT
ATOM      1  C   LIG d   1       8.482  -9.199  -2.444  0.00  0.00     0.114 A 
ATOM      2  C   LIG d   1       7.739 -10.280  -2.094  0.00  0.00     0.067 A 
ATOM      3  C   LIG d   1       8.181 -11.102  -0.954  0.00  0.00     0.200 A 
ATOM      4  O   LIG d   1       7.554 -12.084  -0.594  0.00  0.00    -0.286 OA
ATOM      5  C   LIG d   1       9.416 -10.680  -0.270  0.00  0.00     0.065 A 
ATOM      6  C   LIG d   1       9.918 -11.391   0.822  0.00  0.00    -0.044 A 
ATOM      7  C   LIG d   1      11.066 -10.973   1.432  0.00  0.00    -0.019 A 
ATOM      8  C   LIG d   1      11.736  -9.841   0.972  0.00  0.00     0.125 A 
ATOM      9  C   LIG d   1      11.250  -9.126  -0.109  0.00  0.00     0.023 A 
ATOM     10  C   LIG d   1      10.084  -9.537  -0.742  0.00  0.00     0.142 A 
ATOM     11  O   LIG d   1       9.597  -8.852  -1.795  0.00  0.00    -0.459 OA
ATOM     12  H   LIG d   1       9.402 -12.269   1.180  0.00  0.00     0.063 H 
ATOM     13  H   LIG d   1      11.456 -11.523   2.277  0.00  0.00     0.065 H 
ATOM     14  H   LIG d   1      11.776  -8.250  -0.459  0.00  0.00     0.069 H 
ENDROOT
BRANCH   2  15
ATOM     15  C   LIG d   1       6.508 -10.627  -2.844  0.00  0.00    -0.011 A 
ATOM     16  C   LIG d   1       6.593 -11.377  -4.017  0.00  0.00    -0.050 A 
ATOM     17  C   LIG d   1       5.447 -11.699  -4.712  0.00  0.00    -0.019 A 
ATOM     18  H   LIG d   1       7.555 -11.705  -4.380  0.00  0.00     0.062 H 
ATOM     19  C   LIG d   1       4.209 -11.278  -4.246  0.00  0.00     0.120 A 
ATOM     20  H   LIG d   1       5.512 -12.279  -5.621  0.00  0.00     0.065 H 
ATOM     21  C   LIG d   1       4.121 -10.531  -3.079  0.00  0.00    -0.019 A 
ATOM     22  C   LIG d   1       5.263 -10.210  -2.376  0.00  0.00    -0.050 A 
ATOM     23  H   LIG d   1       3.157 -10.205  -2.719  0.00  0.00     0.065 H 
ATOM     24  H   LIG d   1       5.195  -9.633  -1.466  0.00  0.00     0.062 H 
BRANCH  19  25
ATOM     25  O   LIG d   1       3.080 -11.597  -4.933  0.00  0.00    -0.495 OA
BRANCH  25  26
ATOM     26  C   LIG d   1       3.229 -12.460  -6.062  0.00  0.00     0.079 C 
ATOM     27  H   LIG d   1       4.030 -13.176  -5.869  0.00  0.00     0.066 H 
ATOM     28  H   LIG d   1       2.297 -12.997  -6.236  0.00  0.00     0.066 H 
ATOM     29  H   LIG d   1       3.477 -11.866  -6.942  0.00  0.00     0.066 H 
ENDBRANCH  25  26
ENDBRANCH  19  25
ENDBRANCH   2  15
BRANCH   1  30
ATOM     30  C   LIG d   1       8.032  -8.358  -3.611  0.00  0.00    -0.006 C 
ATOM     31  H   LIG d   1       8.890  -8.122  -4.240  0.00  0.00     0.031 H 
ATOM     32  H   LIG d   1       7.295  -8.910  -4.194  0.00  0.00     0.031 H 
ATOM     33  H   LIG d   1       7.587  -7.434  -3.242  0.00  0.00     0.031 H 
ENDBRANCH   1  30
BRANCH   8  34
ATOM     34  O   LIG d   1      12.878  -9.440   1.585  0.00  0.00    -0.486 OA
BRANCH  34  35
ATOM     35  C   LIG d   1      12.854  -8.168   2.236  0.00  0.00     0.129 C 
ATOM     36  H   LIG d   1      13.845  -7.716   2.186  0.00  0.00     0.076 H 
ATOM     37  H   LIG d   1      12.133  -7.520   1.740  0.00  0.00     0.076 H 
BRANCH  35  38
ATOM     38  C   LIG d   1      12.458  -8.350   3.678  0.00  0.00     0.079 C 
ATOM     39  O   LIG d   1      11.381  -7.960   4.063  0.00  0.00    -0.546 OA
ATOM     40  O   LIG d   1      13.302  -8.945   4.536  0.00  0.00    -0.546 OA
ENDBRANCH  35  38
ENDBRANCH  34  35
ENDBRANCH   8  34
TORSDOF 7
ENDMDL
MODEL 4
REMARK VINA RESULT:      -5.5      5.751      8.696
REMARK  7 active torsions:
REMARK  status: ('A' for Active; 'I' for Inactive)
REMARK    1  A    between atoms: C_1  and  C_2 
REMARK    2  A    between atoms: C_3  and  C_17 
REMARK    3  A    between atoms: C_9  and  O_13 
REMARK    4  A    between atoms: O_13  and  C_14 
REMARK    5  A    between atoms: C_14  and  C_15 
REMARK    6  A    between atoms: C_20  and  O_23 
REMARK    7  A    between atoms: O_23  and  C_24 
ROOT
ATOM      1  C   LIG d   1       4.676  -2.155  -8.976  0.00  0.00     0.114 A 
ATOM      2  C   LIG d   1       3.871  -1.237  -9.573  0.00  0.00     0.067 A 
ATOM      3  C   LIG d   1       3.126  -0.293  -8.723  0.00  0.00     0.200 A 
ATOM      4  O   LIG d   1       2.389   0.552  -9.202  0.00  0.00    -0.286 OA
ATOM      5  C   LIG d   1       3.313  -0.420  -7.266  0.00  0.00     0.065 A 
ATOM      6  C   LIG d   1       2.652   0.428  -6.375  0.00  0.00    -0.044 A 
ATOM      7  C   LIG d   1       2.847   0.283  -5.032  0.00  0.00    -0.019 A 
ATOM      8  C   LIG d   1       3.704  -0.705  -4.548  0.00  0.00     0.125 A 
ATOM      9  C   LIG d   1       4.366  -1.552  -5.419  0.00  0.00     0.023 A 
ATOM     10  C   LIG d   1       4.179  -1.419  -6.788  0.00  0.00     0.142 A 
ATOM     11  O   LIG d   1       4.817  -2.235  -7.650  0.00  0.00    -0.459 OA
ATOM     12  H   LIG d   1       1.987   1.193  -6.747  0.00  0.00     0.063 H 
ATOM     13  H   LIG d   1       2.336   0.937  -4.341  0.00  0.00     0.065 H 
ATOM     14  H   LIG d   1       5.028  -2.314  -5.035  0.00  0.00     0.069 H 
ENDROOT
BRANCH   2  15
ATOM     15  C   LIG d   1       3.746  -1.187 -11.049  0.00  0.00    -0.011 A 
ATOM     16  C   LIG d   1       2.752  -1.924 -11.692  0.00  0.00    -0.050 A 
ATOM     17  C   LIG d   1       2.637  -1.874 -13.064  0.00  0.00    -0.019 A 
ATOM     18  H   LIG d   1       2.072  -2.532 -11.114  0.00  0.00     0.062 H 
ATOM     19  C   LIG d   1       3.510  -1.092 -13.808  0.00  0.00     0.120 A 
ATOM     20  H   LIG d   1       1.868  -2.446 -13.563  0.00  0.00     0.065 H 
ATOM     21  C   LIG d   1       4.501  -0.357 -13.172  0.00  0.00    -0.019 A 
ATOM     22  C   LIG d   1       4.618  -0.398 -11.798  0.00  0.00    -0.050 A 
ATOM     23  H   LIG d   1       5.179   0.251 -13.753  0.00  0.00     0.065 H 
ATOM     24  H   LIG d   1       5.386   0.177 -11.303  0.00  0.00     0.062 H 
BRANCH  19  25
ATOM     25  O   LIG d   1       3.394  -1.044 -15.162  0.00  0.00    -0.495 OA
BRANCH  25  26
ATOM     26  C   LIG d   1       4.304  -0.194 -15.862  0.00  0.00     0.079 C 
ATOM     27  H   LIG d   1       4.835   0.437 -15.147  0.00  0.00     0.066 H 
ATOM     28  H   LIG d   1       5.021  -0.802 -16.412  0.00  0.00     0.066 H 
ATOM     29  H   LIG d   1       3.750   0.435 -16.559  0.00  0.00     0.066 H 
ENDBRANCH  25  26
ENDBRANCH  19  25
ENDBRANCH   2  15
BRANCH   1  30
ATOM     30  C   LIG d   1       5.438  -3.122  -9.845  0.00  0.00    -0.006 C 
ATOM     31  H   LIG d   1       5.707  -4.001  -9.259  0.00  0.00     0.031 H 
ATOM     32  H   LIG d   1       4.816  -3.423 -10.687  0.00  0.00     0.031 H 
ATOM     33  H   LIG d   1       6.344  -2.641 -10.215  0.00  0.00     0.031 H 
ENDBRANCH   1  30
BRANCH   8  34
ATOM     34  O   LIG d   1       3.884  -0.841  -3.209  0.00  0.00    -0.486 OA
BRANCH  34  35
ATOM     35  C   LIG d   1       5.198  -0.597  -2.703  0.00  0.00     0.129 C 
ATOM     36  H   LIG d   1       5.351  -1.179  -1.794  0.00  0.00     0.076 H 
ATOM     37  H   LIG d   1       5.935  -0.889  -3.450  0.00  0.00     0.076 H 
BRANCH  35  38
ATOM     38  C   LIG d   1       5.352   0.869  -2.392  0.00  0.00     0.079 C 
ATOM     39  O   LIG d   1       4.812   1.341  -1.420  0.00  0.00    -0.546 OA
ATOM     40  O   LIG d   1       6.088   1.652  -3.197  0.00  0.00    -0.546 OA
ENDBRANCH  35  38
ENDBRANCH  34  35
ENDBRANCH   8  34
TORSDOF 7
ENDMDL
MODEL 5
REMARK VINA RESULT:      -5.4      7.160     10.085
REMARK  7 active torsions:
REMARK  status: ('A' for Active; 'I' for Inactive)
REMARK    1  A    between atoms: C_1  and  C_2 
REMARK    2  A    between atoms: C_3  and  C_17 
REMARK    3  A    between atoms: C_9  and  O_13 
REMARK    4  A    between atoms: O_13  and  C_14 
REMARK    5  A    between atoms: C_14  and  C_15 
REMARK    6  A    between atoms: C_20  and  O_23 
REMARK    7  A    between atoms: O_23  and  C_24 
ROOT
ATOM      1  C   LIG d   1       9.727   7.913  -6.356  0.00  0.00     0.114 A 
ATOM      2  C   LIG d   1       9.937   6.697  -6.921  0.00  0.00     0.067 A 
ATOM      3  C   LIG d   1      10.121   5.531  -6.040  0.00  0.00     0.200 A 
ATOM      4  O   LIG d   1      10.312   4.414  -6.491  0.00  0.00    -0.286 OA
ATOM      5  C   LIG d   1      10.062   5.779  -4.588  0.00  0.00     0.065 A 
ATOM      6  C   LIG d   1      10.223   4.741  -3.669  0.00  0.00    -0.044 A 
ATOM      7  C   LIG d   1      10.164   5.005  -2.331  0.00  0.00    -0.019 A 
ATOM      8  C   LIG d   1       9.941   6.306  -1.880  0.00  0.00     0.125 A 
ATOM      9  C   LIG d   1       9.779   7.345  -2.780  0.00  0.00     0.023 A 
ATOM     10  C   LIG d   1       9.837   7.093  -4.144  0.00  0.00     0.142 A 
ATOM     11  O   LIG d   1       9.681   8.094  -5.033  0.00  0.00    -0.459 OA
ATOM     12  H   LIG d   1      10.396   3.733  -4.015  0.00  0.00     0.063 H 
ATOM     13  H   LIG d   1      10.289   4.203  -1.618  0.00  0.00     0.065 H 
ATOM     14  H   LIG d   1       9.608   8.349  -2.421  0.00  0.00     0.069 H 
ENDROOT
BRANCH   2  15
ATOM     15  C   LIG d   1       9.981   6.545  -8.395  0.00  0.00    -0.011 A 
ATOM     16  C   LIG d   1       8.821   6.225  -9.099  0.00  0.00    -0.050 A 
ATOM     17  C   LIG d   1       8.864   6.086 -10.470  0.00  0.00    -0.019 A 
ATOM     18  H   LIG d   1       7.889   6.088  -8.572  0.00  0.00     0.062 H 
ATOM     19  C   LIG d   1      10.061   6.263 -11.150  0.00  0.00     0.120 A 
ATOM     20  H   LIG d   1       7.966   5.837 -11.017  0.00  0.00     0.065 H 
ATOM     21  C   LIG d   1      11.218   6.581 -10.452  0.00  0.00    -0.019 A 
ATOM     22  C   LIG d   1      11.180   6.727  -9.081  0.00  0.00    -0.050 A 
ATOM     23  H   LIG d   1      12.148   6.719 -10.984  0.00  0.00     0.065 H 
ATOM     24  H   LIG d   1      12.080   6.979  -8.539  0.00  0.00     0.062 H 
BRANCH  19  25
ATOM     25  O   LIG d   1      10.101   6.126 -12.502  0.00  0.00    -0.495 OA
BRANCH  25  26
ATOM     26  C   LIG d   1       8.856   6.197 -13.199  0.00  0.00     0.079 C 
ATOM     27  H   LIG d   1       8.129   5.546 -12.712  0.00  0.00     0.066 H 
ATOM     28  H   LIG d   1       8.490   7.223 -13.186  0.00  0.00     0.066 H 
ATOM     29  H   LIG d   1       8.999   5.874 -14.231  0.00  0.00     0.066 H 
ENDBRANCH  25  26
ENDBRANCH  19  25
ENDBRANCH   2  15
BRANCH   1  30
ATOM     30  C   LIG d   1       9.540   9.107  -7.256  0.00  0.00    -0.006 C 
ATOM     31  H   LIG d   1      10.428   9.738  -7.211  0.00  0.00     0.031 H 
ATOM     32  H   LIG d   1       9.386   8.769  -8.281  0.00  0.00     0.031 H 
ATOM     33  H   LIG d   1       8.672   9.678  -6.927  0.00  0.00     0.031 H 
ENDBRANCH   1  30
BRANCH   8  34
ATOM     34  O   LIG d   1       9.890   6.555  -0.547  0.00  0.00    -0.486 OA
BRANCH  34  35
ATOM     35  C   LIG d   1      11.089   7.025   0.073  0.00  0.00     0.129 C 
ATOM     36  H   LIG d   1      11.952   6.574  -0.418  0.00  0.00     0.076 H 
ATOM     37  H   LIG d   1      11.143   8.109  -0.019  0.00  0.00     0.076 H 
BRANCH  35  38
ATOM     38  C   LIG d   1      11.084   6.642   1.530  0.00  0.00     0.079 C 
ATOM     39  O   LIG d   1      11.435   7.441   2.366  0.00  0.00    -0.546 OA
ATOM     40  O   LIG d   1      10.689   5.414   1.900  0.00  0.00    -0.546 OA
ENDBRANCH  35  38
ENDBRANCH  34  35
ENDBRANCH   8  34
TORSDOF 7
ENDMDL
MODEL 6
REMARK VINA RESULT:      -5.4      4.714      7.109
REMARK  7 active torsions:
REMARK  status: ('A' for Active; 'I' for Inactive)
REMARK    1  A    between atoms: C_1  and  C_2 
REMARK    2  A    between atoms: C_3  and  C_17 
REMARK    3  A    between atoms: C_9  and  O_13 
REMARK    4  A    between atoms: O_13  and  C_14 
REMARK    5  A    between atoms: C_14  and  C_15 
REMARK    6  A    between atoms: C_20  and  O_23 
REMARK    7  A    between atoms: O_23  and  C_24 
ROOT
ATOM      1  C   LIG d   1       6.904  -4.644  -4.998  0.00  0.00     0.114 A 
ATOM      2  C   LIG d   1       5.577  -4.416  -5.174  0.00  0.00     0.067 A 
ATOM      3  C   LIG d   1       4.714  -5.539  -5.578  0.00  0.00     0.200 A 
ATOM      4  O   LIG d   1       3.516  -5.394  -5.750  0.00  0.00    -0.286 OA
ATOM      5  C   LIG d   1       5.370  -6.846  -5.764  0.00  0.00     0.065 A 
ATOM      6  C   LIG d   1       4.640  -7.974  -6.145  0.00  0.00    -0.044 A 
ATOM      7  C   LIG d   1       5.279  -9.170  -6.310  0.00  0.00    -0.019 A 
ATOM      8  C   LIG d   1       6.653  -9.269  -6.097  0.00  0.00     0.125 A 
ATOM      9  C   LIG d   1       7.389  -8.159  -5.718  0.00  0.00     0.023 A 
ATOM     10  C   LIG d   1       6.756  -6.936  -5.547  0.00  0.00     0.142 A 
ATOM     11  O   LIG d   1       7.457  -5.846  -5.177  0.00  0.00    -0.459 OA
ATOM     12  H   LIG d   1       3.576  -7.900  -6.312  0.00  0.00     0.063 H 
ATOM     13  H   LIG d   1       4.716 -10.043  -6.606  0.00  0.00     0.065 H 
ATOM     14  H   LIG d   1       8.453  -8.246  -5.555  0.00  0.00     0.069 H 
ENDROOT
BRANCH   2  15
ATOM     15  C   LIG d   1       5.007  -3.063  -4.963  0.00  0.00    -0.011 A 
ATOM     16  C   LIG d   1       4.529  -2.694  -3.707  0.00  0.00    -0.050 A 
ATOM     17  C   LIG d   1       4.001  -1.435  -3.514  0.00  0.00    -0.019 A 
ATOM     18  H   LIG d   1       4.573  -3.393  -2.885  0.00  0.00     0.062 H 
ATOM     19  C   LIG d   1       3.945  -0.535  -4.569  0.00  0.00     0.120 A 
ATOM     20  H   LIG d   1       3.630  -1.149  -2.541  0.00  0.00     0.065 H 
ATOM     21  C   LIG d   1       4.420  -0.899  -5.821  0.00  0.00    -0.019 A 
ATOM     22  C   LIG d   1       4.954  -2.155  -6.020  0.00  0.00    -0.050 A 
ATOM     23  H   LIG d   1       4.375  -0.196  -6.640  0.00  0.00     0.065 H 
ATOM     24  H   LIG d   1       5.328  -2.437  -6.993  0.00  0.00     0.062 H 
BRANCH  19  25
ATOM     25  O   LIG d   1       3.425   0.706  -4.376  0.00  0.00    -0.495 OA
BRANCH  25  26
ATOM     26  C   LIG d   1       3.592   1.287  -3.081  0.00  0.00     0.079 C 
ATOM     27  H   LIG d   1       2.703   1.095  -2.479  0.00  0.00     0.066 H 
ATOM     28  H   LIG d   1       4.462   0.846  -2.595  0.00  0.00     0.066 H 
ATOM     29  H   LIG d   1       3.738   2.362  -3.182  0.00  0.00     0.066 H 
ENDBRANCH  25  26
ENDBRANCH  19  25
ENDBRANCH   2  15
BRANCH   1  30
ATOM     30  C   LIG d   1       7.787  -3.494  -4.585  0.00  0.00    -0.006 C 
ATOM     31  H   LIG d   1       7.784  -3.407  -3.499  0.00  0.00     0.031 H 
ATOM     32  H   LIG d   1       8.805  -3.675  -4.932  0.00  0.00     0.031 H 
ATOM     33  H   LIG d   1       7.411  -2.571  -5.025  0.00  0.00     0.031 H 
ENDBRANCH   1  30
BRANCH   8  34
ATOM     34  O   LIG d   1       7.275 -10.463  -6.269  0.00  0.00    -0.486 OA
BRANCH  34  35
ATOM     35  C   LIG d   1       7.874 -11.055  -5.114  0.00  0.00     0.129 C 
ATOM     36  H   LIG d   1       8.897 -11.352  -5.348  0.00  0.00     0.076 H 
ATOM     37  H   LIG d   1       7.881 -10.334  -4.299  0.00  0.00     0.076 H 
BRANCH  35  38
ATOM     38  C   LIG d   1       7.081 -12.269  -4.705  0.00  0.00     0.079 C 
ATOM     39  O   LIG d   1       7.415 -12.912  -3.739  0.00  0.00    -0.546 OA
ATOM     40  O   LIG d   1       6.002 -12.637  -5.415  0.00  0.00    -0.546 OA
ENDBRANCH  35  38
ENDBRANCH  34  35
ENDBRANCH   8  34
TORSDOF 7
ENDMDL
MODEL 7
REMARK VINA RESULT:      -5.3     10.074     11.385
REMARK  7 active torsions:
REMARK  status: ('A' for Active; 'I' for Inactive)
REMARK    1  A    between atoms: C_1  and  C_2 
REMARK    2  A    between atoms: C_3  and  C_17 
REMARK    3  A    between atoms: C_9  and  O_13 
REMARK    4  A    between atoms: O_13  and  C_14 
REMARK    5  A    between atoms: C_14  and  C_15 
REMARK    6  A    between atoms: C_20  and  O_23 
REMARK    7  A    between atoms: O_23  and  C_24 
ROOT
ATOM      1  C   LIG d   1      10.023 -10.984   0.719  0.00  0.00     0.114 A 
ATOM      2  C   LIG d   1      10.514  -9.771   0.354  0.00  0.00     0.067 A 
ATOM      3  C   LIG d   1       9.845  -9.036  -0.733  0.00  0.00     0.200 A 
ATOM      4  O   LIG d   1      10.241  -7.944  -1.103  0.00  0.00    -0.286 OA
ATOM      5  C   LIG d   1       8.676  -9.685  -1.352  0.00  0.00     0.065 A 
ATOM      6  C   LIG d   1       7.972  -9.071  -2.390  0.00  0.00    -0.044 A 
ATOM      7  C   LIG d   1       6.893  -9.700  -2.941  0.00  0.00    -0.019 A 
ATOM      8  C   LIG d   1       6.491 -10.950  -2.472  0.00  0.00     0.125 A 
ATOM      9  C   LIG d   1       7.179 -11.571  -1.444  0.00  0.00     0.023 A 
ATOM     10  C   LIG d   1       8.279 -10.945  -0.872  0.00  0.00     0.142 A 
ATOM     11  O   LIG d   1       8.959 -11.535   0.130  0.00  0.00    -0.459 OA
ATOM     12  H   LIG d   1       8.281  -8.103  -2.756  0.00  0.00     0.063 H 
ATOM     13  H   LIG d   1       6.347  -9.226  -3.745  0.00  0.00     0.065 H 
ATOM     14  H   LIG d   1       6.860 -12.539  -1.087  0.00  0.00     0.069 H 
ENDROOT
BRANCH   2  15
ATOM     15  C   LIG d   1      11.700  -9.199   1.036  0.00  0.00    -0.011 A 
ATOM     16  C   LIG d   1      12.978  -9.437   0.533  0.00  0.00    -0.050 A 
ATOM     17  C   LIG d   1      14.078  -8.903   1.169  0.00  0.00    -0.019 A 
ATOM     18  H   LIG d   1      13.106 -10.039  -0.354  0.00  0.00     0.062 H 
ATOM     19  C   LIG d   1      13.915  -8.128   2.309  0.00  0.00     0.120 A 
ATOM     20  H   LIG d   1      15.069  -9.087   0.780  0.00  0.00     0.065 H 
ATOM     21  C   LIG d   1      12.644  -7.888   2.813  0.00  0.00    -0.019 A 
ATOM     22  C   LIG d   1      11.539  -8.416   2.178  0.00  0.00    -0.050 A 
ATOM     23  H   LIG d   1      12.520  -7.285   3.700  0.00  0.00     0.065 H 
ATOM     24  H   LIG d   1      10.549  -8.226   2.568  0.00  0.00     0.062 H 
BRANCH  19  25
ATOM     25  O   LIG d   1      15.002  -7.601   2.934  0.00  0.00    -0.495 OA
BRANCH  25  26
ATOM     26  C   LIG d   1      16.207  -8.368   2.897  0.00  0.00     0.079 C 
ATOM     27  H   LIG d   1      16.371  -8.832   3.870  0.00  0.00     0.066 H 
ATOM     28  H   LIG d   1      16.123  -9.142   2.135  0.00  0.00     0.066 H 
ATOM     29  H   LIG d   1      17.046  -7.713   2.660  0.00  0.00     0.066 H 
ENDBRANCH  25  26
ENDBRANCH  19  25
ENDBRANCH   2  15
BRANCH   1  30
ATOM     30  C   LIG d   1      10.708 -11.737   1.831  0.00  0.00    -0.006 C 
ATOM     31  H   LIG d   1      11.629 -11.222   2.104  0.00  0.00     0.031 H 
ATOM     32  H   LIG d   1      10.048 -11.784   2.697  0.00  0.00     0.031 H 
ATOM     33  H   LIG d   1      10.942 -12.747   1.495  0.00  0.00     0.031 H 
ENDBRANCH   1  30
BRANCH   8  34
ATOM     34  O   LIG d   1       5.419 -11.565  -3.034  0.00  0.00    -0.486 OA
BRANCH  34  35
ATOM     35  C   LIG d   1       4.835 -10.938  -4.176  0.00  0.00     0.129 C 
ATOM     36  H   LIG d   1       5.349  -9.997  -4.376  0.00  0.00     0.076 H 
ATOM     37  H   LIG d   1       4.930 -11.595  -5.040  0.00  0.00     0.076 H 
BRANCH  35  38
ATOM     38  C   LIG d   1       3.377 -10.666  -3.909  0.00  0.00     0.079 C 
ATOM     39  O   LIG d   1       2.534 -11.418  -4.339  0.00  0.00    -0.546 OA
ATOM     40  O   LIG d   1       3.015  -9.589  -3.195  0.00  0.00    -0.546 OA
ENDBRANCH  35  38
ENDBRANCH  34  35
ENDBRANCH   8  34
TORSDOF 7
ENDMDL
MODEL 8
REMARK VINA RESULT:      -5.0      6.669     10.082
REMARK  7 active torsions:
REMARK  status: ('A' for Active; 'I' for Inactive)
REMARK    1  A    between atoms: C_1  and  C_2 
REMARK    2  A    between atoms: C_3  and  C_17 
REMARK    3  A    between atoms: C_9  and  O_13 
REMARK    4  A    between atoms: O_13  and  C_14 
REMARK    5  A    between atoms: C_14  and  C_15 
REMARK    6  A    between atoms: C_20  and  O_23 
REMARK    7  A    between atoms: O_23  and  C_24 
ROOT
ATOM      1  C   LIG d   1       9.771   4.737  -6.249  0.00  0.00     0.114 A 
ATOM      2  C   LIG d   1       9.961   5.905  -6.914  0.00  0.00     0.067 A 
ATOM      3  C   LIG d   1      10.095   7.148  -6.135  0.00  0.00     0.200 A 
ATOM      4  O   LIG d   1      10.267   8.226  -6.678  0.00  0.00    -0.286 OA
ATOM      5  C   LIG d   1      10.010   7.025  -4.669  0.00  0.00     0.065 A 
ATOM      6  C   LIG d   1      10.126   8.144  -3.841  0.00  0.00    -0.044 A 
ATOM      7  C   LIG d   1      10.042   7.995  -2.487  0.00  0.00    -0.019 A 
ATOM      8  C   LIG d   1       9.845   6.734  -1.928  0.00  0.00     0.125 A 
ATOM      9  C   LIG d   1       9.729   5.616  -2.736  0.00  0.00     0.023 A 
ATOM     10  C   LIG d   1       9.811   5.749  -4.115  0.00  0.00     0.142 A 
ATOM     11  O   LIG d   1       9.701   4.671  -4.916  0.00  0.00    -0.459 OA
ATOM     12  H   LIG d   1      10.279   9.123  -4.271  0.00  0.00     0.063 H 
ATOM     13  H   LIG d   1      10.131   8.860  -1.845  0.00  0.00     0.065 H 
ATOM     14  H   LIG d   1       9.575   4.642  -2.294  0.00  0.00     0.069 H 
ENDROOT
BRANCH   2  15
ATOM     15  C   LIG d   1      10.032   5.929  -8.395  0.00  0.00    -0.011 A 
ATOM     16  C   LIG d   1       8.865   6.056  -9.148  0.00  0.00    -0.050 A 
ATOM     17  C   LIG d   1       8.934   6.080 -10.525  0.00  0.00    -0.019 A 
ATOM     18  H   LIG d   1       7.909   6.137  -8.654  0.00  0.00     0.062 H 
ATOM     19  C   LIG d   1      10.163   5.976 -11.162  0.00  0.00     0.120 A 
ATOM     20  H   LIG d   1       8.031   6.177 -11.109  0.00  0.00     0.065 H 
ATOM     21  C   LIG d   1      11.326   5.849 -10.415  0.00  0.00    -0.019 A 
ATOM     22  C   LIG d   1      11.265   5.831  -9.037  0.00  0.00    -0.050 A 
ATOM     23  H   LIG d   1      12.281   5.769 -10.913  0.00  0.00     0.065 H 
ATOM     24  H   LIG d   1      12.170   5.736  -8.456  0.00  0.00     0.062 H 
BRANCH  19  25
ATOM     25  O   LIG d   1      10.229   6.000 -12.519  0.00  0.00    -0.495 OA
BRANCH  25  26
ATOM     26  C   LIG d   1       8.989   6.047 -13.229  0.00  0.00     0.079 C 
ATOM     27  H   LIG d   1       9.058   5.424 -14.122  0.00  0.00     0.066 H 
ATOM     28  H   LIG d   1       8.189   5.676 -12.589  0.00  0.00     0.066 H 
ATOM     29  H   LIG d   1       8.776   7.076 -13.519  0.00  0.00     0.066 H 
ENDBRANCH  25  26
ENDBRANCH  19  25
ENDBRANCH   2  15
BRANCH   1  30
ATOM     30  C   LIG d   1       9.633   3.464  -7.045  0.00  0.00    -0.006 C 
ATOM     31  H   LIG d   1       8.579   3.199  -7.125  0.00  0.00     0.031 H 
ATOM     32  H   LIG d   1      10.047   3.613  -8.042  0.00  0.00     0.031 H 
ATOM     33  H   LIG d   1      10.172   2.661  -6.542  0.00  0.00     0.031 H 
ENDBRANCH   1  30
BRANCH   8  34
ATOM     34  O   LIG d   1       9.758   6.602  -0.579  0.00  0.00    -0.486 OA
BRANCH  34  35
ATOM     35  C   LIG d   1      10.957   6.255   0.117  0.00  0.00     0.129 C 
ATOM     36  H   LIG d   1      10.838   5.274   0.578  0.00  0.00     0.076 H 
ATOM     37  H   LIG d   1      11.790   6.229  -0.585  0.00  0.00     0.076 H 
BRANCH  35  38
ATOM     38  C   LIG d   1      11.231   7.282   1.185  0.00  0.00     0.079 C 
ATOM     39  O   LIG d   1      11.332   6.940   2.340  0.00  0.00    -0.546 OA
ATOM     40  O   LIG d   1      11.362   8.576   0.854  0.00  0.00    -0.546 OA
ENDBRANCH  35  38
ENDBRANCH  34  35
ENDBRANCH   8  34
TORSDOF 7
ENDMDL
MODEL 9
REMARK VINA RESULT:      -4.9      7.388      9.268
REMARK  7 active torsions:
REMARK  status: ('A' for Active; 'I' for Inactive)
REMARK    1  A    between atoms: C_1  and  C_2 
REMARK    2  A    between atoms: C_3  and  C_17 
REMARK    3  A    between atoms: C_9  and  O_13 
REMARK    4  A    between atoms: O_13  and  C_14 
REMARK    5  A    between atoms: C_14  and  C_15 
REMARK    6  A    between atoms: C_20  and  O_23 
REMARK    7  A    between atoms: O_23  and  C_24 
ROOT
ATOM      1  C   LIG d   1      10.680   5.379  -4.638  0.00  0.00     0.114 A 
ATOM      2  C   LIG d   1      10.538   6.622  -4.109  0.00  0.00     0.067 A 
ATOM      3  C   LIG d   1      10.032   7.703  -4.972  0.00  0.00     0.200 A 
ATOM      4  O   LIG d   1       9.883   8.838  -4.552  0.00  0.00    -0.286 OA
ATOM      5  C   LIG d   1       9.715   7.347  -6.367  0.00  0.00     0.065 A 
ATOM      6  C   LIG d   1       9.229   8.300  -7.264  0.00  0.00    -0.044 A 
ATOM      7  C   LIG d   1       8.946   7.936  -8.549  0.00  0.00    -0.019 A 
ATOM      8  C   LIG d   1       9.138   6.620  -8.967  0.00  0.00     0.125 A 
ATOM      9  C   LIG d   1       9.618   5.665  -8.088  0.00  0.00     0.023 A 
ATOM     10  C   LIG d   1       9.912   6.018  -6.778  0.00  0.00     0.142 A 
ATOM     11  O   LIG d   1      10.380   5.100  -5.909  0.00  0.00    -0.459 OA
ATOM     12  H   LIG d   1       9.080   9.320  -6.944  0.00  0.00     0.063 H 
ATOM     13  H   LIG d   1       8.570   8.672  -9.246  0.00  0.00     0.065 H 
ATOM     14  H   LIG d   1       9.764   4.648  -8.421  0.00  0.00     0.069 H 
ENDROOT
BRANCH   2  15
ATOM     15  C   LIG d   1      10.885   6.885  -2.692  0.00  0.00    -0.011 A 
ATOM     16  C   LIG d   1      12.172   7.297  -2.353  0.00  0.00    -0.050 A 
ATOM     17  C   LIG d   1      12.492   7.542  -1.034  0.00  0.00    -0.019 A 
ATOM     18  H   LIG d   1      12.919   7.426  -3.122  0.00  0.00     0.062 H 
ATOM     19  C   LIG d   1      11.533   7.378  -0.044  0.00  0.00     0.120 A 
ATOM     20  H   LIG d   1      13.490   7.861  -0.770  0.00  0.00     0.065 H 
ATOM     21  C   LIG d   1      10.250   6.967  -0.378  0.00  0.00    -0.019 A 
ATOM     22  C   LIG d   1       9.922   6.726  -1.696  0.00  0.00    -0.050 A 
ATOM     23  H   LIG d   1       9.506   6.841   0.395  0.00  0.00     0.065 H 
ATOM     24  H   LIG d   1       8.923   6.410  -1.956  0.00  0.00     0.062 H 
BRANCH  19  25
ATOM     25  O   LIG d   1      11.850   7.621   1.256  0.00  0.00    -0.495 OA
BRANCH  25  26
ATOM     26  C   LIG d   1      11.696   8.963   1.722  0.00  0.00     0.079 C 
ATOM     27  H   LIG d   1      12.040   9.656   0.953  0.00  0.00     0.066 H 
ATOM     28  H   LIG d   1      10.646   9.154   1.939  0.00  0.00     0.066 H 
ATOM     29  H   LIG d   1      12.287   9.102   2.628  0.00  0.00     0.066 H 
ENDBRANCH  25  26
ENDBRANCH  19  25
ENDBRANCH   2  15
BRANCH   1  30
ATOM     30  C   LIG d   1      11.198   4.272  -3.756  0.00  0.00    -0.006 C 
ATOM     31  H   LIG d   1      12.287   4.261  -3.790  0.00  0.00     0.031 H 
ATOM     32  H   LIG d   1      10.868   4.439  -2.731  0.00  0.00     0.031 H 
ATOM     33  H   LIG d   1      10.814   3.315  -4.111  0.00  0.00     0.031 H 
ENDBRANCH   1  30
BRANCH   8  34
ATOM     34  O   LIG d   1       8.856   6.275 -10.250  0.00  0.00    -0.486 OA
BRANCH  34  35
ATOM     35  C   LIG d   1       9.842   6.585 -11.237  0.00  0.00     0.129 C 
ATOM     36  H   LIG d   1      10.360   7.503 -10.956  0.00  0.00     0.076 H 
ATOM     37  H   LIG d   1      10.559   5.768 -11.302  0.00  0.00     0.076 H 
BRANCH  35  38
ATOM     38  C   LIG d   1       9.172   6.774 -12.573  0.00  0.00     0.079 C 
ATOM     39  O   LIG d   1       8.545   5.868 -13.068  0.00  0.00    -0.546 OA
ATOM     40  O   LIG d   1       9.272   7.950 -13.212  0.00  0.00    -0.546 OA
ENDBRANCH  35  38
ENDBRANCH  34  35
ENDBRANCH   8  34
TORSDOF 7
ENDMDL
MODEL 10
REMARK VINA RESULT:      -4.9      4.026      7.771
REMARK  7 active torsions:
REMARK  status: ('A' for Active; 'I' for Inactive)
REMARK    1  A    between atoms: C_1  and  C_2 
REMARK    2  A    between atoms: C_3  and  C_17 
REMARK    3  A    between atoms: C_9  and  O_13 
REMARK    4  A    between atoms: O_13  and  C_14 
REMARK    5  A    between atoms: C_14  and  C_15 
REMARK    6  A    between atoms: C_20  and  O_23 
REMARK    7  A    between atoms: O_23  and  C_24 
ROOT
ATOM      1  C   LIG d   1      10.085   8.172  -3.670  0.00  0.00     0.114 A 
ATOM      2  C   LIG d   1      10.230   7.852  -2.359  0.00  0.00     0.067 A 
ATOM      3  C   LIG d   1      10.182   6.433  -1.969  0.00  0.00     0.200 A 
ATOM      4  O   LIG d   1      10.307   6.086  -0.807  0.00  0.00    -0.286 OA
ATOM      5  C   LIG d   1       9.975   5.453  -3.050  0.00  0.00     0.065 A 
ATOM      6  C   LIG d   1       9.915   4.084  -2.785  0.00  0.00    -0.044 A 
ATOM      7  C   LIG d   1       9.721   3.203  -3.810  0.00  0.00    -0.019 A 
ATOM      8  C   LIG d   1       9.586   3.665  -5.119  0.00  0.00     0.125 A 
ATOM      9  C   LIG d   1       9.644   5.020  -5.397  0.00  0.00     0.023 A 
ATOM     10  C   LIG d   1       9.839   5.929  -4.366  0.00  0.00     0.142 A 
ATOM     11  O   LIG d   1       9.899   7.251  -4.620  0.00  0.00    -0.459 OA
ATOM     12  H   LIG d   1      10.018   3.723  -1.773  0.00  0.00     0.063 H 
ATOM     13  H   LIG d   1       9.673   2.143  -3.607  0.00  0.00     0.065 H 
ATOM     14  H   LIG d   1       9.538   5.368  -6.414  0.00  0.00     0.069 H 
ENDROOT
BRANCH   2  15
ATOM     15  C   LIG d   1      10.434   8.910  -1.340  0.00  0.00    -0.011 A 
ATOM     16  C   LIG d   1       9.335   9.535  -0.752  0.00  0.00    -0.050 A 
ATOM     17  C   LIG d   1       9.527  10.517   0.195  0.00  0.00    -0.019 A 
ATOM     18  H   LIG d   1       8.334   9.249  -1.039  0.00  0.00     0.062 H 
ATOM     19  C   LIG d   1      10.813  10.886   0.565  0.00  0.00     0.120 A 
ATOM     20  H   LIG d   1       8.675  11.002   0.651  0.00  0.00     0.065 H 
ATOM     21  C   LIG d   1      11.910  10.266  -0.018  0.00  0.00    -0.019 A 
ATOM     22  C   LIG d   1      11.724   9.278  -0.963  0.00  0.00    -0.050 A 
ATOM     23  H   LIG d   1      12.909  10.554   0.272  0.00  0.00     0.065 H 
ATOM     24  H   LIG d   1      12.577   8.793  -1.414  0.00  0.00     0.062 H 
BRANCH  19  25
ATOM     25  O   LIG d   1      11.000  11.854   1.501  0.00  0.00    -0.495 OA
BRANCH  25  26
ATOM     26  C   LIG d   1      11.833  12.956   1.137  0.00  0.00     0.079 C 
ATOM     27  H   LIG d   1      11.211  13.828   0.929  0.00  0.00     0.066 H 
ATOM     28  H   LIG d   1      12.514  13.184   1.956  0.00  0.00     0.066 H 
ATOM     29  H   LIG d   1      12.407  12.699   0.246  0.00  0.00     0.066 H 
ENDBRANCH  25  26
ENDBRANCH  19  25
ENDBRANCH   2  15
BRANCH   1  30
ATOM     30  C   LIG d   1      10.134   9.625  -4.071  0.00  0.00    -0.006 C 
ATOM     31  H   LIG d   1       9.195  10.108  -3.798  0.00  0.00     0.031 H 
ATOM     32  H   LIG d   1      10.958  10.116  -3.555  0.00  0.00     0.031 H 
ATOM     33  H   LIG d   1      10.281   9.700  -5.148  0.00  0.00     0.031 H 
ENDBRANCH   1  30
BRANCH   8  34
ATOM     34  O   LIG d   1       9.389   2.778  -6.127  0.00  0.00    -0.486 OA
BRANCH  34  35
ATOM     35  C   LIG d   1       9.086   1.432  -5.758  0.00  0.00     0.129 C 
ATOM     36  H   LIG d   1       9.608   0.746  -6.426  0.00  0.00     0.076 H 
ATOM     37  H   LIG d   1       9.408   1.255  -4.733  0.00  0.00     0.076 H 
BRANCH  35  38
ATOM     38  C   LIG d   1       7.601   1.204  -5.865  0.00  0.00     0.079 C 
ATOM     39  O   LIG d   1       6.938   1.062  -4.865  0.00  0.00    -0.546 OA
ATOM     40  O   LIG d   1       7.014   1.158  -7.071  0.00  0.00    -0.546 OA
ENDBRANCH  35  38
ENDBRANCH  34  35
ENDBRANCH   8  34
TORSDOF 7
ENDMDL
