MODEL 1
REMARK VINA RESULT:      -6.8      0.000      0.000
REMARK  4 active torsions:
REMARK  status: ('A' for Active; 'I' for Inactive)
REMARK       I    between atoms: N_13  and  C_15 
REMARK    1  A    between atoms: C_15  and  C_17 
REMARK    2  A    between atoms: C_17  and  C_18 
REMARK    3  A    between atoms: C_18  and  C_24 
REMARK    4  A    between atoms: C_24  and  N_25 
ROOT
ATOM      1  C   LIG d   1       4.536  -2.957 -10.150  0.00  0.00     0.032 C 
ATOM      2  H   LIG d   1       5.605  -2.829 -10.320  0.00  0.00     0.036 H 
ATOM      3  H   LIG d   1       4.168  -3.783 -10.757  0.00  0.00     0.036 H 
ENDROOT
BRANCH   1   4
ATOM      4  C   LIG d   1       4.291  -3.256  -8.693  0.00  0.00     0.216 C 
ATOM      5  N   LIG d   1       5.139  -2.786  -7.757  0.00  0.00    -0.297 N 
ATOM      6  C   LIG d   1       6.309  -1.979  -8.133  0.00  0.00     0.020 C 
ATOM      7  C   LIG d   1       4.918  -3.066  -6.326  0.00  0.00     0.042 C 
ATOM      8  C   LIG d   1       6.156  -0.569  -7.554  0.00  0.00     0.004 C 
ATOM      9  H   LIG d   1       6.377  -1.921  -9.220  0.00  0.00     0.047 H 
ATOM     10  H   LIG d   1       7.213  -2.440  -7.735  0.00  0.00     0.047 H 
ATOM     11  C   LIG d   1       5.712  -0.675  -6.113  0.00  0.00     0.023 A 
ATOM     12  H   LIG d   1       5.408  -0.018  -8.126  0.00  0.00     0.034 H 
ATOM     13  H   LIG d   1       7.112  -0.047  -7.602  0.00  0.00     0.034 H 
ATOM     14  C   LIG d   1       5.159  -1.780  -5.575  0.00  0.00    -0.002 A 
ATOM     15  N   LIG d   1       5.792   0.302  -5.161  0.00  0.00    -0.358 N 
ATOM     16  C   LIG d   1       4.860  -1.485  -4.178  0.00  0.00     0.005 A 
ATOM     17  C   LIG d   1       5.278  -0.157  -3.968  0.00  0.00     0.047 A 
ATOM     18  C   LIG d   1       4.293  -2.210  -3.127  0.00  0.00    -0.052 A 
ATOM     19  C   LIG d   1       5.119   0.417  -2.712  0.00  0.00    -0.038 A 
ATOM     20  C   LIG d   1       4.557  -0.316  -1.689  0.00  0.00    -0.060 A 
ATOM     21  H   LIG d   1       5.436   1.434  -2.537  0.00  0.00     0.064 H 
ATOM     22  C   LIG d   1       4.146  -1.625  -1.901  0.00  0.00    -0.061 A 
ATOM     23  H   LIG d   1       4.435   0.133  -0.715  0.00  0.00     0.062 H 
ATOM     24  H   LIG d   1       3.711  -2.187  -1.088  0.00  0.00     0.062 H 
ATOM     25  H   LIG d   1       3.970  -3.228  -3.283  0.00  0.00     0.062 H 
ATOM     26  H   LIG d   1       6.158   1.189  -5.305  0.00  0.00     0.166 HD
ATOM     27  H   LIG d   1       5.617  -3.830  -5.986  0.00  0.00     0.051 H 
ATOM     28  H   LIG d   1       3.894  -3.402  -6.168  0.00  0.00     0.051 H 
ATOM     29  O   LIG d   1       3.331  -3.920  -8.363  0.00  0.00    -0.276 OA
ENDBRANCH   1   4
BRANCH   1  30
ATOM     30  C   LIG d   1       3.800  -1.672 -10.536  0.00  0.00    -0.001 C 
ATOM     31  C   LIG d   1       4.817  -0.609 -10.958  0.00  0.00    -0.045 C 
ATOM     32  C   LIG d   1       4.081   0.676 -11.343  0.00  0.00    -0.052 C 
ATOM     33  H   LIG d   1       5.494  -0.405 -10.128  0.00  0.00     0.027 H 
ATOM     34  H   LIG d   1       5.388  -0.972 -11.812  0.00  0.00     0.027 H 
ATOM     35  C   LIG d   1       3.280   1.184 -10.144  0.00  0.00    -0.053 C 
ATOM     36  H   LIG d   1       3.405   0.471 -12.173  0.00  0.00     0.026 H 
ATOM     37  H   LIG d   1       4.806   1.433 -11.643  0.00  0.00     0.026 H 
ATOM     38  C   LIG d   1       2.263   0.122  -9.722  0.00  0.00    -0.052 C 
ATOM     39  H   LIG d   1       2.756   2.100 -10.419  0.00  0.00     0.026 H 
ATOM     40  H   LIG d   1       3.956   1.388  -9.314  0.00  0.00     0.026 H 
ATOM     41  C   LIG d   1       2.998  -1.163  -9.337  0.00  0.00    -0.045 C 
ATOM     42  H   LIG d   1       1.585  -0.082 -10.552  0.00  0.00     0.026 H 
ATOM     43  H   LIG d   1       1.691   0.484  -8.867  0.00  0.00     0.026 H 
ATOM     44  H   LIG d   1       2.275  -1.921  -9.036  0.00  0.00     0.027 H 
ATOM     45  H   LIG d   1       3.676  -0.959  -8.507  0.00  0.00     0.027 H 
BRANCH  30  46
ATOM     46  C   LIG d   1       2.850  -1.958 -11.700  0.00  0.00     0.051 C 
ATOM     47  H   LIG d   1       2.210  -1.092 -11.868  0.00  0.00     0.051 H 
ATOM     48  H   LIG d   1       3.429  -2.162 -12.601  0.00  0.00     0.051 H 
BRANCH  46  49
ATOM     49  N   LIG d   1       2.021  -3.122 -11.379  0.00  0.00    -0.232 N 
ATOM     50  N   LIG d   1       0.963  -3.130 -10.639  0.00  0.00    -0.044 NA
ATOM     51  N   LIG d   1       0.502  -4.330 -10.587  0.00  0.00    -0.023 NA
ATOM     52  N   LIG d   1       1.257  -5.110 -11.282  0.00  0.00    -0.117 NA
ATOM     53  C   LIG d   1       2.223  -4.387 -11.794  0.00  0.00     0.138 A 
ATOM     54  H   LIG d   1       3.024  -4.738 -12.428  0.00  0.00     0.106 H 
ENDBRANCH  46  49
ENDBRANCH  30  46
ENDBRANCH   1  30
TORSDOF 4
ENDMDL
MODEL 2
REMARK VINA RESULT:      -6.8      3.981      6.174
REMARK  4 active torsions:
REMARK  status: ('A' for Active; 'I' for Inactive)
REMARK       I    between atoms: N_13  and  C_15 
REMARK    1  A    between atoms: C_15  and  C_17 
REMARK    2  A    between atoms: C_17  and  C_18 
REMARK    3  A    between atoms: C_18  and  C_24 
REMARK    4  A    between atoms: C_24  and  N_25 
ROOT
ATOM      1  C   LIG d   1       5.072  -1.238  -6.093  0.00  0.00     0.032 C 
ATOM      2  H   LIG d   1       5.910  -0.555  -6.230  0.00  0.00     0.036 H 
ATOM      3  H   LIG d   1       4.372  -1.126  -6.922  0.00  0.00     0.036 H 
ENDROOT
BRANCH   1   4
ATOM      4  C   LIG d   1       5.582  -2.657  -6.055  0.00  0.00     0.216 C 
ATOM      5  N   LIG d   1       6.871  -2.900  -5.749  0.00  0.00    -0.297 N 
ATOM      6  C   LIG d   1       7.798  -1.800  -5.448  0.00  0.00     0.020 C 
ATOM      7  C   LIG d   1       7.391  -4.280  -5.705  0.00  0.00     0.042 C 
ATOM      8  C   LIG d   1       8.264  -1.918  -3.992  0.00  0.00     0.004 C 
ATOM      9  H   LIG d   1       7.290  -0.846  -5.592  0.00  0.00     0.047 H 
ATOM     10  H   LIG d   1       8.661  -1.858  -6.112  0.00  0.00     0.047 H 
ATOM     11  C   LIG d   1       8.641  -3.354  -3.712  0.00  0.00     0.023 A 
ATOM     12  H   LIG d   1       7.457  -1.615  -3.325  0.00  0.00     0.034 H 
ATOM     13  H   LIG d   1       9.132  -1.276  -3.833  0.00  0.00     0.034 H 
ATOM     14  C   LIG d   1       8.247  -4.397  -4.469  0.00  0.00    -0.002 A 
ATOM     15  N   LIG d   1       9.409  -3.808  -2.677  0.00  0.00    -0.358 N 
ATOM     16  C   LIG d   1       8.801  -5.607  -3.870  0.00  0.00     0.005 A 
ATOM     17  C   LIG d   1       9.525  -5.179  -2.740  0.00  0.00     0.047 A 
ATOM     18  C   LIG d   1       8.744  -6.966  -4.186  0.00  0.00    -0.052 A 
ATOM     19  C   LIG d   1      10.176  -6.122  -1.952  0.00  0.00    -0.038 A 
ATOM     20  C   LIG d   1      10.107  -7.457  -2.281  0.00  0.00    -0.060 A 
ATOM     21  H   LIG d   1      10.735  -5.807  -1.083  0.00  0.00     0.064 H 
ATOM     22  C   LIG d   1       9.391  -7.874  -3.396  0.00  0.00    -0.061 A 
ATOM     23  H   LIG d   1      10.613  -8.186  -1.667  0.00  0.00     0.062 H 
ATOM     24  H   LIG d   1       9.350  -8.925  -3.643  0.00  0.00     0.062 H 
ATOM     25  H   LIG d   1       8.190  -7.299  -5.051  0.00  0.00     0.062 H 
ATOM     26  H   LIG d   1       9.813  -3.246  -1.997  0.00  0.00     0.166 HD
ATOM     27  H   LIG d   1       7.992  -4.477  -6.592  0.00  0.00     0.051 H 
ATOM     28  H   LIG d   1       6.563  -4.986  -5.652  0.00  0.00     0.051 H 
ATOM     29  O   LIG d   1       4.832  -3.577  -6.301  0.00  0.00    -0.276 OA
ENDBRANCH   1   4
BRANCH   1  30
ATOM     30  C   LIG d   1       4.360  -0.918  -4.778  0.00  0.00    -0.001 C 
ATOM     31  C   LIG d   1       5.108   0.203  -4.053  0.00  0.00    -0.045 C 
ATOM     32  C   LIG d   1       4.397   0.523  -2.737  0.00  0.00    -0.052 C 
ATOM     33  H   LIG d   1       6.130  -0.116  -3.846  0.00  0.00     0.027 H 
ATOM     34  H   LIG d   1       5.126   1.093  -4.682  0.00  0.00     0.027 H 
ATOM     35  C   LIG d   1       4.371  -0.725  -1.854  0.00  0.00    -0.053 C 
ATOM     36  H   LIG d   1       3.376   0.843  -2.944  0.00  0.00     0.026 H 
ATOM     37  H   LIG d   1       4.930   1.322  -2.220  0.00  0.00     0.026 H 
ATOM     38  C   LIG d   1       3.623  -1.847  -2.577  0.00  0.00    -0.052 C 
ATOM     39  H   LIG d   1       3.864  -0.497  -0.916  0.00  0.00     0.026 H 
ATOM     40  H   LIG d   1       5.392  -1.046  -1.647  0.00  0.00     0.026 H 
ATOM     41  C   LIG d   1       4.335  -2.167  -3.894  0.00  0.00    -0.045 C 
ATOM     42  H   LIG d   1       2.602  -1.527  -2.785  0.00  0.00     0.026 H 
ATOM     43  H   LIG d   1       3.605  -2.738  -1.949  0.00  0.00     0.026 H 
ATOM     44  H   LIG d   1       3.802  -2.966  -4.411  0.00  0.00     0.027 H 
ATOM     45  H   LIG d   1       5.356  -2.486  -3.686  0.00  0.00     0.027 H 
BRANCH  30  46
ATOM     46  C   LIG d   1       2.927  -0.470  -5.068  0.00  0.00     0.051 C 
ATOM     47  H   LIG d   1       2.272  -1.341  -5.100  0.00  0.00     0.051 H 
ATOM     48  H   LIG d   1       2.591   0.208  -4.283  0.00  0.00     0.051 H 
BRANCH  46  49
ATOM     49  N   LIG d   1       2.884   0.220  -6.359  0.00  0.00    -0.232 N 
ATOM     50  N   LIG d   1       2.982   1.493  -6.552  0.00  0.00    -0.044 NA
ATOM     51  N   LIG d   1       2.903   1.728  -7.815  0.00  0.00    -0.023 NA
ATOM     52  N   LIG d   1       2.746   0.617  -8.449  0.00  0.00    -0.117 NA
ATOM     53  C   LIG d   1       2.728  -0.353  -7.567  0.00  0.00     0.138 A 
ATOM     54  H   LIG d   1       2.612  -1.407  -7.771  0.00  0.00     0.106 H 
ENDBRANCH  46  49
ENDBRANCH  30  46
ENDBRANCH   1  30
TORSDOF 4
ENDMDL
MODEL 3
REMARK VINA RESULT:      -6.7      1.961      7.752
REMARK  4 active torsions:
REMARK  status: ('A' for Active; 'I' for Inactive)
REMARK       I    between atoms: N_13  and  C_15 
REMARK    1  A    between atoms: C_15  and  C_17 
REMARK    2  A    between atoms: C_17  and  C_18 
REMARK    3  A    between atoms: C_18  and  C_24 
REMARK    4  A    between atoms: C_24  and  N_25 
ROOT
ATOM      1  C   LIG d   1       6.289  -1.506  -5.371  0.00  0.00     0.032 C 
ATOM      2  H   LIG d   1       6.383  -2.591  -5.430  0.00  0.00     0.036 H 
ATOM      3  H   LIG d   1       7.274  -1.063  -5.224  0.00  0.00     0.036 H 
ENDROOT
BRANCH   1   4
ATOM      4  C   LIG d   1       5.690  -0.984  -6.652  0.00  0.00     0.216 C 
ATOM      5  N   LIG d   1       5.392  -1.837  -7.652  0.00  0.00    -0.297 N 
ATOM      6  C   LIG d   1       5.643  -3.279  -7.517  0.00  0.00     0.020 C 
ATOM      7  C   LIG d   1       4.804  -1.349  -8.914  0.00  0.00     0.042 C 
ATOM      8  C   LIG d   1       4.306  -4.028  -7.556  0.00  0.00     0.004 C 
ATOM      9  H   LIG d   1       6.142  -3.474  -6.568  0.00  0.00     0.047 H 
ATOM     10  H   LIG d   1       6.275  -3.618  -8.338  0.00  0.00     0.047 H 
ATOM     11  C   LIG d   1       3.472  -3.485  -8.692  0.00  0.00     0.023 A 
ATOM     12  H   LIG d   1       3.778  -3.883  -6.613  0.00  0.00     0.034 H 
ATOM     13  H   LIG d   1       4.488  -5.092  -7.714  0.00  0.00     0.034 H 
ATOM     14  C   LIG d   1       3.692  -2.296  -9.286  0.00  0.00    -0.002 A 
ATOM     15  N   LIG d   1       2.393  -4.090  -9.273  0.00  0.00    -0.358 N 
ATOM     16  C   LIG d   1       2.676  -2.127 -10.320  0.00  0.00     0.005 A 
ATOM     17  C   LIG d   1       1.880  -3.289 -10.269  0.00  0.00     0.047 A 
ATOM     18  C   LIG d   1       2.385  -1.126 -11.249  0.00  0.00    -0.052 A 
ATOM     19  C   LIG d   1       0.811  -3.420 -11.148  0.00  0.00    -0.038 A 
ATOM     20  C   LIG d   1       0.542  -2.420 -12.057  0.00  0.00    -0.060 A 
ATOM     21  H   LIG d   1       0.194  -4.306 -11.120  0.00  0.00     0.064 H 
ATOM     22  C   LIG d   1       1.329  -1.278 -12.103  0.00  0.00    -0.061 A 
ATOM     23  H   LIG d   1      -0.288  -2.526 -12.738  0.00  0.00     0.062 H 
ATOM     24  H   LIG d   1       1.108  -0.504 -12.823  0.00  0.00     0.062 H 
ATOM     25  H   LIG d   1       2.992  -0.233 -11.292  0.00  0.00     0.062 H 
ATOM     26  H   LIG d   1       2.040  -4.959  -9.021  0.00  0.00     0.166 HD
ATOM     27  H   LIG d   1       5.562  -1.341  -9.697  0.00  0.00     0.051 H 
ATOM     28  H   LIG d   1       4.406  -0.344  -8.773  0.00  0.00     0.051 H 
ATOM     29  O   LIG d   1       5.476   0.202  -6.783  0.00  0.00    -0.276 OA
ENDBRANCH   1   4
BRANCH   1  30
ATOM     30  C   LIG d   1       5.382  -1.135  -4.197  0.00  0.00    -0.001 C 
ATOM     31  C   LIG d   1       4.791  -2.408  -3.586  0.00  0.00    -0.045 C 
ATOM     32  C   LIG d   1       3.883  -2.037  -2.412  0.00  0.00    -0.052 C 
ATOM     33  H   LIG d   1       4.210  -2.937  -4.342  0.00  0.00     0.027 H 
ATOM     34  H   LIG d   1       5.598  -3.050  -3.233  0.00  0.00     0.027 H 
ATOM     35  C   LIG d   1       2.750  -1.137  -2.908  0.00  0.00    -0.053 C 
ATOM     36  H   LIG d   1       4.464  -1.508  -1.657  0.00  0.00     0.026 H 
ATOM     37  H   LIG d   1       3.462  -2.944  -1.978  0.00  0.00     0.026 H 
ATOM     38  C   LIG d   1       3.340   0.136  -3.518  0.00  0.00    -0.052 C 
ATOM     39  H   LIG d   1       2.104  -0.872  -2.071  0.00  0.00     0.026 H 
ATOM     40  H   LIG d   1       2.169  -1.665  -3.664  0.00  0.00     0.026 H 
ATOM     41  C   LIG d   1       4.248  -0.234  -4.692  0.00  0.00    -0.045 C 
ATOM     42  H   LIG d   1       3.921   0.666  -2.763  0.00  0.00     0.026 H 
ATOM     43  H   LIG d   1       2.533   0.779  -3.872  0.00  0.00     0.026 H 
ATOM     44  H   LIG d   1       4.669   0.672  -5.128  0.00  0.00     0.027 H 
ATOM     45  H   LIG d   1       3.667  -0.764  -5.448  0.00  0.00     0.027 H 
BRANCH  30  46
ATOM     46  C   LIG d   1       6.196  -0.392  -3.137  0.00  0.00     0.051 C 
ATOM     47  H   LIG d   1       5.520   0.125  -2.455  0.00  0.00     0.051 H 
ATOM     48  H   LIG d   1       6.802  -1.105  -2.577  0.00  0.00     0.051 H 
BRANCH  46  49
ATOM     49  N   LIG d   1       7.071   0.585  -3.789  0.00  0.00    -0.232 N 
ATOM     50  N   LIG d   1       6.796   1.823  -4.026  0.00  0.00    -0.044 NA
ATOM     51  N   LIG d   1       7.805   2.369  -4.609  0.00  0.00    -0.023 NA
ATOM     52  N   LIG d   1       8.736   1.492  -4.763  0.00  0.00    -0.117 NA
ATOM     53  C   LIG d   1       8.311   0.358  -4.261  0.00  0.00     0.138 A 
ATOM     54  H   LIG d   1       8.853  -0.576  -4.230  0.00  0.00     0.106 H 
ENDBRANCH  46  49
ENDBRANCH  30  46
ENDBRANCH   1  30
TORSDOF 4
ENDMDL
MODEL 4
REMARK VINA RESULT:      -6.6      2.526      3.493
REMARK  4 active torsions:
REMARK  status: ('A' for Active; 'I' for Inactive)
REMARK       I    between atoms: N_13  and  C_15 
REMARK    1  A    between atoms: C_15  and  C_17 
REMARK    2  A    between atoms: C_17  and  C_18 
REMARK    3  A    between atoms: C_18  and  C_24 
REMARK    4  A    between atoms: C_24  and  N_25 
ROOT
ATOM      1  C   LIG d   1       4.775  -0.533 -10.948  0.00  0.00     0.032 C 
ATOM      2  H   LIG d   1       4.381   0.484 -10.942  0.00  0.00     0.036 H 
ATOM      3  H   LIG d   1       5.531  -0.626 -11.728  0.00  0.00     0.036 H 
ENDROOT
BRANCH   1   4
ATOM      4  C   LIG d   1       5.396  -0.838  -9.608  0.00  0.00     0.216 C 
ATOM      5  N   LIG d   1       5.035  -0.128  -8.521  0.00  0.00    -0.297 N 
ATOM      6  C   LIG d   1       4.038   0.948  -8.618  0.00  0.00     0.020 C 
ATOM      7  C   LIG d   1       5.628  -0.410  -7.201  0.00  0.00     0.042 C 
ATOM      8  C   LIG d   1       2.805   0.569  -7.790  0.00  0.00     0.004 C 
ATOM      9  H   LIG d   1       3.749   1.084  -9.660  0.00  0.00     0.047 H 
ATOM     10  H   LIG d   1       4.464   1.875  -8.233  0.00  0.00     0.047 H 
ATOM     11  C   LIG d   1       3.259   0.043  -6.448  0.00  0.00     0.023 A 
ATOM     12  H   LIG d   1       2.238  -0.203  -8.312  0.00  0.00     0.034 H 
ATOM     13  H   LIG d   1       2.178   1.449  -7.643  0.00  0.00     0.034 H 
ATOM     14  C   LIG d   1       4.507  -0.395  -6.193  0.00  0.00    -0.002 A 
ATOM     15  N   LIG d   1       2.497  -0.074  -5.319  0.00  0.00    -0.358 N 
ATOM     16  C   LIG d   1       4.544  -0.828  -4.800  0.00  0.00     0.005 A 
ATOM     17  C   LIG d   1       3.248  -0.606  -4.294  0.00  0.00     0.047 A 
ATOM     18  C   LIG d   1       5.531  -1.367  -3.971  0.00  0.00    -0.052 A 
ATOM     19  C   LIG d   1       2.970  -0.928  -2.971  0.00  0.00    -0.038 A 
ATOM     20  C   LIG d   1       3.958  -1.458  -2.171  0.00  0.00    -0.060 A 
ATOM     21  H   LIG d   1       1.981  -0.762  -2.570  0.00  0.00     0.064 H 
ATOM     22  C   LIG d   1       5.233  -1.676  -2.674  0.00  0.00    -0.061 A 
ATOM     23  H   LIG d   1       3.738  -1.707  -1.144  0.00  0.00     0.062 H 
ATOM     24  H   LIG d   1       5.998  -2.089  -2.033  0.00  0.00     0.062 H 
ATOM     25  H   LIG d   1       6.525  -1.540  -4.355  0.00  0.00     0.062 H 
ATOM     26  H   LIG d   1       1.562   0.180  -5.250  0.00  0.00     0.166 HD
ATOM     27  H   LIG d   1       6.360   0.358  -6.952  0.00  0.00     0.051 H 
ATOM     28  H   LIG d   1       6.106  -1.389  -7.211  0.00  0.00     0.051 H 
ATOM     29  O   LIG d   1       6.220  -1.722  -9.509  0.00  0.00    -0.276 OA
ENDBRANCH   1   4
BRANCH   1  30
ATOM     30  C   LIG d   1       3.638  -1.520 -11.219  0.00  0.00    -0.001 C 
ATOM     31  C   LIG d   1       2.356  -0.747 -11.536  0.00  0.00    -0.045 C 
ATOM     32  C   LIG d   1       1.219  -1.733 -11.806  0.00  0.00    -0.052 C 
ATOM     33  H   LIG d   1       2.094  -0.113 -10.687  0.00  0.00     0.027 H 
ATOM     34  H   LIG d   1       2.516  -0.125 -12.417  0.00  0.00     0.027 H 
ATOM     35  C   LIG d   1       0.995  -2.604 -10.569  0.00  0.00    -0.053 C 
ATOM     36  H   LIG d   1       1.480  -2.365 -12.654  0.00  0.00     0.026 H 
ATOM     37  H   LIG d   1       0.306  -1.182 -12.031  0.00  0.00     0.026 H 
ATOM     38  C   LIG d   1       2.276  -3.378 -10.251  0.00  0.00    -0.052 C 
ATOM     39  H   LIG d   1       0.184  -3.308 -10.762  0.00  0.00     0.026 H 
ATOM     40  H   LIG d   1       0.734  -1.972  -9.720  0.00  0.00     0.026 H 
ATOM     41  C   LIG d   1       3.414  -2.392  -9.981  0.00  0.00    -0.045 C 
ATOM     42  H   LIG d   1       2.538  -4.012 -11.099  0.00  0.00     0.026 H 
ATOM     43  H   LIG d   1       2.117  -4.000  -9.369  0.00  0.00     0.026 H 
ATOM     44  H   LIG d   1       4.327  -2.942  -9.755  0.00  0.00     0.027 H 
ATOM     45  H   LIG d   1       3.152  -1.759  -9.133  0.00  0.00     0.027 H 
BRANCH  30  46
ATOM     46  C   LIG d   1       4.005  -2.408 -12.408  0.00  0.00     0.051 C 
ATOM     47  H   LIG d   1       4.776  -3.118 -12.108  0.00  0.00     0.051 H 
ATOM     48  H   LIG d   1       3.121  -2.951 -12.743  0.00  0.00     0.051 H 
BRANCH  46  49
ATOM     49  N   LIG d   1       4.509  -1.575 -13.502  0.00  0.00    -0.232 N 
ATOM     50  N   LIG d   1       3.798  -0.894 -14.338  0.00  0.00    -0.044 NA
ATOM     51  N   LIG d   1       4.587  -0.286 -15.153  0.00  0.00    -0.023 NA
ATOM     52  N   LIG d   1       5.809  -0.571 -14.861  0.00  0.00    -0.117 NA
ATOM     53  C   LIG d   1       5.800  -1.379 -13.829  0.00  0.00     0.138 A 
ATOM     54  H   LIG d   1       6.662  -1.804 -13.336  0.00  0.00     0.106 H 
ENDBRANCH  46  49
ENDBRANCH  30  46
ENDBRANCH   1  30
TORSDOF 4
ENDMDL
MODEL 5
REMARK VINA RESULT:      -6.5      4.948      7.592
REMARK  4 active torsions:
REMARK  status: ('A' for Active; 'I' for Inactive)
REMARK       I    between atoms: N_13  and  C_15 
REMARK    1  A    between atoms: C_15  and  C_17 
REMARK    2  A    between atoms: C_17  and  C_18 
REMARK    3  A    between atoms: C_18  and  C_24 
REMARK    4  A    between atoms: C_24  and  N_25 
ROOT
ATOM      1  C   LIG d   1       5.999  -2.224  -5.634  0.00  0.00     0.032 C 
ATOM      2  H   LIG d   1       6.944  -1.711  -5.813  0.00  0.00     0.036 H 
ATOM      3  H   LIG d   1       5.355  -2.118  -6.507  0.00  0.00     0.036 H 
ENDROOT
BRANCH   1   4
ATOM      4  C   LIG d   1       6.262  -3.687  -5.380  0.00  0.00     0.216 C 
ATOM      5  N   LIG d   1       7.524  -4.121  -5.191  0.00  0.00    -0.297 N 
ATOM      6  C   LIG d   1       8.658  -3.187  -5.228  0.00  0.00     0.020 C 
ATOM      7  C   LIG d   1       7.805  -5.547  -4.941  0.00  0.00     0.042 C 
ATOM      8  C   LIG d   1       9.319  -3.143  -3.846  0.00  0.00     0.004 C 
ATOM      9  H   LIG d   1       8.302  -2.191  -5.493  0.00  0.00     0.047 H 
ATOM     10  H   LIG d   1       9.384  -3.524  -5.968  0.00  0.00     0.047 H 
ATOM     11  C   LIG d   1       9.488  -4.556  -3.337  0.00  0.00     0.023 A 
ATOM     12  H   LIG d   1       8.689  -2.579  -3.157  0.00  0.00     0.034 H 
ATOM     13  H   LIG d   1      10.296  -2.664  -3.922  0.00  0.00     0.034 H 
ATOM     14  C   LIG d   1       8.811  -5.615  -3.820  0.00  0.00    -0.002 A 
ATOM     15  N   LIG d   1      10.320  -4.966  -2.334  0.00  0.00    -0.358 N 
ATOM     16  C   LIG d   1       9.239  -6.790  -3.067  0.00  0.00     0.005 A 
ATOM     17  C   LIG d   1      10.193  -6.324  -2.140  0.00  0.00     0.047 A 
ATOM     18  C   LIG d   1       8.906  -8.146  -3.100  0.00  0.00    -0.052 A 
ATOM     19  C   LIG d   1      10.790  -7.227  -1.267  0.00  0.00    -0.038 A 
ATOM     20  C   LIG d   1      10.447  -8.560  -1.317  0.00  0.00    -0.060 A 
ATOM     21  H   LIG d   1      11.523  -6.883  -0.552  0.00  0.00     0.064 H 
ATOM     22  C   LIG d   1       9.507  -9.013  -2.232  0.00  0.00    -0.061 A 
ATOM     23  H   LIG d   1      10.913  -9.257  -0.637  0.00  0.00     0.062 H 
ATOM     24  H   LIG d   1       9.251 -10.062  -2.261  0.00  0.00     0.062 H 
ATOM     25  H   LIG d   1       8.176  -8.507  -3.808  0.00  0.00     0.062 H 
ATOM     26  H   LIG d   1      10.914  -4.386  -1.832  0.00  0.00     0.166 HD
ATOM     27  H   LIG d   1       8.218  -6.006  -5.839  0.00  0.00     0.051 H 
ATOM     28  H   LIG d   1       6.888  -6.059  -4.650  0.00  0.00     0.051 H 
ATOM     29  O   LIG d   1       5.339  -4.472  -5.347  0.00  0.00    -0.276 OA
ENDBRANCH   1   4
BRANCH   1  30
ATOM     30  C   LIG d   1       5.309  -1.612  -4.413  0.00  0.00    -0.001 C 
ATOM     31  C   LIG d   1       4.582  -2.711  -3.635  0.00  0.00    -0.045 C 
ATOM     32  C   LIG d   1       3.890  -2.099  -2.415  0.00  0.00    -0.052 C 
ATOM     33  H   LIG d   1       3.836  -3.180  -4.278  0.00  0.00     0.027 H 
ATOM     34  H   LIG d   1       5.302  -3.461  -3.307  0.00  0.00     0.027 H 
ATOM     35  C   LIG d   1       2.880  -1.047  -2.875  0.00  0.00    -0.053 C 
ATOM     36  H   LIG d   1       4.636  -1.631  -1.772  0.00  0.00     0.026 H 
ATOM     37  H   LIG d   1       3.372  -2.882  -1.860  0.00  0.00     0.026 H 
ATOM     38  C   LIG d   1       3.606   0.052  -3.653  0.00  0.00    -0.052 C 
ATOM     39  H   LIG d   1       2.388  -0.611  -2.005  0.00  0.00     0.026 H 
ATOM     40  H   LIG d   1       2.135  -1.515  -3.518  0.00  0.00     0.026 H 
ATOM     41  C   LIG d   1       4.297  -0.560  -4.873  0.00  0.00    -0.045 C 
ATOM     42  H   LIG d   1       4.352   0.520  -3.010  0.00  0.00     0.026 H 
ATOM     43  H   LIG d   1       2.886   0.802  -3.982  0.00  0.00     0.026 H 
ATOM     44  H   LIG d   1       4.815   0.222  -5.429  0.00  0.00     0.027 H 
ATOM     45  H   LIG d   1       3.552  -1.029  -5.516  0.00  0.00     0.027 H 
BRANCH  30  46
ATOM     46  C   LIG d   1       6.354  -0.955  -3.511  0.00  0.00     0.051 C 
ATOM     47  H   LIG d   1       5.889  -0.661  -2.570  0.00  0.00     0.051 H 
ATOM     48  H   LIG d   1       7.160  -1.662  -3.313  0.00  0.00     0.051 H 
BRANCH  46  49
ATOM     49  N   LIG d   1       6.898   0.230  -4.178  0.00  0.00    -0.232 N 
ATOM     50  N   LIG d   1       6.876   1.440  -3.729  0.00  0.00    -0.044 NA
ATOM     51  N   LIG d   1       7.449   2.211  -4.585  0.00  0.00    -0.023 NA
ATOM     52  N   LIG d   1       7.839   1.514  -5.596  0.00  0.00    -0.117 NA
ATOM     53  C   LIG d   1       7.509   0.264  -5.376  0.00  0.00     0.138 A 
ATOM     54  H   LIG d   1       7.694  -0.576  -6.030  0.00  0.00     0.106 H 
ENDBRANCH  46  49
ENDBRANCH  30  46
ENDBRANCH   1  30
TORSDOF 4
ENDMDL
MODEL 6
REMARK VINA RESULT:      -6.5      4.830      7.271
REMARK  4 active torsions:
REMARK  status: ('A' for Active; 'I' for Inactive)
REMARK       I    between atoms: N_13  and  C_15 
REMARK    1  A    between atoms: C_15  and  C_17 
REMARK    2  A    between atoms: C_17  and  C_18 
REMARK    3  A    between atoms: C_18  and  C_24 
REMARK    4  A    between atoms: C_24  and  N_25 
ROOT
ATOM      1  C   LIG d   1       6.492  -0.124  -5.200  0.00  0.00     0.032 C 
ATOM      2  H   LIG d   1       6.202   0.449  -6.081  0.00  0.00     0.036 H 
ATOM      3  H   LIG d   1       7.198  -0.903  -5.488  0.00  0.00     0.036 H 
ENDROOT
BRANCH   1   4
ATOM      4  C   LIG d   1       7.140   0.793  -4.194  0.00  0.00     0.216 C 
ATOM      5  N   LIG d   1       8.277   1.443  -4.511  0.00  0.00    -0.297 N 
ATOM      6  C   LIG d   1       8.904   1.272  -5.829  0.00  0.00     0.020 C 
ATOM      7  C   LIG d   1       8.927   2.346  -3.543  0.00  0.00     0.042 C 
ATOM      8  C   LIG d   1       8.877   2.610  -6.577  0.00  0.00     0.004 C 
ATOM      9  H   LIG d   1       8.352   0.525  -6.400  0.00  0.00     0.047 H 
ATOM     10  H   LIG d   1       9.936   0.946  -5.702  0.00  0.00     0.047 H 
ATOM     11  C   LIG d   1       9.323   3.706  -5.637  0.00  0.00     0.023 A 
ATOM     12  H   LIG d   1       7.864   2.815  -6.923  0.00  0.00     0.034 H 
ATOM     13  H   LIG d   1       9.554   2.565  -7.431  0.00  0.00     0.034 H 
ATOM     14  C   LIG d   1       9.338   3.588  -4.295  0.00  0.00    -0.002 A 
ATOM     15  N   LIG d   1       9.761   4.952  -5.988  0.00  0.00    -0.358 N 
ATOM     16  C   LIG d   1       9.816   4.853  -3.748  0.00  0.00     0.005 A 
ATOM     17  C   LIG d   1      10.068   5.681  -4.860  0.00  0.00     0.047 A 
ATOM     18  C   LIG d   1      10.042   5.335  -2.457  0.00  0.00    -0.052 A 
ATOM     19  C   LIG d   1      10.539   6.972  -4.653  0.00  0.00    -0.038 A 
ATOM     20  C   LIG d   1      10.755   7.428  -3.371  0.00  0.00    -0.060 A 
ATOM     21  H   LIG d   1      10.737   7.617  -5.497  0.00  0.00     0.064 H 
ATOM     22  C   LIG d   1      10.505   6.608  -2.279  0.00  0.00    -0.061 A 
ATOM     23  H   LIG d   1      11.122   8.431  -3.215  0.00  0.00     0.062 H 
ATOM     24  H   LIG d   1      10.683   6.979  -1.280  0.00  0.00     0.062 H 
ATOM     25  H   LIG d   1       9.850   4.705  -1.601  0.00  0.00     0.062 H 
ATOM     26  H   LIG d   1       9.843   5.276  -6.899  0.00  0.00     0.166 HD
ATOM     27  H   LIG d   1       9.806   1.863  -3.118  0.00  0.00     0.051 H 
ATOM     28  H   LIG d   1       8.226   2.607  -2.751  0.00  0.00     0.051 H 
ATOM     29  O   LIG d   1       6.637   0.947  -3.101  0.00  0.00    -0.276 OA
ENDBRANCH   1   4
BRANCH   1  30
ATOM     30  C   LIG d   1       5.250  -0.767  -4.577  0.00  0.00    -0.001 C 
ATOM     31  C   LIG d   1       4.511   0.270  -3.730  0.00  0.00    -0.045 C 
ATOM     32  C   LIG d   1       3.270  -0.372  -3.106  0.00  0.00    -0.052 C 
ATOM     33  H   LIG d   1       5.169   0.631  -2.939  0.00  0.00     0.027 H 
ATOM     34  H   LIG d   1       4.209   1.107  -4.360  0.00  0.00     0.027 H 
ATOM     35  C   LIG d   1       3.693  -1.545  -2.221  0.00  0.00    -0.053 C 
ATOM     36  H   LIG d   1       2.611  -0.731  -3.897  0.00  0.00     0.026 H 
ATOM     37  H   LIG d   1       2.743   0.367  -2.502  0.00  0.00     0.026 H 
ATOM     38  C   LIG d   1       4.433  -2.583  -3.068  0.00  0.00    -0.052 C 
ATOM     39  H   LIG d   1       2.808  -2.003  -1.777  0.00  0.00     0.026 H 
ATOM     40  H   LIG d   1       4.352  -1.186  -1.431  0.00  0.00     0.026 H 
ATOM     41  C   LIG d   1       5.673  -1.940  -3.691  0.00  0.00    -0.045 C 
ATOM     42  H   LIG d   1       3.774  -2.943  -3.858  0.00  0.00     0.026 H 
ATOM     43  H   LIG d   1       4.735  -3.419  -2.437  0.00  0.00     0.026 H 
ATOM     44  H   LIG d   1       6.201  -2.679  -4.295  0.00  0.00     0.027 H 
ATOM     45  H   LIG d   1       6.332  -1.580  -2.900  0.00  0.00     0.027 H 
BRANCH  30  46
ATOM     46  C   LIG d   1       4.326  -1.272  -5.686  0.00  0.00     0.051 C 
ATOM     47  H   LIG d   1       4.809  -2.094  -6.215  0.00  0.00     0.051 H 
ATOM     48  H   LIG d   1       3.390  -1.621  -5.249  0.00  0.00     0.051 H 
BRANCH  46  49
ATOM     49  N   LIG d   1       4.050  -0.182  -6.625  0.00  0.00    -0.232 N 
ATOM     50  N   LIG d   1       3.102   0.689  -6.531  0.00  0.00    -0.044 NA
ATOM     51  N   LIG d   1       3.174   1.490  -7.536  0.00  0.00    -0.023 NA
ATOM     52  N   LIG d   1       4.158   1.142  -8.291  0.00  0.00    -0.117 NA
ATOM     53  C   LIG d   1       4.733   0.095  -7.752  0.00  0.00     0.138 A 
ATOM     54  H   LIG d   1       5.588  -0.441  -8.136  0.00  0.00     0.106 H 
ENDBRANCH  46  49
ENDBRANCH  30  46
ENDBRANCH   1  30
TORSDOF 4
ENDMDL
MODEL 7
REMARK VINA RESULT:      -6.5      2.572      7.613
REMARK  4 active torsions:
REMARK  status: ('A' for Active; 'I' for Inactive)
REMARK       I    between atoms: N_13  and  C_15 
REMARK    1  A    between atoms: C_15  and  C_17 
REMARK    2  A    between atoms: C_17  and  C_18 
REMARK    3  A    between atoms: C_18  and  C_24 
REMARK    4  A    between atoms: C_24  and  N_25 
ROOT
ATOM      1  C   LIG d   1       5.543  -0.708  -5.968  0.00  0.00     0.032 C 
ATOM      2  H   LIG d   1       6.435  -1.333  -5.916  0.00  0.00     0.036 H 
ATOM      3  H   LIG d   1       5.819   0.296  -6.291  0.00  0.00     0.036 H 
ENDROOT
BRANCH   1   4
ATOM      4  C   LIG d   1       4.570  -1.303  -6.954  0.00  0.00     0.216 C 
ATOM      5  N   LIG d   1       4.149  -0.575  -8.007  0.00  0.00    -0.297 N 
ATOM      6  C   LIG d   1       4.626   0.801  -8.214  0.00  0.00     0.020 C 
ATOM      7  C   LIG d   1       3.199  -1.136  -8.985  0.00  0.00     0.042 C 
ATOM      8  C   LIG d   1       5.434   0.864  -9.515  0.00  0.00     0.004 C 
ATOM      9  H   LIG d   1       5.258   1.097  -7.377  0.00  0.00     0.047 H 
ATOM     10  H   LIG d   1       3.772   1.476  -8.282  0.00  0.00     0.047 H 
ATOM     11  C   LIG d   1       4.679   0.128 -10.598  0.00  0.00     0.023 A 
ATOM     12  H   LIG d   1       6.406   0.394  -9.364  0.00  0.00     0.034 H 
ATOM     13  H   LIG d   1       5.571   1.904  -9.810  0.00  0.00     0.034 H 
ATOM     14  C   LIG d   1       3.695  -0.761 -10.359  0.00  0.00    -0.002 A 
ATOM     15  N   LIG d   1       4.874   0.239 -11.946  0.00  0.00    -0.358 N 
ATOM     16  C   LIG d   1       3.230  -1.258 -11.649  0.00  0.00     0.005 A 
ATOM     17  C   LIG d   1       4.008  -0.596 -12.619  0.00  0.00     0.047 A 
ATOM     18  C   LIG d   1       2.256  -2.176 -12.048  0.00  0.00    -0.052 A 
ATOM     19  C   LIG d   1       3.794  -0.867 -13.965  0.00  0.00    -0.038 A 
ATOM     20  C   LIG d   1       2.828  -1.776 -14.337  0.00  0.00    -0.060 A 
ATOM     21  H   LIG d   1       4.384  -0.366 -14.718  0.00  0.00     0.064 H 
ATOM     22  C   LIG d   1       2.064  -2.427 -13.378  0.00  0.00    -0.061 A 
ATOM     23  H   LIG d   1       2.664  -1.985 -15.383  0.00  0.00     0.062 H 
ATOM     24  H   LIG d   1       1.307  -3.134 -13.685  0.00  0.00     0.062 H 
ATOM     25  H   LIG d   1       1.657  -2.687 -11.309  0.00  0.00     0.062 H 
ATOM     26  H   LIG d   1       5.527   0.820 -12.367  0.00  0.00     0.166 HD
ATOM     27  H   LIG d   1       2.207  -0.715  -8.821  0.00  0.00     0.051 H 
ATOM     28  H   LIG d   1       3.163  -2.221  -8.886  0.00  0.00     0.051 H 
ATOM     29  O   LIG d   1       4.166  -2.435  -6.799  0.00  0.00    -0.276 OA
ENDBRANCH   1   4
BRANCH   1  30
ATOM     30  C   LIG d   1       4.888  -0.637  -4.587  0.00  0.00    -0.001 C 
ATOM     31  C   LIG d   1       3.444  -0.153  -4.731  0.00  0.00    -0.045 C 
ATOM     32  C   LIG d   1       2.789  -0.080  -3.351  0.00  0.00    -0.052 C 
ATOM     33  H   LIG d   1       3.436   0.836  -5.190  0.00  0.00     0.027 H 
ATOM     34  H   LIG d   1       2.889  -0.849  -5.361  0.00  0.00     0.027 H 
ATOM     35  C   LIG d   1       3.567   0.897  -2.468  0.00  0.00    -0.053 C 
ATOM     36  H   LIG d   1       2.797  -1.069  -2.893  0.00  0.00     0.026 H 
ATOM     37  H   LIG d   1       1.760   0.265  -3.454  0.00  0.00     0.026 H 
ATOM     38  C   LIG d   1       5.012   0.414  -2.322  0.00  0.00    -0.052 C 
ATOM     39  H   LIG d   1       3.101   0.948  -1.484  0.00  0.00     0.026 H 
ATOM     40  H   LIG d   1       3.561   1.886  -2.926  0.00  0.00     0.026 H 
ATOM     41  C   LIG d   1       5.666   0.341  -3.703  0.00  0.00    -0.045 C 
ATOM     42  H   LIG d   1       5.020  -0.576  -1.864  0.00  0.00     0.026 H 
ATOM     43  H   LIG d   1       5.567   1.110  -1.693  0.00  0.00     0.026 H 
ATOM     44  H   LIG d   1       6.696  -0.003  -3.601  0.00  0.00     0.027 H 
ATOM     45  H   LIG d   1       5.659   1.331  -4.162  0.00  0.00     0.027 H 
BRANCH  30  46
ATOM     46  C   LIG d   1       4.899  -2.024  -3.944  0.00  0.00     0.051 C 
ATOM     47  H   LIG d   1       4.617  -1.941  -2.894  0.00  0.00     0.051 H 
ATOM     48  H   LIG d   1       4.189  -2.670  -4.460  0.00  0.00     0.051 H 
BRANCH  46  49
ATOM     49  N   LIG d   1       6.243  -2.598  -4.043  0.00  0.00    -0.232 N 
ATOM     50  N   LIG d   1       7.292  -2.210  -3.399  0.00  0.00    -0.044 NA
ATOM     51  N   LIG d   1       8.287  -2.951  -3.741  0.00  0.00    -0.023 NA
ATOM     52  N   LIG d   1       7.896  -3.816  -4.612  0.00  0.00    -0.117 NA
ATOM     53  C   LIG d   1       6.617  -3.626  -4.828  0.00  0.00     0.138 A 
ATOM     54  H   LIG d   1       5.987  -4.185  -5.503  0.00  0.00     0.106 H 
ENDBRANCH  46  49
ENDBRANCH  30  46
ENDBRANCH   1  30
TORSDOF 4
ENDMDL
MODEL 8
REMARK VINA RESULT:      -6.5      2.583      7.859
REMARK  4 active torsions:
REMARK  status: ('A' for Active; 'I' for Inactive)
REMARK       I    between atoms: N_13  and  C_15 
REMARK    1  A    between atoms: C_15  and  C_17 
REMARK    2  A    between atoms: C_17  and  C_18 
REMARK    3  A    between atoms: C_18  and  C_24 
REMARK    4  A    between atoms: C_24  and  N_25 
ROOT
ATOM      1  C   LIG d   1       5.914  -1.348  -5.788  0.00  0.00     0.032 C 
ATOM      2  H   LIG d   1       6.635  -2.161  -5.705  0.00  0.00     0.036 H 
ATOM      3  H   LIG d   1       6.426  -0.438  -6.103  0.00  0.00     0.036 H 
ENDROOT
BRANCH   1   4
ATOM      4  C   LIG d   1       4.862  -1.710  -6.806  0.00  0.00     0.216 C 
ATOM      5  N   LIG d   1       4.574  -0.857  -7.809  0.00  0.00    -0.297 N 
ATOM      6  C   LIG d   1       5.272   0.432  -7.930  0.00  0.00     0.020 C 
ATOM      7  C   LIG d   1       3.551  -1.191  -8.816  0.00  0.00     0.042 C 
ATOM      8  C   LIG d   1       6.087   0.443  -9.227  0.00  0.00     0.004 C 
ATOM      9  H   LIG d   1       5.939   0.566  -7.079  0.00  0.00     0.047 H 
ATOM     10  H   LIG d   1       4.541   1.241  -7.951  0.00  0.00     0.047 H 
ATOM     11  C   LIG d   1       5.228  -0.088 -10.351  0.00  0.00     0.023 A 
ATOM     12  H   LIG d   1       6.968  -0.189  -9.111  0.00  0.00     0.034 H 
ATOM     13  H   LIG d   1       6.396   1.464  -9.456  0.00  0.00     0.034 H 
ATOM     14  C   LIG d   1       4.110  -0.816 -10.166  0.00  0.00    -0.002 A 
ATOM     15  N   LIG d   1       5.447   0.075 -11.691  0.00  0.00    -0.358 N 
ATOM     16  C   LIG d   1       3.577  -1.146 -11.483  0.00  0.00     0.005 A 
ATOM     17  C   LIG d   1       4.460  -0.561 -12.412  0.00  0.00     0.047 A 
ATOM     18  C   LIG d   1       2.468  -1.864 -11.936  0.00  0.00    -0.052 A 
ATOM     19  C   LIG d   1       4.212  -0.707 -13.772  0.00  0.00    -0.038 A 
ATOM     20  C   LIG d   1       3.112  -1.419 -14.196  0.00  0.00    -0.060 A 
ATOM     21  H   LIG d   1       4.881  -0.263 -14.494  0.00  0.00     0.064 H 
ATOM     22  C   LIG d   1       2.245  -1.994 -13.277  0.00  0.00    -0.061 A 
ATOM     23  H   LIG d   1       2.923  -1.530 -15.253  0.00  0.00     0.062 H 
ATOM     24  H   LIG d   1       1.385  -2.546 -13.626  0.00  0.00     0.062 H 
ATOM     25  H   LIG d   1       1.788  -2.315 -11.228  0.00  0.00     0.062 H 
ATOM     26  H   LIG d   1       6.189   0.567 -12.077  0.00  0.00     0.166 HD
ATOM     27  H   LIG d   1       2.640  -0.623  -8.622  0.00  0.00     0.051 H 
ATOM     28  H   LIG d   1       3.336  -2.259  -8.786  0.00  0.00     0.051 H 
ATOM     29  O   LIG d   1       4.277  -2.768  -6.723  0.00  0.00    -0.276 OA
ENDBRANCH   1   4
BRANCH   1  30
ATOM     30  C   LIG d   1       5.249  -1.114  -4.430  0.00  0.00    -0.001 C 
ATOM     31  C   LIG d   1       4.641  -2.425  -3.928  0.00  0.00    -0.045 C 
ATOM     32  C   LIG d   1       3.974  -2.191  -2.571  0.00  0.00    -0.052 C 
ATOM     33  H   LIG d   1       3.896  -2.777  -4.642  0.00  0.00     0.027 H 
ATOM     34  H   LIG d   1       5.426  -3.173  -3.824  0.00  0.00     0.027 H 
ATOM     35  C   LIG d   1       2.872  -1.142  -2.717  0.00  0.00    -0.053 C 
ATOM     36  H   LIG d   1       4.719  -1.840  -1.857  0.00  0.00     0.026 H 
ATOM     37  H   LIG d   1       3.541  -3.125  -2.213  0.00  0.00     0.026 H 
ATOM     38  C   LIG d   1       3.479   0.170  -3.219  0.00  0.00    -0.052 C 
ATOM     39  H   LIG d   1       2.398  -0.975  -1.750  0.00  0.00     0.026 H 
ATOM     40  H   LIG d   1       2.127  -1.493  -3.432  0.00  0.00     0.026 H 
ATOM     41  C   LIG d   1       4.145  -0.064  -4.577  0.00  0.00    -0.045 C 
ATOM     42  H   LIG d   1       4.224   0.522  -2.505  0.00  0.00     0.026 H 
ATOM     43  H   LIG d   1       2.694   0.919  -3.324  0.00  0.00     0.026 H 
ATOM     44  H   LIG d   1       4.579   0.870  -4.935  0.00  0.00     0.027 H 
ATOM     45  H   LIG d   1       3.400  -0.416  -5.291  0.00  0.00     0.027 H 
BRANCH  30  46
ATOM     46  C   LIG d   1       6.293  -0.620  -3.428  0.00  0.00     0.051 C 
ATOM     47  H   LIG d   1       5.791  -0.211  -2.551  0.00  0.00     0.051 H 
ATOM     48  H   LIG d   1       6.930  -1.451  -3.127  0.00  0.00     0.051 H 
BRANCH  46  49
ATOM     49  N   LIG d   1       7.112   0.423  -4.051  0.00  0.00    -0.232 N 
ATOM     50  N   LIG d   1       6.845   1.684  -4.094  0.00  0.00    -0.044 NA
ATOM     51  N   LIG d   1       7.794   2.289  -4.719  0.00  0.00    -0.023 NA
ATOM     52  N   LIG d   1       8.677   1.428  -5.092  0.00  0.00    -0.117 NA
ATOM     53  C   LIG d   1       8.283   0.244  -4.691  0.00  0.00     0.138 A 
ATOM     54  H   LIG d   1       8.799  -0.693  -4.843  0.00  0.00     0.106 H 
ENDBRANCH  46  49
ENDBRANCH  30  46
ENDBRANCH   1  30
TORSDOF 4
ENDMDL
MODEL 9
REMARK VINA RESULT:      -6.4      2.295      7.364
REMARK  4 active torsions:
REMARK  status: ('A' for Active; 'I' for Inactive)
REMARK       I    between atoms: N_13  and  C_15 
REMARK    1  A    between atoms: C_15  and  C_17 
REMARK    2  A    between atoms: C_17  and  C_18 
REMARK    3  A    between atoms: C_18  and  C_24 
REMARK    4  A    between atoms: C_24  and  N_25 
ROOT
ATOM      1  C   LIG d   1       5.997  -0.718  -5.861  0.00  0.00     0.032 C 
ATOM      2  H   LIG d   1       6.491  -1.679  -6.006  0.00  0.00     0.036 H 
ATOM      3  H   LIG d   1       6.746   0.052  -5.678  0.00  0.00     0.036 H 
ENDROOT
BRANCH   1   4
ATOM      4  C   LIG d   1       5.207  -0.367  -7.096  0.00  0.00     0.216 C 
ATOM      5  N   LIG d   1       5.017  -1.291  -8.058  0.00  0.00    -0.297 N 
ATOM      6  C   LIG d   1       5.570  -2.647  -7.925  0.00  0.00     0.020 C 
ATOM      7  C   LIG d   1       4.247  -0.970  -9.274  0.00  0.00     0.042 C 
ATOM      8  C   LIG d   1       4.418  -3.655  -7.848  0.00  0.00     0.004 C 
ATOM      9  H   LIG d   1       6.169  -2.708  -7.017  0.00  0.00     0.047 H 
ATOM     10  H   LIG d   1       6.194  -2.872  -8.791  0.00  0.00     0.047 H 
ATOM     11  C   LIG d   1       3.405  -3.326  -8.920  0.00  0.00     0.023 A 
ATOM     12  H   LIG d   1       3.944  -3.594  -6.867  0.00  0.00     0.034 H 
ATOM     13  H   LIG d   1       4.802  -4.663  -8.007  0.00  0.00     0.034 H 
ATOM     14  C   LIG d   1       3.329  -2.135  -9.545  0.00  0.00    -0.002 A 
ATOM     15  N   LIG d   1       2.434  -4.157  -9.405  0.00  0.00    -0.358 N 
ATOM     16  C   LIG d   1       2.225  -2.208 -10.495  0.00  0.00     0.005 A 
ATOM     17  C   LIG d   1       1.692  -3.506 -10.366  0.00  0.00     0.047 A 
ATOM     18  C   LIG d   1       1.663  -1.314 -11.410  0.00  0.00    -0.052 A 
ATOM     19  C   LIG d   1       0.610  -3.879 -11.155  0.00  0.00    -0.038 A 
ATOM     20  C   LIG d   1       0.072  -2.982 -12.051  0.00  0.00    -0.060 A 
ATOM     21  H   LIG d   1       0.192  -4.871 -11.066  0.00  0.00     0.064 H 
ATOM     22  C   LIG d   1       0.600  -1.704 -12.175  0.00  0.00    -0.061 A 
ATOM     23  H   LIG d   1      -0.768  -3.275 -12.662  0.00  0.00     0.062 H 
ATOM     24  H   LIG d   1       0.169  -1.013 -12.885  0.00  0.00     0.062 H 
ATOM     25  H   LIG d   1       2.068  -0.318 -11.513  0.00  0.00     0.062 H 
ATOM     26  H   LIG d   1       2.288  -5.071  -9.114  0.00  0.00     0.166 HD
ATOM     27  H   LIG d   1       4.925  -0.830 -10.116  0.00  0.00     0.051 H 
ATOM     28  H   LIG d   1       3.662  -0.065  -9.114  0.00  0.00     0.051 H 
ATOM     29  O   LIG d   1       4.744   0.746  -7.223  0.00  0.00    -0.276 OA
ENDBRANCH   1   4
BRANCH   1  30
ATOM     30  C   LIG d   1       5.052  -0.806  -4.661  0.00  0.00    -0.001 C 
ATOM     31  C   LIG d   1       3.657  -0.334  -5.075  0.00  0.00    -0.045 C 
ATOM     32  C   LIG d   1       2.712  -0.420  -3.874  0.00  0.00    -0.052 C 
ATOM     33  H   LIG d   1       3.710   0.699  -5.421  0.00  0.00     0.027 H 
ATOM     34  H   LIG d   1       3.283  -0.968  -5.879  0.00  0.00     0.027 H 
ATOM     35  C   LIG d   1       3.237   0.470  -2.747  0.00  0.00    -0.053 C 
ATOM     36  H   LIG d   1       2.659  -1.452  -3.528  0.00  0.00     0.026 H 
ATOM     37  H   LIG d   1       1.718  -0.083  -4.169  0.00  0.00     0.026 H 
ATOM     38  C   LIG d   1       4.632  -0.001  -2.332  0.00  0.00    -0.052 C 
ATOM     39  H   LIG d   1       2.564   0.408  -1.892  0.00  0.00     0.026 H 
ATOM     40  H   LIG d   1       3.292   1.502  -3.093  0.00  0.00     0.026 H 
ATOM     41  C   LIG d   1       5.577   0.085  -3.532  0.00  0.00    -0.045 C 
ATOM     42  H   LIG d   1       4.579  -1.034  -1.985  0.00  0.00     0.026 H 
ATOM     43  H   LIG d   1       5.008   0.633  -1.528  0.00  0.00     0.026 H 
ATOM     44  H   LIG d   1       6.572  -0.251  -3.238  0.00  0.00     0.027 H 
ATOM     45  H   LIG d   1       5.631   1.117  -3.879  0.00  0.00     0.027 H 
BRANCH  30  46
ATOM     46  C   LIG d   1       4.977  -2.254  -4.174  0.00  0.00     0.051 C 
ATOM     47  H   LIG d   1       4.546  -2.279  -3.173  0.00  0.00     0.051 H 
ATOM     48  H   LIG d   1       4.352  -2.834  -4.853  0.00  0.00     0.051 H 
BRANCH  46  49
ATOM     49  N   LIG d   1       6.324  -2.828  -4.140  0.00  0.00    -0.232 N 
ATOM     50  N   LIG d   1       7.308  -2.431  -3.406  0.00  0.00    -0.044 NA
ATOM     51  N   LIG d   1       8.331  -3.176  -3.644  0.00  0.00    -0.023 NA
ATOM     52  N   LIG d   1       8.023  -4.053  -4.536  0.00  0.00    -0.117 NA
ATOM     53  C   LIG d   1       6.770  -3.865  -4.873  0.00  0.00     0.138 A 
ATOM     54  H   LIG d   1       6.205  -4.434  -5.597  0.00  0.00     0.106 H 
ENDBRANCH  46  49
ENDBRANCH  30  46
ENDBRANCH   1  30
TORSDOF 4
ENDMDL
MODEL 10
REMARK VINA RESULT:      -6.3      3.934      5.503
REMARK  4 active torsions:
REMARK  status: ('A' for Active; 'I' for Inactive)
REMARK       I    between atoms: N_13  and  C_15 
REMARK    1  A    between atoms: C_15  and  C_17 
REMARK    2  A    between atoms: C_17  and  C_18 
REMARK    3  A    between atoms: C_18  and  C_24 
REMARK    4  A    between atoms: C_24  and  N_25 
ROOT
ATOM      1  C   LIG d   1       5.246  -6.031  -7.277  0.00  0.00     0.032 C 
ATOM      2  H   LIG d   1       4.681  -5.906  -8.201  0.00  0.00     0.036 H 
ATOM      3  H   LIG d   1       6.265  -5.670  -7.422  0.00  0.00     0.036 H 
ENDROOT
BRANCH   1   4
ATOM      4  C   LIG d   1       4.586  -5.241  -6.175  0.00  0.00     0.216 C 
ATOM      5  N   LIG d   1       5.340  -4.547  -5.301  0.00  0.00    -0.297 N 
ATOM      6  C   LIG d   1       6.807  -4.545  -5.402  0.00  0.00     0.020 C 
ATOM      7  C   LIG d   1       4.717  -3.767  -4.216  0.00  0.00     0.042 C 
ATOM      8  C   LIG d   1       7.288  -3.123  -5.715  0.00  0.00     0.004 C 
ATOM      9  H   LIG d   1       7.118  -5.219  -6.200  0.00  0.00     0.047 H 
ATOM     10  H   LIG d   1       7.238  -4.875  -4.456  0.00  0.00     0.047 H 
ATOM     11  C   LIG d   1       6.566  -2.151  -4.811  0.00  0.00     0.023 A 
ATOM     12  H   LIG d   1       7.070  -2.885  -6.756  0.00  0.00     0.034 H 
ATOM     13  H   LIG d   1       8.363  -3.054  -5.540  0.00  0.00     0.034 H 
ATOM     14  C   LIG d   1       5.426  -2.437  -4.155  0.00  0.00    -0.002 A 
ATOM     15  N   LIG d   1       6.941  -0.866  -4.532  0.00  0.00    -0.358 N 
ATOM     16  C   LIG d   1       5.040  -1.247  -3.405  0.00  0.00     0.005 A 
ATOM     17  C   LIG d   1       6.031  -0.283  -3.679  0.00  0.00     0.047 A 
ATOM     18  C   LIG d   1       3.977  -0.929  -2.556  0.00  0.00    -0.052 A 
ATOM     19  C   LIG d   1       5.934   0.976  -3.097  0.00  0.00    -0.038 A 
ATOM     20  C   LIG d   1       4.878   1.268  -2.263  0.00  0.00    -0.060 A 
ATOM     21  H   LIG d   1       6.687   1.724  -3.299  0.00  0.00     0.064 H 
ATOM     22  C   LIG d   1       3.904   0.316  -1.997  0.00  0.00    -0.061 A 
ATOM     23  H   LIG d   1       4.806   2.247  -1.814  0.00  0.00     0.062 H 
ATOM     24  H   LIG d   1       3.084   0.559  -1.337  0.00  0.00     0.062 H 
ATOM     25  H   LIG d   1       3.216  -1.664  -2.342  0.00  0.00     0.062 H 
ATOM     26  H   LIG d   1       7.733  -0.429  -4.884  0.00  0.00     0.166 HD
ATOM     27  H   LIG d   1       4.832  -4.292  -3.268  0.00  0.00     0.051 H 
ATOM     28  H   LIG d   1       3.659  -3.615  -4.430  0.00  0.00     0.051 H 
ATOM     29  O   LIG d   1       3.378  -5.231  -6.076  0.00  0.00    -0.276 OA
ENDBRANCH   1   4
BRANCH   1  30
ATOM     30  C   LIG d   1       5.279  -7.511  -6.894  0.00  0.00    -0.001 C 
ATOM     31  C   LIG d   1       4.980  -7.658  -5.400  0.00  0.00    -0.045 C 
ATOM     32  C   LIG d   1       5.015  -9.138  -5.016  0.00  0.00    -0.052 C 
ATOM     33  H   LIG d   1       5.731  -7.115  -4.824  0.00  0.00     0.027 H 
ATOM     34  H   LIG d   1       3.993  -7.249  -5.185  0.00  0.00     0.027 H 
ATOM     35  C   LIG d   1       6.400  -9.712  -5.317  0.00  0.00    -0.053 C 
ATOM     36  H   LIG d   1       4.264  -9.680  -5.591  0.00  0.00     0.026 H 
ATOM     37  H   LIG d   1       4.802  -9.242  -3.951  0.00  0.00     0.026 H 
ATOM     38  C   LIG d   1       6.700  -9.566  -6.810  0.00  0.00    -0.052 C 
ATOM     39  H   LIG d   1       6.424 -10.767  -5.043  0.00  0.00     0.026 H 
ATOM     40  H   LIG d   1       7.151  -9.170  -4.742  0.00  0.00     0.026 H 
ATOM     41  C   LIG d   1       6.665  -8.085  -7.194  0.00  0.00    -0.045 C 
ATOM     42  H   LIG d   1       5.949 -10.108  -7.386  0.00  0.00     0.026 H 
ATOM     43  H   LIG d   1       7.687  -9.974  -7.026  0.00  0.00     0.026 H 
ATOM     44  H   LIG d   1       6.878  -7.980  -8.259  0.00  0.00     0.027 H 
ATOM     45  H   LIG d   1       7.416  -7.543  -6.619  0.00  0.00     0.027 H 
BRANCH  30  46
ATOM     46  C   LIG d   1       4.226  -8.272  -7.701  0.00  0.00     0.051 C 
ATOM     47  H   LIG d   1       4.617  -9.252  -7.977  0.00  0.00     0.051 H 
ATOM     48  H   LIG d   1       3.326  -8.397  -7.098  0.00  0.00     0.051 H 
BRANCH  46  49
ATOM     49  N   LIG d   1       3.901  -7.517  -8.913  0.00  0.00    -0.232 N 
ATOM     50  N   LIG d   1       2.875  -6.756  -9.090  0.00  0.00    -0.044 NA
ATOM     51  N   LIG d   1       2.926  -6.259 -10.277  0.00  0.00    -0.023 NA
ATOM     52  N   LIG d   1       3.976  -6.698 -10.880  0.00  0.00    -0.117 NA
ATOM     53  C   LIG d   1       4.614  -7.493 -10.055  0.00  0.00     0.138 A 
ATOM     54  H   LIG d   1       5.534  -8.023 -10.253  0.00  0.00     0.106 H 
ENDBRANCH  46  49
ENDBRANCH  30  46
ENDBRANCH   1  30
TORSDOF 4
ENDMDL
