MODEL 1
REMARK VINA RESULT:      -7.3      0.000      0.000
REMARK  7 active torsions:
REMARK  status: ('A' for Active; 'I' for Inactive)
REMARK    1  A    between atoms: C_1  and  C_2 
REMARK    2  A    between atoms: C_6  and  O_8 
REMARK    3  A    between atoms: O_8  and  C_9 
REMARK    4  A    between atoms: C_9  and  C_10 
REMARK       I    between atoms: C_10  and  N_12 
REMARK    5  A    between atoms: N_12  and  CA_13 
REMARK    6  A    between atoms: CA_13  and  C_15 
REMARK    7  A    between atoms: CA_13  and  C_21 
ROOT
ATOM      1  C   LIG d   1       8.477  -3.566  -5.008  0.00  0.00    -0.043 A 
ATOM      2  C   LIG d   1       8.678  -2.248  -4.651  0.00  0.00    -0.015 A 
ATOM      3  C   LIG d   1       7.602  -1.459  -4.269  0.00  0.00     0.143 A 
ATOM      4  C   LIG d   1       6.312  -2.012  -4.249  0.00  0.00     0.063 A 
ATOM      5  C   LIG d   1       6.117  -3.354  -4.617  0.00  0.00     0.132 A 
ATOM      6  C   LIG d   1       7.207  -4.119  -4.993  0.00  0.00    -0.016 A 
ATOM      7  C   LIG d   1       5.176  -1.174  -3.847  0.00  0.00    -0.023 A 
ATOM      8  C   LIG d   1       5.419   0.107  -3.498  0.00  0.00     0.041 A 
ATOM      9  C   LIG d   1       6.747   0.600  -3.544  0.00  0.00     0.341 A 
ATOM     10  O   LIG d   1       6.956   1.759  -3.234  0.00  0.00    -0.245 OA
ATOM     11  O   LIG d   1       7.779  -0.169  -3.917  0.00  0.00    -0.422 OA
ATOM     12  C   LIG d   1       4.330   1.050  -3.057  0.00  0.00    -0.021 C 
ATOM     13  C   LIG d   1       2.960   0.522  -3.474  0.00  0.00    -0.049 C 
ATOM     14  C   LIG d   1       2.840  -0.935  -3.010  0.00  0.00    -0.049 C 
ATOM     15  C   LIG d   1       3.802  -1.782  -3.844  0.00  0.00    -0.026 C 
ATOM     16  H   LIG d   1       9.674  -1.830  -4.667  0.00  0.00     0.066 H 
ATOM     17  H   LIG d   1       7.068  -5.152  -5.276  0.00  0.00     0.066 H 
ATOM     18  H   LIG d   1       4.494   2.026  -3.512  0.00  0.00     0.032 H 
ATOM     19  H   LIG d   1       4.361   1.150  -1.972  0.00  0.00     0.032 H 
ATOM     20  H   LIG d   1       2.178   1.121  -3.007  0.00  0.00     0.027 H 
ATOM     21  H   LIG d   1       2.862   0.572  -4.559  0.00  0.00     0.027 H 
ATOM     22  H   LIG d   1       3.106  -1.008  -1.956  0.00  0.00     0.027 H 
ATOM     23  H   LIG d   1       1.819  -1.285  -3.158  0.00  0.00     0.027 H 
ATOM     24  H   LIG d   1       3.853  -2.786  -3.421  0.00  0.00     0.031 H 
ATOM     25  H   LIG d   1       3.432  -1.842  -4.866  0.00  0.00     0.031 H 
ENDROOT
BRANCH   5  26
ATOM     26  O   LIG d   1       4.873  -3.896  -4.601  0.00  0.00    -0.482 OA
BRANCH  26  27
ATOM     27  C   LIG d   1       4.662  -5.058  -5.405  0.00  0.00     0.165 C 
ATOM     28  H   LIG d   1       5.621  -5.531  -5.619  0.00  0.00     0.080 H 
ATOM     29  H   LIG d   1       4.022  -5.758  -4.870  0.00  0.00     0.080 H 
BRANCH  27  30
ATOM     30  C   LIG d   1       4.000  -4.659  -6.699  0.00  0.00     0.251 C 
ATOM     31  O   LIG d   1       3.258  -5.434  -7.264  0.00  0.00    -0.272 OA
ATOM     32  N   LIG d   1       4.232  -3.441  -7.228  0.00  0.00    -0.300 N 
ATOM     33  H   LIG d   1       4.825  -2.821  -6.775  0.00  0.00     0.150 HD
BRANCH  32  34
ATOM     34  CA  LIG d   1       3.589  -3.053  -8.485  0.00  0.00     0.088 C 
ATOM     35  HA  LIG d   1       2.662  -3.615  -8.608  0.00  0.00     0.061 H 
BRANCH  34  36
ATOM     36  C   LIG d   1       3.280  -1.578  -8.458  0.00  0.00    -0.022 A 
ATOM     37  C   LIG d   1       3.619  -0.821  -7.351  0.00  0.00    -0.056 A 
ATOM     38  C   LIG d   1       3.335   0.532  -7.326  0.00  0.00    -0.061 A 
ATOM     39  H   LIG d   1       4.104  -1.287  -6.507  0.00  0.00     0.062 H 
ATOM     40  C   LIG d   1       2.714   1.127  -8.408  0.00  0.00    -0.062 A 
ATOM     41  H   LIG d   1       3.599   1.123  -6.463  0.00  0.00     0.062 H 
ATOM     42  C   LIG d   1       2.376   0.370  -9.514  0.00  0.00    -0.061 A 
ATOM     43  H   LIG d   1       2.493   2.185  -8.389  0.00  0.00     0.062 H 
ATOM     44  C   LIG d   1       2.663  -0.981  -9.541  0.00  0.00    -0.056 A 
ATOM     45  H   LIG d   1       1.891   0.836 -10.359  0.00  0.00     0.062 H 
ATOM     46  H   LIG d   1       2.404  -1.572 -10.407  0.00  0.00     0.062 H 
ENDBRANCH  34  36
BRANCH  34  47
ATOM     47  C   LIG d   1       4.513  -3.352  -9.636  0.00  0.00     0.066 C 
ATOM     48  O   LIG d   1       4.158  -4.098 -10.518  0.00  0.00    -0.547 OA
ATOM     49  OXT LIG d   1       5.731  -2.791  -9.683  0.00  0.00    -0.547 OA
ENDBRANCH  34  47
ENDBRANCH  32  34
ENDBRANCH  27  30
ENDBRANCH  26  27
ENDBRANCH   5  26
BRANCH   1  50
ATOM     50  C   LIG d   1       9.654  -4.413  -5.421  0.00  0.00    -0.040 C 
ATOM     51  H   LIG d   1       9.418  -5.466  -5.260  0.00  0.00     0.028 H 
ATOM     52  H   LIG d   1       9.869  -4.246  -6.477  0.00  0.00     0.028 H 
ATOM     53  H   LIG d   1      10.525  -4.140  -4.826  0.00  0.00     0.028 H 
ENDBRANCH   1  50
TORSDOF 7
ENDMDL
MODEL 2
REMARK VINA RESULT:      -7.0      2.297      5.264
REMARK  7 active torsions:
REMARK  status: ('A' for Active; 'I' for Inactive)
REMARK    1  A    between atoms: C_1  and  C_2 
REMARK    2  A    between atoms: C_6  and  O_8 
REMARK    3  A    between atoms: O_8  and  C_9 
REMARK    4  A    between atoms: C_9  and  C_10 
REMARK       I    between atoms: C_10  and  N_12 
REMARK    5  A    between atoms: N_12  and  CA_13 
REMARK    6  A    between atoms: CA_13  and  C_15 
REMARK    7  A    between atoms: CA_13  and  C_21 
ROOT
ATOM      1  C   LIG d   1       5.017  -0.167  -2.574  0.00  0.00    -0.043 A 
ATOM      2  C   LIG d   1       4.373  -1.370  -2.785  0.00  0.00    -0.015 A 
ATOM      3  C   LIG d   1       4.864  -2.266  -3.723  0.00  0.00     0.143 A 
ATOM      4  C   LIG d   1       6.018  -1.940  -4.453  0.00  0.00     0.063 A 
ATOM      5  C   LIG d   1       6.665  -0.712  -4.233  0.00  0.00     0.132 A 
ATOM      6  C   LIG d   1       6.155   0.164  -3.291  0.00  0.00    -0.016 A 
ATOM      7  C   LIG d   1       6.534  -2.890  -5.446  0.00  0.00    -0.023 A 
ATOM      8  C   LIG d   1       5.877  -4.058  -5.614  0.00  0.00     0.041 A 
ATOM      9  C   LIG d   1       4.716  -4.319  -4.844  0.00  0.00     0.341 A 
ATOM     10  O   LIG d   1       4.126  -5.373  -5.008  0.00  0.00    -0.245 OA
ATOM     11  O   LIG d   1       4.249  -3.446  -3.943  0.00  0.00    -0.422 OA
ATOM     12  C   LIG d   1       6.327  -5.109  -6.595  0.00  0.00    -0.021 C 
ATOM     13  C   LIG d   1       7.287  -4.512  -7.621  0.00  0.00    -0.049 C 
ATOM     14  C   LIG d   1       8.389  -3.754  -6.869  0.00  0.00    -0.049 C 
ATOM     15  C   LIG d   1       7.763  -2.517  -6.225  0.00  0.00    -0.026 C 
ATOM     16  H   LIG d   1       3.486  -1.614  -2.218  0.00  0.00     0.066 H 
ATOM     17  H   LIG d   1       6.646   1.109  -3.114  0.00  0.00     0.066 H 
ATOM     18  H   LIG d   1       5.457  -5.515  -7.111  0.00  0.00     0.032 H 
ATOM     19  H   LIG d   1       6.831  -5.911  -6.056  0.00  0.00     0.032 H 
ATOM     20  H   LIG d   1       7.731  -5.310  -8.216  0.00  0.00     0.027 H 
ATOM     21  H   LIG d   1       6.748  -3.825  -8.273  0.00  0.00     0.027 H 
ATOM     22  H   LIG d   1       8.814  -4.395  -6.097  0.00  0.00     0.027 H 
ATOM     23  H   LIG d   1       9.168  -3.451  -7.567  0.00  0.00     0.027 H 
ATOM     24  H   LIG d   1       8.489  -2.057  -5.554  0.00  0.00     0.031 H 
ATOM     25  H   LIG d   1       7.494  -1.805  -7.004  0.00  0.00     0.031 H 
ENDROOT
BRANCH   5  26
ATOM     26  O   LIG d   1       7.780  -0.390  -4.935  0.00  0.00    -0.482 OA
BRANCH  26  27
ATOM     27  C   LIG d   1       7.787   0.878  -5.594  0.00  0.00     0.165 C 
ATOM     28  H   LIG d   1       7.066   1.541  -5.115  0.00  0.00     0.080 H 
ATOM     29  H   LIG d   1       8.783   1.316  -5.529  0.00  0.00     0.080 H 
BRANCH  27  30
ATOM     30  C   LIG d   1       7.413   0.692  -7.042  0.00  0.00     0.251 C 
ATOM     31  O   LIG d   1       8.280   0.611  -7.887  0.00  0.00    -0.272 OA
ATOM     32  N   LIG d   1       6.115   0.615  -7.399  0.00  0.00    -0.300 N 
ATOM     33  H   LIG d   1       5.422   0.680  -6.724  0.00  0.00     0.150 HD
BRANCH  32  34
ATOM     34  CA  LIG d   1       5.752   0.435  -8.806  0.00  0.00     0.088 C 
ATOM     35  HA  LIG d   1       6.633   0.583  -9.431  0.00  0.00     0.061 H 
BRANCH  34  36
ATOM     36  C   LIG d   1       5.219  -0.960  -9.012  0.00  0.00    -0.022 A 
ATOM     37  C   LIG d   1       4.293  -1.484  -8.129  0.00  0.00    -0.056 A 
ATOM     38  C   LIG d   1       3.806  -2.764  -8.319  0.00  0.00    -0.061 A 
ATOM     39  H   LIG d   1       3.952  -0.894  -7.292  0.00  0.00     0.062 H 
ATOM     40  C   LIG d   1       4.243  -3.519  -9.391  0.00  0.00    -0.062 A 
ATOM     41  H   LIG d   1       3.083  -3.174  -7.630  0.00  0.00     0.062 H 
ATOM     42  C   LIG d   1       5.169  -2.994 -10.273  0.00  0.00    -0.061 A 
ATOM     43  H   LIG d   1       3.862  -4.519  -9.539  0.00  0.00     0.062 H 
ATOM     44  C   LIG d   1       5.653  -1.713 -10.087  0.00  0.00    -0.056 A 
ATOM     45  H   LIG d   1       5.510  -3.584 -11.111  0.00  0.00     0.062 H 
ATOM     46  H   LIG d   1       6.373  -1.302 -10.779  0.00  0.00     0.062 H 
ENDBRANCH  34  36
BRANCH  34  47
ATOM     47  C   LIG d   1       4.693   1.438  -9.185  0.00  0.00     0.066 C 
ATOM     48  O   LIG d   1       4.564   1.773 -10.339  0.00  0.00    -0.547 OA
ATOM     49  OXT LIG d   1       3.895   1.960  -8.242  0.00  0.00    -0.547 OA
ENDBRANCH  34  47
ENDBRANCH  32  34
ENDBRANCH  27  30
ENDBRANCH  26  27
ENDBRANCH   5  26
BRANCH   1  50
ATOM     50  C   LIG d   1       4.474   0.800  -1.552  0.00  0.00    -0.040 C 
ATOM     51  H   LIG d   1       4.209   1.736  -2.043  0.00  0.00     0.028 H 
ATOM     52  H   LIG d   1       3.588   0.371  -1.083  0.00  0.00     0.028 H 
ATOM     53  H   LIG d   1       5.231   0.988  -0.791  0.00  0.00     0.028 H 
ENDBRANCH   1  50
TORSDOF 7
ENDMDL
MODEL 3
REMARK VINA RESULT:      -6.9      5.679      8.645
REMARK  7 active torsions:
REMARK  status: ('A' for Active; 'I' for Inactive)
REMARK    1  A    between atoms: C_1  and  C_2 
REMARK    2  A    between atoms: C_6  and  O_8 
REMARK    3  A    between atoms: O_8  and  C_9 
REMARK    4  A    between atoms: C_9  and  C_10 
REMARK       I    between atoms: C_10  and  N_12 
REMARK    5  A    between atoms: N_12  and  CA_13 
REMARK    6  A    between atoms: CA_13  and  C_15 
REMARK    7  A    between atoms: CA_13  and  C_21 
ROOT
ATOM      1  C   LIG d   1      10.506   6.067  -1.360  0.00  0.00    -0.043 A 
ATOM      2  C   LIG d   1      10.226   7.255  -2.006  0.00  0.00    -0.015 A 
ATOM      3  C   LIG d   1      10.064   7.274  -3.384  0.00  0.00     0.143 A 
ATOM      4  C   LIG d   1      10.184   6.080  -4.112  0.00  0.00     0.063 A 
ATOM      5  C   LIG d   1      10.472   4.877  -3.445  0.00  0.00     0.132 A 
ATOM      6  C   LIG d   1      10.629   4.885  -2.071  0.00  0.00    -0.016 A 
ATOM      7  C   LIG d   1      10.013   6.106  -5.569  0.00  0.00    -0.023 A 
ATOM      8  C   LIG d   1       9.733   7.288  -6.159  0.00  0.00     0.041 A 
ATOM      9  C   LIG d   1       9.627   8.454  -5.362  0.00  0.00     0.341 A 
ATOM     10  O   LIG d   1       9.381   9.518  -5.903  0.00  0.00    -0.245 OA
ATOM     11  O   LIG d   1       9.790   8.425  -4.033  0.00  0.00    -0.422 OA
ATOM     12  C   LIG d   1       9.524   7.425  -7.644  0.00  0.00    -0.021 C 
ATOM     13  C   LIG d   1      10.091   6.214  -8.382  0.00  0.00    -0.049 C 
ATOM     14  C   LIG d   1       9.538   4.944  -7.723  0.00  0.00    -0.049 C 
ATOM     15  C   LIG d   1      10.159   4.819  -6.332  0.00  0.00    -0.026 C 
ATOM     16  H   LIG d   1      10.133   8.169  -1.438  0.00  0.00     0.066 H 
ATOM     17  H   LIG d   1      10.849   3.965  -1.550  0.00  0.00     0.066 H 
ATOM     18  H   LIG d   1      10.026   8.327  -7.996  0.00  0.00     0.032 H 
ATOM     19  H   LIG d   1       8.457   7.504  -7.851  0.00  0.00     0.032 H 
ATOM     20  H   LIG d   1       9.787   6.246  -9.428  0.00  0.00     0.027 H 
ATOM     21  H   LIG d   1      11.179   6.219  -8.315  0.00  0.00     0.027 H 
ATOM     22  H   LIG d   1       8.454   5.017  -7.636  0.00  0.00     0.027 H 
ATOM     23  H   LIG d   1       9.802   4.074  -8.323  0.00  0.00     0.027 H 
ATOM     24  H   LIG d   1       9.657   4.019  -5.786  0.00  0.00     0.031 H 
ATOM     25  H   LIG d   1      11.216   4.577  -6.431  0.00  0.00     0.031 H 
ENDROOT
BRANCH   5  26
ATOM     26  O   LIG d   1      10.591   3.719  -4.142  0.00  0.00    -0.482 OA
BRANCH  26  27
ATOM     27  C   LIG d   1      10.701   2.514  -3.382  0.00  0.00     0.165 C 
ATOM     28  H   LIG d   1      11.739   2.183  -3.374  0.00  0.00     0.080 H 
ATOM     29  H   LIG d   1      10.369   2.698  -2.361  0.00  0.00     0.080 H 
BRANCH  27  30
ATOM     30  C   LIG d   1       9.838   1.448  -4.006  0.00  0.00     0.251 C 
ATOM     31  O   LIG d   1      10.340   0.598  -4.712  0.00  0.00    -0.272 OA
ATOM     32  N   LIG d   1       8.509   1.437  -3.780  0.00  0.00    -0.300 N 
ATOM     33  H   LIG d   1       8.109   2.115  -3.215  0.00  0.00     0.150 HD
BRANCH  32  34
ATOM     34  CA  LIG d   1       7.671   0.400  -4.387  0.00  0.00     0.088 C 
ATOM     35  HA  LIG d   1       8.258  -0.509  -4.522  0.00  0.00     0.061 H 
BRANCH  34  36
ATOM     36  C   LIG d   1       6.499   0.110  -3.484  0.00  0.00    -0.022 A 
ATOM     37  C   LIG d   1       5.805   1.151  -2.896  0.00  0.00    -0.056 A 
ATOM     38  C   LIG d   1       4.730   0.885  -2.068  0.00  0.00    -0.061 A 
ATOM     39  H   LIG d   1       6.103   2.172  -3.084  0.00  0.00     0.062 H 
ATOM     40  C   LIG d   1       4.350  -0.423  -1.829  0.00  0.00    -0.062 A 
ATOM     41  H   LIG d   1       4.188   1.697  -1.609  0.00  0.00     0.062 H 
ATOM     42  C   LIG d   1       5.044  -1.463  -2.417  0.00  0.00    -0.061 A 
ATOM     43  H   LIG d   1       3.510  -0.631  -1.182  0.00  0.00     0.062 H 
ATOM     44  C   LIG d   1       6.116  -1.197  -3.248  0.00  0.00    -0.056 A 
ATOM     45  H   LIG d   1       4.746  -2.484  -2.230  0.00  0.00     0.062 H 
ATOM     46  H   LIG d   1       6.655  -2.010  -3.712  0.00  0.00     0.062 H 
ENDBRANCH  34  36
BRANCH  34  47
ATOM     47  C   LIG d   1       7.170   0.878  -5.724  0.00  0.00     0.066 C 
ATOM     48  O   LIG d   1       7.711   1.807  -6.275  0.00  0.00    -0.547 OA
ATOM     49  OXT LIG d   1       6.122   0.272  -6.304  0.00  0.00    -0.547 OA
ENDBRANCH  34  47
ENDBRANCH  32  34
ENDBRANCH  27  30
ENDBRANCH  26  27
ENDBRANCH   5  26
BRANCH   1  50
ATOM     50  C   LIG d   1      10.681   6.058   0.138  0.00  0.00    -0.040 C 
ATOM     51  H   LIG d   1      10.090   6.861   0.578  0.00  0.00     0.028 H 
ATOM     52  H   LIG d   1      10.347   5.099   0.537  0.00  0.00     0.028 H 
ATOM     53  H   LIG d   1      11.734   6.204   0.381  0.00  0.00     0.028 H 
ENDBRANCH   1  50
TORSDOF 7
ENDMDL
MODEL 4
REMARK VINA RESULT:      -6.7      6.018      8.970
REMARK  7 active torsions:
REMARK  status: ('A' for Active; 'I' for Inactive)
REMARK    1  A    between atoms: C_1  and  C_2 
REMARK    2  A    between atoms: C_6  and  O_8 
REMARK    3  A    between atoms: O_8  and  C_9 
REMARK    4  A    between atoms: C_9  and  C_10 
REMARK       I    between atoms: C_10  and  N_12 
REMARK    5  A    between atoms: N_12  and  CA_13 
REMARK    6  A    between atoms: CA_13  and  C_15 
REMARK    7  A    between atoms: CA_13  and  C_21 
ROOT
ATOM      1  C   LIG d   1       9.936   7.732  -3.380  0.00  0.00    -0.043 A 
ATOM      2  C   LIG d   1       9.918   8.515  -4.518  0.00  0.00    -0.015 A 
ATOM      3  C   LIG d   1       9.829   7.920  -5.768  0.00  0.00     0.143 A 
ATOM      4  C   LIG d   1       9.757   6.522  -5.866  0.00  0.00     0.063 A 
ATOM      5  C   LIG d   1       9.779   5.735  -4.703  0.00  0.00     0.132 A 
ATOM      6  C   LIG d   1       9.868   6.352  -3.468  0.00  0.00    -0.016 A 
ATOM      7  C   LIG d   1       9.665   5.897  -7.191  0.00  0.00    -0.023 A 
ATOM      8  C   LIG d   1       9.642   6.700  -8.276  0.00  0.00     0.041 A 
ATOM      9  C   LIG d   1       9.720   8.105  -8.103  0.00  0.00     0.341 A 
ATOM     10  O   LIG d   1       9.706   8.821  -9.088  0.00  0.00    -0.245 OA
ATOM     11  O   LIG d   1       9.809   8.668  -6.892  0.00  0.00    -0.422 OA
ATOM     12  C   LIG d   1       9.535   6.166  -9.680  0.00  0.00    -0.021 C 
ATOM     13  C   LIG d   1       9.898   4.683  -9.721  0.00  0.00    -0.049 C 
ATOM     14  C   LIG d   1       9.084   3.956  -8.643  0.00  0.00    -0.049 C 
ATOM     15  C   LIG d   1       9.601   4.398  -7.275  0.00  0.00    -0.026 C 
ATOM     16  H   LIG d   1       9.972   9.590  -4.434  0.00  0.00     0.066 H 
ATOM     17  H   LIG d   1       9.885   5.755  -2.568  0.00  0.00     0.066 H 
ATOM     18  H   LIG d   1      10.215   6.720 -10.328  0.00  0.00     0.032 H 
ATOM     19  H   LIG d   1       8.513   6.296 -10.037  0.00  0.00     0.032 H 
ATOM     20  H   LIG d   1       9.657   4.273 -10.702  0.00  0.00     0.027 H 
ATOM     21  H   LIG d   1      10.962   4.560  -9.523  0.00  0.00     0.027 H 
ATOM     22  H   LIG d   1       8.030   4.218  -8.740  0.00  0.00     0.027 H 
ATOM     23  H   LIG d   1       9.207   2.879  -8.753  0.00  0.00     0.027 H 
ATOM     24  H   LIG d   1       8.932   4.023  -6.500  0.00  0.00     0.031 H 
ATOM     25  H   LIG d   1      10.597   3.986  -7.118  0.00  0.00     0.031 H 
ENDROOT
BRANCH   5  26
ATOM     26  O   LIG d   1       9.712   4.382  -4.789  0.00  0.00    -0.482 OA
BRANCH  26  27
ATOM     27  C   LIG d   1       9.672   3.656  -3.559  0.00  0.00     0.165 C 
ATOM     28  H   LIG d   1      10.652   3.692  -3.084  0.00  0.00     0.080 H 
ATOM     29  H   LIG d   1       8.929   4.102  -2.898  0.00  0.00     0.080 H 
BRANCH  27  30
ATOM     30  C   LIG d   1       9.301   2.221  -3.836  0.00  0.00     0.251 C 
ATOM     31  O   LIG d   1      10.167   1.406  -4.072  0.00  0.00    -0.272 OA
ATOM     32  N   LIG d   1       8.007   1.844  -3.820  0.00  0.00    -0.300 N 
ATOM     33  H   LIG d   1       7.315   2.496  -3.630  0.00  0.00     0.150 HD
BRANCH  32  34
ATOM     34  CA  LIG d   1       7.647   0.450  -4.089  0.00  0.00     0.088 C 
ATOM     35  HA  LIG d   1       8.462  -0.203  -3.777  0.00  0.00     0.061 H 
BRANCH  34  36
ATOM     36  C   LIG d   1       6.400   0.096  -3.319  0.00  0.00    -0.022 A 
ATOM     37  C   LIG d   1       6.035  -1.229  -3.164  0.00  0.00    -0.056 A 
ATOM     38  C   LIG d   1       4.891  -1.552  -2.459  0.00  0.00    -0.061 A 
ATOM     39  H   LIG d   1       6.644  -2.009  -3.594  0.00  0.00     0.062 H 
ATOM     40  C   LIG d   1       4.112  -0.551  -1.908  0.00  0.00    -0.062 A 
ATOM     41  H   LIG d   1       4.606  -2.587  -2.338  0.00  0.00     0.062 H 
ATOM     42  C   LIG d   1       4.477   0.772  -2.063  0.00  0.00    -0.061 A 
ATOM     43  H   LIG d   1       3.218  -0.805  -1.357  0.00  0.00     0.062 H 
ATOM     44  C   LIG d   1       5.623   1.096  -2.765  0.00  0.00    -0.056 A 
ATOM     45  H   LIG d   1       3.868   1.554  -1.633  0.00  0.00     0.062 H 
ATOM     46  H   LIG d   1       5.910   2.131  -2.882  0.00  0.00     0.062 H 
ENDBRANCH  34  36
BRANCH  34  47
ATOM     47  C   LIG d   1       7.395   0.271  -5.563  0.00  0.00     0.066 C 
ATOM     48  O   LIG d   1       6.833   1.138  -6.189  0.00  0.00    -0.547 OA
ATOM     49  OXT LIG d   1       7.795  -0.851  -6.181  0.00  0.00    -0.547 OA
ENDBRANCH  34  47
ENDBRANCH  32  34
ENDBRANCH  27  30
ENDBRANCH  26  27
ENDBRANCH   5  26
BRANCH   1  50
ATOM     50  C   LIG d   1      10.034   8.389  -2.027  0.00  0.00    -0.040 C 
ATOM     51  H   LIG d   1      10.342   7.651  -1.286  0.00  0.00     0.028 H 
ATOM     52  H   LIG d   1      10.769   9.194  -2.066  0.00  0.00     0.028 H 
ATOM     53  H   LIG d   1       9.062   8.799  -1.751  0.00  0.00     0.028 H 
ENDBRANCH   1  50
TORSDOF 7
ENDMDL
MODEL 5
REMARK VINA RESULT:      -6.7      6.273      9.305
REMARK  7 active torsions:
REMARK  status: ('A' for Active; 'I' for Inactive)
REMARK    1  A    between atoms: C_1  and  C_2 
REMARK    2  A    between atoms: C_6  and  O_8 
REMARK    3  A    between atoms: O_8  and  C_9 
REMARK    4  A    between atoms: C_9  and  C_10 
REMARK       I    between atoms: C_10  and  N_12 
REMARK    5  A    between atoms: N_12  and  CA_13 
REMARK    6  A    between atoms: CA_13  and  C_15 
REMARK    7  A    between atoms: CA_13  and  C_21 
ROOT
ATOM      1  C   LIG d   1       9.529   8.068  -5.866  0.00  0.00    -0.043 A 
ATOM      2  C   LIG d   1       9.986   8.993  -4.948  0.00  0.00    -0.015 A 
ATOM      3  C   LIG d   1      10.366   8.582  -3.678  0.00  0.00     0.143 A 
ATOM      4  C   LIG d   1      10.282   7.223  -3.337  0.00  0.00     0.063 A 
ATOM      5  C   LIG d   1       9.813   6.290  -4.277  0.00  0.00     0.132 A 
ATOM      6  C   LIG d   1       9.441   6.726  -5.537  0.00  0.00    -0.016 A 
ATOM      7  C   LIG d   1      10.683   6.792  -1.992  0.00  0.00    -0.023 A 
ATOM      8  C   LIG d   1      11.132   7.729  -1.129  0.00  0.00     0.041 A 
ATOM      9  C   LIG d   1      11.187   9.084  -1.541  0.00  0.00     0.341 A 
ATOM     10  O   LIG d   1      11.587   9.923  -0.753  0.00  0.00    -0.245 OA
ATOM     11  O   LIG d   1      10.815   9.470  -2.768  0.00  0.00    -0.422 OA
ATOM     12  C   LIG d   1      11.581   7.396   0.269  0.00  0.00    -0.021 C 
ATOM     13  C   LIG d   1      11.059   6.024   0.691  0.00  0.00    -0.049 C 
ATOM     14  C   LIG d   1      11.414   5.013  -0.407  0.00  0.00    -0.049 C 
ATOM     15  C   LIG d   1      10.575   5.335  -1.643  0.00  0.00    -0.026 C 
ATOM     16  H   LIG d   1      10.049  10.036  -5.219  0.00  0.00     0.066 H 
ATOM     17  H   LIG d   1       9.080   6.016  -6.266  0.00  0.00     0.066 H 
ATOM     18  H   LIG d   1      11.203   8.151   0.958  0.00  0.00     0.032 H 
ATOM     19  H   LIG d   1      12.671   7.391   0.305  0.00  0.00     0.032 H 
ATOM     20  H   LIG d   1      11.526   5.726   1.629  0.00  0.00     0.027 H 
ATOM     21  H   LIG d   1       9.977   6.065   0.816  0.00  0.00     0.027 H 
ATOM     22  H   LIG d   1      12.474   5.094  -0.651  0.00  0.00     0.027 H 
ATOM     23  H   LIG d   1      11.191   4.004  -0.063  0.00  0.00     0.027 H 
ATOM     24  H   LIG d   1      10.928   4.737  -2.483  0.00  0.00     0.031 H 
ATOM     25  H   LIG d   1       9.533   5.090  -1.442  0.00  0.00     0.031 H 
ENDROOT
BRANCH   5  26
ATOM     26  O   LIG d   1       9.728   4.975  -3.955  0.00  0.00    -0.482 OA
BRANCH  26  27
ATOM     27  C   LIG d   1       8.775   4.191  -4.674  0.00  0.00     0.165 C 
ATOM     28  H   LIG d   1       7.783   4.628  -4.558  0.00  0.00     0.080 H 
ATOM     29  H   LIG d   1       9.042   4.173  -5.730  0.00  0.00     0.080 H 
BRANCH  27  30
ATOM     30  C   LIG d   1       8.770   2.785  -4.133  0.00  0.00     0.251 C 
ATOM     31  O   LIG d   1       9.699   2.391  -3.461  0.00  0.00    -0.272 OA
ATOM     32  N   LIG d   1       7.732   1.965  -4.394  0.00  0.00    -0.300 N 
ATOM     33  H   LIG d   1       6.989   2.281  -4.931  0.00  0.00     0.150 HD
BRANCH  32  34
ATOM     34  CA  LIG d   1       7.728   0.598  -3.868  0.00  0.00     0.088 C 
ATOM     35  HA  LIG d   1       8.510   0.495  -3.116  0.00  0.00     0.061 H 
BRANCH  34  36
ATOM     36  C   LIG d   1       6.388   0.306  -3.240  0.00  0.00    -0.022 A 
ATOM     37  C   LIG d   1       5.987  -1.003  -3.046  0.00  0.00    -0.056 A 
ATOM     38  C   LIG d   1       4.758  -1.270  -2.471  0.00  0.00    -0.061 A 
ATOM     39  H   LIG d   1       6.632  -1.815  -3.344  0.00  0.00     0.062 H 
ATOM     40  C   LIG d   1       3.932  -0.228  -2.090  0.00  0.00    -0.062 A 
ATOM     41  H   LIG d   1       4.444  -2.291  -2.319  0.00  0.00     0.062 H 
ATOM     42  C   LIG d   1       4.335   1.079  -2.284  0.00  0.00    -0.061 A 
ATOM     43  H   LIG d   1       2.972  -0.438  -1.640  0.00  0.00     0.062 H 
ATOM     44  C   LIG d   1       5.565   1.347  -2.855  0.00  0.00    -0.056 A 
ATOM     45  H   LIG d   1       3.689   1.892  -1.986  0.00  0.00     0.062 H 
ATOM     46  H   LIG d   1       5.881   2.369  -3.002  0.00  0.00     0.062 H 
ENDBRANCH  34  36
BRANCH  34  47
ATOM     47  C   LIG d   1       7.979  -0.374  -4.991  0.00  0.00     0.066 C 
ATOM     48  O   LIG d   1       8.820  -1.233  -4.869  0.00  0.00    -0.547 OA
ATOM     49  OXT LIG d   1       7.270  -0.286  -6.127  0.00  0.00    -0.547 OA
ENDBRANCH  34  47
ENDBRANCH  32  34
ENDBRANCH  27  30
ENDBRANCH  26  27
ENDBRANCH   5  26
BRANCH   1  50
ATOM     50  C   LIG d   1       9.118   8.526  -7.242  0.00  0.00    -0.040 C 
ATOM     51  H   LIG d   1       9.951   8.390  -7.933  0.00  0.00     0.028 H 
ATOM     52  H   LIG d   1       8.265   7.938  -7.581  0.00  0.00     0.028 H 
ATOM     53  H   LIG d   1       8.842   9.580  -7.207  0.00  0.00     0.028 H 
ENDBRANCH   1  50
TORSDOF 7
ENDMDL
MODEL 6
REMARK VINA RESULT:      -6.6      5.313      7.827
REMARK  7 active torsions:
REMARK  status: ('A' for Active; 'I' for Inactive)
REMARK    1  A    between atoms: C_1  and  C_2 
REMARK    2  A    between atoms: C_6  and  O_8 
REMARK    3  A    between atoms: O_8  and  C_9 
REMARK    4  A    between atoms: C_9  and  C_10 
REMARK       I    between atoms: C_10  and  N_12 
REMARK    5  A    between atoms: N_12  and  CA_13 
REMARK    6  A    between atoms: CA_13  and  C_15 
REMARK    7  A    between atoms: CA_13  and  C_21 
ROOT
ATOM      1  C   LIG d   1       9.576   4.343  -8.132  0.00  0.00    -0.043 A 
ATOM      2  C   LIG d   1       9.678   5.704  -7.924  0.00  0.00    -0.015 A 
ATOM      3  C   LIG d   1       9.770   6.204  -6.632  0.00  0.00     0.143 A 
ATOM      4  C   LIG d   1       9.759   5.318  -5.545  0.00  0.00     0.063 A 
ATOM      5  C   LIG d   1       9.652   3.934  -5.767  0.00  0.00     0.132 A 
ATOM      6  C   LIG d   1       9.561   3.462  -7.064  0.00  0.00    -0.016 A 
ATOM      7  C   LIG d   1       9.855   5.851  -4.181  0.00  0.00    -0.023 A 
ATOM      8  C   LIG d   1       9.961   7.188  -4.023  0.00  0.00     0.041 A 
ATOM      9  C   LIG d   1       9.964   8.024  -5.167  0.00  0.00     0.341 A 
ATOM     10  O   LIG d   1      10.054   9.229  -5.015  0.00  0.00    -0.245 OA
ATOM     11  O   LIG d   1       9.872   7.531  -6.409  0.00  0.00    -0.422 OA
ATOM     12  C   LIG d   1      10.079   7.839  -2.670  0.00  0.00    -0.021 C 
ATOM     13  C   LIG d   1       9.628   6.882  -1.570  0.00  0.00    -0.049 C 
ATOM     14  C   LIG d   1      10.361   5.548  -1.759  0.00  0.00    -0.049 C 
ATOM     15  C   LIG d   1       9.829   4.886  -3.029  0.00  0.00    -0.026 C 
ATOM     16  H   LIG d   1       9.688   6.380  -8.766  0.00  0.00     0.066 H 
ATOM     17  H   LIG d   1       9.480   2.400  -7.245  0.00  0.00     0.066 H 
ATOM     18  H   LIG d   1       9.456   8.733  -2.647  0.00  0.00     0.032 H 
ATOM     19  H   LIG d   1      11.118   8.121  -2.497  0.00  0.00     0.032 H 
ATOM     20  H   LIG d   1       9.874   7.301  -0.594  0.00  0.00     0.027 H 
ATOM     21  H   LIG d   1       8.552   6.723  -1.640  0.00  0.00     0.027 H 
ATOM     22  H   LIG d   1      11.432   5.728  -1.859  0.00  0.00     0.027 H 
ATOM     23  H   LIG d   1      10.175   4.902  -0.901  0.00  0.00     0.027 H 
ATOM     24  H   LIG d   1      10.449   4.022  -3.270  0.00  0.00     0.031 H 
ATOM     25  H   LIG d   1       8.805   4.556  -2.859  0.00  0.00     0.031 H 
ENDROOT
BRANCH   5  26
ATOM     26  O   LIG d   1       9.639   3.071  -4.721  0.00  0.00    -0.482 OA
BRANCH  26  27
ATOM     27  C   LIG d   1      10.442   1.896  -4.841  0.00  0.00     0.165 C 
ATOM     28  H   LIG d   1      11.054   1.963  -5.741  0.00  0.00     0.080 H 
ATOM     29  H   LIG d   1      11.089   1.807  -3.968  0.00  0.00     0.080 H 
BRANCH  27  30
ATOM     30  C   LIG d   1       9.550   0.684  -4.930  0.00  0.00     0.251 C 
ATOM     31  O   LIG d   1       9.994  -0.367  -5.341  0.00  0.00    -0.272 OA
ATOM     32  N   LIG d   1       8.259   0.769  -4.551  0.00  0.00    -0.300 N 
ATOM     33  H   LIG d   1       7.905   1.609  -4.222  0.00  0.00     0.150 HD
BRANCH  32  34
ATOM     34  CA  LIG d   1       7.392  -0.408  -4.638  0.00  0.00     0.088 C 
ATOM     35  HA  LIG d   1       7.981  -1.308  -4.462  0.00  0.00     0.061 H 
BRANCH  34  36
ATOM     36  C   LIG d   1       6.305  -0.310  -3.598  0.00  0.00    -0.022 A 
ATOM     37  C   LIG d   1       5.918   0.928  -3.117  0.00  0.00    -0.056 A 
ATOM     38  C   LIG d   1       4.923   1.018  -2.162  0.00  0.00    -0.061 A 
ATOM     39  H   LIG d   1       6.395   1.823  -3.487  0.00  0.00     0.062 H 
ATOM     40  C   LIG d   1       4.314  -0.130  -1.689  0.00  0.00    -0.062 A 
ATOM     41  H   LIG d   1       4.620   1.984  -1.787  0.00  0.00     0.062 H 
ATOM     42  C   LIG d   1       4.700  -1.366  -2.170  0.00  0.00    -0.061 A 
ATOM     43  H   LIG d   1       3.535  -0.059  -0.943  0.00  0.00     0.062 H 
ATOM     44  C   LIG d   1       5.693  -1.456  -3.128  0.00  0.00    -0.056 A 
ATOM     45  H   LIG d   1       4.224  -2.262  -1.800  0.00  0.00     0.062 H 
ATOM     46  H   LIG d   1       5.992  -2.422  -3.507  0.00  0.00     0.062 H 
ENDBRANCH  34  36
BRANCH  34  47
ATOM     47  C   LIG d   1       6.770  -0.475  -6.009  0.00  0.00     0.066 C 
ATOM     48  O   LIG d   1       6.730  -1.526  -6.603  0.00  0.00    -0.547 OA
ATOM     49  OXT LIG d   1       6.261   0.632  -6.570  0.00  0.00    -0.547 OA
ENDBRANCH  34  47
ENDBRANCH  32  34
ENDBRANCH  27  30
ENDBRANCH  26  27
ENDBRANCH   5  26
BRANCH   1  50
ATOM     50  C   LIG d   1       9.476   3.811  -9.539  0.00  0.00    -0.040 C 
ATOM     51  H   LIG d   1      10.320   3.150  -9.738  0.00  0.00     0.028 H 
ATOM     52  H   LIG d   1       8.544   3.256  -9.652  0.00  0.00     0.028 H 
ATOM     53  H   LIG d   1       9.490   4.643 -10.244  0.00  0.00     0.028 H 
ENDBRANCH   1  50
TORSDOF 7
ENDMDL
MODEL 7
REMARK VINA RESULT:      -6.5      2.372      3.538
REMARK  7 active torsions:
REMARK  status: ('A' for Active; 'I' for Inactive)
REMARK    1  A    between atoms: C_1  and  C_2 
REMARK    2  A    between atoms: C_6  and  O_8 
REMARK    3  A    between atoms: O_8  and  C_9 
REMARK    4  A    between atoms: C_9  and  C_10 
REMARK       I    between atoms: C_10  and  N_12 
REMARK    5  A    between atoms: N_12  and  CA_13 
REMARK    6  A    between atoms: CA_13  and  C_15 
REMARK    7  A    between atoms: CA_13  and  C_21 
ROOT
ATOM      1  C   LIG d   1       8.964   1.753  -5.294  0.00  0.00    -0.043 A 
ATOM      2  C   LIG d   1       8.139   2.185  -4.275  0.00  0.00    -0.015 A 
ATOM      3  C   LIG d   1       7.133   1.357  -3.796  0.00  0.00     0.143 A 
ATOM      4  C   LIG d   1       6.964   0.081  -4.354  0.00  0.00     0.063 A 
ATOM      5  C   LIG d   1       7.807  -0.349  -5.393  0.00  0.00     0.132 A 
ATOM      6  C   LIG d   1       8.801   0.496  -5.852  0.00  0.00    -0.016 A 
ATOM      7  C   LIG d   1       5.898  -0.791  -3.846  0.00  0.00    -0.023 A 
ATOM      8  C   LIG d   1       5.120  -0.331  -2.843  0.00  0.00     0.041 A 
ATOM      9  C   LIG d   1       5.347   0.970  -2.329  0.00  0.00     0.341 A 
ATOM     10  O   LIG d   1       4.635   1.380  -1.429  0.00  0.00    -0.245 OA
ATOM     11  O   LIG d   1       6.318   1.762  -2.800  0.00  0.00    -0.422 OA
ATOM     12  C   LIG d   1       4.008  -1.147  -2.238  0.00  0.00    -0.021 C 
ATOM     13  C   LIG d   1       3.619  -2.297  -3.163  0.00  0.00    -0.049 C 
ATOM     14  C   LIG d   1       4.893  -3.054  -3.557  0.00  0.00    -0.049 C 
ATOM     15  C   LIG d   1       5.725  -2.149  -4.465  0.00  0.00    -0.026 C 
ATOM     16  H   LIG d   1       8.277   3.169  -3.849  0.00  0.00     0.066 H 
ATOM     17  H   LIG d   1       9.455   0.174  -6.649  0.00  0.00     0.066 H 
ATOM     18  H   LIG d   1       3.140  -0.507  -2.076  0.00  0.00     0.032 H 
ATOM     19  H   LIG d   1       4.339  -1.551  -1.282  0.00  0.00     0.032 H 
ATOM     20  H   LIG d   1       2.937  -2.971  -2.645  0.00  0.00     0.027 H 
ATOM     21  H   LIG d   1       3.135  -1.902  -4.057  0.00  0.00     0.027 H 
ATOM     22  H   LIG d   1       5.465  -3.301  -2.662  0.00  0.00     0.027 H 
ATOM     23  H   LIG d   1       4.629  -3.967  -4.089  0.00  0.00     0.027 H 
ATOM     24  H   LIG d   1       6.705  -2.600  -4.621  0.00  0.00     0.031 H 
ATOM     25  H   LIG d   1       5.222  -2.045  -5.426  0.00  0.00     0.031 H 
ENDROOT
BRANCH   5  26
ATOM     26  O   LIG d   1       7.648  -1.581  -5.939  0.00  0.00    -0.482 OA
BRANCH  26  27
ATOM     27  C   LIG d   1       8.086  -1.753  -7.288  0.00  0.00     0.165 C 
ATOM     28  H   LIG d   1       8.744  -0.930  -7.565  0.00  0.00     0.080 H 
ATOM     29  H   LIG d   1       8.624  -2.696  -7.378  0.00  0.00     0.080 H 
BRANCH  27  30
ATOM     30  C   LIG d   1       6.889  -1.769  -8.205  0.00  0.00     0.251 C 
ATOM     31  O   LIG d   1       6.039  -2.624  -8.078  0.00  0.00    -0.272 OA
ATOM     32  N   LIG d   1       6.764  -0.832  -9.166  0.00  0.00    -0.300 N 
ATOM     33  H   LIG d   1       7.443  -0.147  -9.267  0.00  0.00     0.150 HD
BRANCH  32  34
ATOM     34  CA  LIG d   1       5.602  -0.847 -10.057  0.00  0.00     0.088 C 
ATOM     35  HA  LIG d   1       5.109  -1.818  -9.995  0.00  0.00     0.061 H 
BRANCH  34  36
ATOM     36  C   LIG d   1       4.636   0.233  -9.641  0.00  0.00    -0.022 A 
ATOM     37  C   LIG d   1       3.351  -0.100  -9.252  0.00  0.00    -0.056 A 
ATOM     38  C   LIG d   1       2.466   0.891  -8.872  0.00  0.00    -0.061 A 
ATOM     39  H   LIG d   1       3.041  -1.134  -9.246  0.00  0.00     0.062 H 
ATOM     40  C   LIG d   1       2.865   2.215  -8.879  0.00  0.00    -0.062 A 
ATOM     41  H   LIG d   1       1.463   0.632  -8.568  0.00  0.00     0.062 H 
ATOM     42  C   LIG d   1       4.149   2.547  -9.268  0.00  0.00    -0.061 A 
ATOM     43  H   LIG d   1       2.173   2.989  -8.582  0.00  0.00     0.062 H 
ATOM     44  C   LIG d   1       5.036   1.556  -9.644  0.00  0.00    -0.056 A 
ATOM     45  H   LIG d   1       4.461   3.581  -9.273  0.00  0.00     0.062 H 
ATOM     46  H   LIG d   1       6.041   1.815  -9.943  0.00  0.00     0.062 H 
ENDBRANCH  34  36
BRANCH  34  47
ATOM     47  C   LIG d   1       6.051  -0.602 -11.474  0.00  0.00     0.066 C 
ATOM     48  O   LIG d   1       7.229  -0.509 -11.726  0.00  0.00    -0.547 OA
ATOM     49  OXT LIG d   1       5.143  -0.486 -12.455  0.00  0.00    -0.547 OA
ENDBRANCH  34  47
ENDBRANCH  32  34
ENDBRANCH  27  30
ENDBRANCH  26  27
ENDBRANCH   5  26
BRANCH   1  50
ATOM     50  C   LIG d   1      10.052   2.661  -5.807  0.00  0.00    -0.040 C 
ATOM     51  H   LIG d   1      10.862   2.060  -6.220  0.00  0.00     0.028 H 
ATOM     52  H   LIG d   1       9.648   3.309  -6.585  0.00  0.00     0.028 H 
ATOM     53  H   LIG d   1      10.432   3.271  -4.988  0.00  0.00     0.028 H 
ENDBRANCH   1  50
TORSDOF 7
ENDMDL
MODEL 8
REMARK VINA RESULT:      -6.3      2.228      5.334
REMARK  7 active torsions:
REMARK  status: ('A' for Active; 'I' for Inactive)
REMARK    1  A    between atoms: C_1  and  C_2 
REMARK    2  A    between atoms: C_6  and  O_8 
REMARK    3  A    between atoms: O_8  and  C_9 
REMARK    4  A    between atoms: C_9  and  C_10 
REMARK       I    between atoms: C_10  and  N_12 
REMARK    5  A    between atoms: N_12  and  CA_13 
REMARK    6  A    between atoms: CA_13  and  C_15 
REMARK    7  A    between atoms: CA_13  and  C_21 
ROOT
ATOM      1  C   LIG d   1       3.324  -0.242  -9.151  0.00  0.00    -0.043 A 
ATOM      2  C   LIG d   1       2.969   0.694  -8.200  0.00  0.00    -0.015 A 
ATOM      3  C   LIG d   1       3.168   0.426  -6.854  0.00  0.00     0.143 A 
ATOM      4  C   LIG d   1       3.731  -0.800  -6.468  0.00  0.00     0.063 A 
ATOM      5  C   LIG d   1       4.086  -1.748  -7.443  0.00  0.00     0.132 A 
ATOM      6  C   LIG d   1       3.878  -1.456  -8.779  0.00  0.00    -0.016 A 
ATOM      7  C   LIG d   1       3.938  -1.081  -5.042  0.00  0.00    -0.023 A 
ATOM      8  C   LIG d   1       3.584  -0.134  -4.147  0.00  0.00     0.041 A 
ATOM      9  C   LIG d   1       3.019   1.081  -4.607  0.00  0.00     0.341 A 
ATOM     10  O   LIG d   1       2.696   1.926  -3.792  0.00  0.00    -0.245 OA
ATOM     11  O   LIG d   1       2.828   1.328  -5.909  0.00  0.00    -0.422 OA
ATOM     12  C   LIG d   1       3.765  -0.312  -2.662  0.00  0.00    -0.021 C 
ATOM     13  C   LIG d   1       3.960  -1.786  -2.316  0.00  0.00    -0.049 C 
ATOM     14  C   LIG d   1       5.063  -2.353  -3.218  0.00  0.00    -0.049 C 
ATOM     15  C   LIG d   1       4.531  -2.404  -4.649  0.00  0.00    -0.026 C 
ATOM     16  H   LIG d   1       2.538   1.636  -8.505  0.00  0.00     0.066 H 
ATOM     17  H   LIG d   1       4.149  -2.177  -9.536  0.00  0.00     0.066 H 
ATOM     18  H   LIG d   1       2.883   0.065  -2.145  0.00  0.00     0.032 H 
ATOM     19  H   LIG d   1       4.640   0.251  -2.337  0.00  0.00     0.032 H 
ATOM     20  H   LIG d   1       4.254  -1.883  -1.271  0.00  0.00     0.027 H 
ATOM     21  H   LIG d   1       3.030  -2.330  -2.487  0.00  0.00     0.027 H 
ATOM     22  H   LIG d   1       5.941  -1.708  -3.175  0.00  0.00     0.027 H 
ATOM     23  H   LIG d   1       5.328  -3.357  -2.888  0.00  0.00     0.027 H 
ATOM     24  H   LIG d   1       5.349  -2.647  -5.328  0.00  0.00     0.031 H 
ATOM     25  H   LIG d   1       3.766  -3.177  -4.720  0.00  0.00     0.031 H 
ENDROOT
BRANCH   5  26
ATOM     26  O   LIG d   1       4.630  -2.936  -7.079  0.00  0.00    -0.482 OA
BRANCH  26  27
ATOM     27  C   LIG d   1       5.694  -3.438  -7.889  0.00  0.00     0.165 C 
ATOM     28  H   LIG d   1       5.855  -4.493  -7.666  0.00  0.00     0.080 H 
ATOM     29  H   LIG d   1       5.434  -3.324  -8.941  0.00  0.00     0.080 H 
BRANCH  27  30
ATOM     30  C   LIG d   1       6.955  -2.665  -7.597  0.00  0.00     0.251 C 
ATOM     31  O   LIG d   1       7.536  -2.091  -8.494  0.00  0.00    -0.272 OA
ATOM     32  N   LIG d   1       7.436  -2.610  -6.339  0.00  0.00    -0.300 N 
ATOM     33  H   LIG d   1       6.971  -3.068  -5.622  0.00  0.00     0.150 HD
BRANCH  32  34
ATOM     34  CA  LIG d   1       8.661  -1.859  -6.056  0.00  0.00     0.088 C 
ATOM     35  HA  LIG d   1       9.219  -1.710  -6.980  0.00  0.00     0.061 H 
BRANCH  34  36
ATOM     36  C   LIG d   1       8.303  -0.518  -5.466  0.00  0.00    -0.022 A 
ATOM     37  C   LIG d   1       7.590  -0.451  -4.283  0.00  0.00    -0.056 A 
ATOM     38  C   LIG d   1       7.262   0.779  -3.743  0.00  0.00    -0.061 A 
ATOM     39  H   LIG d   1       7.291  -1.359  -3.781  0.00  0.00     0.062 H 
ATOM     40  C   LIG d   1       7.646   1.941  -4.386  0.00  0.00    -0.062 A 
ATOM     41  H   LIG d   1       6.705   0.831  -2.819  0.00  0.00     0.062 H 
ATOM     42  C   LIG d   1       8.358   1.873  -5.568  0.00  0.00    -0.061 A 
ATOM     43  H   LIG d   1       7.389   2.901  -3.964  0.00  0.00     0.062 H 
ATOM     44  C   LIG d   1       8.691   0.644  -6.106  0.00  0.00    -0.056 A 
ATOM     45  H   LIG d   1       8.659   2.781  -6.070  0.00  0.00     0.062 H 
ATOM     46  H   LIG d   1       9.251   0.591  -7.028  0.00  0.00     0.062 H 
ENDBRANCH  34  36
BRANCH  34  47
ATOM     47  C   LIG d   1       9.508  -2.629  -5.076  0.00  0.00     0.066 C 
ATOM     48  O   LIG d   1      10.635  -2.266  -4.838  0.00  0.00    -0.547 OA
ATOM     49  OXT LIG d   1       9.010  -3.716  -4.468  0.00  0.00    -0.547 OA
ENDBRANCH  34  47
ENDBRANCH  32  34
ENDBRANCH  27  30
ENDBRANCH  26  27
ENDBRANCH   5  26
BRANCH   1  50
ATOM     50  C   LIG d   1       3.103   0.060 -10.612  0.00  0.00    -0.040 C 
ATOM     51  H   LIG d   1       2.270  -0.536 -10.984  0.00  0.00     0.028 H 
ATOM     52  H   LIG d   1       2.875   1.119 -10.733  0.00  0.00     0.028 H 
ATOM     53  H   LIG d   1       4.005  -0.183 -11.174  0.00  0.00     0.028 H 
ENDBRANCH   1  50
TORSDOF 7
ENDMDL
MODEL 9
REMARK VINA RESULT:      -6.2      5.377      8.462
REMARK  7 active torsions:
REMARK  status: ('A' for Active; 'I' for Inactive)
REMARK    1  A    between atoms: C_1  and  C_2 
REMARK    2  A    between atoms: C_6  and  O_8 
REMARK    3  A    between atoms: O_8  and  C_9 
REMARK    4  A    between atoms: C_9  and  C_10 
REMARK       I    between atoms: C_10  and  N_12 
REMARK    5  A    between atoms: N_12  and  CA_13 
REMARK    6  A    between atoms: CA_13  and  C_15 
REMARK    7  A    between atoms: CA_13  and  C_21 
ROOT
ATOM      1  C   LIG d   1      10.278   5.904  -1.925  0.00  0.00    -0.043 A 
ATOM      2  C   LIG d   1      10.188   7.047  -2.694  0.00  0.00    -0.015 A 
ATOM      3  C   LIG d   1      10.042   6.948  -4.070  0.00  0.00     0.143 A 
ATOM      4  C   LIG d   1       9.986   5.681  -4.671  0.00  0.00     0.063 A 
ATOM      5  C   LIG d   1      10.082   4.524  -3.880  0.00  0.00     0.132 A 
ATOM      6  C   LIG d   1      10.226   4.650  -2.510  0.00  0.00    -0.016 A 
ATOM      7  C   LIG d   1       9.834   5.582  -6.127  0.00  0.00    -0.023 A 
ATOM      8  C   LIG d   1       9.742   6.725  -6.840  0.00  0.00     0.041 A 
ATOM      9  C   LIG d   1       9.808   7.970  -6.167  0.00  0.00     0.341 A 
ATOM     10  O   LIG d   1       9.731   8.997  -6.819  0.00  0.00    -0.245 OA
ATOM     11  O   LIG d   1       9.952   8.054  -4.838  0.00  0.00    -0.422 OA
ATOM     12  C   LIG d   1       9.569   6.738  -8.336  0.00  0.00    -0.021 C 
ATOM     13  C   LIG d   1       9.951   5.386  -8.934  0.00  0.00    -0.049 C 
ATOM     14  C   LIG d   1       9.206   4.288  -8.164  0.00  0.00    -0.049 C 
ATOM     15  C   LIG d   1       9.788   4.216  -6.753  0.00  0.00    -0.026 C 
ATOM     16  H   LIG d   1      10.230   8.019  -2.224  0.00  0.00     0.066 H 
ATOM     17  H   LIG d   1      10.299   3.766  -1.893  0.00  0.00     0.066 H 
ATOM     18  H   LIG d   1      10.205   7.513  -8.765  0.00  0.00     0.032 H 
ATOM     19  H   LIG d   1       8.528   6.955  -8.576  0.00  0.00     0.032 H 
ATOM     20  H   LIG d   1       9.665   5.355  -9.985  0.00  0.00     0.027 H 
ATOM     21  H   LIG d   1      11.027   5.234  -8.841  0.00  0.00     0.027 H 
ATOM     22  H   LIG d   1       8.145   4.532  -8.112  0.00  0.00     0.027 H 
ATOM     23  H   LIG d   1       9.340   3.331  -8.667  0.00  0.00     0.027 H 
ATOM     24  H   LIG d   1       9.167   3.561  -6.141  0.00  0.00     0.031 H 
ATOM     25  H   LIG d   1      10.798   3.809  -6.802  0.00  0.00     0.031 H 
ENDROOT
BRANCH   5  26
ATOM     26  O   LIG d   1      10.030   3.295  -4.453  0.00  0.00    -0.482 OA
BRANCH  26  27
ATOM     27  C   LIG d   1       9.493   2.234  -3.663  0.00  0.00     0.165 C 
ATOM     28  H   LIG d   1      10.140   1.360  -3.740  0.00  0.00     0.080 H 
ATOM     29  H   LIG d   1       9.431   2.551  -2.622  0.00  0.00     0.080 H 
BRANCH  27  30
ATOM     30  C   LIG d   1       8.115   1.883  -4.164  0.00  0.00     0.251 C 
ATOM     31  O   LIG d   1       7.799   2.146  -5.305  0.00  0.00    -0.272 OA
ATOM     32  N   LIG d   1       7.234   1.275  -3.344  0.00  0.00    -0.300 N 
ATOM     33  H   LIG d   1       7.487   1.063  -2.432  0.00  0.00     0.150 HD
BRANCH  32  34
ATOM     34  CA  LIG d   1       5.895   0.934  -3.831  0.00  0.00     0.088 C 
ATOM     35  HA  LIG d   1       5.696   1.475  -4.756  0.00  0.00     0.061 H 
BRANCH  34  36
ATOM     36  C   LIG d   1       5.818  -0.549  -4.091  0.00  0.00    -0.022 A 
ATOM     37  C   LIG d   1       4.738  -1.076  -4.775  0.00  0.00    -0.056 A 
ATOM     38  C   LIG d   1       4.667  -2.436  -5.012  0.00  0.00    -0.061 A 
ATOM     39  H   LIG d   1       3.950  -0.425  -5.122  0.00  0.00     0.062 H 
ATOM     40  C   LIG d   1       5.677  -3.268  -4.567  0.00  0.00    -0.062 A 
ATOM     41  H   LIG d   1       3.824  -2.848  -5.546  0.00  0.00     0.062 H 
ATOM     42  C   LIG d   1       6.757  -2.741  -3.885  0.00  0.00    -0.061 A 
ATOM     43  H   LIG d   1       5.622  -4.331  -4.753  0.00  0.00     0.062 H 
ATOM     44  C   LIG d   1       6.830  -1.381  -3.650  0.00  0.00    -0.056 A 
ATOM     45  H   LIG d   1       7.546  -3.392  -3.537  0.00  0.00     0.062 H 
ATOM     46  H   LIG d   1       7.676  -0.969  -3.121  0.00  0.00     0.062 H 
ENDBRANCH  34  36
BRANCH  34  47
ATOM     47  C   LIG d   1       4.871   1.316  -2.795  0.00  0.00     0.066 C 
ATOM     48  O   LIG d   1       3.902   1.963  -3.114  0.00  0.00    -0.547 OA
ATOM     49  OXT LIG d   1       5.034   0.939  -1.517  0.00  0.00    -0.547 OA
ENDBRANCH  34  47
ENDBRANCH  32  34
ENDBRANCH  27  30
ENDBRANCH  26  27
ENDBRANCH   5  26
BRANCH   1  50
ATOM     50  C   LIG d   1      10.437   6.023  -0.430  0.00  0.00    -0.040 C 
ATOM     51  H   LIG d   1      11.497   6.022  -0.176  0.00  0.00     0.028 H 
ATOM     52  H   LIG d   1       9.982   6.954  -0.090  0.00  0.00     0.028 H 
ATOM     53  H   LIG d   1       9.945   5.180   0.056  0.00  0.00     0.028 H 
ENDBRANCH   1  50
TORSDOF 7
ENDMDL
MODEL 10
REMARK VINA RESULT:      -6.1      3.705      5.972
REMARK  7 active torsions:
REMARK  status: ('A' for Active; 'I' for Inactive)
REMARK    1  A    between atoms: C_1  and  C_2 
REMARK    2  A    between atoms: C_6  and  O_8 
REMARK    3  A    between atoms: O_8  and  C_9 
REMARK    4  A    between atoms: C_9  and  C_10 
REMARK       I    between atoms: C_10  and  N_12 
REMARK    5  A    between atoms: N_12  and  CA_13 
REMARK    6  A    between atoms: CA_13  and  C_15 
REMARK    7  A    between atoms: CA_13  and  C_21 
ROOT
ATOM      1  C   LIG d   1      13.388  -1.791  -4.194  0.00  0.00    -0.043 A 
ATOM      2  C   LIG d   1      13.825  -0.541  -3.801  0.00  0.00    -0.015 A 
ATOM      3  C   LIG d   1      12.992   0.560  -3.936  0.00  0.00     0.143 A 
ATOM      4  C   LIG d   1      11.706   0.394  -4.474  0.00  0.00     0.063 A 
ATOM      5  C   LIG d   1      11.272  -0.881  -4.874  0.00  0.00     0.132 A 
ATOM      6  C   LIG d   1      12.122  -1.963  -4.729  0.00  0.00    -0.016 A 
ATOM      7  C   LIG d   1      10.829   1.562  -4.617  0.00  0.00    -0.023 A 
ATOM      8  C   LIG d   1      11.294   2.764  -4.212  0.00  0.00     0.041 A 
ATOM      9  C   LIG d   1      12.604   2.858  -3.679  0.00  0.00     0.341 A 
ATOM     10  O   LIG d   1      13.017   3.947  -3.323  0.00  0.00    -0.245 OA
ATOM     11  O   LIG d   1      13.401   1.789  -3.556  0.00  0.00    -0.422 OA
ATOM     12  C   LIG d   1      10.474   4.024  -4.300  0.00  0.00    -0.021 C 
ATOM     13  C   LIG d   1       9.307   3.840  -5.267  0.00  0.00    -0.049 C 
ATOM     14  C   LIG d   1       8.559   2.556  -4.886  0.00  0.00    -0.049 C 
ATOM     15  C   LIG d   1       9.461   1.365  -5.206  0.00  0.00    -0.026 C 
ATOM     16  H   LIG d   1      14.815  -0.421  -3.386  0.00  0.00     0.066 H 
ATOM     17  H   LIG d   1      11.797  -2.947  -5.032  0.00  0.00     0.066 H 
ATOM     18  H   LIG d   1      11.106   4.840  -4.650  0.00  0.00     0.032 H 
ATOM     19  H   LIG d   1      10.085   4.269  -3.312  0.00  0.00     0.032 H 
ATOM     20  H   LIG d   1       8.632   4.693  -5.195  0.00  0.00     0.027 H 
ATOM     21  H   LIG d   1       9.685   3.756  -6.287  0.00  0.00     0.027 H 
ATOM     22  H   LIG d   1       8.331   2.568  -3.820  0.00  0.00     0.027 H 
ATOM     23  H   LIG d   1       7.636   2.484  -5.460  0.00  0.00     0.027 H 
ATOM     24  H   LIG d   1       9.019   0.458  -4.792  0.00  0.00     0.031 H 
ATOM     25  H   LIG d   1       9.546   1.261  -6.287  0.00  0.00     0.031 H 
ENDROOT
BRANCH   5  26
ATOM     26  O   LIG d   1      10.031  -1.050  -5.396  0.00  0.00    -0.482 OA
BRANCH  26  27
ATOM     27  C   LIG d   1       9.644  -2.384  -5.727  0.00  0.00     0.165 C 
ATOM     28  H   LIG d   1       9.361  -2.431  -6.779  0.00  0.00     0.080 H 
ATOM     29  H   LIG d   1      10.478  -3.061  -5.544  0.00  0.00     0.080 H 
BRANCH  27  30
ATOM     30  C   LIG d   1       8.470  -2.792  -4.875  0.00  0.00     0.251 C 
ATOM     31  O   LIG d   1       8.554  -3.761  -4.149  0.00  0.00    -0.272 OA
ATOM     32  N   LIG d   1       7.326  -2.080  -4.917  0.00  0.00    -0.300 N 
ATOM     33  H   LIG d   1       7.259  -1.305  -5.496  0.00  0.00     0.150 HD
BRANCH  32  34
ATOM     34  CA  LIG d   1       6.185  -2.476  -4.088  0.00  0.00     0.088 C 
ATOM     35  HA  LIG d   1       6.499  -3.244  -3.380  0.00  0.00     0.061 H 
BRANCH  34  36
ATOM     36  C   LIG d   1       5.673  -1.277  -3.332  0.00  0.00    -0.022 A 
ATOM     37  C   LIG d   1       6.171  -0.018  -3.613  0.00  0.00    -0.056 A 
ATOM     38  C   LIG d   1       5.701   1.081  -2.919  0.00  0.00    -0.061 A 
ATOM     39  H   LIG d   1       6.927   0.106  -4.373  0.00  0.00     0.062 H 
ATOM     40  C   LIG d   1       4.733   0.922  -1.945  0.00  0.00    -0.062 A 
ATOM     41  H   LIG d   1       6.090   2.065  -3.137  0.00  0.00     0.062 H 
ATOM     42  C   LIG d   1       4.235  -0.336  -1.666  0.00  0.00    -0.061 A 
ATOM     43  H   LIG d   1       4.365   1.782  -1.403  0.00  0.00     0.062 H 
ATOM     44  C   LIG d   1       4.701  -1.435  -2.362  0.00  0.00    -0.056 A 
ATOM     45  H   LIG d   1       3.477  -0.460  -0.905  0.00  0.00     0.062 H 
ATOM     46  H   LIG d   1       4.308  -2.418  -2.147  0.00  0.00     0.062 H 
ENDBRANCH  34  36
BRANCH  34  47
ATOM     47  C   LIG d   1       5.090  -3.022  -4.967  0.00  0.00     0.066 C 
ATOM     48  O   LIG d   1       4.761  -2.422  -5.963  0.00  0.00    -0.547 OA
ATOM     49  OXT LIG d   1       4.481  -4.173  -4.645  0.00  0.00    -0.547 OA
ENDBRANCH  34  47
ENDBRANCH  32  34
ENDBRANCH  27  30
ENDBRANCH  26  27
ENDBRANCH   5  26
BRANCH   1  50
ATOM     50  C   LIG d   1      14.301  -2.980  -4.043  0.00  0.00    -0.040 C 
ATOM     51  H   LIG d   1      15.338  -2.656  -4.137  0.00  0.00     0.028 H 
ATOM     52  H   LIG d   1      14.149  -3.433  -3.063  0.00  0.00     0.028 H 
ATOM     53  H   LIG d   1      14.076  -3.712  -4.819  0.00  0.00     0.028 H 
ENDBRANCH   1  50
TORSDOF 7
ENDMDL
