MODEL 1
REMARK VINA RESULT:      -6.0      0.000      0.000
REMARK  8 active torsions:
REMARK  status: ('A' for Active; 'I' for Inactive)
REMARK    1  A    between atoms: C_1  and  C_2 
REMARK    2  A    between atoms: C_8  and  C_11 
REMARK    3  A    between atoms: C_14  and  O_17 
REMARK    4  A    between atoms: O_17  and  C_18 
REMARK    5  A    between atoms: C_18  and  C_19 
REMARK    6  A    between atoms: C_19  and  C_21 
REMARK    7  A    between atoms: C_19  and  O_27 
REMARK    8  A    between atoms: C_21  and  N_56 
ROOT
ATOM      1  C   LIG d   1       3.881  -0.760  -6.532  0.00  0.00    -0.018 A 
ATOM      2  C   LIG d   1       2.848  -0.001  -7.049  0.00  0.00    -0.053 A 
ATOM      3  C   LIG d   1       2.241  -0.374  -8.232  0.00  0.00    -0.020 A 
ATOM      4  C   LIG d   1       2.670  -1.512  -8.902  0.00  0.00     0.121 A 
ATOM      5  C   LIG d   1       3.703  -2.275  -8.377  0.00  0.00    -0.020 A 
ATOM      6  C   LIG d   1       4.311  -1.895  -7.196  0.00  0.00    -0.053 A 
ATOM      7  H   LIG d   1       2.515   0.884  -6.527  0.00  0.00     0.062 H 
ATOM      8  H   LIG d   1       1.434   0.219  -8.637  0.00  0.00     0.065 H 
ATOM      9  H   LIG d   1       4.036  -3.163  -8.894  0.00  0.00     0.065 H 
ATOM     10  H   LIG d   1       5.118  -2.485  -6.790  0.00  0.00     0.062 H 
ENDROOT
BRANCH   4  11
ATOM     11  O   LIG d   1       2.074  -1.880 -10.067  0.00  0.00    -0.489 OA
BRANCH  11  12
ATOM     12  C   LIG d   1       2.936  -2.214 -11.157  0.00  0.00     0.120 C 
ATOM     13  H   LIG d   1       2.608  -3.152 -11.606  0.00  0.00     0.072 H 
ATOM     14  H   LIG d   1       3.957  -2.323 -10.794  0.00  0.00     0.072 H 
BRANCH  12  15
ATOM     15  C   LIG d   1       2.885  -1.102 -12.206  0.00  0.00     0.129 C 
ATOM     16  H   LIG d   1       2.091  -0.399 -11.952  0.00  0.00     0.068 H 
BRANCH  15  17
ATOM     17  C   LIG d   1       4.227  -0.366 -12.236  0.00  0.00    -0.002 C 
ATOM     18  H   LIG d   1       5.020  -1.071 -12.485  0.00  0.00     0.084 H 
ATOM     19  H   LIG d   1       4.191   0.421 -12.988  0.00  0.00     0.084 H 
BRANCH  17  20
ATOM     20  N   LIG d   1       4.465   0.237 -10.909  0.00  0.00     0.237 N 
ATOM     21  C   LIG d   1       3.960   1.625 -10.888  0.00  0.00    -0.032 C 
ATOM     22  C   LIG d   1       4.110   2.187  -9.472  0.00  0.00    -0.012 C 
ATOM     23  H   LIG d   1       4.520   2.247 -11.586  0.00  0.00     0.081 H 
ATOM     24  H   LIG d   1       2.906   1.623 -11.168  0.00  0.00     0.081 H 
ATOM     25  C   LIG d   1       5.589   2.170  -9.076  0.00  0.00    -0.043 C 
ATOM     26  H   LIG d   1       3.539   1.574  -8.775  0.00  0.00     0.032 H 
ATOM     27  H   LIG d   1       3.738   3.211  -9.444  0.00  0.00     0.032 H 
ATOM     28  C   LIG d   1       6.118   0.737  -9.174  0.00  0.00    -0.012 C 
ATOM     29  H   LIG d   1       5.696   2.528  -8.052  0.00  0.00     0.027 H 
ATOM     30  H   LIG d   1       6.154   2.814  -9.748  0.00  0.00     0.027 H 
ATOM     31  C   LIG d   1       5.910   0.217 -10.598  0.00  0.00    -0.032 C 
ATOM     32  H   LIG d   1       5.580   0.100  -8.471  0.00  0.00     0.032 H 
ATOM     33  H   LIG d   1       7.182   0.725  -8.934  0.00  0.00     0.032 H 
ATOM     34  H   LIG d   1       6.273  -0.808 -10.667  0.00  0.00     0.081 H 
ATOM     35  H   LIG d   1       6.461   0.846 -11.298  0.00  0.00     0.081 H 
ATOM     36  H   LIG d   1       3.964  -0.311 -10.199  0.00  0.00     0.203 HD
ENDBRANCH  17  20
ENDBRANCH  15  17
BRANCH  15  37
ATOM     37  O   LIG d   1       2.623  -1.670 -13.491  0.00  0.00    -0.383 OA
ATOM     38  H   LIG d   1       3.018  -2.543 -13.622  0.00  0.00     0.210 HD
ENDBRANCH  15  37
ENDBRANCH  12  15
ENDBRANCH  11  12
ENDBRANCH   4  11
BRANCH   1  39
ATOM     39  C   LIG d   1       4.541  -0.351  -5.240  0.00  0.00     0.088 C 
ATOM     40  C   LIG d   1       3.468  -0.091  -4.176  0.00  0.00    -0.001 C 
ATOM     41  C   LIG d   1       4.164   0.127  -2.848  0.00  0.00    -0.071 C 
ATOM     42  H   LIG d   1       2.895   0.797  -4.441  0.00  0.00     0.034 H 
ATOM     43  H   LIG d   1       2.802  -0.952  -4.106  0.00  0.00     0.034 H 
ATOM     44  C   LIG d   1       5.224  -0.875  -2.440  0.00  0.00    -0.006 C 
ATOM     45  C   LIG d   1       3.860   1.144  -2.080  0.00  0.00    -0.099 C 
ATOM     46  C   LIG d   1       6.171  -1.079  -3.630  0.00  0.00     0.060 C 
ATOM     47  H   LIG d   1       4.755  -1.823  -2.177  0.00  0.00     0.034 H 
ATOM     48  H   LIG d   1       5.783  -0.492  -1.586  0.00  0.00     0.034 H 
ATOM     49  H   LIG d   1       6.736  -0.164  -3.806  0.00  0.00     0.060 H 
ATOM     50  O   LIG d   1       5.405  -1.398  -4.792  0.00  0.00    -0.368 OA
ATOM     51  H   LIG d   1       4.370   1.281  -1.137  0.00  0.00     0.053 H 
ATOM     52  H   LIG d   1       3.102   1.847  -2.391  0.00  0.00     0.053 H 
ATOM     53  H   LIG d   1       5.124   0.556  -5.400  0.00  0.00     0.065 H 
BRANCH  46  54
ATOM     54  C   LIG d   1       7.138  -2.225  -3.324  0.00  0.00    -0.038 C 
ATOM     55  H   LIG d   1       6.964  -3.043  -4.022  0.00  0.00     0.025 H 
ATOM     56  H   LIG d   1       8.164  -1.871  -3.427  0.00  0.00     0.025 H 
ATOM     57  H   LIG d   1       6.975  -2.575  -2.305  0.00  0.00     0.025 H 
ENDBRANCH  46  54
ENDBRANCH   1  39
TORSDOF 8
ENDMDL
MODEL 2
REMARK VINA RESULT:      -6.0      5.021      7.023
REMARK  8 active torsions:
REMARK  status: ('A' for Active; 'I' for Inactive)
REMARK    1  A    between atoms: C_1  and  C_2 
REMARK    2  A    between atoms: C_8  and  C_11 
REMARK    3  A    between atoms: C_14  and  O_17 
REMARK    4  A    between atoms: O_17  and  C_18 
REMARK    5  A    between atoms: C_18  and  C_19 
REMARK    6  A    between atoms: C_19  and  C_21 
REMARK    7  A    between atoms: C_19  and  O_27 
REMARK    8  A    between atoms: C_21  and  N_56 
ROOT
ATOM      1  C   LIG d   1       4.739  -7.105  -6.360  0.00  0.00    -0.018 A 
ATOM      2  C   LIG d   1       4.708  -5.929  -5.634  0.00  0.00    -0.053 A 
ATOM      3  C   LIG d   1       4.309  -4.753  -6.238  0.00  0.00    -0.020 A 
ATOM      4  C   LIG d   1       3.940  -4.753  -7.577  0.00  0.00     0.121 A 
ATOM      5  C   LIG d   1       3.967  -5.935  -8.301  0.00  0.00    -0.020 A 
ATOM      6  C   LIG d   1       4.371  -7.108  -7.694  0.00  0.00    -0.053 A 
ATOM      7  H   LIG d   1       4.995  -5.931  -4.592  0.00  0.00     0.062 H 
ATOM      8  H   LIG d   1       4.286  -3.834  -5.671  0.00  0.00     0.065 H 
ATOM      9  H   LIG d   1       3.675  -5.938  -9.341  0.00  0.00     0.065 H 
ATOM     10  H   LIG d   1       4.397  -8.028  -8.258  0.00  0.00     0.062 H 
ENDROOT
BRANCH   4  11
ATOM     11  O   LIG d   1       3.548  -3.596  -8.173  0.00  0.00    -0.489 OA
BRANCH  11  12
ATOM     12  C   LIG d   1       4.428  -2.476  -8.055  0.00  0.00     0.120 C 
ATOM     13  H   LIG d   1       4.941  -2.316  -9.003  0.00  0.00     0.072 H 
ATOM     14  H   LIG d   1       5.162  -2.671  -7.273  0.00  0.00     0.072 H 
BRANCH  12  15
ATOM     15  C   LIG d   1       3.620  -1.228  -7.695  0.00  0.00     0.129 C 
ATOM     16  H   LIG d   1       2.610  -1.521  -7.405  0.00  0.00     0.068 H 
BRANCH  15  17
ATOM     17  C   LIG d   1       4.294  -0.501  -6.530  0.00  0.00    -0.002 C 
ATOM     18  H   LIG d   1       5.376  -0.585  -6.627  0.00  0.00     0.084 H 
ATOM     19  H   LIG d   1       4.008   0.550  -6.544  0.00  0.00     0.084 H 
BRANCH  17  20
ATOM     20  N   LIG d   1       3.839  -1.113  -5.264  0.00  0.00     0.237 N 
ATOM     21  C   LIG d   1       3.161  -0.099  -4.429  0.00  0.00    -0.032 C 
ATOM     22  C   LIG d   1       2.595  -0.781  -3.181  0.00  0.00    -0.012 C 
ATOM     23  H   LIG d   1       3.860   0.682  -4.131  0.00  0.00     0.081 H 
ATOM     24  H   LIG d   1       2.346   0.344  -5.002  0.00  0.00     0.081 H 
ATOM     25  C   LIG d   1       3.741  -1.418  -2.391  0.00  0.00    -0.043 C 
ATOM     26  H   LIG d   1       1.885  -1.552  -3.478  0.00  0.00     0.032 H 
ATOM     27  H   LIG d   1       2.091  -0.042  -2.559  0.00  0.00     0.032 H 
ATOM     28  C   LIG d   1       4.481  -2.411  -3.290  0.00  0.00    -0.012 C 
ATOM     29  H   LIG d   1       3.339  -1.942  -1.524  0.00  0.00     0.027 H 
ATOM     30  H   LIG d   1       4.431  -0.642  -2.059  0.00  0.00     0.027 H 
ATOM     31  C   LIG d   1       4.992  -1.682  -4.535  0.00  0.00    -0.032 C 
ATOM     32  H   LIG d   1       3.801  -3.209  -3.589  0.00  0.00     0.032 H 
ATOM     33  H   LIG d   1       5.325  -2.837  -2.746  0.00  0.00     0.032 H 
ATOM     34  H   LIG d   1       5.507  -2.390  -5.184  0.00  0.00     0.081 H 
ATOM     35  H   LIG d   1       5.683  -0.894  -4.236  0.00  0.00     0.081 H 
ATOM     36  H   LIG d   1       3.175  -1.866  -5.478  0.00  0.00     0.203 HD
ENDBRANCH  17  20
ENDBRANCH  15  17
BRANCH  15  37
ATOM     37  O   LIG d   1       3.557  -0.358  -8.827  0.00  0.00    -0.383 OA
ATOM     38  H   LIG d   1       2.680  -0.300  -9.230  0.00  0.00     0.210 HD
ENDBRANCH  15  37
ENDBRANCH  12  15
ENDBRANCH  11  12
ENDBRANCH   4  11
BRANCH   1  39
ATOM     39  C   LIG d   1       5.173  -8.387  -5.698  0.00  0.00     0.088 C 
ATOM     40  C   LIG d   1       6.503  -8.162  -4.967  0.00  0.00    -0.001 C 
ATOM     41  C   LIG d   1       6.812  -9.404  -4.157  0.00  0.00    -0.071 C 
ATOM     42  H   LIG d   1       7.297  -7.989  -5.693  0.00  0.00     0.034 H 
ATOM     43  H   LIG d   1       6.417  -7.301  -4.303  0.00  0.00     0.034 H 
ATOM     44  C   LIG d   1       5.706  -9.969  -3.290  0.00  0.00    -0.006 C 
ATOM     45  C   LIG d   1       7.993  -9.970  -4.205  0.00  0.00    -0.099 C 
ATOM     46  C   LIG d   1       4.434 -10.063  -4.142  0.00  0.00     0.060 C 
ATOM     47  H   LIG d   1       5.531  -9.309  -2.440  0.00  0.00     0.034 H 
ATOM     48  H   LIG d   1       5.986 -10.961  -2.935  0.00  0.00     0.034 H 
ATOM     49  H   LIG d   1       4.568 -10.821  -4.914  0.00  0.00     0.060 H 
ATOM     50  O   LIG d   1       4.181  -8.798  -4.755  0.00  0.00    -0.368 OA
ATOM     51  H   LIG d   1       8.191 -10.856  -3.619  0.00  0.00     0.053 H 
ATOM     52  H   LIG d   1       8.767  -9.551  -4.830  0.00  0.00     0.053 H 
ATOM     53  H   LIG d   1       5.300  -9.163  -6.453  0.00  0.00     0.065 H 
BRANCH  46  54
ATOM     54  C   LIG d   1       3.249 -10.446  -3.252  0.00  0.00    -0.038 C 
ATOM     55  H   LIG d   1       2.330 -10.412  -3.837  0.00  0.00     0.025 H 
ATOM     56  H   LIG d   1       3.396 -11.453  -2.864  0.00  0.00     0.025 H 
ATOM     57  H   LIG d   1       3.177  -9.743  -2.422  0.00  0.00     0.025 H 
ENDBRANCH  46  54
ENDBRANCH   1  39
TORSDOF 8
ENDMDL
MODEL 3
REMARK VINA RESULT:      -5.9      4.956      7.320
REMARK  8 active torsions:
REMARK  status: ('A' for Active; 'I' for Inactive)
REMARK    1  A    between atoms: C_1  and  C_2 
REMARK    2  A    between atoms: C_8  and  C_11 
REMARK    3  A    between atoms: C_14  and  O_17 
REMARK    4  A    between atoms: O_17  and  C_18 
REMARK    5  A    between atoms: C_18  and  C_19 
REMARK    6  A    between atoms: C_19  and  C_21 
REMARK    7  A    between atoms: C_19  and  O_27 
REMARK    8  A    between atoms: C_21  and  N_56 
ROOT
ATOM      1  C   LIG d   1       8.968   2.876  -4.746  0.00  0.00    -0.018 A 
ATOM      2  C   LIG d   1       8.425   2.093  -3.745  0.00  0.00    -0.053 A 
ATOM      3  C   LIG d   1       7.692   0.968  -4.069  0.00  0.00    -0.020 A 
ATOM      4  C   LIG d   1       7.500   0.625  -5.401  0.00  0.00     0.121 A 
ATOM      5  C   LIG d   1       8.052   1.410  -6.402  0.00  0.00    -0.020 A 
ATOM      6  C   LIG d   1       8.779   2.538  -6.074  0.00  0.00    -0.053 A 
ATOM      7  H   LIG d   1       8.574   2.360  -2.710  0.00  0.00     0.062 H 
ATOM      8  H   LIG d   1       7.267   0.356  -3.288  0.00  0.00     0.065 H 
ATOM      9  H   LIG d   1       7.908   1.143  -7.439  0.00  0.00     0.065 H 
ATOM     10  H   LIG d   1       9.205   3.152  -6.853  0.00  0.00     0.062 H 
ENDROOT
BRANCH   4  11
ATOM     11  O   LIG d   1       6.779  -0.481  -5.721  0.00  0.00    -0.489 OA
BRANCH  11  12
ATOM     12  C   LIG d   1       5.750  -0.322  -6.701  0.00  0.00     0.120 C 
ATOM     13  H   LIG d   1       6.100  -0.705  -7.660  0.00  0.00     0.072 H 
ATOM     14  H   LIG d   1       5.502   0.734  -6.799  0.00  0.00     0.072 H 
BRANCH  12  15
ATOM     15  C   LIG d   1       4.507  -1.099  -6.264  0.00  0.00     0.129 C 
ATOM     16  H   LIG d   1       4.790  -1.858  -5.534  0.00  0.00     0.068 H 
BRANCH  15  17
ATOM     17  C   LIG d   1       3.498  -0.136  -5.634  0.00  0.00    -0.002 C 
ATOM     18  H   LIG d   1       3.807   0.890  -5.828  0.00  0.00     0.084 H 
ATOM     19  H   LIG d   1       2.514  -0.307  -6.068  0.00  0.00     0.084 H 
BRANCH  17  20
ATOM     20  N   LIG d   1       3.442  -0.395  -4.181  0.00  0.00     0.237 N 
ATOM     21  C   LIG d   1       4.218   0.632  -3.455  0.00  0.00    -0.032 C 
ATOM     22  C   LIG d   1       4.048   0.412  -1.950  0.00  0.00    -0.012 C 
ATOM     23  H   LIG d   1       5.275   0.568  -3.714  0.00  0.00     0.081 H 
ATOM     24  H   LIG d   1       3.838   1.618  -3.723  0.00  0.00     0.081 H 
ATOM     25  C   LIG d   1       4.565  -0.981  -1.581  0.00  0.00    -0.043 C 
ATOM     26  H   LIG d   1       2.993   0.490  -1.688  0.00  0.00     0.032 H 
ATOM     27  H   LIG d   1       4.615   1.167  -1.405  0.00  0.00     0.032 H 
ATOM     28  C   LIG d   1       3.804  -2.030  -2.395  0.00  0.00    -0.012 C 
ATOM     29  H   LIG d   1       4.405  -1.159  -0.518  0.00  0.00     0.027 H 
ATOM     30  H   LIG d   1       5.629  -1.046  -1.806  0.00  0.00     0.027 H 
ATOM     31  C   LIG d   1       3.981  -1.740  -3.887  0.00  0.00    -0.032 C 
ATOM     32  H   LIG d   1       2.744  -1.992  -2.140  0.00  0.00     0.032 H 
ATOM     33  H   LIG d   1       4.196  -3.022  -2.168  0.00  0.00     0.032 H 
ATOM     34  H   LIG d   1       3.428  -2.477  -4.468  0.00  0.00     0.081 H 
ATOM     35  H   LIG d   1       5.039  -1.793  -4.144  0.00  0.00     0.081 H 
ATOM     36  H   LIG d   1       2.463  -0.353  -3.872  0.00  0.00     0.203 HD
ENDBRANCH  17  20
ENDBRANCH  15  17
BRANCH  15  37
ATOM     37  O   LIG d   1       3.916  -1.731  -7.402  0.00  0.00    -0.383 OA
ATOM     38  H   LIG d   1       4.451  -1.674  -8.206  0.00  0.00     0.210 HD
ENDBRANCH  15  37
ENDBRANCH  12  15
ENDBRANCH  11  12
ENDBRANCH   4  11
BRANCH   1  39
ATOM     39  C   LIG d   1       9.768   4.103  -4.390  0.00  0.00     0.088 C 
ATOM     40  C   LIG d   1       9.089   5.346  -4.978  0.00  0.00    -0.001 C 
ATOM     41  C   LIG d   1       9.804   6.570  -4.443  0.00  0.00    -0.071 C 
ATOM     42  H   LIG d   1       9.160   5.324  -6.065  0.00  0.00     0.034 H 
ATOM     43  H   LIG d   1       8.042   5.371  -4.677  0.00  0.00     0.034 H 
ATOM     44  C   LIG d   1      10.058   6.638  -2.952  0.00  0.00    -0.006 C 
ATOM     45  C   LIG d   1      10.190   7.535  -5.242  0.00  0.00    -0.099 C 
ATOM     46  C   LIG d   1      10.666   5.301  -2.510  0.00  0.00     0.060 C 
ATOM     47  H   LIG d   1       9.118   6.807  -2.425  0.00  0.00     0.034 H 
ATOM     48  H   LIG d   1      10.753   7.450  -2.733  0.00  0.00     0.034 H 
ATOM     49  H   LIG d   1      11.664   5.197  -2.936  0.00  0.00     0.060 H 
ATOM     50  O   LIG d   1       9.838   4.232  -2.968  0.00  0.00    -0.368 OA
ATOM     51  H   LIG d   1      10.698   8.399  -4.840  0.00  0.00     0.053 H 
ATOM     52  H   LIG d   1      10.000   7.466  -6.302  0.00  0.00     0.053 H 
ATOM     53  H   LIG d   1      10.776   4.011  -4.796  0.00  0.00     0.065 H 
BRANCH  46  54
ATOM     54  C   LIG d   1      10.757   5.259  -0.983  0.00  0.00    -0.038 C 
ATOM     55  H   LIG d   1      11.304   4.369  -0.676  0.00  0.00     0.025 H 
ATOM     56  H   LIG d   1      11.277   6.148  -0.625  0.00  0.00     0.025 H 
ATOM     57  H   LIG d   1       9.752   5.231  -0.560  0.00  0.00     0.025 H 
ENDBRANCH  46  54
ENDBRANCH   1  39
TORSDOF 8
ENDMDL
MODEL 4
REMARK VINA RESULT:      -5.8      7.550     10.313
REMARK  8 active torsions:
REMARK  status: ('A' for Active; 'I' for Inactive)
REMARK    1  A    between atoms: C_1  and  C_2 
REMARK    2  A    between atoms: C_8  and  C_11 
REMARK    3  A    between atoms: C_14  and  O_17 
REMARK    4  A    between atoms: O_17  and  C_18 
REMARK    5  A    between atoms: C_18  and  C_19 
REMARK    6  A    between atoms: C_19  and  C_21 
REMARK    7  A    between atoms: C_19  and  O_27 
REMARK    8  A    between atoms: C_21  and  N_56 
ROOT
ATOM      1  C   LIG d   1       9.836   6.450  -2.313  0.00  0.00    -0.018 A 
ATOM      2  C   LIG d   1      10.292   5.227  -1.856  0.00  0.00    -0.053 A 
ATOM      3  C   LIG d   1      10.265   4.125  -2.688  0.00  0.00    -0.020 A 
ATOM      4  C   LIG d   1       9.778   4.245  -3.982  0.00  0.00     0.121 A 
ATOM      5  C   LIG d   1       9.327   5.474  -4.439  0.00  0.00    -0.020 A 
ATOM      6  C   LIG d   1       9.351   6.573  -3.603  0.00  0.00    -0.053 A 
ATOM      7  H   LIG d   1      10.671   5.134  -0.849  0.00  0.00     0.062 H 
ATOM      8  H   LIG d   1      10.621   3.169  -2.331  0.00  0.00     0.065 H 
ATOM      9  H   LIG d   1       8.952   5.572  -5.448  0.00  0.00     0.065 H 
ATOM     10  H   LIG d   1       8.996   7.529  -3.956  0.00  0.00     0.062 H 
ENDROOT
BRANCH   4  11
ATOM     11  O   LIG d   1       9.750   3.161  -4.801  0.00  0.00    -0.489 OA
BRANCH  11  12
ATOM     12  C   LIG d   1       8.480   2.540  -5.010  0.00  0.00     0.120 C 
ATOM     13  H   LIG d   1       8.391   2.234  -6.052  0.00  0.00     0.072 H 
ATOM     14  H   LIG d   1       7.686   3.246  -4.769  0.00  0.00     0.072 H 
BRANCH  12  15
ATOM     15  C   LIG d   1       8.359   1.311  -4.106  0.00  0.00     0.129 C 
ATOM     16  H   LIG d   1       8.171   1.631  -3.080  0.00  0.00     0.068 H 
BRANCH  15  17
ATOM     17  C   LIG d   1       7.201   0.434  -4.587  0.00  0.00    -0.002 C 
ATOM     18  H   LIG d   1       6.598   0.992  -5.303  0.00  0.00     0.084 H 
ATOM     19  H   LIG d   1       7.598  -0.461  -5.065  0.00  0.00     0.084 H 
BRANCH  17  20
ATOM     20  N   LIG d   1       6.387   0.043  -3.418  0.00  0.00     0.237 N 
ATOM     21  C   LIG d   1       5.591  -1.160  -3.738  0.00  0.00    -0.032 C 
ATOM     22  C   LIG d   1       4.850  -1.614  -2.478  0.00  0.00    -0.012 C 
ATOM     23  H   LIG d   1       4.869  -0.944  -4.525  0.00  0.00     0.081 H 
ATOM     24  H   LIG d   1       6.263  -1.952  -4.069  0.00  0.00     0.081 H 
ATOM     25  C   LIG d   1       3.922  -0.492  -2.006  0.00  0.00    -0.043 C 
ATOM     26  H   LIG d   1       5.570  -1.844  -1.694  0.00  0.00     0.032 H 
ATOM     27  H   LIG d   1       4.260  -2.503  -2.702  0.00  0.00     0.032 H 
ATOM     28  C   LIG d   1       4.749   0.770  -1.750  0.00  0.00    -0.012 C 
ATOM     29  H   LIG d   1       3.424  -0.794  -1.084  0.00  0.00     0.027 H 
ATOM     30  H   LIG d   1       3.175  -0.288  -2.773  0.00  0.00     0.027 H 
ATOM     31  C   LIG d   1       5.494   1.155  -3.030  0.00  0.00    -0.032 C 
ATOM     32  H   LIG d   1       5.469   0.579  -0.953  0.00  0.00     0.032 H 
ATOM     33  H   LIG d   1       4.089   1.585  -1.454  0.00  0.00     0.032 H 
ATOM     34  H   LIG d   1       6.095   2.045  -2.847  0.00  0.00     0.081 H 
ATOM     35  H   LIG d   1       4.772   1.361  -3.822  0.00  0.00     0.081 H 
ATOM     36  H   LIG d   1       7.014  -0.171  -2.633  0.00  0.00     0.203 HD
ENDBRANCH  17  20
ENDBRANCH  15  17
BRANCH  15  37
ATOM     37  O   LIG d   1       9.576   0.563  -4.155  0.00  0.00    -0.383 OA
ATOM     38  H   LIG d   1      10.348   1.046  -3.831  0.00  0.00     0.210 HD
ENDBRANCH  15  37
ENDBRANCH  12  15
ENDBRANCH  11  12
ENDBRANCH   4  11
BRANCH   1  39
ATOM     39  C   LIG d   1       9.868   7.651  -1.404  0.00  0.00     0.088 C 
ATOM     40  C   LIG d   1      11.162   7.638  -0.581  0.00  0.00    -0.001 C 
ATOM     41  C   LIG d   1      11.255   8.948   0.173  0.00  0.00    -0.071 C 
ATOM     42  H   LIG d   1      11.140   6.807   0.124  0.00  0.00     0.034 H 
ATOM     43  H   LIG d   1      12.020   7.535  -1.246  0.00  0.00     0.034 H 
ATOM     44  C   LIG d   1      11.019  10.225  -0.607  0.00  0.00    -0.006 C 
ATOM     45  C   LIG d   1      11.528   8.977   1.454  0.00  0.00    -0.099 C 
ATOM     46  C   LIG d   1       9.735  10.051  -1.429  0.00  0.00     0.060 C 
ATOM     47  H   LIG d   1      11.861  10.409  -1.275  0.00  0.00     0.034 H 
ATOM     48  H   LIG d   1      10.906  11.062   0.082  0.00  0.00     0.034 H 
ATOM     49  H   LIG d   1       8.878   9.998  -0.757  0.00  0.00     0.060 H 
ATOM     50  O   LIG d   1       9.821   8.845  -2.189  0.00  0.00    -0.368 OA
ATOM     51  H   LIG d   1      11.588   9.922   1.974  0.00  0.00     0.053 H 
ATOM     52  H   LIG d   1      11.691   8.055   1.992  0.00  0.00     0.053 H 
ATOM     53  H   LIG d   1       9.009   7.624  -0.734  0.00  0.00     0.065 H 
BRANCH  46  54
ATOM     54  C   LIG d   1       9.569  11.242  -2.376  0.00  0.00    -0.038 C 
ATOM     55  H   LIG d   1       9.140  12.082  -1.831  0.00  0.00     0.025 H 
ATOM     56  H   LIG d   1      10.542  11.527  -2.775  0.00  0.00     0.025 H 
ATOM     57  H   LIG d   1       8.907  10.964  -3.196  0.00  0.00     0.025 H 
ENDBRANCH  46  54
ENDBRANCH   1  39
TORSDOF 8
ENDMDL
MODEL 5
REMARK VINA RESULT:      -5.8      6.543      9.092
REMARK  8 active torsions:
REMARK  status: ('A' for Active; 'I' for Inactive)
REMARK    1  A    between atoms: C_1  and  C_2 
REMARK    2  A    between atoms: C_8  and  C_11 
REMARK    3  A    between atoms: C_14  and  O_17 
REMARK    4  A    between atoms: O_17  and  C_18 
REMARK    5  A    between atoms: C_18  and  C_19 
REMARK    6  A    between atoms: C_19  and  C_21 
REMARK    7  A    between atoms: C_19  and  O_27 
REMARK    8  A    between atoms: C_21  and  N_56 
ROOT
ATOM      1  C   LIG d   1      10.314   4.945  -3.168  0.00  0.00    -0.018 A 
ATOM      2  C   LIG d   1       9.865   5.268  -4.434  0.00  0.00    -0.053 A 
ATOM      3  C   LIG d   1       9.412   4.274  -5.281  0.00  0.00    -0.020 A 
ATOM      4  C   LIG d   1       9.411   2.952  -4.859  0.00  0.00     0.121 A 
ATOM      5  C   LIG d   1       9.858   2.633  -3.585  0.00  0.00    -0.020 A 
ATOM      6  C   LIG d   1      10.314   3.629  -2.744  0.00  0.00    -0.053 A 
ATOM      7  H   LIG d   1       9.865   6.297  -4.762  0.00  0.00     0.062 H 
ATOM      8  H   LIG d   1       9.061   4.526  -6.271  0.00  0.00     0.065 H 
ATOM      9  H   LIG d   1       9.853   1.605  -3.253  0.00  0.00     0.065 H 
ATOM     10  H   LIG d   1      10.666   3.380  -1.754  0.00  0.00     0.062 H 
ENDROOT
BRANCH   4  11
ATOM     11  O   LIG d   1       8.967   1.973  -5.691  0.00  0.00    -0.489 OA
BRANCH  11  12
ATOM     12  C   LIG d   1       8.967   0.639  -5.179  0.00  0.00     0.120 C 
ATOM     13  H   LIG d   1       9.392   0.635  -4.175  0.00  0.00     0.072 H 
ATOM     14  H   LIG d   1       9.564  -0.000  -5.829  0.00  0.00     0.072 H 
BRANCH  12  15
ATOM     15  C   LIG d   1       7.531   0.113  -5.127  0.00  0.00     0.129 C 
ATOM     16  H   LIG d   1       7.529  -0.958  -5.332  0.00  0.00     0.068 H 
BRANCH  15  17
ATOM     17  C   LIG d   1       6.944   0.367  -3.736  0.00  0.00    -0.002 C 
ATOM     18  H   LIG d   1       7.650   0.029  -2.978  0.00  0.00     0.084 H 
ATOM     19  H   LIG d   1       6.759   1.433  -3.611  0.00  0.00     0.084 H 
BRANCH  17  20
ATOM     20  N   LIG d   1       5.667  -0.366  -3.621  0.00  0.00     0.237 N 
ATOM     21  C   LIG d   1       4.938   0.077  -2.415  0.00  0.00    -0.032 C 
ATOM     22  C   LIG d   1       3.570  -0.608  -2.382  0.00  0.00    -0.012 C 
ATOM     23  H   LIG d   1       5.494  -0.180  -1.514  0.00  0.00     0.081 H 
ATOM     24  H   LIG d   1       4.802   1.158  -2.461  0.00  0.00     0.081 H 
ATOM     25  C   LIG d   1       3.766  -2.125  -2.338  0.00  0.00    -0.043 C 
ATOM     26  H   LIG d   1       3.007  -0.339  -3.276  0.00  0.00     0.032 H 
ATOM     27  H   LIG d   1       3.022  -0.286  -1.497  0.00  0.00     0.032 H 
ATOM     28  C   LIG d   1       4.586  -2.562  -3.554  0.00  0.00    -0.012 C 
ATOM     29  H   LIG d   1       2.794  -2.619  -2.358  0.00  0.00     0.027 H 
ATOM     30  H   LIG d   1       4.293  -2.399  -1.424  0.00  0.00     0.027 H 
ATOM     31  C   LIG d   1       5.925  -1.820  -3.553  0.00  0.00    -0.032 C 
ATOM     32  H   LIG d   1       4.039  -2.325  -4.467  0.00  0.00     0.032 H 
ATOM     33  H   LIG d   1       4.766  -3.636  -3.505  0.00  0.00     0.032 H 
ATOM     34  H   LIG d   1       6.505  -2.118  -4.425  0.00  0.00     0.081 H 
ATOM     35  H   LIG d   1       6.477  -2.069  -2.647  0.00  0.00     0.081 H 
ATOM     36  H   LIG d   1       5.093  -0.168  -4.450  0.00  0.00     0.203 HD
ENDBRANCH  17  20
ENDBRANCH  15  17
BRANCH  15  37
ATOM     37  O   LIG d   1       6.741   0.787  -6.108  0.00  0.00    -0.383 OA
ATOM     38  H   LIG d   1       5.819   0.499  -6.136  0.00  0.00     0.210 HD
ENDBRANCH  15  37
ENDBRANCH  12  15
ENDBRANCH  11  12
ENDBRANCH   4  11
BRANCH   1  39
ATOM     39  C   LIG d   1      10.806   6.031  -2.246  0.00  0.00     0.088 C 
ATOM     40  C   LIG d   1       9.995   7.311  -2.482  0.00  0.00    -0.001 C 
ATOM     41  C   LIG d   1      10.378   8.316  -1.415  0.00  0.00    -0.071 C 
ATOM     42  H   LIG d   1      10.224   7.715  -3.467  0.00  0.00     0.034 H 
ATOM     43  H   LIG d   1       8.930   7.090  -2.413  0.00  0.00     0.034 H 
ATOM     44  C   LIG d   1      10.397   7.839   0.023  0.00  0.00    -0.006 C 
ATOM     45  C   LIG d   1      10.684   9.552  -1.724  0.00  0.00    -0.099 C 
ATOM     46  C   LIG d   1      11.180   6.521   0.078  0.00  0.00     0.060 C 
ATOM     47  H   LIG d   1       9.377   7.676   0.371  0.00  0.00     0.034 H 
ATOM     48  H   LIG d   1      10.886   8.584   0.652  0.00  0.00     0.034 H 
ATOM     49  H   LIG d   1      12.230   6.711  -0.144  0.00  0.00     0.060 H 
ATOM     50  O   LIG d   1      10.645   5.615  -0.888  0.00  0.00    -0.368 OA
ATOM     51  H   LIG d   1      10.955  10.252  -0.947  0.00  0.00     0.053 H 
ATOM     52  H   LIG d   1      10.665   9.870  -2.755  0.00  0.00     0.053 H 
ATOM     53  H   LIG d   1      11.861   6.226  -2.443  0.00  0.00     0.065 H 
BRANCH  46  54
ATOM     54  C   LIG d   1      11.056   5.910   1.476  0.00  0.00    -0.038 C 
ATOM     55  H   LIG d   1      11.784   6.373   2.140  0.00  0.00     0.025 H 
ATOM     56  H   LIG d   1      10.051   6.084   1.860  0.00  0.00     0.025 H 
ATOM     57  H   LIG d   1      11.244   4.838   1.421  0.00  0.00     0.025 H 
ENDBRANCH  46  54
ENDBRANCH   1  39
TORSDOF 8
ENDMDL
MODEL 6
REMARK VINA RESULT:      -5.7      6.110      9.145
REMARK  8 active torsions:
REMARK  status: ('A' for Active; 'I' for Inactive)
REMARK    1  A    between atoms: C_1  and  C_2 
REMARK    2  A    between atoms: C_8  and  C_11 
REMARK    3  A    between atoms: C_14  and  O_17 
REMARK    4  A    between atoms: O_17  and  C_18 
REMARK    5  A    between atoms: C_18  and  C_19 
REMARK    6  A    between atoms: C_19  and  C_21 
REMARK    7  A    between atoms: C_19  and  O_27 
REMARK    8  A    between atoms: C_21  and  N_56 
ROOT
ATOM      1  C   LIG d   1       7.268   0.278  -4.398  0.00  0.00    -0.018 A 
ATOM      2  C   LIG d   1       7.378   1.508  -3.776  0.00  0.00    -0.053 A 
ATOM      3  C   LIG d   1       8.575   2.196  -3.809  0.00  0.00    -0.020 A 
ATOM      4  C   LIG d   1       9.669   1.649  -4.467  0.00  0.00     0.121 A 
ATOM      5  C   LIG d   1       9.555   0.418  -5.094  0.00  0.00    -0.020 A 
ATOM      6  C   LIG d   1       8.357  -0.268  -5.054  0.00  0.00    -0.053 A 
ATOM      7  H   LIG d   1       6.526   1.933  -3.266  0.00  0.00     0.062 H 
ATOM      8  H   LIG d   1       8.661   3.156  -3.324  0.00  0.00     0.065 H 
ATOM      9  H   LIG d   1      10.403  -0.007  -5.610  0.00  0.00     0.065 H 
ATOM     10  H   LIG d   1       8.268  -1.229  -5.538  0.00  0.00     0.062 H 
ENDROOT
BRANCH   4  11
ATOM     11  O   LIG d   1      10.849   2.324  -4.500  0.00  0.00    -0.489 OA
BRANCH  11  12
ATOM     12  C   LIG d   1      10.782   3.748  -4.394  0.00  0.00     0.120 C 
ATOM     13  H   LIG d   1       9.749   4.053  -4.232  0.00  0.00     0.072 H 
ATOM     14  H   LIG d   1      11.154   4.199  -5.314  0.00  0.00     0.072 H 
BRANCH  12  15
ATOM     15  C   LIG d   1      11.642   4.212  -3.216  0.00  0.00     0.129 C 
ATOM     16  H   LIG d   1      12.165   5.130  -3.487  0.00  0.00     0.068 H 
BRANCH  15  17
ATOM     17  C   LIG d   1      10.747   4.475  -2.003  0.00  0.00    -0.002 C 
ATOM     18  H   LIG d   1       9.722   4.192  -2.241  0.00  0.00     0.084 H 
ATOM     19  H   LIG d   1      11.100   3.885  -1.158  0.00  0.00     0.084 H 
BRANCH  17  20
ATOM     20  N   LIG d   1      10.823   5.910  -1.661  0.00  0.00     0.237 N 
ATOM     21  C   LIG d   1      10.822   6.080  -0.194  0.00  0.00    -0.032 C 
ATOM     22  C   LIG d   1      11.021   7.561   0.136  0.00  0.00    -0.012 C 
ATOM     23  H   LIG d   1       9.878   5.737   0.232  0.00  0.00     0.081 H 
ATOM     24  H   LIG d   1      11.642   5.500   0.231  0.00  0.00     0.081 H 
ATOM     25  C   LIG d   1       9.877   8.372  -0.478  0.00  0.00    -0.043 C 
ATOM     26  H   LIG d   1      11.970   7.901  -0.276  0.00  0.00     0.032 H 
ATOM     27  H   LIG d   1      11.024   7.697   1.217  0.00  0.00     0.032 H 
ATOM     28  C   LIG d   1       9.842   8.129  -1.989  0.00  0.00    -0.012 C 
ATOM     29  H   LIG d   1      10.037   9.433  -0.284  0.00  0.00     0.027 H 
ATOM     30  H   LIG d   1       8.930   8.061  -0.037  0.00  0.00     0.027 H 
ATOM     31  C   LIG d   1       9.678   6.631  -2.256  0.00  0.00    -0.032 C 
ATOM     32  H   LIG d   1      10.774   8.479  -2.436  0.00  0.00     0.032 H 
ATOM     33  H   LIG d   1       9.003   8.671  -2.426  0.00  0.00     0.032 H 
ATOM     34  H   LIG d   1       9.668   6.454  -3.331  0.00  0.00     0.081 H 
ATOM     35  H   LIG d   1       8.740   6.286  -1.822  0.00  0.00     0.081 H 
ATOM     36  H   LIG d   1      11.695   6.297  -2.041  0.00  0.00     0.203 HD
ENDBRANCH  17  20
ENDBRANCH  15  17
BRANCH  15  37
ATOM     37  O   LIG d   1      12.596   3.198  -2.894  0.00  0.00    -0.383 OA
ATOM     38  H   LIG d   1      13.132   3.396  -2.114  0.00  0.00     0.210 HD
ENDBRANCH  15  37
ENDBRANCH  12  15
ENDBRANCH  11  12
ENDBRANCH   4  11
BRANCH   1  39
ATOM     39  C   LIG d   1       5.960  -0.469  -4.361  0.00  0.00     0.088 C 
ATOM     40  C   LIG d   1       5.509  -0.642  -2.905  0.00  0.00    -0.001 C 
ATOM     41  C   LIG d   1       4.108  -1.219  -2.911  0.00  0.00    -0.071 C 
ATOM     42  H   LIG d   1       6.186  -1.322  -2.389  0.00  0.00     0.034 H 
ATOM     43  H   LIG d   1       5.506   0.326  -2.403  0.00  0.00     0.034 H 
ATOM     44  C   LIG d   1       3.084  -0.564  -3.814  0.00  0.00    -0.006 C 
ATOM     45  C   LIG d   1       3.795  -2.248  -2.164  0.00  0.00    -0.099 C 
ATOM     46  C   LIG d   1       3.711  -0.397  -5.204  0.00  0.00     0.060 C 
ATOM     47  H   LIG d   1       2.811   0.413  -3.413  0.00  0.00     0.034 H 
ATOM     48  H   LIG d   1       2.197  -1.194  -3.883  0.00  0.00     0.034 H 
ATOM     49  H   LIG d   1       3.861  -1.377  -5.656  0.00  0.00     0.060 H 
ATOM     50  O   LIG d   1       4.968   0.269  -5.078  0.00  0.00    -0.368 OA
ATOM     51  H   LIG d   1       2.790  -2.645  -2.184  0.00  0.00     0.053 H 
ATOM     52  H   LIG d   1       4.541  -2.701  -1.528  0.00  0.00     0.053 H 
ATOM     53  H   LIG d   1       6.087  -1.449  -4.822  0.00  0.00     0.065 H 
BRANCH  46  54
ATOM     54  C   LIG d   1       2.779   0.435  -6.089  0.00  0.00    -0.038 C 
ATOM     55  H   LIG d   1       2.158   1.074  -5.462  0.00  0.00     0.025 H 
ATOM     56  H   LIG d   1       3.373   1.053  -6.762  0.00  0.00     0.025 H 
ATOM     57  H   LIG d   1       2.142  -0.231  -6.672  0.00  0.00     0.025 H 
ENDBRANCH  46  54
ENDBRANCH   1  39
TORSDOF 8
ENDMDL
MODEL 7
REMARK VINA RESULT:      -5.5      6.346      8.814
REMARK  8 active torsions:
REMARK  status: ('A' for Active; 'I' for Inactive)
REMARK    1  A    between atoms: C_1  and  C_2 
REMARK    2  A    between atoms: C_8  and  C_11 
REMARK    3  A    between atoms: C_14  and  O_17 
REMARK    4  A    between atoms: O_17  and  C_18 
REMARK    5  A    between atoms: C_18  and  C_19 
REMARK    6  A    between atoms: C_19  and  C_21 
REMARK    7  A    between atoms: C_19  and  O_27 
REMARK    8  A    between atoms: C_21  and  N_56 
ROOT
ATOM      1  C   LIG d   1       7.428  -8.939  -3.927  0.00  0.00    -0.018 A 
ATOM      2  C   LIG d   1       8.029  -7.830  -4.492  0.00  0.00    -0.053 A 
ATOM      3  C   LIG d   1       7.329  -7.046  -5.388  0.00  0.00    -0.020 A 
ATOM      4  C   LIG d   1       6.022  -7.374  -5.723  0.00  0.00     0.121 A 
ATOM      5  C   LIG d   1       5.421  -8.485  -5.151  0.00  0.00    -0.020 A 
ATOM      6  C   LIG d   1       6.126  -9.269  -4.259  0.00  0.00    -0.053 A 
ATOM      7  H   LIG d   1       9.045  -7.574  -4.231  0.00  0.00     0.062 H 
ATOM      8  H   LIG d   1       7.798  -6.179  -5.830  0.00  0.00     0.065 H 
ATOM      9  H   LIG d   1       4.403  -8.740  -5.406  0.00  0.00     0.065 H 
ATOM     10  H   LIG d   1       5.660 -10.137  -3.816  0.00  0.00     0.062 H 
ENDROOT
BRANCH   4  11
ATOM     11  O   LIG d   1       5.333  -6.604  -6.606  0.00  0.00    -0.489 OA
BRANCH  11  12
ATOM     12  C   LIG d   1       5.575  -5.196  -6.562  0.00  0.00     0.120 C 
ATOM     13  H   LIG d   1       5.564  -4.794  -7.575  0.00  0.00     0.072 H 
ATOM     14  H   LIG d   1       6.546  -5.008  -6.106  0.00  0.00     0.072 H 
BRANCH  12  15
ATOM     15  C   LIG d   1       4.483  -4.517  -5.733  0.00  0.00     0.129 C 
ATOM     16  H   LIG d   1       4.621  -4.763  -4.679  0.00  0.00     0.068 H 
BRANCH  15  17
ATOM     17  C   LIG d   1       4.570  -3.000  -5.918  0.00  0.00    -0.002 C 
ATOM     18  H   LIG d   1       5.616  -2.702  -5.975  0.00  0.00     0.084 H 
ATOM     19  H   LIG d   1       4.060  -2.718  -6.839  0.00  0.00     0.084 H 
BRANCH  17  20
ATOM     20  N   LIG d   1       3.905  -2.346  -4.773  0.00  0.00     0.237 N 
ATOM     21  C   LIG d   1       3.904  -0.880  -4.961  0.00  0.00    -0.032 C 
ATOM     22  C   LIG d   1       3.108  -0.234  -3.824  0.00  0.00    -0.012 C 
ATOM     23  H   LIG d   1       4.923  -0.492  -4.956  0.00  0.00     0.081 H 
ATOM     24  H   LIG d   1       3.430  -0.645  -5.914  0.00  0.00     0.081 H 
ATOM     25  C   LIG d   1       3.765  -0.582  -2.486  0.00  0.00    -0.043 C 
ATOM     26  H   LIG d   1       2.086  -0.610  -3.836  0.00  0.00     0.032 H 
ATOM     27  H   LIG d   1       3.099   0.848  -3.954  0.00  0.00     0.032 H 
ATOM     28  C   LIG d   1       3.827  -2.104  -2.338  0.00  0.00    -0.012 C 
ATOM     29  H   LIG d   1       3.177  -0.161  -1.671  0.00  0.00     0.027 H 
ATOM     30  H   LIG d   1       4.774  -0.171  -2.457  0.00  0.00     0.027 H 
ATOM     31  C   LIG d   1       4.602  -2.696  -3.517  0.00  0.00    -0.032 C 
ATOM     32  H   LIG d   1       2.815  -2.511  -2.326  0.00  0.00     0.032 H 
ATOM     33  H   LIG d   1       4.333  -2.359  -1.406  0.00  0.00     0.032 H 
ATOM     34  H   LIG d   1       4.636  -3.781  -3.422  0.00  0.00     0.081 H 
ATOM     35  H   LIG d   1       5.618  -2.300  -3.520  0.00  0.00     0.081 H 
ATOM     36  H   LIG d   1       2.934  -2.675  -4.718  0.00  0.00     0.203 HD
ENDBRANCH  17  20
ENDBRANCH  15  17
BRANCH  15  37
ATOM     37  O   LIG d   1       3.201  -4.977  -6.165  0.00  0.00    -0.383 OA
ATOM     38  H   LIG d   1       2.750  -4.374  -6.771  0.00  0.00     0.210 HD
ENDBRANCH  15  37
ENDBRANCH  12  15
ENDBRANCH  11  12
ENDBRANCH   4  11
BRANCH   1  39
ATOM     39  C   LIG d   1       8.194  -9.792  -2.949  0.00  0.00     0.088 C 
ATOM     40  C   LIG d   1       8.892  -8.893  -1.921  0.00  0.00    -0.001 C 
ATOM     41  C   LIG d   1       9.487  -9.779  -0.846  0.00  0.00    -0.071 C 
ATOM     42  H   LIG d   1       9.683  -8.323  -2.409  0.00  0.00     0.034 H 
ATOM     43  H   LIG d   1       8.167  -8.211  -1.476  0.00  0.00     0.034 H 
ATOM     44  C   LIG d   1       8.596 -10.847  -0.245  0.00  0.00    -0.006 C 
ATOM     45  C   LIG d   1      10.727  -9.629  -0.451  0.00  0.00    -0.099 C 
ATOM     46  C   LIG d   1       7.919 -11.605  -1.394  0.00  0.00     0.060 C 
ATOM     47  H   LIG d   1       7.839 -10.382   0.386  0.00  0.00     0.034 H 
ATOM     48  H   LIG d   1       9.197 -11.537   0.348  0.00  0.00     0.034 H 
ATOM     49  H   LIG d   1       8.667 -12.175  -1.945  0.00  0.00     0.060 H 
ATOM     50  O   LIG d   1       7.291 -10.669  -2.271  0.00  0.00    -0.368 OA
ATOM     51  H   LIG d   1      11.132 -10.272   0.316  0.00  0.00     0.053 H 
ATOM     52  H   LIG d   1      11.345  -8.862  -0.894  0.00  0.00     0.053 H 
ATOM     53  H   LIG d   1       8.939 -10.381  -3.484  0.00  0.00     0.065 H 
BRANCH  46  54
ATOM     54  C   LIG d   1       6.866 -12.560  -0.827  0.00  0.00    -0.038 C 
ATOM     55  H   LIG d   1       6.883 -12.514   0.262  0.00  0.00     0.025 H 
ATOM     56  H   LIG d   1       5.880 -12.269  -1.187  0.00  0.00     0.025 H 
ATOM     57  H   LIG d   1       7.087 -13.577  -1.151  0.00  0.00     0.025 H 
ENDBRANCH  46  54
ENDBRANCH   1  39
TORSDOF 8
ENDMDL
MODEL 8
REMARK VINA RESULT:      -5.5      7.032      9.569
REMARK  8 active torsions:
REMARK  status: ('A' for Active; 'I' for Inactive)
REMARK    1  A    between atoms: C_1  and  C_2 
REMARK    2  A    between atoms: C_8  and  C_11 
REMARK    3  A    between atoms: C_14  and  O_17 
REMARK    4  A    between atoms: O_17  and  C_18 
REMARK    5  A    between atoms: C_18  and  C_19 
REMARK    6  A    between atoms: C_19  and  C_21 
REMARK    7  A    between atoms: C_19  and  O_27 
REMARK    8  A    between atoms: C_21  and  N_56 
ROOT
ATOM      1  C   LIG d   1       9.970   5.923  -3.503  0.00  0.00    -0.018 A 
ATOM      2  C   LIG d   1       9.961   4.772  -2.738  0.00  0.00    -0.053 A 
ATOM      3  C   LIG d   1       9.771   3.543  -3.340  0.00  0.00    -0.020 A 
ATOM      4  C   LIG d   1       9.589   3.465  -4.714  0.00  0.00     0.121 A 
ATOM      5  C   LIG d   1       9.604   4.621  -5.479  0.00  0.00    -0.020 A 
ATOM      6  C   LIG d   1       9.789   5.849  -4.872  0.00  0.00    -0.053 A 
ATOM      7  H   LIG d   1      10.104   4.832  -1.669  0.00  0.00     0.062 H 
ATOM      8  H   LIG d   1       9.764   2.643  -2.742  0.00  0.00     0.065 H 
ATOM      9  H   LIG d   1       9.467   4.563  -6.549  0.00  0.00     0.065 H 
ATOM     10  H   LIG d   1       9.796   6.749  -5.467  0.00  0.00     0.062 H 
ENDROOT
BRANCH   4  11
ATOM     11  O   LIG d   1       9.402   2.257  -5.307  0.00  0.00    -0.489 OA
BRANCH  11  12
ATOM     12  C   LIG d   1       9.044   1.166  -4.455  0.00  0.00     0.120 C 
ATOM     13  H   LIG d   1       9.045   1.500  -3.418  0.00  0.00     0.072 H 
ATOM     14  H   LIG d   1       9.764   0.358  -4.578  0.00  0.00     0.072 H 
BRANCH  12  15
ATOM     15  C   LIG d   1       7.647   0.665  -4.829  0.00  0.00     0.129 C 
ATOM     16  H   LIG d   1       7.674  -0.416  -4.968  0.00  0.00     0.068 H 
BRANCH  15  17
ATOM     17  C   LIG d   1       6.664   1.011  -3.708  0.00  0.00    -0.002 C 
ATOM     18  H   LIG d   1       7.191   1.540  -2.915  0.00  0.00     0.084 H 
ATOM     19  H   LIG d   1       5.872   1.646  -4.104  0.00  0.00     0.084 H 
BRANCH  17  20
ATOM     20  N   LIG d   1       6.074  -0.241  -3.194  0.00  0.00     0.237 N 
ATOM     21  C   LIG d   1       5.596  -1.073  -4.319  0.00  0.00    -0.032 C 
ATOM     22  C   LIG d   1       5.099  -2.412  -3.771  0.00  0.00    -0.012 C 
ATOM     23  H   LIG d   1       4.785  -0.573  -4.848  0.00  0.00     0.081 H 
ATOM     24  H   LIG d   1       6.425  -1.247  -5.007  0.00  0.00     0.081 H 
ATOM     25  C   LIG d   1       3.949  -2.161  -2.791  0.00  0.00    -0.043 C 
ATOM     26  H   LIG d   1       5.913  -2.919  -3.254  0.00  0.00     0.032 H 
ATOM     27  H   LIG d   1       4.746  -3.035  -4.593  0.00  0.00     0.032 H 
ATOM     28  C   LIG d   1       4.436  -1.239  -1.671  0.00  0.00    -0.012 C 
ATOM     29  H   LIG d   1       3.620  -3.109  -2.365  0.00  0.00     0.027 H 
ATOM     30  H   LIG d   1       3.118  -1.691  -3.316  0.00  0.00     0.027 H 
ATOM     31  C   LIG d   1       4.953   0.067  -2.280  0.00  0.00    -0.032 C 
ATOM     32  H   LIG d   1       5.240  -1.727  -1.120  0.00  0.00     0.032 H 
ATOM     33  H   LIG d   1       3.610  -1.021  -0.993  0.00  0.00     0.032 H 
ATOM     34  H   LIG d   1       5.314   0.720  -1.486  0.00  0.00     0.081 H 
ATOM     35  H   LIG d   1       4.145   0.561  -2.819  0.00  0.00     0.081 H 
ATOM     36  H   LIG d   1       6.793  -0.761  -2.677  0.00  0.00     0.203 HD
ENDBRANCH  17  20
ENDBRANCH  15  17
BRANCH  15  37
ATOM     37  O   LIG d   1       7.226   1.290  -6.043  0.00  0.00    -0.383 OA
ATOM     38  H   LIG d   1       6.729   2.109  -5.911  0.00  0.00     0.210 HD
ENDBRANCH  15  37
ENDBRANCH  12  15
ENDBRANCH  11  12
ENDBRANCH   4  11
BRANCH   1  39
ATOM     39  C   LIG d   1      10.178   7.262  -2.844  0.00  0.00     0.088 C 
ATOM     40  C   LIG d   1       9.222   7.402  -1.653  0.00  0.00    -0.001 C 
ATOM     41  C   LIG d   1       9.587   8.665  -0.901  0.00  0.00    -0.071 C 
ATOM     42  H   LIG d   1       8.195   7.471  -2.013  0.00  0.00     0.034 H 
ATOM     43  H   LIG d   1       9.324   6.539  -0.995  0.00  0.00     0.034 H 
ATOM     44  C   LIG d   1      11.047   8.882  -0.563  0.00  0.00    -0.006 C 
ATOM     45  C   LIG d   1       8.673   9.538  -0.556  0.00  0.00    -0.099 C 
ATOM     46  C   LIG d   1      11.872   8.635  -1.833  0.00  0.00     0.060 C 
ATOM     47  H   LIG d   1      11.353   8.184   0.216  0.00  0.00     0.034 H 
ATOM     48  H   LIG d   1      11.198   9.906  -0.220  0.00  0.00     0.034 H 
ATOM     49  H   LIG d   1      11.659   9.415  -2.563  0.00  0.00     0.060 H 
ATOM     50  O   LIG d   1      11.526   7.362  -2.380  0.00  0.00    -0.368 OA
ATOM     51  H   LIG d   1       8.956  10.433  -0.020  0.00  0.00     0.053 H 
ATOM     52  H   LIG d   1       7.638   9.364  -0.808  0.00  0.00     0.053 H 
ATOM     53  H   LIG d   1       9.983   8.057  -3.564  0.00  0.00     0.065 H 
BRANCH  46  54
ATOM     54  C   LIG d   1      13.363   8.655  -1.487  0.00  0.00    -0.038 C 
ATOM     55  H   LIG d   1      13.493   8.998  -0.461  0.00  0.00     0.025 H 
ATOM     56  H   LIG d   1      13.773   7.650  -1.589  0.00  0.00     0.025 H 
ATOM     57  H   LIG d   1      13.884   9.331  -2.165  0.00  0.00     0.025 H 
ENDBRANCH  46  54
ENDBRANCH   1  39
TORSDOF 8
ENDMDL
MODEL 9
REMARK VINA RESULT:      -5.4      6.247      8.656
REMARK  8 active torsions:
REMARK  status: ('A' for Active; 'I' for Inactive)
REMARK    1  A    between atoms: C_1  and  C_2 
REMARK    2  A    between atoms: C_8  and  C_11 
REMARK    3  A    between atoms: C_14  and  O_17 
REMARK    4  A    between atoms: O_17  and  C_18 
REMARK    5  A    between atoms: C_18  and  C_19 
REMARK    6  A    between atoms: C_19  and  C_21 
REMARK    7  A    between atoms: C_19  and  O_27 
REMARK    8  A    between atoms: C_21  and  N_56 
ROOT
ATOM      1  C   LIG d   1       9.965   4.595  -3.814  0.00  0.00    -0.018 A 
ATOM      2  C   LIG d   1       9.602   3.503  -3.049  0.00  0.00    -0.053 A 
ATOM      3  C   LIG d   1       9.018   2.403  -3.647  0.00  0.00    -0.020 A 
ATOM      4  C   LIG d   1       8.795   2.397  -5.017  0.00  0.00     0.121 A 
ATOM      5  C   LIG d   1       9.165   3.492  -5.783  0.00  0.00    -0.020 A 
ATOM      6  C   LIG d   1       9.744   4.592  -5.179  0.00  0.00    -0.053 A 
ATOM      7  H   LIG d   1       9.776   3.508  -1.983  0.00  0.00     0.062 H 
ATOM      8  H   LIG d   1       8.734   1.549  -3.050  0.00  0.00     0.065 H 
ATOM      9  H   LIG d   1       8.997   3.488  -6.850  0.00  0.00     0.065 H 
ATOM     10  H   LIG d   1      10.028   5.447  -5.774  0.00  0.00     0.062 H 
ENDROOT
BRANCH   4  11
ATOM     11  O   LIG d   1       8.220   1.316  -5.607  0.00  0.00    -0.489 OA
BRANCH  11  12
ATOM     12  C   LIG d   1       8.761   0.035  -5.278  0.00  0.00     0.120 C 
ATOM     13  H   LIG d   1       9.612   0.161  -4.608  0.00  0.00     0.072 H 
ATOM     14  H   LIG d   1       9.086  -0.468  -6.188  0.00  0.00     0.072 H 
BRANCH  12  15
ATOM     15  C   LIG d   1       7.688  -0.808  -4.586  0.00  0.00     0.129 C 
ATOM     16  H   LIG d   1       7.583  -0.484  -3.550  0.00  0.00     0.068 H 
BRANCH  15  17
ATOM     17  C   LIG d   1       6.353  -0.633  -5.313  0.00  0.00    -0.002 C 
ATOM     18  H   LIG d   1       6.526  -0.163  -6.280  0.00  0.00     0.084 H 
ATOM     19  H   LIG d   1       5.890  -1.608  -5.461  0.00  0.00     0.084 H 
BRANCH  17  20
ATOM     20  N   LIG d   1       5.468   0.206  -4.480  0.00  0.00     0.237 N 
ATOM     21  C   LIG d   1       5.889   0.134  -3.065  0.00  0.00    -0.032 C 
ATOM     22  C   LIG d   1       5.035   1.101  -2.242  0.00  0.00    -0.012 C 
ATOM     23  H   LIG d   1       5.766  -0.878  -2.679  0.00  0.00     0.081 H 
ATOM     24  H   LIG d   1       6.938   0.425  -2.993  0.00  0.00     0.081 H 
ATOM     25  C   LIG d   1       3.562   0.700  -2.362  0.00  0.00    -0.043 C 
ATOM     26  H   LIG d   1       5.168   2.115  -2.618  0.00  0.00     0.032 H 
ATOM     27  H   LIG d   1       5.339   1.057  -1.196  0.00  0.00     0.032 H 
ATOM     28  C   LIG d   1       3.158   0.707  -3.838  0.00  0.00    -0.012 C 
ATOM     29  H   LIG d   1       2.945   1.412  -1.813  0.00  0.00     0.027 H 
ATOM     30  H   LIG d   1       3.420  -0.298  -1.949  0.00  0.00     0.027 H 
ATOM     31  C   LIG d   1       4.067  -0.248  -4.615  0.00  0.00    -0.032 C 
ATOM     32  H   LIG d   1       3.261   1.715  -4.240  0.00  0.00     0.032 H 
ATOM     33  H   LIG d   1       2.122   0.381  -3.934  0.00  0.00     0.032 H 
ATOM     34  H   LIG d   1       3.791  -0.235  -5.669  0.00  0.00     0.081 H 
ATOM     35  H   LIG d   1       3.953  -1.259  -4.222  0.00  0.00     0.081 H 
ATOM     36  H   LIG d   1       5.534   1.180  -4.798  0.00  0.00     0.203 HD
ENDBRANCH  17  20
ENDBRANCH  15  17
BRANCH  15  37
ATOM     37  O   LIG d   1       8.070  -2.185  -4.617  0.00  0.00    -0.383 OA
ATOM     38  H   LIG d   1       7.876  -2.628  -5.454  0.00  0.00     0.210 HD
ENDBRANCH  15  37
ENDBRANCH  12  15
ENDBRANCH  11  12
ENDBRANCH   4  11
BRANCH   1  39
ATOM     39  C   LIG d   1      10.603   5.793  -3.159  0.00  0.00     0.088 C 
ATOM     40  C   LIG d   1       9.532   6.604  -2.418  0.00  0.00    -0.001 C 
ATOM     41  C   LIG d   1      10.229   7.683  -1.615  0.00  0.00    -0.071 C 
ATOM     42  H   LIG d   1       8.853   7.060  -3.138  0.00  0.00     0.034 H 
ATOM     43  H   LIG d   1       8.973   5.950  -1.748  0.00  0.00     0.034 H 
ATOM     44  C   LIG d   1      11.408   7.270  -0.760  0.00  0.00    -0.006 C 
ATOM     45  C   LIG d   1       9.827   8.929  -1.660  0.00  0.00    -0.099 C 
ATOM     46  C   LIG d   1      12.343   6.411  -1.621  0.00  0.00     0.060 C 
ATOM     47  H   LIG d   1      11.059   6.690   0.095  0.00  0.00     0.034 H 
ATOM     48  H   LIG d   1      11.939   8.156  -0.411  0.00  0.00     0.034 H 
ATOM     49  H   LIG d   1      12.794   7.029  -2.397  0.00  0.00     0.060 H 
ATOM     50  O   LIG d   1      11.593   5.357  -2.225  0.00  0.00    -0.368 OA
ATOM     51  H   LIG d   1      10.338   9.684  -1.080  0.00  0.00     0.053 H 
ATOM     52  H   LIG d   1       8.984   9.203  -2.277  0.00  0.00     0.053 H 
ATOM     53  H   LIG d   1      11.071   6.418  -3.919  0.00  0.00     0.065 H 
BRANCH  46  54
ATOM     54  C   LIG d   1      13.445   5.815  -0.741  0.00  0.00    -0.038 C 
ATOM     55  H   LIG d   1      14.419   6.099  -1.137  0.00  0.00     0.025 H 
ATOM     56  H   LIG d   1      13.342   6.192   0.276  0.00  0.00     0.025 H 
ATOM     57  H   LIG d   1      13.358   4.728  -0.736  0.00  0.00     0.025 H 
ENDBRANCH  46  54
ENDBRANCH   1  39
TORSDOF 8
ENDMDL
MODEL 10
REMARK VINA RESULT:      -5.4      7.052      9.787
REMARK  8 active torsions:
REMARK  status: ('A' for Active; 'I' for Inactive)
REMARK    1  A    between atoms: C_1  and  C_2 
REMARK    2  A    between atoms: C_8  and  C_11 
REMARK    3  A    between atoms: C_14  and  O_17 
REMARK    4  A    between atoms: O_17  and  C_18 
REMARK    5  A    between atoms: C_18  and  C_19 
REMARK    6  A    between atoms: C_19  and  C_21 
REMARK    7  A    between atoms: C_19  and  O_27 
REMARK    8  A    between atoms: C_21  and  N_56 
ROOT
ATOM      1  C   LIG d   1      10.306   5.946  -3.162  0.00  0.00    -0.018 A 
ATOM      2  C   LIG d   1       9.586   5.648  -4.303  0.00  0.00    -0.053 A 
ATOM      3  C   LIG d   1       9.280   4.335  -4.604  0.00  0.00    -0.020 A 
ATOM      4  C   LIG d   1       9.699   3.315  -3.761  0.00  0.00     0.121 A 
ATOM      5  C   LIG d   1      10.417   3.618  -2.614  0.00  0.00    -0.020 A 
ATOM      6  C   LIG d   1      10.725   4.932  -2.319  0.00  0.00    -0.053 A 
ATOM      7  H   LIG d   1       9.260   6.442  -4.959  0.00  0.00     0.062 H 
ATOM      8  H   LIG d   1       8.717   4.102  -5.496  0.00  0.00     0.065 H 
ATOM      9  H   LIG d   1      10.739   2.827  -1.953  0.00  0.00     0.065 H 
ATOM     10  H   LIG d   1      11.288   5.168  -1.429  0.00  0.00     0.062 H 
ENDROOT
BRANCH   4  11
ATOM     11  O   LIG d   1       9.399   2.023  -4.056  0.00  0.00    -0.489 OA
BRANCH  11  12
ATOM     12  C   LIG d   1       8.094   1.764  -4.579  0.00  0.00     0.120 C 
ATOM     13  H   LIG d   1       8.115   1.849  -5.666  0.00  0.00     0.072 H 
ATOM     14  H   LIG d   1       7.389   2.487  -4.171  0.00  0.00     0.072 H 
BRANCH  12  15
ATOM     15  C   LIG d   1       7.659   0.351  -4.186  0.00  0.00     0.129 C 
ATOM     16  H   LIG d   1       7.378   0.337  -3.133  0.00  0.00     0.068 H 
BRANCH  15  17
ATOM     17  C   LIG d   1       6.461  -0.070  -5.040  0.00  0.00    -0.002 C 
ATOM     18  H   LIG d   1       6.503   0.440  -6.001  0.00  0.00     0.084 H 
ATOM     19  H   LIG d   1       6.489  -1.148  -5.198  0.00  0.00     0.084 H 
BRANCH  17  20
ATOM     20  N   LIG d   1       5.220   0.284  -4.319  0.00  0.00     0.237 N 
ATOM     21  C   LIG d   1       5.345  -0.078  -2.892  0.00  0.00    -0.032 C 
ATOM     22  C   LIG d   1       4.099   0.405  -2.146  0.00  0.00    -0.012 C 
ATOM     23  H   LIG d   1       5.441  -1.158  -2.777  0.00  0.00     0.081 H 
ATOM     24  H   LIG d   1       6.228   0.411  -2.479  0.00  0.00     0.081 H 
ATOM     25  C   LIG d   1       2.861  -0.269  -2.743  0.00  0.00    -0.043 C 
ATOM     26  H   LIG d   1       4.010   1.486  -2.248  0.00  0.00     0.032 H 
ATOM     27  H   LIG d   1       4.182   0.145  -1.091  0.00  0.00     0.032 H 
ATOM     28  C   LIG d   1       2.784   0.054  -4.237  0.00  0.00    -0.012 C 
ATOM     29  H   LIG d   1       1.966   0.106  -2.244  0.00  0.00     0.027 H 
ATOM     30  H   LIG d   1       2.930  -1.347  -2.605  0.00  0.00     0.027 H 
ATOM     31  C   LIG d   1       4.068  -0.419  -4.922  0.00  0.00    -0.032 C 
ATOM     32  H   LIG d   1       2.674   1.130  -4.373  0.00  0.00     0.032 H 
ATOM     33  H   LIG d   1       1.928  -0.458  -4.677  0.00  0.00     0.032 H 
ATOM     34  H   LIG d   1       4.023  -0.178  -5.984  0.00  0.00     0.081 H 
ATOM     35  H   LIG d   1       4.170  -1.498  -4.798  0.00  0.00     0.081 H 
ATOM     36  H   LIG d   1       5.069   1.297  -4.394  0.00  0.00     0.203 HD
ENDBRANCH  17  20
ENDBRANCH  15  17
BRANCH  15  37
ATOM     37  O   LIG d   1       8.741  -0.558  -4.402  0.00  0.00    -0.383 OA
ATOM     38  H   LIG d   1       8.980  -1.077  -3.622  0.00  0.00     0.210 HD
ENDBRANCH  15  37
ENDBRANCH  12  15
ENDBRANCH  11  12
ENDBRANCH   4  11
BRANCH   1  39
ATOM     39  C   LIG d   1      10.637   7.379  -2.835  0.00  0.00     0.088 C 
ATOM     40  C   LIG d   1      10.772   8.184  -4.133  0.00  0.00    -0.001 C 
ATOM     41  C   LIG d   1      10.912   9.648  -3.769  0.00  0.00    -0.071 C 
ATOM     42  H   LIG d   1      11.657   7.855  -4.679  0.00  0.00     0.034 H 
ATOM     43  H   LIG d   1       9.885   8.041  -4.749  0.00  0.00     0.034 H 
ATOM     44  C   LIG d   1       9.922  10.220  -2.775  0.00  0.00    -0.006 C 
ATOM     45  C   LIG d   1      11.854  10.392  -4.293  0.00  0.00    -0.099 C 
ATOM     46  C   LIG d   1       9.848   9.267  -1.574  0.00  0.00     0.060 C 
ATOM     47  H   LIG d   1       8.939  10.303  -3.239  0.00  0.00     0.034 H 
ATOM     48  H   LIG d   1      10.258  11.203  -2.445  0.00  0.00     0.034 H 
ATOM     49  H   LIG d   1      10.795   9.288  -1.035  0.00  0.00     0.060 H 
ATOM     50  O   LIG d   1       9.592   7.942  -2.039  0.00  0.00    -0.368 OA
ATOM     51  H   LIG d   1      11.935  11.434  -4.019  0.00  0.00     0.053 H 
ATOM     52  H   LIG d   1      12.549   9.964  -4.999  0.00  0.00     0.053 H 
ATOM     53  H   LIG d   1      11.576   7.419  -2.282  0.00  0.00     0.065 H 
BRANCH  46  54
ATOM     54  C   LIG d   1       8.719   9.709  -0.640  0.00  0.00    -0.038 C 
ATOM     55  H   LIG d   1       9.062   9.658   0.393  0.00  0.00     0.025 H 
ATOM     56  H   LIG d   1       8.431  10.733  -0.877  0.00  0.00     0.025 H 
ATOM     57  H   LIG d   1       7.861   9.050  -0.771  0.00  0.00     0.025 H 
ENDBRANCH  46  54
ENDBRANCH   1  39
TORSDOF 8
ENDMDL
