MODEL 1
REMARK VINA RESULT:      -7.6      0.000      0.000
REMARK  7 active torsions:
REMARK  status: ('A' for Active; 'I' for Inactive)
REMARK    1  A    between atoms: C_4  and  N_7 
REMARK    2  A    between atoms: N_7  and  C_8 
REMARK    3  A    between atoms: N_7  and  C_14 
REMARK    4  A    between atoms: C_16  and  N_26 
REMARK    5  A    between atoms: C_18  and  N_20 
REMARK    6  A    between atoms: N_26  and  C_27 
REMARK    7  A    between atoms: C_32  and  N_33 
ROOT
ATOM      1  C   LIG d   1       6.885  -0.225  -5.406  0.00  0.00     0.233 A 
ATOM      2  N   LIG d   1       6.856  -0.105  -6.730  0.00  0.00    -0.180 NA
ATOM      3  C   LIG d   1       7.431   0.941  -7.315  0.00  0.00     0.225 A 
ATOM      4  N   LIG d   1       8.035   1.867  -6.576  0.00  0.00    -0.181 NA
ATOM      5  C   LIG d   1       8.064   1.746  -5.252  0.00  0.00     0.224 A 
ATOM      6  N   LIG d   1       7.493   0.698  -4.668  0.00  0.00    -0.180 NA
ENDROOT
BRANCH   1   7
ATOM      7  N   LIG d   1       6.287  -1.313  -4.797  0.00  0.00    -0.238 N 
BRANCH   7   8
ATOM      8  C   LIG d   1       5.050  -1.167  -4.160  0.00  0.00     0.042 A 
ATOM      9  C   LIG d   1       4.800  -1.827  -2.964  0.00  0.00    -0.040 A 
ATOM     10  C   LIG d   1       3.578  -1.681  -2.338  0.00  0.00    -0.060 A 
ATOM     11  H   LIG d   1       5.561  -2.454  -2.524  0.00  0.00     0.064 H 
ATOM     12  C   LIG d   1       2.603  -0.878  -2.901  0.00  0.00    -0.062 A 
ATOM     13  H   LIG d   1       3.383  -2.195  -1.408  0.00  0.00     0.062 H 
ATOM     14  C   LIG d   1       2.848  -0.218  -4.091  0.00  0.00    -0.060 A 
ATOM     15  H   LIG d   1       1.647  -0.765  -2.409  0.00  0.00     0.062 H 
ATOM     16  C   LIG d   1       4.070  -0.357  -4.720  0.00  0.00    -0.040 A 
ATOM     17  H   LIG d   1       2.085   0.409  -4.528  0.00  0.00     0.062 H 
ATOM     18  H   LIG d   1       4.263   0.161  -5.648  0.00  0.00     0.064 H 
ENDBRANCH   7   8
BRANCH   7  19
ATOM     19  C   LIG d   1       6.919  -2.562  -4.819  0.00  0.00     0.042 A 
ATOM     20  C   LIG d   1       6.432  -3.574  -5.635  0.00  0.00    -0.040 A 
ATOM     21  C   LIG d   1       7.059  -4.805  -5.655  0.00  0.00    -0.060 A 
ATOM     22  H   LIG d   1       5.564  -3.399  -6.255  0.00  0.00     0.064 H 
ATOM     23  C   LIG d   1       8.169  -5.030  -4.862  0.00  0.00    -0.062 A 
ATOM     24  H   LIG d   1       6.680  -5.593  -6.289  0.00  0.00     0.062 H 
ATOM     25  C   LIG d   1       8.657  -4.023  -4.048  0.00  0.00    -0.060 A 
ATOM     26  H   LIG d   1       8.657  -5.993  -4.879  0.00  0.00     0.062 H 
ATOM     27  C   LIG d   1       8.038  -2.789  -4.028  0.00  0.00    -0.040 A 
ATOM     28  H   LIG d   1       9.525  -4.202  -3.432  0.00  0.00     0.062 H 
ATOM     29  H   LIG d   1       8.422  -2.002  -3.395  0.00  0.00     0.064 H 
ENDBRANCH   7  19
ENDBRANCH   1   7
BRANCH   5  30
ATOM     30  N   LIG d   1       8.692   2.708  -4.486  0.00  0.00    -0.295 NA
ATOM     31  C   LIG d   1       9.765   2.115  -3.673  0.00  0.00     0.038 C 
ATOM     32  C   LIG d   1      10.393   3.201  -2.797  0.00  0.00     0.064 C 
ATOM     33  H   LIG d   1       9.351   1.331  -3.040  0.00  0.00     0.049 H 
ATOM     34  H   LIG d   1      10.526   1.691  -4.329  0.00  0.00     0.049 H 
ATOM     35  O   LIG d   1      10.868   4.264  -3.628  0.00  0.00    -0.377 OA
ATOM     36  H   LIG d   1       9.645   3.588  -2.104  0.00  0.00     0.058 H 
ATOM     37  H   LIG d   1      11.225   2.779  -2.234  0.00  0.00     0.058 H 
ATOM     38  C   LIG d   1       9.849   4.863  -4.434  0.00  0.00     0.064 C 
ATOM     39  C   LIG d   1       9.215   3.793  -5.327  0.00  0.00     0.038 C 
ATOM     40  H   LIG d   1      10.289   5.643  -5.056  0.00  0.00     0.058 H 
ATOM     41  H   LIG d   1       9.085   5.299  -3.790  0.00  0.00     0.058 H 
ATOM     42  H   LIG d   1       8.401   4.235  -5.900  0.00  0.00     0.049 H 
ATOM     43  H   LIG d   1       9.967   3.396  -6.008  0.00  0.00     0.049 H 
ENDBRANCH   5  30
BRANCH   3  44
ATOM     44  N   LIG d   1       7.401   1.066  -8.690  0.00  0.00    -0.282 N 
ATOM     45  H   LIG d   1       8.229   1.072  -9.195  0.00  0.00     0.155 HD
BRANCH  44  46
ATOM     46  C   LIG d   1       6.173   1.182  -9.356  0.00  0.00     0.054 A 
ATOM     47  C   LIG d   1       5.820   0.256 -10.337  0.00  0.00     0.046 A 
ATOM     48  C   LIG d   1       4.603   0.376 -10.992  0.00  0.00    -0.039 A 
ATOM     49  C   LIG d   1       3.745   1.412 -10.672  0.00  0.00    -0.060 A 
ATOM     50  H   LIG d   1       4.326  -0.340 -11.752  0.00  0.00     0.064 H 
ATOM     51  C   LIG d   1       4.096   2.330  -9.699  0.00  0.00    -0.060 A 
ATOM     52  H   LIG d   1       2.799   1.503 -11.182  0.00  0.00     0.062 H 
ATOM     53  C   LIG d   1       5.304   2.215  -9.038  0.00  0.00    -0.039 A 
ATOM     54  H   LIG d   1       3.422   3.137  -9.453  0.00  0.00     0.062 H 
ATOM     55  H   LIG d   1       5.573   2.931  -8.276  0.00  0.00     0.064 H 
BRANCH  47  56
ATOM     56  N   LIG d   1       6.690  -0.793 -10.659  0.00  0.00    -0.356 N 
ATOM     57  H   LIG d   1       7.547  -0.865 -10.212  0.00  0.00     0.142 HD
ATOM     58  H   LIG d   1       6.435  -1.446 -11.329  0.00  0.00     0.142 HD
ENDBRANCH  47  56
ENDBRANCH  44  46
ENDBRANCH   3  44
TORSDOF 7
ENDMDL
MODEL 2
REMARK VINA RESULT:      -7.6      0.050      3.139
REMARK  7 active torsions:
REMARK  status: ('A' for Active; 'I' for Inactive)
REMARK    1  A    between atoms: C_4  and  N_7 
REMARK    2  A    between atoms: N_7  and  C_8 
REMARK    3  A    between atoms: N_7  and  C_14 
REMARK    4  A    between atoms: C_16  and  N_26 
REMARK    5  A    between atoms: C_18  and  N_20 
REMARK    6  A    between atoms: N_26  and  C_27 
REMARK    7  A    between atoms: C_32  and  N_33 
ROOT
ATOM      1  C   LIG d   1       6.885  -0.182  -5.418  0.00  0.00     0.233 A 
ATOM      2  N   LIG d   1       6.857  -0.050  -6.740  0.00  0.00    -0.180 NA
ATOM      3  C   LIG d   1       7.438   0.998  -7.316  0.00  0.00     0.225 A 
ATOM      4  N   LIG d   1       8.048   1.914  -6.569  0.00  0.00    -0.181 NA
ATOM      5  C   LIG d   1       8.076   1.781  -5.246  0.00  0.00     0.224 A 
ATOM      6  N   LIG d   1       7.499   0.731  -4.671  0.00  0.00    -0.180 NA
ENDROOT
BRANCH   1   7
ATOM      7  N   LIG d   1       6.281  -1.273  -4.819  0.00  0.00    -0.238 N 
BRANCH   7   8
ATOM      8  C   LIG d   1       6.915  -2.519  -4.833  0.00  0.00     0.042 A 
ATOM      9  C   LIG d   1       8.033  -2.742  -4.039  0.00  0.00    -0.040 A 
ATOM     10  C   LIG d   1       8.657  -3.973  -4.056  0.00  0.00    -0.060 A 
ATOM     11  H   LIG d   1       8.414  -1.951  -3.409  0.00  0.00     0.064 H 
ATOM     12  C   LIG d   1       8.170  -4.986  -4.863  0.00  0.00    -0.062 A 
ATOM     13  H   LIG d   1       9.527  -4.147  -3.439  0.00  0.00     0.062 H 
ATOM     14  C   LIG d   1       7.057  -4.769  -5.654  0.00  0.00    -0.060 A 
ATOM     15  H   LIG d   1       8.660  -5.949  -4.874  0.00  0.00     0.062 H 
ATOM     16  C   LIG d   1       6.425  -3.540  -5.638  0.00  0.00    -0.040 A 
ATOM     17  H   LIG d   1       6.679  -5.561  -6.282  0.00  0.00     0.062 H 
ATOM     18  H   LIG d   1       5.555  -3.372  -6.254  0.00  0.00     0.064 H 
ENDBRANCH   7   8
BRANCH   7  19
ATOM     19  C   LIG d   1       5.035  -1.129  -4.197  0.00  0.00     0.042 A 
ATOM     20  C   LIG d   1       4.051  -0.345  -4.784  0.00  0.00    -0.040 A 
ATOM     21  C   LIG d   1       2.823  -0.205  -4.168  0.00  0.00    -0.060 A 
ATOM     22  H   LIG d   1       4.245   0.155  -5.722  0.00  0.00     0.064 H 
ATOM     23  C   LIG d   1       2.573  -0.844  -2.967  0.00  0.00    -0.062 A 
ATOM     24  H   LIG d   1       2.057   0.404  -4.624  0.00  0.00     0.062 H 
ATOM     25  C   LIG d   1       3.552  -1.625  -2.380  0.00  0.00    -0.060 A 
ATOM     26  H   LIG d   1       1.612  -0.733  -2.487  0.00  0.00     0.062 H 
ATOM     27  C   LIG d   1       4.780  -1.773  -2.993  0.00  0.00    -0.040 A 
ATOM     28  H   LIG d   1       3.353  -2.124  -1.443  0.00  0.00     0.062 H 
ATOM     29  H   LIG d   1       5.542  -2.387  -2.536  0.00  0.00     0.064 H 
ENDBRANCH   7  19
ENDBRANCH   1   7
BRANCH   5  30
ATOM     30  N   LIG d   1       8.709   2.732  -4.471  0.00  0.00    -0.295 NA
ATOM     31  C   LIG d   1       9.798   2.131  -3.686  0.00  0.00     0.038 C 
ATOM     32  C   LIG d   1      10.432   3.205  -2.798  0.00  0.00     0.064 C 
ATOM     33  H   LIG d   1       9.398   1.332  -3.062  0.00  0.00     0.049 H 
ATOM     34  H   LIG d   1      10.551   1.725  -4.361  0.00  0.00     0.049 H 
ATOM     35  O   LIG d   1      10.887   4.287  -3.617  0.00  0.00    -0.377 OA
ATOM     36  H   LIG d   1       9.692   3.574  -2.088  0.00  0.00     0.058 H 
ATOM     37  H   LIG d   1      11.275   2.778  -2.257  0.00  0.00     0.058 H 
ATOM     38  C   LIG d   1       9.852   4.894  -4.395  0.00  0.00     0.064 C 
ATOM     39  C   LIG d   1       9.212   3.837  -5.299  0.00  0.00     0.038 C 
ATOM     40  H   LIG d   1      10.277   5.689  -5.009  0.00  0.00     0.058 H 
ATOM     41  H   LIG d   1       9.095   5.312  -3.732  0.00  0.00     0.058 H 
ATOM     42  H   LIG d   1       8.386   4.284  -5.852  0.00  0.00     0.049 H 
ATOM     43  H   LIG d   1       9.956   3.458  -5.999  0.00  0.00     0.049 H 
ENDBRANCH   5  30
BRANCH   3  44
ATOM     44  N   LIG d   1       7.409   1.135  -8.690  0.00  0.00    -0.282 N 
ATOM     45  H   LIG d   1       8.238   1.171  -9.192  0.00  0.00     0.155 HD
BRANCH  44  46
ATOM     46  C   LIG d   1       6.180   1.221  -9.359  0.00  0.00     0.054 A 
ATOM     47  C   LIG d   1       5.847   0.280 -10.332  0.00  0.00     0.046 A 
ATOM     48  C   LIG d   1       4.629   0.370 -10.990  0.00  0.00    -0.039 A 
ATOM     49  C   LIG d   1       3.751   1.392 -10.681  0.00  0.00    -0.060 A 
ATOM     50  H   LIG d   1       4.368  -0.358 -11.744  0.00  0.00     0.064 H 
ATOM     51  C   LIG d   1       4.082   2.326  -9.716  0.00  0.00    -0.060 A 
ATOM     52  H   LIG d   1       2.804   1.461 -11.195  0.00  0.00     0.062 H 
ATOM     53  C   LIG d   1       5.291   2.240  -9.052  0.00  0.00    -0.039 A 
ATOM     54  H   LIG d   1       3.392   3.122  -9.479  0.00  0.00     0.062 H 
ATOM     55  H   LIG d   1       5.544   2.968  -8.296  0.00  0.00     0.064 H 
BRANCH  47  56
ATOM     56  N   LIG d   1       6.738  -0.754 -10.643  0.00  0.00    -0.356 N 
ATOM     57  H   LIG d   1       7.174  -0.774 -11.509  0.00  0.00     0.142 HD
ATOM     58  H   LIG d   1       6.918  -1.451  -9.993  0.00  0.00     0.142 HD
ENDBRANCH  47  56
ENDBRANCH  44  46
ENDBRANCH   3  44
TORSDOF 7
ENDMDL
MODEL 3
REMARK VINA RESULT:      -7.5      3.883      6.186
REMARK  7 active torsions:
REMARK  status: ('A' for Active; 'I' for Inactive)
REMARK    1  A    between atoms: C_4  and  N_7 
REMARK    2  A    between atoms: N_7  and  C_8 
REMARK    3  A    between atoms: N_7  and  C_14 
REMARK    4  A    between atoms: C_16  and  N_26 
REMARK    5  A    between atoms: C_18  and  N_20 
REMARK    6  A    between atoms: N_26  and  C_27 
REMARK    7  A    between atoms: C_32  and  N_33 
ROOT
ATOM      1  C   LIG d   1       5.356  -2.280  -6.030  0.00  0.00     0.233 A 
ATOM      2  N   LIG d   1       4.466  -1.516  -6.657  0.00  0.00    -0.180 NA
ATOM      3  C   LIG d   1       3.663  -2.046  -7.574  0.00  0.00     0.225 A 
ATOM      4  N   LIG d   1       3.750  -3.341  -7.865  0.00  0.00    -0.181 NA
ATOM      5  C   LIG d   1       4.639  -4.105  -7.238  0.00  0.00     0.224 A 
ATOM      6  N   LIG d   1       5.439  -3.575  -6.317  0.00  0.00    -0.180 NA
ENDROOT
BRANCH   1   7
ATOM      7  N   LIG d   1       6.191  -1.728  -5.076  0.00  0.00    -0.238 N 
BRANCH   7   8
ATOM      8  C   LIG d   1       5.648  -1.093  -3.954  0.00  0.00     0.042 A 
ATOM      9  C   LIG d   1       4.882  -1.814  -3.047  0.00  0.00    -0.040 A 
ATOM     10  C   LIG d   1       4.347  -1.184  -1.942  0.00  0.00    -0.060 A 
ATOM     11  H   LIG d   1       4.705  -2.868  -3.207  0.00  0.00     0.064 H 
ATOM     12  C   LIG d   1       4.574   0.165  -1.736  0.00  0.00    -0.062 A 
ATOM     13  H   LIG d   1       3.750  -1.744  -1.236  0.00  0.00     0.062 H 
ATOM     14  C   LIG d   1       5.337   0.886  -2.635  0.00  0.00    -0.060 A 
ATOM     15  H   LIG d   1       4.154   0.656  -0.869  0.00  0.00     0.062 H 
ATOM     16  C   LIG d   1       5.879   0.260  -3.741  0.00  0.00    -0.040 A 
ATOM     17  H   LIG d   1       5.513   1.939  -2.472  0.00  0.00     0.062 H 
ATOM     18  H   LIG d   1       6.477   0.823  -4.442  0.00  0.00     0.064 H 
ENDBRANCH   7   8
BRANCH   7  19
ATOM     19  C   LIG d   1       7.580  -1.807  -5.231  0.00  0.00     0.042 A 
ATOM     20  C   LIG d   1       8.320  -2.680  -4.444  0.00  0.00    -0.040 A 
ATOM     21  C   LIG d   1       9.690  -2.756  -4.600  0.00  0.00    -0.060 A 
ATOM     22  H   LIG d   1       7.824  -3.300  -3.711  0.00  0.00     0.064 H 
ATOM     23  C   LIG d   1      10.325  -1.963  -5.539  0.00  0.00    -0.062 A 
ATOM     24  H   LIG d   1      10.266  -3.434  -3.988  0.00  0.00     0.062 H 
ATOM     25  C   LIG d   1       9.591  -1.093  -6.324  0.00  0.00    -0.060 A 
ATOM     26  H   LIG d   1      11.397  -2.024  -5.659  0.00  0.00     0.062 H 
ATOM     27  C   LIG d   1       8.220  -1.016  -6.176  0.00  0.00    -0.040 A 
ATOM     28  H   LIG d   1      10.090  -0.476  -7.057  0.00  0.00     0.062 H 
ATOM     29  H   LIG d   1       7.647  -0.340  -6.793  0.00  0.00     0.064 H 
ENDBRANCH   7  19
ENDBRANCH   1   7
BRANCH   5  30
ATOM     30  N   LIG d   1       4.729  -5.449  -7.540  0.00  0.00    -0.295 NA
ATOM     31  C   LIG d   1       4.585  -6.271  -6.329  0.00  0.00     0.038 C 
ATOM     32  C   LIG d   1       4.750  -7.747  -6.699  0.00  0.00     0.064 C 
ATOM     33  H   LIG d   1       5.349  -5.989  -5.605  0.00  0.00     0.049 H 
ATOM     34  H   LIG d   1       3.597  -6.112  -5.897  0.00  0.00     0.049 H 
ATOM     35  O   LIG d   1       3.793  -8.092  -7.705  0.00  0.00    -0.377 OA
ATOM     36  H   LIG d   1       5.756  -7.916  -7.082  0.00  0.00     0.058 H 
ATOM     37  H   LIG d   1       4.588  -8.364  -5.816  0.00  0.00     0.058 H 
ATOM     38  C   LIG d   1       3.905  -7.310  -8.897  0.00  0.00     0.064 C 
ATOM     39  C   LIG d   1       3.732  -5.829  -8.549  0.00  0.00     0.038 C 
ATOM     40  H   LIG d   1       3.131  -7.611  -9.604  0.00  0.00     0.058 H 
ATOM     41  H   LIG d   1       4.886  -7.466  -9.345  0.00  0.00     0.058 H 
ATOM     42  H   LIG d   1       3.873  -5.226  -9.447  0.00  0.00     0.049 H 
ATOM     43  H   LIG d   1       2.730  -5.663  -8.153  0.00  0.00     0.049 H 
ENDBRANCH   5  30
BRANCH   3  44
ATOM     44  N   LIG d   1       2.739  -1.252  -8.224  0.00  0.00    -0.282 N 
ATOM     45  H   LIG d   1       1.798  -1.486  -8.204  0.00  0.00     0.155 HD
BRANCH  44  46
ATOM     46  C   LIG d   1       3.162  -0.107  -8.913  0.00  0.00     0.054 A 
ATOM     47  C   LIG d   1       3.231   1.120  -8.253  0.00  0.00     0.046 A 
ATOM     48  C   LIG d   1       3.650   2.250  -8.940  0.00  0.00    -0.039 A 
ATOM     49  C   LIG d   1       3.996   2.157 -10.275  0.00  0.00    -0.060 A 
ATOM     50  H   LIG d   1       3.706   3.201  -8.431  0.00  0.00     0.064 H 
ATOM     51  C   LIG d   1       3.927   0.941 -10.929  0.00  0.00    -0.060 A 
ATOM     52  H   LIG d   1       4.322   3.038 -10.808  0.00  0.00     0.062 H 
ATOM     53  C   LIG d   1       3.516  -0.191 -10.251  0.00  0.00    -0.039 A 
ATOM     54  H   LIG d   1       4.199   0.875 -11.972  0.00  0.00     0.062 H 
ATOM     55  H   LIG d   1       3.467  -1.140 -10.763  0.00  0.00     0.064 H 
BRANCH  47  56
ATOM     56  N   LIG d   1       2.881   1.211  -6.901  0.00  0.00    -0.356 N 
ATOM     57  H   LIG d   1       3.142   0.509  -6.284  0.00  0.00     0.142 HD
ATOM     58  H   LIG d   1       2.376   1.974  -6.580  0.00  0.00     0.142 HD
ENDBRANCH  47  56
ENDBRANCH  44  46
ENDBRANCH   3  44
TORSDOF 7
ENDMDL
MODEL 4
REMARK VINA RESULT:      -7.5      2.214      6.215
REMARK  7 active torsions:
REMARK  status: ('A' for Active; 'I' for Inactive)
REMARK    1  A    between atoms: C_4  and  N_7 
REMARK    2  A    between atoms: N_7  and  C_8 
REMARK    3  A    between atoms: N_7  and  C_14 
REMARK    4  A    between atoms: C_16  and  N_26 
REMARK    5  A    between atoms: C_18  and  N_20 
REMARK    6  A    between atoms: N_26  and  C_27 
REMARK    7  A    between atoms: C_32  and  N_33 
ROOT
ATOM      1  C   LIG d   1       6.746   0.120  -5.927  0.00  0.00     0.233 A 
ATOM      2  N   LIG d   1       7.880   0.784  -5.722  0.00  0.00    -0.180 NA
ATOM      3  C   LIG d   1       8.345   1.608  -6.656  0.00  0.00     0.225 A 
ATOM      4  N   LIG d   1       7.677   1.769  -7.794  0.00  0.00    -0.181 NA
ATOM      5  C   LIG d   1       6.543   1.105  -7.998  0.00  0.00     0.224 A 
ATOM      6  N   LIG d   1       6.075   0.285  -7.063  0.00  0.00    -0.180 NA
ENDROOT
BRANCH   1   7
ATOM      7  N   LIG d   1       6.261  -0.736  -4.955  0.00  0.00    -0.238 N 
BRANCH   7   8
ATOM      8  C   LIG d   1       6.731  -2.052  -4.885  0.00  0.00     0.042 A 
ATOM      9  C   LIG d   1       7.768  -2.376  -4.018  0.00  0.00    -0.040 A 
ATOM     10  C   LIG d   1       8.229  -3.675  -3.951  0.00  0.00    -0.060 A 
ATOM     11  H   LIG d   1       8.211  -1.612  -3.397  0.00  0.00     0.064 H 
ATOM     12  C   LIG d   1       7.661  -4.655  -4.746  0.00  0.00    -0.062 A 
ATOM     13  H   LIG d   1       9.036  -3.928  -3.278  0.00  0.00     0.062 H 
ATOM     14  C   LIG d   1       6.629  -4.337  -5.608  0.00  0.00    -0.060 A 
ATOM     15  H   LIG d   1       8.024  -5.671  -4.691  0.00  0.00     0.062 H 
ATOM     16  C   LIG d   1       6.159  -3.039  -5.677  0.00  0.00    -0.040 A 
ATOM     17  H   LIG d   1       6.187  -5.103  -6.227  0.00  0.00     0.062 H 
ATOM     18  H   LIG d   1       5.351  -2.791  -6.349  0.00  0.00     0.064 H 
ENDBRANCH   7   8
BRANCH   7  19
ATOM     19  C   LIG d   1       5.301  -0.287  -4.042  0.00  0.00     0.042 A 
ATOM     20  C   LIG d   1       3.963  -0.610  -4.223  0.00  0.00    -0.040 A 
ATOM     21  C   LIG d   1       3.017  -0.165  -3.320  0.00  0.00    -0.060 A 
ATOM     22  H   LIG d   1       3.661  -1.209  -5.070  0.00  0.00     0.064 H 
ATOM     23  C   LIG d   1       3.403   0.602  -2.235  0.00  0.00    -0.062 A 
ATOM     24  H   LIG d   1       1.976  -0.415  -3.461  0.00  0.00     0.062 H 
ATOM     25  C   LIG d   1       4.735   0.926  -2.052  0.00  0.00    -0.060 A 
ATOM     26  H   LIG d   1       2.662   0.949  -1.530  0.00  0.00     0.062 H 
ATOM     27  C   LIG d   1       5.685   0.480  -2.949  0.00  0.00    -0.040 A 
ATOM     28  H   LIG d   1       5.032   1.523  -1.203  0.00  0.00     0.062 H 
ATOM     29  H   LIG d   1       6.726   0.729  -2.802  0.00  0.00     0.064 H 
ENDBRANCH   7  19
ENDBRANCH   1   7
BRANCH   5  30
ATOM     30  N   LIG d   1       5.848   1.273  -9.179  0.00  0.00    -0.295 NA
ATOM     31  C   LIG d   1       5.709  -0.005  -9.894  0.00  0.00     0.038 C 
ATOM     32  C   LIG d   1       4.988   0.236 -11.222  0.00  0.00     0.064 C 
ATOM     33  H   LIG d   1       6.697  -0.424 -10.086  0.00  0.00     0.049 H 
ATOM     34  H   LIG d   1       5.130  -0.700  -9.286  0.00  0.00     0.049 H 
ATOM     35  O   LIG d   1       3.724   0.855 -10.969  0.00  0.00    -0.377 OA
ATOM     36  H   LIG d   1       5.593   0.888 -11.852  0.00  0.00     0.058 H 
ATOM     37  H   LIG d   1       4.832  -0.716 -11.729  0.00  0.00     0.058 H 
ATOM     38  C   LIG d   1       3.823   2.101 -10.275  0.00  0.00     0.064 C 
ATOM     39  C   LIG d   1       4.533   1.880  -8.936  0.00  0.00     0.038 C 
ATOM     40  H   LIG d   1       2.824   2.499 -10.096  0.00  0.00     0.058 H 
ATOM     41  H   LIG d   1       4.394   2.809 -10.876  0.00  0.00     0.058 H 
ATOM     42  H   LIG d   1       4.660   2.837  -8.430  0.00  0.00     0.049 H 
ATOM     43  H   LIG d   1       3.935   1.215  -8.313  0.00  0.00     0.049 H 
ENDBRANCH   5  30
BRANCH   3  44
ATOM     44  N   LIG d   1       9.522   2.297  -6.443  0.00  0.00    -0.282 N 
ATOM     45  H   LIG d   1      10.187   2.353  -7.148  0.00  0.00     0.155 HD
BRANCH  44  46
ATOM     46  C   LIG d   1       9.758   2.918  -5.208  0.00  0.00     0.054 A 
ATOM     47  C   LIG d   1      10.378   2.212  -4.178  0.00  0.00     0.046 A 
ATOM     48  C   LIG d   1      10.608   2.832  -2.959  0.00  0.00    -0.039 A 
ATOM     49  C   LIG d   1      10.221   4.145  -2.768  0.00  0.00    -0.060 A 
ATOM     50  H   LIG d   1      11.089   2.288  -2.159  0.00  0.00     0.064 H 
ATOM     51  C   LIG d   1       9.606   4.845  -3.790  0.00  0.00    -0.060 A 
ATOM     52  H   LIG d   1      10.402   4.626  -1.818  0.00  0.00     0.062 H 
ATOM     53  C   LIG d   1       9.378   4.237  -5.009  0.00  0.00    -0.039 A 
ATOM     54  H   LIG d   1       9.307   5.871  -3.635  0.00  0.00     0.062 H 
ATOM     55  H   LIG d   1       8.901   4.787  -5.807  0.00  0.00     0.064 H 
BRANCH  47  56
ATOM     56  N   LIG d   1      10.769   0.882  -4.374  0.00  0.00    -0.356 N 
ATOM     57  H   LIG d   1      10.114   0.170  -4.306  0.00  0.00     0.142 HD
ATOM     58  H   LIG d   1      11.694   0.673  -4.577  0.00  0.00     0.142 HD
ENDBRANCH  47  56
ENDBRANCH  44  46
ENDBRANCH   3  44
TORSDOF 7
ENDMDL
MODEL 5
REMARK VINA RESULT:      -7.5      2.220      5.457
REMARK  7 active torsions:
REMARK  status: ('A' for Active; 'I' for Inactive)
REMARK    1  A    between atoms: C_4  and  N_7 
REMARK    2  A    between atoms: N_7  and  C_8 
REMARK    3  A    between atoms: N_7  and  C_14 
REMARK    4  A    between atoms: C_16  and  N_26 
REMARK    5  A    between atoms: C_18  and  N_20 
REMARK    6  A    between atoms: N_26  and  C_27 
REMARK    7  A    between atoms: C_32  and  N_33 
ROOT
ATOM      1  C   LIG d   1       6.748   0.137  -5.939  0.00  0.00     0.233 A 
ATOM      2  N   LIG d   1       7.884   0.798  -5.738  0.00  0.00    -0.180 NA
ATOM      3  C   LIG d   1       8.352   1.615  -6.677  0.00  0.00     0.225 A 
ATOM      4  N   LIG d   1       7.685   1.770  -7.816  0.00  0.00    -0.181 NA
ATOM      5  C   LIG d   1       6.549   1.109  -8.017  0.00  0.00     0.224 A 
ATOM      6  N   LIG d   1       6.078   0.296  -7.076  0.00  0.00    -0.180 NA
ENDROOT
BRANCH   1   7
ATOM      7  N   LIG d   1       6.260  -0.712  -4.962  0.00  0.00    -0.238 N 
BRANCH   7   8
ATOM      8  C   LIG d   1       5.292  -0.259  -4.061  0.00  0.00     0.042 A 
ATOM      9  C   LIG d   1       3.953  -0.569  -4.262  0.00  0.00    -0.040 A 
ATOM     10  C   LIG d   1       3.000  -0.119  -3.370  0.00  0.00    -0.060 A 
ATOM     11  H   LIG d   1       3.658  -1.162  -5.115  0.00  0.00     0.064 H 
ATOM     12  C   LIG d   1       3.377   0.640  -2.276  0.00  0.00    -0.062 A 
ATOM     13  H   LIG d   1       1.958  -0.360  -3.526  0.00  0.00     0.062 H 
ATOM     14  C   LIG d   1       4.708   0.949  -2.072  0.00  0.00    -0.060 A 
ATOM     15  H   LIG d   1       2.629   0.990  -1.580  0.00  0.00     0.062 H 
ATOM     16  C   LIG d   1       5.668   0.499  -2.959  0.00  0.00    -0.040 A 
ATOM     17  H   LIG d   1       5.000   1.541  -1.218  0.00  0.00     0.062 H 
ATOM     18  H   LIG d   1       6.708   0.738  -2.797  0.00  0.00     0.064 H 
ENDBRANCH   7   8
BRANCH   7  19
ATOM     19  C   LIG d   1       6.735  -2.027  -4.877  0.00  0.00     0.042 A 
ATOM     20  C   LIG d   1       6.153  -3.027  -5.644  0.00  0.00    -0.040 A 
ATOM     21  C   LIG d   1       6.624  -4.323  -5.558  0.00  0.00    -0.060 A 
ATOM     22  H   LIG d   1       5.334  -2.793  -6.309  0.00  0.00     0.064 H 
ATOM     23  C   LIG d   1       7.672  -4.624  -4.708  0.00  0.00    -0.062 A 
ATOM     24  H   LIG d   1       6.171  -5.102  -6.154  0.00  0.00     0.062 H 
ATOM     25  C   LIG d   1       8.254  -3.629  -3.943  0.00  0.00    -0.060 A 
ATOM     26  H   LIG d   1       8.039  -5.638  -4.643  0.00  0.00     0.062 H 
ATOM     27  C   LIG d   1       7.791  -2.331  -4.028  0.00  0.00    -0.040 A 
ATOM     28  H   LIG d   1       9.073  -3.868  -3.282  0.00  0.00     0.062 H 
ATOM     29  H   LIG d   1       8.248  -1.554  -3.434  0.00  0.00     0.064 H 
ENDBRANCH   7  19
ENDBRANCH   1   7
BRANCH   5  30
ATOM     30  N   LIG d   1       5.856   1.271  -9.200  0.00  0.00    -0.295 NA
ATOM     31  C   LIG d   1       5.715  -0.011  -9.907  0.00  0.00     0.038 C 
ATOM     32  C   LIG d   1       4.996   0.224 -11.237  0.00  0.00     0.064 C 
ATOM     33  H   LIG d   1       6.702  -0.433 -10.096  0.00  0.00     0.049 H 
ATOM     34  H   LIG d   1       5.134  -0.701  -9.295  0.00  0.00     0.049 H 
ATOM     35  O   LIG d   1       3.732   0.847 -10.989  0.00  0.00    -0.377 OA
ATOM     36  H   LIG d   1       5.602   0.872 -11.870  0.00  0.00     0.058 H 
ATOM     37  H   LIG d   1       4.838  -0.731 -11.739  0.00  0.00     0.058 H 
ATOM     38  C   LIG d   1       3.833   2.097 -10.301  0.00  0.00     0.064 C 
ATOM     39  C   LIG d   1       4.541   1.882  -8.961  0.00  0.00     0.038 C 
ATOM     40  H   LIG d   1       2.834   2.498 -10.125  0.00  0.00     0.058 H 
ATOM     41  H   LIG d   1       4.406   2.801 -10.906  0.00  0.00     0.058 H 
ATOM     42  H   LIG d   1       4.670   2.841  -8.460  0.00  0.00     0.049 H 
ATOM     43  H   LIG d   1       3.941   1.221  -8.335  0.00  0.00     0.049 H 
ENDBRANCH   5  30
BRANCH   3  44
ATOM     44  N   LIG d   1       9.532   2.301  -6.468  0.00  0.00    -0.282 N 
ATOM     45  H   LIG d   1      10.185   2.374  -7.181  0.00  0.00     0.155 HD
BRANCH  44  46
ATOM     46  C   LIG d   1       9.785   2.895  -5.223  0.00  0.00     0.054 A 
ATOM     47  C   LIG d   1      10.415   2.165  -4.216  0.00  0.00     0.046 A 
ATOM     48  C   LIG d   1      10.663   2.759  -2.987  0.00  0.00    -0.039 A 
ATOM     49  C   LIG d   1      10.286   4.070  -2.764  0.00  0.00    -0.060 A 
ATOM     50  H   LIG d   1      11.151   2.196  -2.205  0.00  0.00     0.064 H 
ATOM     51  C   LIG d   1       9.662   4.793  -3.764  0.00  0.00    -0.060 A 
ATOM     52  H   LIG d   1      10.481   4.530  -1.807  0.00  0.00     0.062 H 
ATOM     53  C   LIG d   1       9.415   4.212  -4.993  0.00  0.00    -0.039 A 
ATOM     54  H   LIG d   1       9.370   5.817  -3.584  0.00  0.00     0.062 H 
ATOM     55  H   LIG d   1       8.932   4.781  -5.772  0.00  0.00     0.064 H 
BRANCH  47  56
ATOM     56  N   LIG d   1      10.796   0.838  -4.444  0.00  0.00    -0.356 N 
ATOM     57  H   LIG d   1      10.773   0.195  -3.718  0.00  0.00     0.142 HD
ATOM     58  H   LIG d   1      11.084   0.560  -5.328  0.00  0.00     0.142 HD
ENDBRANCH  47  56
ENDBRANCH  44  46
ENDBRANCH   3  44
TORSDOF 7
ENDMDL
MODEL 6
REMARK VINA RESULT:      -7.4      3.800      6.703
REMARK  7 active torsions:
REMARK  status: ('A' for Active; 'I' for Inactive)
REMARK    1  A    between atoms: C_4  and  N_7 
REMARK    2  A    between atoms: N_7  and  C_8 
REMARK    3  A    between atoms: N_7  and  C_14 
REMARK    4  A    between atoms: C_16  and  N_26 
REMARK    5  A    between atoms: C_18  and  N_20 
REMARK    6  A    between atoms: N_26  and  C_27 
REMARK    7  A    between atoms: C_32  and  N_33 
ROOT
ATOM      1  C   LIG d   1       5.472  -2.349  -5.906  0.00  0.00     0.233 A 
ATOM      2  N   LIG d   1       4.539  -1.561  -6.431  0.00  0.00    -0.180 NA
ATOM      3  C   LIG d   1       3.787  -2.001  -7.436  0.00  0.00     0.225 A 
ATOM      4  N   LIG d   1       3.968  -3.228  -7.915  0.00  0.00    -0.181 NA
ATOM      5  C   LIG d   1       4.902  -4.015  -7.389  0.00  0.00     0.224 A 
ATOM      6  N   LIG d   1       5.650  -3.578  -6.381  0.00  0.00    -0.180 NA
ENDROOT
BRANCH   1   7
ATOM      7  N   LIG d   1       6.254  -1.893  -4.860  0.00  0.00    -0.238 N 
BRANCH   7   8
ATOM      8  C   LIG d   1       7.623  -2.176  -4.834  0.00  0.00     0.042 A 
ATOM      9  C   LIG d   1       8.489  -1.509  -5.692  0.00  0.00    -0.040 A 
ATOM     10  C   LIG d   1       9.840  -1.791  -5.664  0.00  0.00    -0.060 A 
ATOM     11  H   LIG d   1       8.104  -0.770  -6.379  0.00  0.00     0.064 H 
ATOM     12  C   LIG d   1      10.332  -2.737  -4.783  0.00  0.00    -0.062 A 
ATOM     13  H   LIG d   1      10.514  -1.273  -6.331  0.00  0.00     0.062 H 
ATOM     14  C   LIG d   1       9.475  -3.402  -3.927  0.00  0.00    -0.060 A 
ATOM     15  H   LIG d   1      11.390  -2.956  -4.763  0.00  0.00     0.062 H 
ATOM     16  C   LIG d   1       8.122  -3.121  -3.947  0.00  0.00    -0.040 A 
ATOM     17  H   LIG d   1       9.862  -4.140  -3.240  0.00  0.00     0.062 H 
ATOM     18  H   LIG d   1       7.452  -3.639  -3.276  0.00  0.00     0.064 H 
ENDBRANCH   7   8
BRANCH   7  19
ATOM     19  C   LIG d   1       5.674  -1.146  -3.827  0.00  0.00     0.042 A 
ATOM     20  C   LIG d   1       4.831  -1.762  -2.911  0.00  0.00    -0.040 A 
ATOM     21  C   LIG d   1       4.261  -1.023  -1.893  0.00  0.00    -0.060 A 
ATOM     22  H   LIG d   1       4.622  -2.819  -2.994  0.00  0.00     0.064 H 
ATOM     23  C   LIG d   1       4.529   0.329  -1.786  0.00  0.00    -0.062 A 
ATOM     24  H   LIG d   1       3.606  -1.502  -1.181  0.00  0.00     0.062 H 
ATOM     25  C   LIG d   1       5.368   0.946  -2.696  0.00  0.00    -0.060 A 
ATOM     26  H   LIG d   1       4.082   0.905  -0.989  0.00  0.00     0.062 H 
ATOM     27  C   LIG d   1       5.944   0.211  -3.713  0.00  0.00    -0.040 A 
ATOM     28  H   LIG d   1       5.575   2.002  -2.608  0.00  0.00     0.062 H 
ATOM     29  H   LIG d   1       6.603   0.692  -4.421  0.00  0.00     0.064 H 
ENDBRANCH   7  19
ENDBRANCH   1   7
BRANCH   5  30
ATOM     30  N   LIG d   1       5.090  -5.289  -7.886  0.00  0.00    -0.295 NA
ATOM     31  C   LIG d   1       6.521  -5.584  -8.051  0.00  0.00     0.038 C 
ATOM     32  C   LIG d   1       6.682  -6.979  -8.659  0.00  0.00     0.064 C 
ATOM     33  H   LIG d   1       6.971  -4.844  -8.712  0.00  0.00     0.049 H 
ATOM     34  H   LIG d   1       7.013  -5.552  -7.078  0.00  0.00     0.049 H 
ATOM     35  O   LIG d   1       6.024  -7.938  -7.826  0.00  0.00    -0.377 OA
ATOM     36  H   LIG d   1       6.236  -6.997  -9.654  0.00  0.00     0.058 H 
ATOM     37  H   LIG d   1       7.741  -7.225  -8.731  0.00  0.00     0.058 H 
ATOM     38  C   LIG d   1       4.628  -7.680  -7.644  0.00  0.00     0.064 C 
ATOM     39  C   LIG d   1       4.447  -6.291  -7.025  0.00  0.00     0.038 C 
ATOM     40  H   LIG d   1       4.202  -8.433  -6.980  0.00  0.00     0.058 H 
ATOM     41  H   LIG d   1       4.122  -7.717  -8.609  0.00  0.00     0.058 H 
ATOM     42  H   LIG d   1       3.383  -6.069  -6.938  0.00  0.00     0.049 H 
ATOM     43  H   LIG d   1       4.906  -6.270  -6.037  0.00  0.00     0.049 H 
ENDBRANCH   5  30
BRANCH   3  44
ATOM     44  N   LIG d   1       2.818  -1.182  -7.981  0.00  0.00    -0.282 N 
ATOM     45  H   LIG d   1       1.879  -1.372  -7.827  0.00  0.00     0.155 HD
BRANCH  44  46
ATOM     46  C   LIG d   1       3.191  -0.076  -8.757  0.00  0.00     0.054 A 
ATOM     47  C   LIG d   1       3.242   1.194  -8.184  0.00  0.00     0.046 A 
ATOM     48  C   LIG d   1       3.613   2.285  -8.958  0.00  0.00    -0.039 A 
ATOM     49  C   LIG d   1       3.928   2.110 -10.292  0.00  0.00    -0.060 A 
ATOM     50  H   LIG d   1       3.654   3.270  -8.516  0.00  0.00     0.064 H 
ATOM     51  C   LIG d   1       3.876   0.850 -10.860  0.00  0.00    -0.060 A 
ATOM     52  H   LIG d   1       4.216   2.960 -10.892  0.00  0.00     0.062 H 
ATOM     53  C   LIG d   1       3.514  -0.242 -10.095  0.00  0.00    -0.039 A 
ATOM     54  H   LIG d   1       4.124   0.720 -11.903  0.00  0.00     0.062 H 
ATOM     55  H   LIG d   1       3.479  -1.225 -10.541  0.00  0.00     0.064 H 
BRANCH  47  56
ATOM     56  N   LIG d   1       2.923   1.369  -6.832  0.00  0.00    -0.356 N 
ATOM     57  H   LIG d   1       2.169   1.924  -6.580  0.00  0.00     0.142 HD
ATOM     58  H   LIG d   1       3.456   0.935  -6.148  0.00  0.00     0.142 HD
ENDBRANCH  47  56
ENDBRANCH  44  46
ENDBRANCH   3  44
TORSDOF 7
ENDMDL
MODEL 7
REMARK VINA RESULT:      -7.4      1.826      2.301
REMARK  7 active torsions:
REMARK  status: ('A' for Active; 'I' for Inactive)
REMARK    1  A    between atoms: C_4  and  N_7 
REMARK    2  A    between atoms: N_7  and  C_8 
REMARK    3  A    between atoms: N_7  and  C_14 
REMARK    4  A    between atoms: C_16  and  N_26 
REMARK    5  A    between atoms: C_18  and  N_20 
REMARK    6  A    between atoms: N_26  and  C_27 
REMARK    7  A    between atoms: C_32  and  N_33 
ROOT
ATOM      1  C   LIG d   1       7.442  -1.151  -5.551  0.00  0.00     0.233 A 
ATOM      2  N   LIG d   1       6.643  -1.119  -6.613  0.00  0.00    -0.180 NA
ATOM      3  C   LIG d   1       6.965  -0.370  -7.664  0.00  0.00     0.225 A 
ATOM      4  N   LIG d   1       8.085   0.346  -7.652  0.00  0.00    -0.181 NA
ATOM      5  C   LIG d   1       8.884   0.313  -6.589  0.00  0.00     0.224 A 
ATOM      6  N   LIG d   1       8.565  -0.439  -5.541  0.00  0.00    -0.180 NA
ENDROOT
BRANCH   1   7
ATOM      7  N   LIG d   1       7.108  -1.931  -4.458  0.00  0.00    -0.238 N 
BRANCH   7   8
ATOM      8  C   LIG d   1       6.069  -1.536  -3.608  0.00  0.00     0.042 A 
ATOM      9  C   LIG d   1       6.069  -0.262  -3.054  0.00  0.00    -0.040 A 
ATOM     10  C   LIG d   1       5.043   0.124  -2.214  0.00  0.00    -0.060 A 
ATOM     11  H   LIG d   1       6.871   0.426  -3.280  0.00  0.00     0.064 H 
ATOM     12  C   LIG d   1       4.016  -0.755  -1.926  0.00  0.00    -0.062 A 
ATOM     13  H   LIG d   1       5.042   1.115  -1.783  0.00  0.00     0.062 H 
ATOM     14  C   LIG d   1       4.011  -2.023  -2.476  0.00  0.00    -0.060 A 
ATOM     15  H   LIG d   1       3.214  -0.450  -1.269  0.00  0.00     0.062 H 
ATOM     16  C   LIG d   1       5.033  -2.415  -3.321  0.00  0.00    -0.040 A 
ATOM     17  H   LIG d   1       3.208  -2.708  -2.250  0.00  0.00     0.062 H 
ATOM     18  H   LIG d   1       5.028  -3.404  -3.753  0.00  0.00     0.064 H 
ENDBRANCH   7   8
BRANCH   7  19
ATOM     19  C   LIG d   1       7.808  -3.116  -4.204  0.00  0.00     0.042 A 
ATOM     20  C   LIG d   1       7.638  -4.216  -5.033  0.00  0.00    -0.040 A 
ATOM     21  C   LIG d   1       8.331  -5.384  -4.779  0.00  0.00    -0.060 A 
ATOM     22  H   LIG d   1       6.965  -4.159  -5.877  0.00  0.00     0.064 H 
ATOM     23  C   LIG d   1       9.193  -5.458  -3.700  0.00  0.00    -0.062 A 
ATOM     24  H   LIG d   1       8.199  -6.240  -5.424  0.00  0.00     0.062 H 
ATOM     25  C   LIG d   1       9.364  -4.363  -2.872  0.00  0.00    -0.060 A 
ATOM     26  H   LIG d   1       9.733  -6.372  -3.504  0.00  0.00     0.062 H 
ATOM     27  C   LIG d   1       8.678  -3.191  -3.124  0.00  0.00    -0.040 A 
ATOM     28  H   LIG d   1      10.039  -4.423  -2.032  0.00  0.00     0.062 H 
ATOM     29  H   LIG d   1       8.816  -2.336  -2.479  0.00  0.00     0.064 H 
ENDBRANCH   7  19
ENDBRANCH   1   7
BRANCH   5  30
ATOM     30  N   LIG d   1      10.047   1.056  -6.578  0.00  0.00    -0.295 NA
ATOM     31  C   LIG d   1       9.753   2.492  -6.453  0.00  0.00     0.038 C 
ATOM     32  C   LIG d   1      11.064   3.281  -6.504  0.00  0.00     0.064 C 
ATOM     33  H   LIG d   1       9.108   2.804  -7.273  0.00  0.00     0.049 H 
ATOM     34  H   LIG d   1       9.252   2.679  -5.503  0.00  0.00     0.049 H 
ATOM     35  O   LIG d   1      11.937   2.815  -5.471  0.00  0.00    -0.377 OA
ATOM     36  H   LIG d   1      11.539   3.136  -7.474  0.00  0.00     0.058 H 
ATOM     37  H   LIG d   1      10.857   4.340  -6.355  0.00  0.00     0.058 H 
ATOM     38  C   LIG d   1      12.243   1.421  -5.563  0.00  0.00     0.064 C 
ATOM     39  C   LIG d   1      10.945   0.612  -5.502  0.00  0.00     0.038 C 
ATOM     40  H   LIG d   1      12.890   1.134  -4.732  0.00  0.00     0.058 H 
ATOM     41  H   LIG d   1      12.753   1.220  -6.505  0.00  0.00     0.058 H 
ATOM     42  H   LIG d   1      11.170  -0.447  -5.629  0.00  0.00     0.049 H 
ATOM     43  H   LIG d   1      10.463   0.770  -4.537  0.00  0.00     0.049 H 
ENDBRANCH   5  30
BRANCH   3  44
ATOM     44  N   LIG d   1       6.135  -0.336  -8.767  0.00  0.00    -0.282 N 
ATOM     45  H   LIG d   1       6.328  -0.893  -9.538  0.00  0.00     0.155 HD
BRANCH  44  46
ATOM     46  C   LIG d   1       5.012   0.502  -8.773  0.00  0.00     0.054 A 
ATOM     47  C   LIG d   1       3.780   0.024  -8.328  0.00  0.00     0.046 A 
ATOM     48  C   LIG d   1       2.672   0.859  -8.336  0.00  0.00    -0.039 A 
ATOM     49  C   LIG d   1       2.792   2.160  -8.786  0.00  0.00    -0.060 A 
ATOM     50  H   LIG d   1       1.717   0.491  -7.992  0.00  0.00     0.064 H 
ATOM     51  C   LIG d   1       4.013   2.634  -9.227  0.00  0.00    -0.060 A 
ATOM     52  H   LIG d   1       1.928   2.808  -8.791  0.00  0.00     0.062 H 
ATOM     53  C   LIG d   1       5.123   1.811  -9.217  0.00  0.00    -0.039 A 
ATOM     54  H   LIG d   1       4.100   3.652  -9.577  0.00  0.00     0.062 H 
ATOM     55  H   LIG d   1       6.076   2.186  -9.559  0.00  0.00     0.064 H 
BRANCH  47  56
ATOM     56  N   LIG d   1       3.661  -1.295  -7.873  0.00  0.00    -0.356 N 
ATOM     57  H   LIG d   1       2.839  -1.590  -7.452  0.00  0.00     0.142 HD
ATOM     58  H   LIG d   1       4.402  -1.913  -7.978  0.00  0.00     0.142 HD
ENDBRANCH  47  56
ENDBRANCH  44  46
ENDBRANCH   3  44
TORSDOF 7
ENDMDL
MODEL 8
REMARK VINA RESULT:      -7.4      3.601      7.285
REMARK  7 active torsions:
REMARK  status: ('A' for Active; 'I' for Inactive)
REMARK    1  A    between atoms: C_4  and  N_7 
REMARK    2  A    between atoms: N_7  and  C_8 
REMARK    3  A    between atoms: N_7  and  C_14 
REMARK    4  A    between atoms: C_16  and  N_26 
REMARK    5  A    between atoms: C_18  and  N_20 
REMARK    6  A    between atoms: N_26  and  C_27 
REMARK    7  A    between atoms: C_32  and  N_33 
ROOT
ATOM      1  C   LIG d   1       5.031  -2.018  -7.683  0.00  0.00     0.233 A 
ATOM      2  N   LIG d   1       4.240  -1.873  -6.625  0.00  0.00    -0.180 NA
ATOM      3  C   LIG d   1       4.590  -2.398  -5.455  0.00  0.00     0.225 A 
ATOM      4  N   LIG d   1       5.733  -3.069  -5.343  0.00  0.00    -0.181 NA
ATOM      5  C   LIG d   1       6.525  -3.214  -6.402  0.00  0.00     0.224 A 
ATOM      6  N   LIG d   1       6.176  -2.684  -7.570  0.00  0.00    -0.180 NA
ENDROOT
BRANCH   1   7
ATOM      7  N   LIG d   1       4.667  -1.471  -8.900  0.00  0.00    -0.238 N 
BRANCH   7   8
ATOM      8  C   LIG d   1       4.533  -2.291 -10.025  0.00  0.00     0.042 A 
ATOM      9  C   LIG d   1       3.501  -3.219 -10.091  0.00  0.00    -0.040 A 
ATOM     10  C   LIG d   1       3.372  -4.028 -11.203  0.00  0.00    -0.060 A 
ATOM     11  H   LIG d   1       2.800  -3.306  -9.274  0.00  0.00     0.064 H 
ATOM     12  C   LIG d   1       4.269  -3.915 -12.250  0.00  0.00    -0.062 A 
ATOM     13  H   LIG d   1       2.569  -4.749 -11.255  0.00  0.00     0.062 H 
ATOM     14  C   LIG d   1       5.296  -2.993 -12.188  0.00  0.00    -0.060 A 
ATOM     15  H   LIG d   1       4.165  -4.549 -13.118  0.00  0.00     0.062 H 
ATOM     16  C   LIG d   1       5.428  -2.177 -11.080  0.00  0.00    -0.040 A 
ATOM     17  H   LIG d   1       5.995  -2.906 -13.007  0.00  0.00     0.062 H 
ATOM     18  H   LIG d   1       6.230  -1.455 -11.033  0.00  0.00     0.064 H 
ENDBRANCH   7   8
BRANCH   7  19
ATOM     19  C   LIG d   1       4.431  -0.095  -9.006  0.00  0.00     0.042 A 
ATOM     20  C   LIG d   1       3.132   0.383  -9.107  0.00  0.00    -0.040 A 
ATOM     21  C   LIG d   1       2.902   1.741  -9.211  0.00  0.00    -0.060 A 
ATOM     22  H   LIG d   1       2.300  -0.307  -9.104  0.00  0.00     0.064 H 
ATOM     23  C   LIG d   1       3.966   2.625  -9.214  0.00  0.00    -0.062 A 
ATOM     24  H   LIG d   1       1.891   2.113  -9.290  0.00  0.00     0.062 H 
ATOM     25  C   LIG d   1       5.262   2.152  -9.113  0.00  0.00    -0.060 A 
ATOM     26  H   LIG d   1       3.784   3.686  -9.296  0.00  0.00     0.062 H 
ATOM     27  C   LIG d   1       5.497   0.796  -9.004  0.00  0.00    -0.040 A 
ATOM     28  H   LIG d   1       6.090   2.845  -9.115  0.00  0.00     0.062 H 
ATOM     29  H   LIG d   1       6.509   0.428  -8.921  0.00  0.00     0.064 H 
ENDBRANCH   7  19
ENDBRANCH   1   7
BRANCH   5  30
ATOM     30  N   LIG d   1       7.711  -3.910  -6.286  0.00  0.00    -0.295 NA
ATOM     31  C   LIG d   1       8.866  -3.013  -6.448  0.00  0.00     0.038 C 
ATOM     32  C   LIG d   1      10.156  -3.834  -6.372  0.00  0.00     0.064 C 
ATOM     33  H   LIG d   1       8.807  -2.516  -7.416  0.00  0.00     0.049 H 
ATOM     34  H   LIG d   1       8.861  -2.267  -5.653  0.00  0.00     0.049 H 
ATOM     35  O   LIG d   1      10.192  -4.544  -5.131  0.00  0.00    -0.377 OA
ATOM     36  H   LIG d   1      10.185  -4.544  -7.198  0.00  0.00     0.058 H 
ATOM     37  H   LIG d   1      11.015  -3.166  -6.435  0.00  0.00     0.058 H 
ATOM     38  C   LIG d   1       9.082  -5.426  -4.940  0.00  0.00     0.064 C 
ATOM     39  C   LIG d   1       7.781  -4.622  -5.002  0.00  0.00     0.038 C 
ATOM     40  H   LIG d   1       9.165  -5.910  -3.967  0.00  0.00     0.058 H 
ATOM     41  H   LIG d   1       9.080  -6.183  -5.724  0.00  0.00     0.058 H 
ATOM     42  H   LIG d   1       6.931  -5.299  -4.914  0.00  0.00     0.049 H 
ATOM     43  H   LIG d   1       7.759  -3.901  -4.185  0.00  0.00     0.049 H 
ENDBRANCH   5  30
BRANCH   3  44
ATOM     44  N   LIG d   1       3.768  -2.248  -4.357  0.00  0.00    -0.282 N 
ATOM     45  H   LIG d   1       3.141  -2.948  -4.119  0.00  0.00     0.155 HD
BRANCH  44  46
ATOM     46  C   LIG d   1       3.840  -1.081  -3.583  0.00  0.00     0.054 A 
ATOM     47  C   LIG d   1       3.147   0.063  -3.976  0.00  0.00     0.046 A 
ATOM     48  C   LIG d   1       3.222   1.214  -3.206  0.00  0.00    -0.039 A 
ATOM     49  C   LIG d   1       3.984   1.225  -2.053  0.00  0.00    -0.060 A 
ATOM     50  H   LIG d   1       2.686   2.102  -3.508  0.00  0.00     0.064 H 
ATOM     51  C   LIG d   1       4.671   0.090  -1.663  0.00  0.00    -0.060 A 
ATOM     52  H   LIG d   1       4.041   2.122  -1.454  0.00  0.00     0.062 H 
ATOM     53  C   LIG d   1       4.597  -1.062  -2.421  0.00  0.00    -0.039 A 
ATOM     54  H   LIG d   1       5.265   0.105  -0.761  0.00  0.00     0.062 H 
ATOM     55  H   LIG d   1       5.132  -1.948  -2.111  0.00  0.00     0.064 H 
BRANCH  47  56
ATOM     56  N   LIG d   1       2.376   0.050  -5.145  0.00  0.00    -0.356 N 
ATOM     57  H   LIG d   1       1.408   0.021  -5.087  0.00  0.00     0.142 HD
ATOM     58  H   LIG d   1       2.809   0.070  -6.013  0.00  0.00     0.142 HD
ENDBRANCH  47  56
ENDBRANCH  44  46
ENDBRANCH   3  44
TORSDOF 7
ENDMDL
MODEL 9
REMARK VINA RESULT:      -7.3      4.061      8.117
REMARK  7 active torsions:
REMARK  status: ('A' for Active; 'I' for Inactive)
REMARK    1  A    between atoms: C_4  and  N_7 
REMARK    2  A    between atoms: N_7  and  C_8 
REMARK    3  A    between atoms: N_7  and  C_14 
REMARK    4  A    between atoms: C_16  and  N_26 
REMARK    5  A    between atoms: C_18  and  N_20 
REMARK    6  A    between atoms: N_26  and  C_27 
REMARK    7  A    between atoms: C_32  and  N_33 
ROOT
ATOM      1  C   LIG d   1       5.669  -2.667  -6.270  0.00  0.00     0.233 A 
ATOM      2  N   LIG d   1       6.926  -2.927  -5.922  0.00  0.00    -0.180 NA
ATOM      3  C   LIG d   1       7.508  -4.051  -6.329  0.00  0.00     0.225 A 
ATOM      4  N   LIG d   1       6.835  -4.914  -7.084  0.00  0.00    -0.181 NA
ATOM      5  C   LIG d   1       5.578  -4.652  -7.432  0.00  0.00     0.224 A 
ATOM      6  N   LIG d   1       4.997  -3.527  -7.029  0.00  0.00    -0.180 NA
ENDROOT
BRANCH   1   7
ATOM      7  N   LIG d   1       5.063  -1.498  -5.847  0.00  0.00    -0.238 N 
BRANCH   7   8
ATOM      8  C   LIG d   1       4.845  -1.276  -4.483  0.00  0.00     0.042 A 
ATOM      9  C   LIG d   1       5.349  -0.133  -3.874  0.00  0.00    -0.040 A 
ATOM     10  C   LIG d   1       5.133   0.083  -2.528  0.00  0.00    -0.060 A 
ATOM     11  H   LIG d   1       5.909   0.586  -4.454  0.00  0.00     0.064 H 
ATOM     12  C   LIG d   1       4.415  -0.837  -1.785  0.00  0.00    -0.062 A 
ATOM     13  H   LIG d   1       5.525   0.971  -2.053  0.00  0.00     0.062 H 
ATOM     14  C   LIG d   1       3.910  -1.974  -2.387  0.00  0.00    -0.060 A 
ATOM     15  H   LIG d   1       4.246  -0.665  -0.732  0.00  0.00     0.062 H 
ATOM     16  C   LIG d   1       4.119  -2.194  -3.736  0.00  0.00    -0.040 A 
ATOM     17  H   LIG d   1       3.350  -2.690  -1.806  0.00  0.00     0.062 H 
ATOM     18  H   LIG d   1       3.723  -3.081  -4.207  0.00  0.00     0.064 H 
ENDBRANCH   7   8
BRANCH   7  19
ATOM     19  C   LIG d   1       4.668  -0.536  -6.784  0.00  0.00     0.042 A 
ATOM     20  C   LIG d   1       5.605   0.030  -7.638  0.00  0.00    -0.040 A 
ATOM     21  C   LIG d   1       5.212   0.979  -8.562  0.00  0.00    -0.060 A 
ATOM     22  H   LIG d   1       6.642  -0.271  -7.580  0.00  0.00     0.064 H 
ATOM     23  C   LIG d   1       3.887   1.365  -8.637  0.00  0.00    -0.062 A 
ATOM     24  H   LIG d   1       5.942   1.420  -9.225  0.00  0.00     0.062 H 
ATOM     25  C   LIG d   1       2.950   0.803  -7.788  0.00  0.00    -0.060 A 
ATOM     26  H   LIG d   1       3.582   2.107  -9.360  0.00  0.00     0.062 H 
ATOM     27  C   LIG d   1       3.336  -0.149  -6.866  0.00  0.00    -0.040 A 
ATOM     28  H   LIG d   1       1.916   1.106  -7.851  0.00  0.00     0.062 H 
ATOM     29  H   LIG d   1       2.604  -0.591  -6.206  0.00  0.00     0.064 H 
ENDBRANCH   7  19
ENDBRANCH   1   7
BRANCH   5  30
ATOM     30  N   LIG d   1       4.879  -5.548  -8.216  0.00  0.00    -0.295 NA
ATOM     31  C   LIG d   1       4.694  -6.828  -7.515  0.00  0.00     0.038 C 
ATOM     32  C   LIG d   1       3.969  -7.809  -8.440  0.00  0.00     0.064 C 
ATOM     33  H   LIG d   1       5.665  -7.237  -7.240  0.00  0.00     0.049 H 
ATOM     34  H   LIG d   1       4.098  -6.667  -6.616  0.00  0.00     0.049 H 
ATOM     35  O   LIG d   1       2.727  -7.235  -8.858  0.00  0.00    -0.377 OA
ATOM     36  H   LIG d   1       4.588  -8.011  -9.314  0.00  0.00     0.058 H 
ATOM     37  H   LIG d   1       3.778  -8.739  -7.906  0.00  0.00     0.058 H 
ATOM     38  C   LIG d   1       2.872  -5.988  -9.544  0.00  0.00     0.064 C 
ATOM     39  C   LIG d   1       3.586  -4.988  -8.630  0.00  0.00     0.038 C 
ATOM     40  H   LIG d   1       1.887  -5.601  -9.808  0.00  0.00     0.058 H 
ATOM     41  H   LIG d   1       3.459  -6.136 -10.450  0.00  0.00     0.058 H 
ATOM     42  H   LIG d   1       3.748  -4.055  -9.169  0.00  0.00     0.049 H 
ATOM     43  H   LIG d   1       2.972  -4.798  -7.749  0.00  0.00     0.049 H 
ENDBRANCH   5  30
BRANCH   3  44
ATOM     44  N   LIG d   1       8.813  -4.321  -5.968  0.00  0.00    -0.282 N 
ATOM     45  H   LIG d   1       9.529  -4.215  -6.614  0.00  0.00     0.155 HD
BRANCH  44  46
ATOM     46  C   LIG d   1       9.105  -4.749  -4.665  0.00  0.00     0.054 A 
ATOM     47  C   LIG d   1       9.496  -3.824  -3.697  0.00  0.00     0.046 A 
ATOM     48  C   LIG d   1       9.783  -4.254  -2.409  0.00  0.00    -0.039 A 
ATOM     49  C   LIG d   1       9.682  -5.595  -2.090  0.00  0.00    -0.060 A 
ATOM     50  H   LIG d   1      10.086  -3.540  -1.657  0.00  0.00     0.064 H 
ATOM     51  C   LIG d   1       9.294  -6.511  -3.050  0.00  0.00    -0.060 A 
ATOM     52  H   LIG d   1       9.905  -5.927  -1.088  0.00  0.00     0.062 H 
ATOM     53  C   LIG d   1       9.001  -6.091  -4.334  0.00  0.00    -0.039 A 
ATOM     54  H   LIG d   1       9.217  -7.557  -2.795  0.00  0.00     0.062 H 
ATOM     55  H   LIG d   1       8.695  -6.809  -5.080  0.00  0.00     0.064 H 
BRANCH  47  56
ATOM     56  N   LIG d   1       9.598  -2.466  -4.023  0.00  0.00    -0.356 N 
ATOM     57  H   LIG d   1       8.848  -2.010  -4.437  0.00  0.00     0.142 HD
ATOM     58  H   LIG d   1      10.417  -1.982  -3.835  0.00  0.00     0.142 HD
ENDBRANCH  47  56
ENDBRANCH  44  46
ENDBRANCH   3  44
TORSDOF 7
ENDMDL
MODEL 10
REMARK VINA RESULT:      -7.3      3.679      8.027
REMARK  7 active torsions:
REMARK  status: ('A' for Active; 'I' for Inactive)
REMARK    1  A    between atoms: C_4  and  N_7 
REMARK    2  A    between atoms: N_7  and  C_8 
REMARK    3  A    between atoms: N_7  and  C_14 
REMARK    4  A    between atoms: C_16  and  N_26 
REMARK    5  A    between atoms: C_18  and  N_20 
REMARK    6  A    between atoms: N_26  and  C_27 
REMARK    7  A    between atoms: C_32  and  N_33 
ROOT
ATOM      1  C   LIG d   1       5.290  -1.671  -7.059  0.00  0.00     0.233 A 
ATOM      2  N   LIG d   1       4.784  -1.502  -5.841  0.00  0.00    -0.180 NA
ATOM      3  C   LIG d   1       4.240  -2.531  -5.198  0.00  0.00     0.225 A 
ATOM      4  N   LIG d   1       4.202  -3.730  -5.774  0.00  0.00    -0.181 NA
ATOM      5  C   LIG d   1       4.709  -3.898  -6.992  0.00  0.00     0.224 A 
ATOM      6  N   LIG d   1       5.257  -2.870  -7.632  0.00  0.00    -0.180 NA
ENDROOT
BRANCH   1   7
ATOM      7  N   LIG d   1       5.857  -0.601  -7.727  0.00  0.00    -0.238 N 
BRANCH   7   8
ATOM      8  C   LIG d   1       7.146  -0.173  -7.396  0.00  0.00     0.042 A 
ATOM      9  C   LIG d   1       8.161  -1.102  -7.203  0.00  0.00    -0.040 A 
ATOM     10  C   LIG d   1       9.433  -0.675  -6.876  0.00  0.00    -0.060 A 
ATOM     11  H   LIG d   1       7.955  -2.156  -7.310  0.00  0.00     0.064 H 
ATOM     12  C   LIG d   1       9.697   0.676  -6.740  0.00  0.00    -0.062 A 
ATOM     13  H   LIG d   1      10.223  -1.397  -6.726  0.00  0.00     0.062 H 
ATOM     14  C   LIG d   1       8.691   1.603  -6.931  0.00  0.00    -0.060 A 
ATOM     15  H   LIG d   1      10.694   1.007  -6.484  0.00  0.00     0.062 H 
ATOM     16  C   LIG d   1       7.417   1.183  -7.263  0.00  0.00    -0.040 A 
ATOM     17  H   LIG d   1       8.900   2.657  -6.825  0.00  0.00     0.062 H 
ATOM     18  H   LIG d   1       6.631   1.908  -7.416  0.00  0.00     0.064 H 
ENDBRANCH   7   8
BRANCH   7  19
ATOM     19  C   LIG d   1       5.140   0.053  -8.736  0.00  0.00     0.042 A 
ATOM     20  C   LIG d   1       4.107   0.920  -8.405  0.00  0.00    -0.040 A 
ATOM     21  C   LIG d   1       3.402   1.565  -9.403  0.00  0.00    -0.060 A 
ATOM     22  H   LIG d   1       3.856   1.092  -7.368  0.00  0.00     0.064 H 
ATOM     23  C   LIG d   1       3.723   1.346 -10.730  0.00  0.00    -0.062 A 
ATOM     24  H   LIG d   1       2.598   2.239  -9.146  0.00  0.00     0.062 H 
ATOM     25  C   LIG d   1       4.751   0.482 -11.062  0.00  0.00    -0.060 A 
ATOM     26  H   LIG d   1       3.170   1.851 -11.508  0.00  0.00     0.062 H 
ATOM     27  C   LIG d   1       5.463  -0.161 -10.069  0.00  0.00    -0.040 A 
ATOM     28  H   LIG d   1       5.000   0.315 -12.100  0.00  0.00     0.062 H 
ATOM     29  H   LIG d   1       6.268  -0.831 -10.330  0.00  0.00     0.064 H 
ENDBRANCH   7  19
ENDBRANCH   1   7
BRANCH   5  30
ATOM     30  N   LIG d   1       4.669  -5.142  -7.589  0.00  0.00    -0.295 NA
ATOM     31  C   LIG d   1       4.491  -6.202  -6.585  0.00  0.00     0.038 C 
ATOM     32  C   LIG d   1       4.513  -7.565  -7.282  0.00  0.00     0.064 C 
ATOM     33  H   LIG d   1       5.299  -6.153  -5.856  0.00  0.00     0.049 H 
ATOM     34  H   LIG d   1       3.535  -6.067  -6.080  0.00  0.00     0.049 H 
ATOM     35  O   LIG d   1       3.498  -7.597  -8.290  0.00  0.00    -0.377 OA
ATOM     36  H   LIG d   1       5.488  -7.723  -7.743  0.00  0.00     0.058 H 
ATOM     37  H   LIG d   1       4.325  -8.351  -6.551  0.00  0.00     0.058 H 
ATOM     38  C   LIG d   1       3.642  -6.578  -9.283  0.00  0.00     0.064 C 
ATOM     39  C   LIG d   1       3.611  -5.205  -8.606  0.00  0.00     0.038 C 
ATOM     40  H   LIG d   1       2.822  -6.649  -9.999  0.00  0.00     0.058 H 
ATOM     41  H   LIG d   1       4.591  -6.706  -9.803  0.00  0.00     0.058 H 
ATOM     42  H   LIG d   1       3.777  -4.428  -9.353  0.00  0.00     0.049 H 
ATOM     43  H   LIG d   1       2.641  -5.054  -8.133  0.00  0.00     0.049 H 
ENDBRANCH   5  30
BRANCH   3  44
ATOM     44  N   LIG d   1       3.715  -2.356  -3.934  0.00  0.00    -0.282 N 
ATOM     45  H   LIG d   1       3.277  -3.094  -3.483  0.00  0.00     0.155 HD
BRANCH  44  46
ATOM     46  C   LIG d   1       3.818  -1.110  -3.299  0.00  0.00     0.054 A 
ATOM     47  C   LIG d   1       3.015  -0.047  -3.712  0.00  0.00     0.046 A 
ATOM     48  C   LIG d   1       3.121   1.183  -3.081  0.00  0.00    -0.039 A 
ATOM     49  C   LIG d   1       4.022   1.353  -2.046  0.00  0.00    -0.060 A 
ATOM     50  H   LIG d   1       2.500   2.008  -3.398  0.00  0.00     0.064 H 
ATOM     51  C   LIG d   1       4.818   0.299  -1.637  0.00  0.00    -0.060 A 
ATOM     52  H   LIG d   1       4.103   2.311  -1.555  0.00  0.00     0.062 H 
ATOM     53  C   LIG d   1       4.715  -0.931  -2.257  0.00  0.00    -0.039 A 
ATOM     54  H   LIG d   1       5.520   0.438  -0.828  0.00  0.00     0.062 H 
ATOM     55  H   LIG d   1       5.335  -1.754  -1.932  0.00  0.00     0.064 H 
BRANCH  47  56
ATOM     56  N   LIG d   1       2.104  -0.221  -4.760  0.00  0.00    -0.356 N 
ATOM     57  H   LIG d   1       1.228  -0.599  -4.583  0.00  0.00     0.142 HD
ATOM     58  H   LIG d   1       2.348   0.034  -5.664  0.00  0.00     0.142 HD
ENDBRANCH  47  56
ENDBRANCH  44  46
ENDBRANCH   3  44
TORSDOF 7
ENDMDL
