MODEL 1
REMARK VINA RESULT:      -7.7      0.000      0.000
REMARK  6 active torsions:
REMARK  status: ('A' for Active; 'I' for Inactive)
REMARK    1  A    between atoms: C_1  and  C_2 
REMARK    2  A    between atoms: C_3  and  C_29 
REMARK    3  A    between atoms: C_9  and  O_13 
REMARK    4  A    between atoms: O_13  and  C_14 
REMARK       I    between atoms: C_14  and  N_16 
REMARK    5  A    between atoms: N_16  and  C_17 
REMARK    6  A    between atoms: N_16  and  C_23 
ROOT
ATOM      1  C   LIG d   1       9.885   4.537  -6.233  0.00  0.00     0.114 A 
ATOM      2  C   LIG d   1       9.989   4.822  -4.908  0.00  0.00     0.067 A 
ATOM      3  C   LIG d   1       9.428   3.871  -3.934  0.00  0.00     0.200 A 
ATOM      4  O   LIG d   1       9.491   4.074  -2.734  0.00  0.00    -0.286 OA
ATOM      5  C   LIG d   1       8.785   2.662  -4.480  0.00  0.00     0.065 A 
ATOM      6  C   LIG d   1       8.223   1.699  -3.641  0.00  0.00    -0.044 A 
ATOM      7  C   LIG d   1       7.629   0.593  -4.180  0.00  0.00    -0.018 A 
ATOM      8  C   LIG d   1       7.594   0.418  -5.561  0.00  0.00     0.137 A 
ATOM      9  C   LIG d   1       8.146   1.364  -6.406  0.00  0.00     0.024 A 
ATOM     10  C   LIG d   1       8.749   2.497  -5.875  0.00  0.00     0.142 A 
ATOM     11  O   LIG d   1       9.293   3.428  -6.684  0.00  0.00    -0.459 OA
ATOM     12  H   LIG d   1       8.252   1.831  -2.569  0.00  0.00     0.063 H 
ATOM     13  H   LIG d   1       7.190  -0.150  -3.532  0.00  0.00     0.065 H 
ATOM     14  H   LIG d   1       8.111   1.221  -7.476  0.00  0.00     0.069 H 
ENDROOT
BRANCH   8  15
ATOM     15  O   LIG d   1       7.005  -0.689  -6.083  0.00  0.00    -0.411 OA
BRANCH  15  16
ATOM     16  C   LIG d   1       6.065  -0.494  -7.028  0.00  0.00     0.417 C 
ATOM     17  O   LIG d   1       6.392  -0.146  -8.146  0.00  0.00    -0.225 OA
ATOM     18  N   LIG d   1       4.764  -0.685  -6.735  0.00  0.00    -0.206 N 
BRANCH  18  19
ATOM     19  C   LIG d   1       4.382  -1.011  -5.428  0.00  0.00     0.044 A 
ATOM     20  C   LIG d   1       3.669  -0.096  -4.663  0.00  0.00    -0.040 A 
ATOM     21  C   LIG d   1       3.289  -0.422  -3.376  0.00  0.00    -0.060 A 
ATOM     22  H   LIG d   1       3.413   0.868  -5.075  0.00  0.00     0.064 H 
ATOM     23  C   LIG d   1       3.618  -1.657  -2.848  0.00  0.00    -0.062 A 
ATOM     24  H   LIG d   1       2.734   0.288  -2.781  0.00  0.00     0.062 H 
ATOM     25  C   LIG d   1       4.326  -2.570  -3.607  0.00  0.00    -0.060 A 
ATOM     26  H   LIG d   1       3.320  -1.909  -1.841  0.00  0.00     0.062 H 
ATOM     27  C   LIG d   1       4.709  -2.251  -4.895  0.00  0.00    -0.040 A 
ATOM     28  H   LIG d   1       4.581  -3.534  -3.192  0.00  0.00     0.062 H 
ATOM     29  H   LIG d   1       5.264  -2.964  -5.487  0.00  0.00     0.064 H 
ENDBRANCH  18  19
BRANCH  18  30
ATOM     30  C   LIG d   1       3.794  -0.558  -7.737  0.00  0.00     0.044 A 
ATOM     31  C   LIG d   1       3.313  -1.688  -8.386  0.00  0.00    -0.040 A 
ATOM     32  C   LIG d   1       2.357  -1.560  -9.374  0.00  0.00    -0.060 A 
ATOM     33  H   LIG d   1       3.686  -2.666  -8.119  0.00  0.00     0.064 H 
ATOM     34  C   LIG d   1       1.878  -0.308  -9.717  0.00  0.00    -0.062 A 
ATOM     35  H   LIG d   1       1.982  -2.438  -9.880  0.00  0.00     0.062 H 
ATOM     36  C   LIG d   1       2.355   0.818  -9.072  0.00  0.00    -0.060 A 
ATOM     37  H   LIG d   1       1.130  -0.211 -10.491  0.00  0.00     0.062 H 
ATOM     38  C   LIG d   1       3.307   0.696  -8.080  0.00  0.00    -0.040 A 
ATOM     39  H   LIG d   1       1.979   1.794  -9.342  0.00  0.00     0.062 H 
ATOM     40  H   LIG d   1       3.677   1.575  -7.573  0.00  0.00     0.064 H 
ENDBRANCH  18  30
ENDBRANCH  15  16
ENDBRANCH   8  15
BRANCH   1  41
ATOM     41  C   LIG d   1      10.459   5.509  -7.231  0.00  0.00    -0.006 C 
ATOM     42  H   LIG d   1       9.704   5.748  -7.979  0.00  0.00     0.031 H 
ATOM     43  H   LIG d   1      10.763   6.420  -6.716  0.00  0.00     0.031 H 
ATOM     44  H   LIG d   1      11.326   5.061  -7.718  0.00  0.00     0.031 H 
ENDBRANCH   1  41
BRANCH   2  45
ATOM     45  C   LIG d   1      10.655   6.067  -4.454  0.00  0.00    -0.011 A 
ATOM     46  C   LIG d   1       9.912   7.233  -4.277  0.00  0.00    -0.054 A 
ATOM     47  C   LIG d   1      10.536   8.388  -3.853  0.00  0.00    -0.061 A 
ATOM     48  H   LIG d   1       8.849   7.232  -4.472  0.00  0.00     0.062 H 
ATOM     49  C   LIG d   1      11.897   8.391  -3.603  0.00  0.00    -0.062 A 
ATOM     50  H   LIG d   1       9.962   9.292  -3.716  0.00  0.00     0.062 H 
ATOM     51  C   LIG d   1      12.639   7.236  -3.776  0.00  0.00    -0.061 A 
ATOM     52  H   LIG d   1      12.381   9.297  -3.272  0.00  0.00     0.062 H 
ATOM     53  C   LIG d   1      12.024   6.073  -4.194  0.00  0.00    -0.054 A 
ATOM     54  H   LIG d   1      13.701   7.243  -3.580  0.00  0.00     0.062 H 
ATOM     55  H   LIG d   1      12.604   5.171  -4.325  0.00  0.00     0.062 H 
ENDBRANCH   2  45
TORSDOF 6
ENDMDL
MODEL 2
REMARK VINA RESULT:      -7.5      5.698     11.308
REMARK  6 active torsions:
REMARK  status: ('A' for Active; 'I' for Inactive)
REMARK    1  A    between atoms: C_1  and  C_2 
REMARK    2  A    between atoms: C_3  and  C_29 
REMARK    3  A    between atoms: C_9  and  O_13 
REMARK    4  A    between atoms: O_13  and  C_14 
REMARK       I    between atoms: C_14  and  N_16 
REMARK    5  A    between atoms: N_16  and  C_17 
REMARK    6  A    between atoms: N_16  and  C_23 
ROOT
ATOM      1  C   LIG d   1       5.016  -9.299  -4.829  0.00  0.00     0.114 A 
ATOM      2  C   LIG d   1       6.368  -9.440  -4.838  0.00  0.00     0.067 A 
ATOM      3  C   LIG d   1       7.200  -8.255  -5.108  0.00  0.00     0.200 A 
ATOM      4  O   LIG d   1       8.417  -8.321  -5.129  0.00  0.00    -0.286 OA
ATOM      5  C   LIG d   1       6.491  -6.986  -5.353  0.00  0.00     0.065 A 
ATOM      6  C   LIG d   1       7.187  -5.807  -5.618  0.00  0.00    -0.044 A 
ATOM      7  C   LIG d   1       6.499  -4.649  -5.846  0.00  0.00    -0.018 A 
ATOM      8  C   LIG d   1       5.107  -4.640  -5.804  0.00  0.00     0.137 A 
ATOM      9  C   LIG d   1       4.402  -5.802  -5.542  0.00  0.00     0.024 A 
ATOM     10  C   LIG d   1       5.086  -6.989  -5.313  0.00  0.00     0.142 A 
ATOM     11  O   LIG d   1       4.415  -8.129  -5.057  0.00  0.00    -0.459 OA
ATOM     12  H   LIG d   1       8.268  -5.810  -5.647  0.00  0.00     0.063 H 
ATOM     13  H   LIG d   1       7.037  -3.737  -6.056  0.00  0.00     0.065 H 
ATOM     14  H   LIG d   1       3.322  -5.785  -5.515  0.00  0.00     0.069 H 
ENDROOT
BRANCH   8  15
ATOM     15  O   LIG d   1       4.435  -3.480  -6.027  0.00  0.00    -0.411 OA
BRANCH  15  16
ATOM     16  C   LIG d   1       4.360  -2.610  -5.003  0.00  0.00     0.417 C 
ATOM     17  O   LIG d   1       4.293  -3.021  -3.861  0.00  0.00    -0.225 OA
ATOM     18  N   LIG d   1       4.361  -1.284  -5.243  0.00  0.00    -0.206 N 
BRANCH  18  19
ATOM     19  C   LIG d   1       4.362  -0.812  -6.561  0.00  0.00     0.044 A 
ATOM     20  C   LIG d   1       3.168  -0.440  -7.167  0.00  0.00    -0.040 A 
ATOM     21  C   LIG d   1       3.172   0.030  -8.466  0.00  0.00    -0.060 A 
ATOM     22  H   LIG d   1       2.239  -0.519  -6.623  0.00  0.00     0.064 H 
ATOM     23  C   LIG d   1       4.362   0.131  -9.163  0.00  0.00    -0.062 A 
ATOM     24  H   LIG d   1       2.245   0.320  -8.937  0.00  0.00     0.062 H 
ATOM     25  C   LIG d   1       5.551  -0.238  -8.562  0.00  0.00    -0.060 A 
ATOM     26  H   LIG d   1       4.362   0.498 -10.178  0.00  0.00     0.062 H 
ATOM     27  C   LIG d   1       5.555  -0.708  -7.264  0.00  0.00    -0.040 A 
ATOM     28  H   LIG d   1       6.480  -0.158  -9.110  0.00  0.00     0.062 H 
ATOM     29  H   LIG d   1       6.484  -0.997  -6.795  0.00  0.00     0.064 H 
ENDBRANCH  18  19
BRANCH  18  30
ATOM     30  C   LIG d   1       4.362  -0.378  -4.175  0.00  0.00     0.044 A 
ATOM     31  C   LIG d   1       3.165  -0.005  -3.579  0.00  0.00    -0.040 A 
ATOM     32  C   LIG d   1       3.168   0.888  -2.526  0.00  0.00    -0.060 A 
ATOM     33  H   LIG d   1       2.232  -0.413  -3.937  0.00  0.00     0.064 H 
ATOM     34  C   LIG d   1       4.363   1.412  -2.065  0.00  0.00    -0.062 A 
ATOM     35  H   LIG d   1       2.238   1.179  -2.061  0.00  0.00     0.062 H 
ATOM     36  C   LIG d   1       5.557   1.042  -2.657  0.00  0.00    -0.060 A 
ATOM     37  H   LIG d   1       4.363   2.111  -1.241  0.00  0.00     0.062 H 
ATOM     38  C   LIG d   1       5.560   0.144  -3.706  0.00  0.00    -0.040 A 
ATOM     39  H   LIG d   1       6.488   1.452  -2.295  0.00  0.00     0.062 H 
ATOM     40  H   LIG d   1       6.493  -0.148  -4.165  0.00  0.00     0.064 H 
ENDBRANCH  18  30
ENDBRANCH  15  16
ENDBRANCH   8  15
BRANCH   1  41
ATOM     41  C   LIG d   1       4.164 -10.510  -4.553  0.00  0.00    -0.006 C 
ATOM     42  H   LIG d   1       3.794 -10.468  -3.529  0.00  0.00     0.031 H 
ATOM     43  H   LIG d   1       3.321 -10.526  -5.244  0.00  0.00     0.031 H 
ATOM     44  H   LIG d   1       4.760 -11.413  -4.688  0.00  0.00     0.031 H 
ENDBRANCH   1  41
BRANCH   2  45
ATOM     45  C   LIG d   1       6.992 -10.760  -4.581  0.00  0.00    -0.011 A 
ATOM     46  C   LIG d   1       7.297 -11.148  -3.277  0.00  0.00    -0.054 A 
ATOM     47  C   LIG d   1       7.876 -12.378  -3.043  0.00  0.00    -0.061 A 
ATOM     48  H   LIG d   1       7.079 -10.486  -2.451  0.00  0.00     0.062 H 
ATOM     49  C   LIG d   1       8.156 -13.226  -4.099  0.00  0.00    -0.062 A 
ATOM     50  H   LIG d   1       8.114 -12.679  -2.034  0.00  0.00     0.062 H 
ATOM     51  C   LIG d   1       7.855 -12.847  -5.396  0.00  0.00    -0.061 A 
ATOM     52  H   LIG d   1       8.610 -14.187  -3.912  0.00  0.00     0.062 H 
ATOM     53  C   LIG d   1       7.269 -11.621  -5.641  0.00  0.00    -0.054 A 
ATOM     54  H   LIG d   1       8.075 -13.513  -6.217  0.00  0.00     0.062 H 
ATOM     55  H   LIG d   1       7.031 -11.328  -6.653  0.00  0.00     0.062 H 
ENDBRANCH   2  45
TORSDOF 6
ENDMDL
MODEL 3
REMARK VINA RESULT:      -7.4      5.500     10.546
REMARK  6 active torsions:
REMARK  status: ('A' for Active; 'I' for Inactive)
REMARK    1  A    between atoms: C_1  and  C_2 
REMARK    2  A    between atoms: C_3  and  C_29 
REMARK    3  A    between atoms: C_9  and  O_13 
REMARK    4  A    between atoms: O_13  and  C_14 
REMARK       I    between atoms: C_14  and  N_16 
REMARK    5  A    between atoms: N_16  and  C_17 
REMARK    6  A    between atoms: N_16  and  C_23 
ROOT
ATOM      1  C   LIG d   1       5.336  -8.919  -5.674  0.00  0.00     0.114 A 
ATOM      2  C   LIG d   1       6.693  -8.957  -5.731  0.00  0.00     0.067 A 
ATOM      3  C   LIG d   1       7.439  -7.690  -5.649  0.00  0.00     0.200 A 
ATOM      4  O   LIG d   1       8.657  -7.662  -5.696  0.00  0.00    -0.286 OA
ATOM      5  C   LIG d   1       6.643  -6.457  -5.509  0.00  0.00     0.065 A 
ATOM      6  C   LIG d   1       7.254  -5.206  -5.423  0.00  0.00    -0.044 A 
ATOM      7  C   LIG d   1       6.487  -4.083  -5.300  0.00  0.00    -0.018 A 
ATOM      8  C   LIG d   1       5.099  -4.183  -5.248  0.00  0.00     0.137 A 
ATOM      9  C   LIG d   1       4.477  -5.417  -5.333  0.00  0.00     0.024 A 
ATOM     10  C   LIG d   1       5.242  -6.569  -5.464  0.00  0.00     0.142 A 
ATOM     11  O   LIG d   1       4.653  -7.778  -5.546  0.00  0.00    -0.459 OA
ATOM     12  H   LIG d   1       8.331  -5.126  -5.459  0.00  0.00     0.063 H 
ATOM     13  H   LIG d   1       6.959  -3.114  -5.238  0.00  0.00     0.065 H 
ATOM     14  H   LIG d   1       3.400  -5.484  -5.295  0.00  0.00     0.069 H 
ENDROOT
BRANCH   8  15
ATOM     15  O   LIG d   1       4.348  -3.059  -5.120  0.00  0.00    -0.411 OA
BRANCH  15  16
ATOM     16  C   LIG d   1       4.340  -2.207  -6.162  0.00  0.00     0.417 C 
ATOM     17  O   LIG d   1       4.354  -2.638  -7.299  0.00  0.00    -0.225 OA
ATOM     18  N   LIG d   1       4.314  -0.877  -5.946  0.00  0.00    -0.206 N 
BRANCH  18  19
ATOM     19  C   LIG d   1       4.375  -0.379  -4.639  0.00  0.00     0.044 A 
ATOM     20  C   LIG d   1       3.207  -0.189  -3.912  0.00  0.00    -0.040 A 
ATOM     21  C   LIG d   1       3.270   0.298  -2.621  0.00  0.00    -0.060 A 
ATOM     22  H   LIG d   1       2.250  -0.421  -4.356  0.00  0.00     0.064 H 
ATOM     23  C   LIG d   1       4.495   0.596  -2.052  0.00  0.00    -0.062 A 
ATOM     24  H   LIG d   1       2.363   0.446  -2.055  0.00  0.00     0.062 H 
ATOM     25  C   LIG d   1       5.659   0.407  -2.773  0.00  0.00    -0.060 A 
ATOM     26  H   LIG d   1       4.542   0.977  -1.043  0.00  0.00     0.062 H 
ATOM     27  C   LIG d   1       5.603  -0.080  -4.064  0.00  0.00    -0.040 A 
ATOM     28  H   LIG d   1       6.615   0.641  -2.326  0.00  0.00     0.062 H 
ATOM     29  H   LIG d   1       6.513  -0.226  -4.628  0.00  0.00     0.064 H 
ENDBRANCH  18  19
BRANCH  18  30
ATOM     30  C   LIG d   1       4.227   0.007  -7.029  0.00  0.00     0.044 A 
ATOM     31  C   LIG d   1       2.994   0.519  -7.412  0.00  0.00    -0.040 A 
ATOM     32  C   LIG d   1       2.911   1.390  -8.479  0.00  0.00    -0.060 A 
ATOM     33  H   LIG d   1       2.101   0.236  -6.875  0.00  0.00     0.064 H 
ATOM     34  C   LIG d   1       4.054   1.754  -9.167  0.00  0.00    -0.062 A 
ATOM     35  H   LIG d   1       1.952   1.789  -8.778  0.00  0.00     0.062 H 
ATOM     36  C   LIG d   1       5.284   1.246  -8.788  0.00  0.00    -0.060 A 
ATOM     37  H   LIG d   1       3.986   2.436 -10.003  0.00  0.00     0.062 H 
ATOM     38  C   LIG d   1       5.374   0.379  -7.718  0.00  0.00    -0.040 A 
ATOM     39  H   LIG d   1       6.175   1.532  -9.328  0.00  0.00     0.062 H 
ATOM     40  H   LIG d   1       6.334  -0.014  -7.420  0.00  0.00     0.064 H 
ENDBRANCH  18  30
ENDBRANCH  15  16
ENDBRANCH   8  15
BRANCH   1  41
ATOM     41  C   LIG d   1       4.571 -10.214  -5.757  0.00  0.00    -0.006 C 
ATOM     42  H   LIG d   1       4.344 -10.567  -4.752  0.00  0.00     0.031 H 
ATOM     43  H   LIG d   1       3.642 -10.053  -6.305  0.00  0.00     0.031 H 
ATOM     44  H   LIG d   1       5.173 -10.960  -6.277  0.00  0.00     0.031 H 
ENDBRANCH   1  41
BRANCH   2  45
ATOM     45  C   LIG d   1       7.407 -10.248  -5.874  0.00  0.00    -0.011 A 
ATOM     46  C   LIG d   1       7.786 -10.967  -4.742  0.00  0.00    -0.054 A 
ATOM     47  C   LIG d   1       8.450 -12.168  -4.880  0.00  0.00    -0.061 A 
ATOM     48  H   LIG d   1       7.561 -10.584  -3.757  0.00  0.00     0.062 H 
ATOM     49  C   LIG d   1       8.740 -12.661  -6.140  0.00  0.00    -0.062 A 
ATOM     50  H   LIG d   1       8.746 -12.726  -4.004  0.00  0.00     0.062 H 
ATOM     51  C   LIG d   1       8.366 -11.952  -7.268  0.00  0.00    -0.061 A 
ATOM     52  H   LIG d   1       9.261 -13.601  -6.243  0.00  0.00     0.062 H 
ATOM     53  C   LIG d   1       7.696 -10.752  -7.141  0.00  0.00    -0.054 A 
ATOM     54  H   LIG d   1       8.595 -12.340  -8.249  0.00  0.00     0.062 H 
ATOM     55  H   LIG d   1       7.401 -10.202  -8.023  0.00  0.00     0.062 H 
ENDBRANCH   2  45
TORSDOF 6
ENDMDL
MODEL 4
REMARK VINA RESULT:      -7.4      5.156      8.195
REMARK  6 active torsions:
REMARK  status: ('A' for Active; 'I' for Inactive)
REMARK    1  A    between atoms: C_1  and  C_2 
REMARK    2  A    between atoms: C_3  and  C_29 
REMARK    3  A    between atoms: C_9  and  O_13 
REMARK    4  A    between atoms: O_13  and  C_14 
REMARK       I    between atoms: C_14  and  N_16 
REMARK    5  A    between atoms: N_16  and  C_17 
REMARK    6  A    between atoms: N_16  and  C_23 
ROOT
ATOM      1  C   LIG d   1       9.990  -4.476  -3.884  0.00  0.00     0.114 A 
ATOM      2  C   LIG d   1      10.051  -5.773  -4.286  0.00  0.00     0.067 A 
ATOM      3  C   LIG d   1       8.853  -6.382  -4.888  0.00  0.00     0.200 A 
ATOM      4  O   LIG d   1       8.848  -7.541  -5.267  0.00  0.00    -0.286 OA
ATOM      5  C   LIG d   1       7.660  -5.525  -5.011  0.00  0.00     0.065 A 
ATOM      6  C   LIG d   1       6.475  -6.006  -5.567  0.00  0.00    -0.044 A 
ATOM      7  C   LIG d   1       5.387  -5.187  -5.660  0.00  0.00    -0.018 A 
ATOM      8  C   LIG d   1       5.459  -3.870  -5.212  0.00  0.00     0.137 A 
ATOM      9  C   LIG d   1       6.627  -3.377  -4.657  0.00  0.00     0.024 A 
ATOM     10  C   LIG d   1       7.742  -4.199  -4.550  0.00  0.00     0.142 A 
ATOM     11  O   LIG d   1       8.887  -3.734  -4.014  0.00  0.00    -0.459 OA
ATOM     12  H   LIG d   1       6.417  -7.027  -5.919  0.00  0.00     0.063 H 
ATOM     13  H   LIG d   1       4.467  -5.560  -6.086  0.00  0.00     0.065 H 
ATOM     14  H   LIG d   1       6.673  -2.355  -4.310  0.00  0.00     0.069 H 
ENDROOT
BRANCH   8  15
ATOM     15  O   LIG d   1       4.370  -3.064  -5.315  0.00  0.00    -0.411 OA
BRANCH  15  16
ATOM     16  C   LIG d   1       4.361  -2.176  -6.328  0.00  0.00     0.417 C 
ATOM     17  O   LIG d   1       4.418  -2.565  -7.477  0.00  0.00    -0.225 OA
ATOM     18  N   LIG d   1       4.287  -0.856  -6.066  0.00  0.00    -0.206 N 
BRANCH  18  19
ATOM     19  C   LIG d   1       4.298  -0.403  -4.741  0.00  0.00     0.044 A 
ATOM     20  C   LIG d   1       5.488   0.013  -4.158  0.00  0.00    -0.040 A 
ATOM     21  C   LIG d   1       5.496   0.463  -2.852  0.00  0.00    -0.060 A 
ATOM     22  H   LIG d   1       6.407  -0.017  -4.725  0.00  0.00     0.064 H 
ATOM     23  C   LIG d   1       4.319   0.501  -2.126  0.00  0.00    -0.062 A 
ATOM     24  H   LIG d   1       6.421   0.787  -2.399  0.00  0.00     0.062 H 
ATOM     25  C   LIG d   1       3.133   0.088  -2.703  0.00  0.00    -0.060 A 
ATOM     26  H   LIG d   1       4.328   0.853  -1.105  0.00  0.00     0.062 H 
ATOM     27  C   LIG d   1       3.119  -0.363  -4.009  0.00  0.00    -0.040 A 
ATOM     28  H   LIG d   1       2.216   0.118  -2.133  0.00  0.00     0.062 H 
ATOM     29  H   LIG d   1       2.192  -0.687  -4.459  0.00  0.00     0.064 H 
ENDBRANCH  18  19
BRANCH  18  30
ATOM     30  C   LIG d   1       4.198   0.063  -7.119  0.00  0.00     0.044 A 
ATOM     31  C   LIG d   1       2.968   0.605  -7.468  0.00  0.00    -0.040 A 
ATOM     32  C   LIG d   1       2.883   1.511  -8.506  0.00  0.00    -0.060 A 
ATOM     33  H   LIG d   1       2.078   0.319  -6.927  0.00  0.00     0.064 H 
ATOM     34  C   LIG d   1       4.023   1.878  -9.199  0.00  0.00    -0.062 A 
ATOM     35  H   LIG d   1       1.927   1.933  -8.778  0.00  0.00     0.062 H 
ATOM     36  C   LIG d   1       5.249   1.341  -8.854  0.00  0.00    -0.060 A 
ATOM     37  H   LIG d   1       3.954   2.587 -10.012  0.00  0.00     0.062 H 
ATOM     38  C   LIG d   1       5.341   0.439  -7.813  0.00  0.00    -0.040 A 
ATOM     39  H   LIG d   1       6.137   1.630  -9.398  0.00  0.00     0.062 H 
ATOM     40  H   LIG d   1       6.299   0.022  -7.541  0.00  0.00     0.064 H 
ENDBRANCH  18  30
ENDBRANCH  15  16
ENDBRANCH   8  15
BRANCH   1  41
ATOM     41  C   LIG d   1      11.215  -3.851  -3.268  0.00  0.00    -0.006 C 
ATOM     42  H   LIG d   1      11.510  -2.979  -3.851  0.00  0.00     0.031 H 
ATOM     43  H   LIG d   1      10.992  -3.548  -2.245  0.00  0.00     0.031 H 
ATOM     44  H   LIG d   1      12.029  -4.577  -3.262  0.00  0.00     0.031 H 
ENDBRANCH   1  41
BRANCH   2  45
ATOM     45  C   LIG d   1      11.298  -6.558  -4.122  0.00  0.00    -0.011 A 
ATOM     46  C   LIG d   1      11.525  -7.271  -2.946  0.00  0.00    -0.054 A 
ATOM     47  C   LIG d   1      12.686  -8.001  -2.798  0.00  0.00    -0.061 A 
ATOM     48  H   LIG d   1      10.793  -7.253  -2.152  0.00  0.00     0.062 H 
ATOM     49  C   LIG d   1      13.625  -8.026  -3.814  0.00  0.00    -0.062 A 
ATOM     50  H   LIG d   1      12.865  -8.554  -1.888  0.00  0.00     0.062 H 
ATOM     51  C   LIG d   1      13.405  -7.320  -4.984  0.00  0.00    -0.061 A 
ATOM     52  H   LIG d   1      14.533  -8.597  -3.694  0.00  0.00     0.062 H 
ATOM     53  C   LIG d   1      12.244  -6.591  -5.145  0.00  0.00    -0.054 A 
ATOM     54  H   LIG d   1      14.141  -7.342  -5.774  0.00  0.00     0.062 H 
ATOM     55  H   LIG d   1      12.071  -6.044  -6.060  0.00  0.00     0.062 H 
ENDBRANCH   2  45
TORSDOF 6
ENDMDL
MODEL 5
REMARK VINA RESULT:      -7.3      1.616      2.736
REMARK  6 active torsions:
REMARK  status: ('A' for Active; 'I' for Inactive)
REMARK    1  A    between atoms: C_1  and  C_2 
REMARK    2  A    between atoms: C_3  and  C_29 
REMARK    3  A    between atoms: C_9  and  O_13 
REMARK    4  A    between atoms: O_13  and  C_14 
REMARK       I    between atoms: C_14  and  N_16 
REMARK    5  A    between atoms: N_16  and  C_17 
REMARK    6  A    between atoms: N_16  and  C_23 
ROOT
ATOM      1  C   LIG d   1       9.613   4.002  -3.487  0.00  0.00     0.114 A 
ATOM      2  C   LIG d   1       9.760   4.508  -4.740  0.00  0.00     0.067 A 
ATOM      3  C   LIG d   1       9.313   3.698  -5.885  0.00  0.00     0.200 A 
ATOM      4  O   LIG d   1       9.419   4.099  -7.032  0.00  0.00    -0.286 OA
ATOM      5  C   LIG d   1       8.731   2.378  -5.580  0.00  0.00     0.065 A 
ATOM      6  C   LIG d   1       8.278   1.534  -6.594  0.00  0.00    -0.044 A 
ATOM      7  C   LIG d   1       7.750   0.315  -6.277  0.00  0.00    -0.018 A 
ATOM      8  C   LIG d   1       7.652  -0.084  -4.946  0.00  0.00     0.137 A 
ATOM      9  C   LIG d   1       8.098   0.742  -3.928  0.00  0.00     0.024 A 
ATOM     10  C   LIG d   1       8.642   1.983  -4.234  0.00  0.00     0.142 A 
ATOM     11  O   LIG d   1       9.080   2.799  -3.255  0.00  0.00    -0.459 OA
ATOM     12  H   LIG d   1       8.349   1.841  -7.628  0.00  0.00     0.063 H 
ATOM     13  H   LIG d   1       7.403  -0.341  -7.061  0.00  0.00     0.065 H 
ATOM     14  H   LIG d   1       8.021   0.423  -2.899  0.00  0.00     0.069 H 
ENDROOT
BRANCH   8  15
ATOM     15  O   LIG d   1       7.120  -1.296  -4.644  0.00  0.00    -0.411 OA
BRANCH  15  16
ATOM     16  C   LIG d   1       6.546  -1.980  -5.652  0.00  0.00     0.417 C 
ATOM     17  O   LIG d   1       7.235  -2.441  -6.542  0.00  0.00    -0.225 OA
ATOM     18  N   LIG d   1       5.210  -2.155  -5.674  0.00  0.00    -0.206 N 
BRANCH  18  19
ATOM     19  C   LIG d   1       4.411  -1.559  -4.691  0.00  0.00     0.044 A 
ATOM     20  C   LIG d   1       4.218  -2.195  -3.471  0.00  0.00    -0.040 A 
ATOM     21  C   LIG d   1       3.431  -1.603  -2.502  0.00  0.00    -0.060 A 
ATOM     22  H   LIG d   1       4.681  -3.152  -3.282  0.00  0.00     0.064 H 
ATOM     23  C   LIG d   1       2.838  -0.378  -2.746  0.00  0.00    -0.062 A 
ATOM     24  H   LIG d   1       3.282  -2.096  -1.554  0.00  0.00     0.062 H 
ATOM     25  C   LIG d   1       3.028   0.258  -3.958  0.00  0.00    -0.060 A 
ATOM     26  H   LIG d   1       2.224   0.083  -1.986  0.00  0.00     0.062 H 
ATOM     27  C   LIG d   1       3.813  -0.329  -4.932  0.00  0.00    -0.040 A 
ATOM     28  H   LIG d   1       2.563   1.215  -4.145  0.00  0.00     0.062 H 
ATOM     29  H   LIG d   1       3.961   0.168  -5.879  0.00  0.00     0.064 H 
ENDBRANCH  18  19
BRANCH  18  30
ATOM     30  C   LIG d   1       4.622  -2.932  -6.680  0.00  0.00     0.044 A 
ATOM     31  C   LIG d   1       4.410  -4.289  -6.475  0.00  0.00    -0.040 A 
ATOM     32  C   LIG d   1       3.829  -5.053  -7.468  0.00  0.00    -0.060 A 
ATOM     33  H   LIG d   1       4.697  -4.747  -5.541  0.00  0.00     0.064 H 
ATOM     34  C   LIG d   1       3.460  -4.467  -8.666  0.00  0.00    -0.062 A 
ATOM     35  H   LIG d   1       3.664  -6.108  -7.311  0.00  0.00     0.062 H 
ATOM     36  C   LIG d   1       3.669  -3.116  -8.872  0.00  0.00    -0.060 A 
ATOM     37  H   LIG d   1       3.006  -5.067  -9.442  0.00  0.00     0.062 H 
ATOM     38  C   LIG d   1       4.244  -2.346  -7.881  0.00  0.00    -0.040 A 
ATOM     39  H   LIG d   1       3.380  -2.662  -9.808  0.00  0.00     0.062 H 
ATOM     40  H   LIG d   1       4.404  -1.290  -8.040  0.00  0.00     0.064 H 
ENDBRANCH  18  30
ENDBRANCH  15  16
ENDBRANCH   8  15
BRANCH   1  41
ATOM     41  C   LIG d   1      10.070   4.830  -2.314  0.00  0.00    -0.006 C 
ATOM     42  H   LIG d   1      10.562   4.186  -1.585  0.00  0.00     0.031 H 
ATOM     43  H   LIG d   1      10.769   5.592  -2.657  0.00  0.00     0.031 H 
ATOM     44  H   LIG d   1       9.207   5.311  -1.851  0.00  0.00     0.031 H 
ENDBRANCH   1  41
BRANCH   2  45
ATOM     45  C   LIG d   1      10.357   5.848  -4.948  0.00  0.00    -0.011 A 
ATOM     46  C   LIG d   1      11.737   5.984  -5.096  0.00  0.00    -0.054 A 
ATOM     47  C   LIG d   1      12.288   7.233  -5.291  0.00  0.00    -0.061 A 
ATOM     48  H   LIG d   1      12.373   5.112  -5.058  0.00  0.00     0.062 H 
ATOM     49  C   LIG d   1      11.475   8.352  -5.340  0.00  0.00    -0.062 A 
ATOM     50  H   LIG d   1      13.356   7.341  -5.405  0.00  0.00     0.062 H 
ATOM     51  C   LIG d   1      10.104   8.223  -5.194  0.00  0.00    -0.061 A 
ATOM     52  H   LIG d   1      11.910   9.328  -5.491  0.00  0.00     0.062 H 
ATOM     53  C   LIG d   1       9.542   6.977  -5.005  0.00  0.00    -0.054 A 
ATOM     54  H   LIG d   1       9.474   9.099  -5.234  0.00  0.00     0.062 H 
ATOM     55  H   LIG d   1       8.472   6.878  -4.896  0.00  0.00     0.062 H 
ENDBRANCH   2  45
TORSDOF 6
ENDMDL
MODEL 6
REMARK VINA RESULT:      -7.3      3.907     10.343
REMARK  6 active torsions:
REMARK  status: ('A' for Active; 'I' for Inactive)
REMARK    1  A    between atoms: C_1  and  C_2 
REMARK    2  A    between atoms: C_3  and  C_29 
REMARK    3  A    between atoms: C_9  and  O_13 
REMARK    4  A    between atoms: O_13  and  C_14 
REMARK       I    between atoms: C_14  and  N_16 
REMARK    5  A    between atoms: N_16  and  C_17 
REMARK    6  A    between atoms: N_16  and  C_23 
ROOT
ATOM      1  C   LIG d   1       2.420  -3.854  -9.954  0.00  0.00     0.114 A 
ATOM      2  C   LIG d   1       1.632  -3.112 -10.774  0.00  0.00     0.067 A 
ATOM      3  C   LIG d   1       1.574  -1.655 -10.571  0.00  0.00     0.200 A 
ATOM      4  O   LIG d   1       0.883  -0.938 -11.276  0.00  0.00    -0.286 OA
ATOM      5  C   LIG d   1       2.389  -1.103  -9.474  0.00  0.00     0.065 A 
ATOM      6  C   LIG d   1       2.404   0.265  -9.199  0.00  0.00    -0.044 A 
ATOM      7  C   LIG d   1       3.166   0.741  -8.170  0.00  0.00    -0.018 A 
ATOM      8  C   LIG d   1       3.936  -0.130  -7.404  0.00  0.00     0.137 A 
ATOM      9  C   LIG d   1       3.932  -1.489  -7.664  0.00  0.00     0.024 A 
ATOM     10  C   LIG d   1       3.158  -1.992  -8.703  0.00  0.00     0.142 A 
ATOM     11  O   LIG d   1       3.144  -3.312  -8.970  0.00  0.00    -0.459 OA
ATOM     12  H   LIG d   1       1.810   0.944  -9.794  0.00  0.00     0.063 H 
ATOM     13  H   LIG d   1       3.174   1.800  -7.954  0.00  0.00     0.065 H 
ATOM     14  H   LIG d   1       4.530  -2.157  -7.062  0.00  0.00     0.069 H 
ENDROOT
BRANCH   8  15
ATOM     15  O   LIG d   1       4.694   0.359  -6.388  0.00  0.00    -0.411 OA
BRANCH  15  16
ATOM     16  C   LIG d   1       6.001   0.036  -6.390  0.00  0.00     0.417 C 
ATOM     17  O   LIG d   1       6.637   0.084  -7.425  0.00  0.00    -0.225 OA
ATOM     18  N   LIG d   1       6.605  -0.339  -5.245  0.00  0.00    -0.206 N 
BRANCH  18  19
ATOM     19  C   LIG d   1       5.856  -0.469  -4.069  0.00  0.00     0.044 A 
ATOM     20  C   LIG d   1       5.691   0.621  -3.226  0.00  0.00    -0.040 A 
ATOM     21  C   LIG d   1       4.948   0.491  -2.068  0.00  0.00    -0.060 A 
ATOM     22  H   LIG d   1       6.144   1.570  -3.474  0.00  0.00     0.064 H 
ATOM     23  C   LIG d   1       4.369  -0.723  -1.750  0.00  0.00    -0.062 A 
ATOM     24  H   LIG d   1       4.819   1.339  -1.413  0.00  0.00     0.062 H 
ATOM     25  C   LIG d   1       4.531  -1.810  -2.588  0.00  0.00    -0.060 A 
ATOM     26  H   LIG d   1       3.789  -0.822  -0.845  0.00  0.00     0.062 H 
ATOM     27  C   LIG d   1       5.272  -1.687  -3.747  0.00  0.00    -0.040 A 
ATOM     28  H   LIG d   1       4.077  -2.758  -2.336  0.00  0.00     0.062 H 
ATOM     29  H   LIG d   1       5.400  -2.538  -4.401  0.00  0.00     0.064 H 
ENDBRANCH  18  19
BRANCH  18  30
ATOM     30  C   LIG d   1       7.981  -0.600  -5.232  0.00  0.00     0.044 A 
ATOM     31  C   LIG d   1       8.886   0.450  -5.149  0.00  0.00    -0.040 A 
ATOM     32  C   LIG d   1      10.242   0.191  -5.136  0.00  0.00    -0.060 A 
ATOM     33  H   LIG d   1       8.531   1.468  -5.094  0.00  0.00     0.064 H 
ATOM     34  C   LIG d   1      10.699  -1.114  -5.205  0.00  0.00    -0.062 A 
ATOM     35  H   LIG d   1      10.948   1.006  -5.071  0.00  0.00     0.062 H 
ATOM     36  C   LIG d   1       9.800  -2.161  -5.287  0.00  0.00    -0.060 A 
ATOM     37  H   LIG d   1      11.761  -1.314  -5.195  0.00  0.00     0.062 H 
ATOM     38  C   LIG d   1       8.443  -1.908  -5.295  0.00  0.00    -0.040 A 
ATOM     39  H   LIG d   1      10.160  -3.178  -5.341  0.00  0.00     0.062 H 
ATOM     40  H   LIG d   1       7.740  -2.726  -5.355  0.00  0.00     0.064 H 
ENDBRANCH  18  30
ENDBRANCH  15  16
ENDBRANCH   8  15
BRANCH   1  41
ATOM     41  C   LIG d   1       2.481  -5.345 -10.160  0.00  0.00    -0.006 C 
ATOM     42  H   LIG d   1       3.361  -5.593 -10.753  0.00  0.00     0.031 H 
ATOM     43  H   LIG d   1       2.540  -5.844  -9.193  0.00  0.00     0.031 H 
ATOM     44  H   LIG d   1       1.583  -5.676 -10.685  0.00  0.00     0.031 H 
ENDBRANCH   1  41
BRANCH   2  45
ATOM     45  C   LIG d   1       0.845  -3.757 -11.853  0.00  0.00    -0.011 A 
ATOM     46  C   LIG d   1      -0.431  -4.251 -11.589  0.00  0.00    -0.054 A 
ATOM     47  C   LIG d   1      -1.159  -4.850 -12.597  0.00  0.00    -0.061 A 
ATOM     48  H   LIG d   1      -0.850  -4.166 -10.597  0.00  0.00     0.062 H 
ATOM     49  C   LIG d   1      -0.625  -4.961 -13.868  0.00  0.00    -0.062 A 
ATOM     50  H   LIG d   1      -2.147  -5.234 -12.394  0.00  0.00     0.062 H 
ATOM     51  C   LIG d   1       0.642  -4.472 -14.136  0.00  0.00    -0.061 A 
ATOM     52  H   LIG d   1      -1.197  -5.431 -14.653  0.00  0.00     0.062 H 
ATOM     53  C   LIG d   1       1.376  -3.865 -13.137  0.00  0.00    -0.054 A 
ATOM     54  H   LIG d   1       1.055  -4.560 -15.130  0.00  0.00     0.062 H 
ATOM     55  H   LIG d   1       2.363  -3.480 -13.349  0.00  0.00     0.062 H 
ENDBRANCH   2  45
TORSDOF 6
ENDMDL
MODEL 7
REMARK VINA RESULT:      -7.3      2.566      4.303
REMARK  6 active torsions:
REMARK  status: ('A' for Active; 'I' for Inactive)
REMARK    1  A    between atoms: C_1  and  C_2 
REMARK    2  A    between atoms: C_3  and  C_29 
REMARK    3  A    between atoms: C_9  and  O_13 
REMARK    4  A    between atoms: O_13  and  C_14 
REMARK       I    between atoms: C_14  and  N_16 
REMARK    5  A    between atoms: N_16  and  C_17 
REMARK    6  A    between atoms: N_16  and  C_23 
ROOT
ATOM      1  C   LIG d   1      10.001   6.608  -3.686  0.00  0.00     0.114 A 
ATOM      2  C   LIG d   1      10.115   6.958  -4.994  0.00  0.00     0.067 A 
ATOM      3  C   LIG d   1       9.879   5.931  -6.023  0.00  0.00     0.200 A 
ATOM      4  O   LIG d   1       9.968   6.187  -7.212  0.00  0.00    -0.286 OA
ATOM      5  C   LIG d   1       9.533   4.579  -5.548  0.00  0.00     0.065 A 
ATOM      6  C   LIG d   1       9.292   3.537  -6.442  0.00  0.00    -0.044 A 
ATOM      7  C   LIG d   1       8.979   2.295  -5.967  0.00  0.00    -0.018 A 
ATOM      8  C   LIG d   1       8.889   2.069  -4.596  0.00  0.00     0.137 A 
ATOM      9  C   LIG d   1       9.127   3.093  -3.696  0.00  0.00     0.024 A 
ATOM     10  C   LIG d   1       9.451   4.361  -4.162  0.00  0.00     0.142 A 
ATOM     11  O   LIG d   1       9.685   5.369  -3.299  0.00  0.00    -0.459 OA
ATOM     12  H   LIG d   1       9.357   3.710  -7.507  0.00  0.00     0.063 H 
ATOM     13  H   LIG d   1       8.796   1.485  -6.659  0.00  0.00     0.065 H 
ATOM     14  H   LIG d   1       9.059   2.907  -2.634  0.00  0.00     0.069 H 
ENDROOT
BRANCH   8  15
ATOM     15  O   LIG d   1       8.572   0.830  -4.138  0.00  0.00    -0.411 OA
BRANCH  15  16
ATOM     16  C   LIG d   1       7.299   0.629  -3.751  0.00  0.00     0.417 C 
ATOM     17  O   LIG d   1       6.715   1.484  -3.114  0.00  0.00    -0.225 OA
ATOM     18  N   LIG d   1       6.670  -0.520  -4.070  0.00  0.00    -0.206 N 
BRANCH  18  19
ATOM     19  C   LIG d   1       7.366  -1.536  -4.737  0.00  0.00     0.044 A 
ATOM     20  C   LIG d   1       7.988  -2.544  -4.012  0.00  0.00    -0.040 A 
ATOM     21  C   LIG d   1       8.670  -3.548  -4.672  0.00  0.00    -0.060 A 
ATOM     22  H   LIG d   1       7.940  -2.542  -2.933  0.00  0.00     0.064 H 
ATOM     23  C   LIG d   1       8.731  -3.550  -6.053  0.00  0.00    -0.062 A 
ATOM     24  H   LIG d   1       9.153  -4.332  -4.109  0.00  0.00     0.062 H 
ATOM     25  C   LIG d   1       8.112  -2.549  -6.778  0.00  0.00    -0.060 A 
ATOM     26  H   LIG d   1       9.265  -4.336  -6.567  0.00  0.00     0.062 H 
ATOM     27  C   LIG d   1       7.429  -1.542  -6.124  0.00  0.00    -0.040 A 
ATOM     28  H   LIG d   1       8.163  -2.554  -7.857  0.00  0.00     0.062 H 
ATOM     29  H   LIG d   1       6.946  -0.760  -6.690  0.00  0.00     0.064 H 
ENDBRANCH  18  19
BRANCH  18  30
ATOM     30  C   LIG d   1       5.322  -0.697  -3.736  0.00  0.00     0.044 A 
ATOM     31  C   LIG d   1       4.329  -0.139  -4.530  0.00  0.00    -0.040 A 
ATOM     32  C   LIG d   1       3.001  -0.315  -4.198  0.00  0.00    -0.060 A 
ATOM     33  H   LIG d   1       4.595   0.431  -5.408  0.00  0.00     0.064 H 
ATOM     34  C   LIG d   1       2.658  -1.047  -3.075  0.00  0.00    -0.062 A 
ATOM     35  H   LIG d   1       2.227   0.118  -4.815  0.00  0.00     0.062 H 
ATOM     36  C   LIG d   1       3.645  -1.604  -2.282  0.00  0.00    -0.060 A 
ATOM     37  H   LIG d   1       1.618  -1.183  -2.817  0.00  0.00     0.062 H 
ATOM     38  C   LIG d   1       4.975  -1.436  -2.612  0.00  0.00    -0.040 A 
ATOM     39  H   LIG d   1       3.374  -2.175  -1.406  0.00  0.00     0.062 H 
ATOM     40  H   LIG d   1       5.745  -1.874  -1.995  0.00  0.00     0.064 H 
ENDBRANCH  18  30
ENDBRANCH  15  16
ENDBRANCH   8  15
BRANCH   1  41
ATOM     41  C   LIG d   1      10.240   7.657  -2.632  0.00  0.00    -0.006 C 
ATOM     42  H   LIG d   1       9.752   8.585  -2.926  0.00  0.00     0.031 H 
ATOM     43  H   LIG d   1       9.832   7.316  -1.680  0.00  0.00     0.031 H 
ATOM     44  H   LIG d   1      11.313   7.827  -2.526  0.00  0.00     0.031 H 
ENDBRANCH   1  41
BRANCH   2  45
ATOM     45  C   LIG d   1      10.468   8.346  -5.377  0.00  0.00    -0.011 A 
ATOM     46  C   LIG d   1      11.805   8.715  -5.511  0.00  0.00    -0.054 A 
ATOM     47  C   LIG d   1      12.129  10.008  -5.868  0.00  0.00    -0.061 A 
ATOM     48  H   LIG d   1      12.587   7.991  -5.336  0.00  0.00     0.062 H 
ATOM     49  C   LIG d   1      11.130  10.938  -6.093  0.00  0.00    -0.062 A 
ATOM     50  H   LIG d   1      13.165  10.296  -5.972  0.00  0.00     0.062 H 
ATOM     51  C   LIG d   1       9.800  10.577  -5.962  0.00  0.00    -0.061 A 
ATOM     52  H   LIG d   1      11.388  11.948  -6.371  0.00  0.00     0.062 H 
ATOM     53  C   LIG d   1       9.465   9.285  -5.611  0.00  0.00    -0.054 A 
ATOM     54  H   LIG d   1       9.024  11.306  -6.138  0.00  0.00     0.062 H 
ATOM     55  H   LIG d   1       8.427   9.003  -5.513  0.00  0.00     0.062 H 
ENDBRANCH   2  45
TORSDOF 6
ENDMDL
MODEL 8
REMARK VINA RESULT:      -7.3      2.708      4.211
REMARK  6 active torsions:
REMARK  status: ('A' for Active; 'I' for Inactive)
REMARK    1  A    between atoms: C_1  and  C_2 
REMARK    2  A    between atoms: C_3  and  C_29 
REMARK    3  A    between atoms: C_9  and  O_13 
REMARK    4  A    between atoms: O_13  and  C_14 
REMARK       I    between atoms: C_14  and  N_16 
REMARK    5  A    between atoms: N_16  and  C_17 
REMARK    6  A    between atoms: N_16  and  C_23 
ROOT
ATOM      1  C   LIG d   1       9.593   4.153  -8.425  0.00  0.00     0.114 A 
ATOM      2  C   LIG d   1      10.131   5.265  -7.860  0.00  0.00     0.067 A 
ATOM      3  C   LIG d   1      10.199   5.350  -6.392  0.00  0.00     0.200 A 
ATOM      4  O   LIG d   1      10.671   6.323  -5.829  0.00  0.00    -0.286 OA
ATOM      5  C   LIG d   1       9.668   4.202  -5.634  0.00  0.00     0.065 A 
ATOM      6  C   LIG d   1       9.686   4.183  -4.239  0.00  0.00    -0.044 A 
ATOM      7  C   LIG d   1       9.181   3.106  -3.568  0.00  0.00    -0.018 A 
ATOM      8  C   LIG d   1       8.659   2.023  -4.271  0.00  0.00     0.137 A 
ATOM      9  C   LIG d   1       8.634   2.026  -5.655  0.00  0.00     0.024 A 
ATOM     10  C   LIG d   1       9.139   3.116  -6.352  0.00  0.00     0.142 A 
ATOM     11  O   LIG d   1       9.123   3.134  -7.700  0.00  0.00    -0.459 OA
ATOM     12  H   LIG d   1      10.094   5.021  -3.691  0.00  0.00     0.063 H 
ATOM     13  H   LIG d   1       9.190   3.093  -2.488  0.00  0.00     0.065 H 
ATOM     14  H   LIG d   1       8.224   1.183  -6.190  0.00  0.00     0.069 H 
ENDROOT
BRANCH   8  15
ATOM     15  O   LIG d   1       8.165   0.956  -3.591  0.00  0.00    -0.411 OA
BRANCH  15  16
ATOM     16  C   LIG d   1       6.825   0.861  -3.492  0.00  0.00     0.417 C 
ATOM     17  O   LIG d   1       6.183   1.790  -3.042  0.00  0.00    -0.225 OA
ATOM     18  N   LIG d   1       6.197  -0.262  -3.892  0.00  0.00    -0.206 N 
BRANCH  18  19
ATOM     19  C   LIG d   1       6.943  -1.360  -4.337  0.00  0.00     0.044 A 
ATOM     20  C   LIG d   1       7.281  -1.474  -5.679  0.00  0.00    -0.040 A 
ATOM     21  C   LIG d   1       8.020  -2.556  -6.115  0.00  0.00    -0.060 A 
ATOM     22  H   LIG d   1       6.965  -0.717  -6.382  0.00  0.00     0.064 H 
ATOM     23  C   LIG d   1       8.425  -3.525  -5.216  0.00  0.00    -0.062 A 
ATOM     24  H   LIG d   1       8.284  -2.644  -7.159  0.00  0.00     0.062 H 
ATOM     25  C   LIG d   1       8.091  -3.415  -3.879  0.00  0.00    -0.060 A 
ATOM     26  H   LIG d   1       9.003  -4.370  -5.559  0.00  0.00     0.062 H 
ATOM     27  C   LIG d   1       7.352  -2.335  -3.437  0.00  0.00    -0.040 A 
ATOM     28  H   LIG d   1       8.409  -4.174  -3.179  0.00  0.00     0.062 H 
ATOM     29  H   LIG d   1       7.090  -2.250  -2.392  0.00  0.00     0.064 H 
ENDBRANCH  18  19
BRANCH  18  30
ATOM     30  C   LIG d   1       4.799  -0.331  -3.862  0.00  0.00     0.044 A 
ATOM     31  C   LIG d   1       4.149  -0.768  -2.715  0.00  0.00    -0.040 A 
ATOM     32  C   LIG d   1       2.770  -0.835  -2.688  0.00  0.00    -0.060 A 
ATOM     33  H   LIG d   1       4.720  -1.053  -1.844  0.00  0.00     0.064 H 
ATOM     34  C   LIG d   1       2.036  -0.469  -3.802  0.00  0.00    -0.062 A 
ATOM     35  H   LIG d   1       2.263  -1.174  -1.796  0.00  0.00     0.062 H 
ATOM     36  C   LIG d   1       2.681  -0.034  -4.946  0.00  0.00    -0.060 A 
ATOM     37  H   LIG d   1       0.957  -0.523  -3.778  0.00  0.00     0.062 H 
ATOM     38  C   LIG d   1       4.059   0.041  -4.976  0.00  0.00    -0.040 A 
ATOM     39  H   LIG d   1       2.106   0.251  -5.814  0.00  0.00     0.062 H 
ATOM     40  H   LIG d   1       4.562   0.384  -5.868  0.00  0.00     0.064 H 
ENDBRANCH  18  30
ENDBRANCH  15  16
ENDBRANCH   8  15
BRANCH   1  41
ATOM     41  C   LIG d   1       9.523   4.065  -9.927  0.00  0.00    -0.006 C 
ATOM     42  H   LIG d   1       9.281   3.043 -10.220  0.00  0.00     0.031 H 
ATOM     43  H   LIG d   1       8.751   4.741 -10.295  0.00  0.00     0.031 H 
ATOM     44  H   LIG d   1      10.486   4.347 -10.353  0.00  0.00     0.031 H 
ENDBRANCH   1  41
BRANCH   2  45
ATOM     45  C   LIG d   1      10.640   6.372  -8.706  0.00  0.00    -0.011 A 
ATOM     46  C   LIG d   1       9.790   7.408  -9.088  0.00  0.00    -0.054 A 
ATOM     47  C   LIG d   1      10.268   8.435  -9.874  0.00  0.00    -0.061 A 
ATOM     48  H   LIG d   1       8.757   7.407  -8.769  0.00  0.00     0.062 H 
ATOM     49  C   LIG d   1      11.589   8.439 -10.284  0.00  0.00    -0.062 A 
ATOM     50  H   LIG d   1       9.611   9.239 -10.171  0.00  0.00     0.062 H 
ATOM     51  C   LIG d   1      12.438   7.413  -9.908  0.00  0.00    -0.061 A 
ATOM     52  H   LIG d   1      11.959   9.245 -10.900  0.00  0.00     0.062 H 
ATOM     53  C   LIG d   1      11.972   6.383  -9.116  0.00  0.00    -0.054 A 
ATOM     54  H   LIG d   1      13.469   7.420 -10.230  0.00  0.00     0.062 H 
ATOM     55  H   LIG d   1      12.636   5.585  -8.819  0.00  0.00     0.062 H 
ENDBRANCH   2  45
TORSDOF 6
ENDMDL
MODEL 9
REMARK VINA RESULT:      -7.3      2.820      4.486
REMARK  6 active torsions:
REMARK  status: ('A' for Active; 'I' for Inactive)
REMARK    1  A    between atoms: C_1  and  C_2 
REMARK    2  A    between atoms: C_3  and  C_29 
REMARK    3  A    between atoms: C_9  and  O_13 
REMARK    4  A    between atoms: O_13  and  C_14 
REMARK       I    between atoms: C_14  and  N_16 
REMARK    5  A    between atoms: N_16  and  C_17 
REMARK    6  A    between atoms: N_16  and  C_23 
ROOT
ATOM      1  C   LIG d   1       9.948   4.553  -3.068  0.00  0.00     0.114 A 
ATOM      2  C   LIG d   1      10.350   5.215  -4.185  0.00  0.00     0.067 A 
ATOM      3  C   LIG d   1      10.025   4.643  -5.502  0.00  0.00     0.200 A 
ATOM      4  O   LIG d   1      10.360   5.192  -6.537  0.00  0.00    -0.286 OA
ATOM      5  C   LIG d   1       9.276   3.373  -5.509  0.00  0.00     0.065 A 
ATOM      6  C   LIG d   1       8.919   2.749  -6.704  0.00  0.00    -0.044 A 
ATOM      7  C   LIG d   1       8.230   1.570  -6.674  0.00  0.00    -0.018 A 
ATOM      8  C   LIG d   1       7.872   0.995  -5.456  0.00  0.00     0.137 A 
ATOM      9  C   LIG d   1       8.220   1.603  -4.262  0.00  0.00     0.024 A 
ATOM     10  C   LIG d   1       8.925   2.799  -4.274  0.00  0.00     0.142 A 
ATOM     11  O   LIG d   1       9.270   3.403  -3.120  0.00  0.00    -0.459 OA
ATOM     12  H   LIG d   1       9.191   3.194  -7.650  0.00  0.00     0.063 H 
ATOM     13  H   LIG d   1       7.957   1.083  -7.599  0.00  0.00     0.065 H 
ATOM     14  H   LIG d   1       7.941   1.148  -3.323  0.00  0.00     0.069 H 
ENDROOT
BRANCH   8  15
ATOM     15  O   LIG d   1       7.183  -0.175  -5.441  0.00  0.00    -0.411 OA
BRANCH  15  16
ATOM     16  C   LIG d   1       7.876  -1.289  -5.142  0.00  0.00     0.417 C 
ATOM     17  O   LIG d   1       8.919  -1.529  -5.720  0.00  0.00    -0.225 OA
ATOM     18  N   LIG d   1       7.415  -2.138  -4.203  0.00  0.00    -0.206 N 
BRANCH  18  19
ATOM     19  C   LIG d   1       6.177  -1.903  -3.593  0.00  0.00     0.044 A 
ATOM     20  C   LIG d   1       5.099  -2.736  -3.863  0.00  0.00    -0.040 A 
ATOM     21  C   LIG d   1       3.879  -2.503  -3.257  0.00  0.00    -0.060 A 
ATOM     22  H   LIG d   1       5.213  -3.563  -4.547  0.00  0.00     0.064 H 
ATOM     23  C   LIG d   1       3.733  -1.443  -2.381  0.00  0.00    -0.062 A 
ATOM     24  H   LIG d   1       3.041  -3.151  -3.465  0.00  0.00     0.062 H 
ATOM     25  C   LIG d   1       4.804  -0.612  -2.110  0.00  0.00    -0.060 A 
ATOM     26  H   LIG d   1       2.778  -1.263  -1.909  0.00  0.00     0.062 H 
ATOM     27  C   LIG d   1       6.026  -0.839  -2.713  0.00  0.00    -0.040 A 
ATOM     28  H   LIG d   1       4.685   0.215  -1.426  0.00  0.00     0.062 H 
ATOM     29  H   LIG d   1       6.862  -0.190  -2.502  0.00  0.00     0.064 H 
ENDBRANCH  18  19
BRANCH  18  30
ATOM     30  C   LIG d   1       8.174  -3.257  -3.836  0.00  0.00     0.044 A 
ATOM     31  C   LIG d   1       8.174  -4.391  -4.639  0.00  0.00    -0.040 A 
ATOM     32  C   LIG d   1       8.923  -5.492  -4.275  0.00  0.00    -0.060 A 
ATOM     33  H   LIG d   1       7.590  -4.411  -5.546  0.00  0.00     0.064 H 
ATOM     34  C   LIG d   1       9.673  -5.467  -3.112  0.00  0.00    -0.062 A 
ATOM     35  H   LIG d   1       8.924  -6.374  -4.898  0.00  0.00     0.062 H 
ATOM     36  C   LIG d   1       9.675  -4.339  -2.312  0.00  0.00    -0.060 A 
ATOM     37  H   LIG d   1      10.258  -6.330  -2.830  0.00  0.00     0.062 H 
ATOM     38  C   LIG d   1       8.932  -3.233  -2.673  0.00  0.00    -0.040 A 
ATOM     39  H   LIG d   1      10.262  -4.323  -1.405  0.00  0.00     0.062 H 
ATOM     40  H   LIG d   1       8.937  -2.351  -2.050  0.00  0.00     0.064 H 
ENDBRANCH  18  30
ENDBRANCH  15  16
ENDBRANCH   8  15
BRANCH   1  41
ATOM     41  C   LIG d   1      10.279   5.138  -1.720  0.00  0.00    -0.006 C 
ATOM     42  H   LIG d   1      10.767   4.381  -1.106  0.00  0.00     0.031 H 
ATOM     43  H   LIG d   1      10.947   5.989  -1.848  0.00  0.00     0.031 H 
ATOM     44  H   LIG d   1       9.362   5.467  -1.231  0.00  0.00     0.031 H 
ENDBRANCH   1  41
BRANCH   2  45
ATOM     45  C   LIG d   1      11.101   6.489  -4.078  0.00  0.00    -0.011 A 
ATOM     46  C   LIG d   1      10.417   7.703  -4.029  0.00  0.00    -0.054 A 
ATOM     47  C   LIG d   1      11.121   8.885  -3.929  0.00  0.00    -0.061 A 
ATOM     48  H   LIG d   1       9.338   7.718  -4.070  0.00  0.00     0.062 H 
ATOM     49  C   LIG d   1      12.503   8.868  -3.877  0.00  0.00    -0.062 A 
ATOM     50  H   LIG d   1      10.593   9.826  -3.892  0.00  0.00     0.062 H 
ATOM     51  C   LIG d   1      13.188   7.667  -3.925  0.00  0.00    -0.061 A 
ATOM     52  H   LIG d   1      13.050   9.796  -3.800  0.00  0.00     0.062 H 
ATOM     53  C   LIG d   1      12.494   6.478  -4.019  0.00  0.00    -0.054 A 
ATOM     54  H   LIG d   1      14.267   7.659  -3.884  0.00  0.00     0.062 H 
ATOM     55  H   LIG d   1      13.029   5.540  -4.052  0.00  0.00     0.062 H 
ENDBRANCH   2  45
TORSDOF 6
ENDMDL
