MODEL 1
REMARK VINA RESULT:      -6.4      0.000      0.000
REMARK  13 active torsions:
REMARK  status: ('A' for Active; 'I' for Inactive)
REMARK    1  A    between atoms: C_1  and  C_2 
REMARK    2  A    between atoms: C_2  and  C_4 
REMARK    3  A    between atoms: C_2  and  N_19 
REMARK    4  A    between atoms: C_4  and  N_5 
REMARK    5  A    between atoms: N_5  and  C_6 
REMARK    6  A    between atoms: C_6  and  C_18 
REMARK    7  A    between atoms: C_12  and  C_13 
REMARK    8  A    between atoms: C_12  and  C_14 
REMARK    9  A    between atoms: N_19  and  C_20 
REMARK   10  A    between atoms: C_20  and  C_21 
REMARK   11  A    between atoms: C_20  and  C_32 
REMARK   12  A    between atoms: C_26  and  C_27 
REMARK   13  A    between atoms: C_26  and  C_28 
ROOT
ATOM      1  C   LIG d   1       7.311  -0.597  -6.753  0.00  0.00     0.064 C 
ATOM      2  H   LIG d   1       6.425  -0.088  -6.346  0.00  0.00     0.056 H 
ENDROOT
BRANCH   1   3
ATOM      3  C   LIG d   1       7.093  -2.110  -6.790  0.00  0.00    -0.041 C 
ATOM      4  H   LIG d   1       6.330  -2.389  -6.048  0.00  0.00     0.025 H 
ATOM      5  H   LIG d   1       8.038  -2.622  -6.556  0.00  0.00     0.025 H 
ATOM      6  H   LIG d   1       6.754  -2.407  -7.794  0.00  0.00     0.025 H 
ENDBRANCH   1   3
BRANCH   1   7
ATOM      7  C   LIG d   1       8.549  -0.280  -5.911  0.00  0.00     0.031 C 
ATOM      8  H   LIG d   1       9.385  -0.918  -6.234  0.00  0.00     0.048 H 
ATOM      9  H   LIG d   1       8.822   0.777  -6.043  0.00  0.00     0.048 H 
BRANCH   7  10
ATOM     10  N   LIG d   1       8.258  -0.536  -4.498  0.00  0.00    -0.345 N 
ATOM     11  H   LIG d   1       8.739  -1.379  -3.981  0.00  0.00     0.146 HD
BRANCH  10  12
ATOM     12  C   LIG d   1       7.390   0.270  -3.825  0.00  0.00     0.008 C 
ATOM     13  C   LIG d   1       6.293  -0.260  -3.233  0.00  0.00     0.015 A 
ATOM     14  C   LIG d   1       5.344   0.468  -2.514  0.00  0.00     0.161 A 
ATOM     15  C   LIG d   1       5.927  -1.720  -3.250  0.00  0.00    -0.002 A 
ATOM     16  C   LIG d   1       4.262  -0.444  -2.001  0.00  0.00     0.014 A 
ATOM     17  O   LIG d   1       5.383   1.669  -2.330  0.00  0.00    -0.292 OA
ATOM     18  C   LIG d   1       4.616  -1.864  -2.465  0.00  0.00    -0.021 A 
ATOM     19  H   LIG d   1       3.283  -0.157  -2.416  0.00  0.00     0.035 H 
ATOM     20  H   LIG d   1       4.218  -0.417  -0.903  0.00  0.00     0.035 H 
ATOM     21  H   LIG d   1       4.167  -2.435  -1.638  0.00  0.00     0.032 H 
ATOM     22  C   LIG d   1       4.659  -2.161  -3.982  0.00  0.00    -0.024 A 
ATOM     23  H   LIG d   1       6.949  -2.125  -3.283  0.00  0.00     0.036 H 
BRANCH  22  24
ATOM     24  C   LIG d   1       4.002  -1.153  -4.927  0.00  0.00    -0.059 C 
ATOM     25  H   LIG d   1       4.519  -0.185  -4.848  0.00  0.00     0.024 H 
ATOM     26  H   LIG d   1       2.945  -1.028  -4.652  0.00  0.00     0.024 H 
ATOM     27  H   LIG d   1       4.070  -1.521  -5.962  0.00  0.00     0.024 H 
ENDBRANCH  22  24
BRANCH  22  28
ATOM     28  C   LIG d   1       4.565  -3.627  -4.413  0.00  0.00    -0.059 C 
ATOM     29  H   LIG d   1       5.420  -4.185  -4.002  0.00  0.00     0.024 H 
ATOM     30  H   LIG d   1       4.581  -3.688  -5.510  0.00  0.00     0.024 H 
ATOM     31  H   LIG d   1       3.628  -4.061  -4.034  0.00  0.00     0.024 H 
ENDBRANCH  22  28
BRANCH  12  32
ATOM     32  C   LIG d   1       7.652   1.752  -3.738  0.00  0.00    -0.026 C 
ATOM     33  H   LIG d   1       8.734   1.929  -3.651  0.00  0.00     0.029 H 
ATOM     34  H   LIG d   1       7.142   2.163  -2.854  0.00  0.00     0.029 H 
ATOM     35  H   LIG d   1       7.271   2.246  -4.644  0.00  0.00     0.029 H 
ENDBRANCH  12  32
ENDBRANCH  10  12
ENDBRANCH   7  10
ENDBRANCH   1   7
BRANCH   1  36
ATOM     36  N   LIG d   1       7.508  -0.098  -8.116  0.00  0.00    -0.284 NA
BRANCH  36  37
ATOM     37  C   LIG d   1       6.514  -0.226  -9.039  0.00  0.00     0.036 C 
BRANCH  37  38
ATOM     38  C   LIG d   1       5.398   0.537  -8.944  0.00  0.00    -0.035 A 
ATOM     39  C   LIG d   1       5.360   1.919  -9.126  0.00  0.00    -0.127 A 
ATOM     40  C   LIG d   1       3.955   2.432  -8.949  0.00  0.00    -0.038 A 
ATOM     41  O   LIG d   1       6.323   2.612  -9.391  0.00  0.00    -0.876 OA
ATOM     42  C   LIG d   1       3.071   1.219  -8.622  0.00  0.00    -0.025 A 
ATOM     43  H   LIG d   1       3.596   2.908  -9.873  0.00  0.00     0.030 H 
ATOM     44  H   LIG d   1       3.906   3.155  -8.121  0.00  0.00     0.030 H 
ATOM     45  C   LIG d   1       4.023   0.014  -8.621  0.00  0.00    -0.006 A 
ATOM     46  H   LIG d   1       2.315   1.717  -8.000  0.00  0.00     0.032 H 
ATOM     47  C   LIG d   1       2.925   0.102  -9.682  0.00  0.00    -0.024 A 
ATOM     48  H   LIG d   1       4.335  -0.826  -7.982  0.00  0.00     0.036 H 
BRANCH  47  49
ATOM     49  C   LIG d   1       3.352   0.417 -11.118  0.00  0.00    -0.059 C 
ATOM     50  H   LIG d   1       2.519   0.205 -11.804  0.00  0.00     0.024 H 
ATOM     51  H   LIG d   1       4.217  -0.208 -11.387  0.00  0.00     0.024 H 
ATOM     52  H   LIG d   1       3.628   1.478 -11.193  0.00  0.00     0.024 H 
ENDBRANCH  47  49
BRANCH  47  53
ATOM     53  C   LIG d   1       1.729  -0.844  -9.542  0.00  0.00    -0.059 C 
ATOM     54  H   LIG d   1       1.325  -1.072 -10.539  0.00  0.00     0.024 H 
ATOM     55  H   LIG d   1       0.952  -0.364  -8.930  0.00  0.00     0.024 H 
ATOM     56  H   LIG d   1       2.055  -1.775  -9.057  0.00  0.00     0.024 H 
ENDBRANCH  47  53
ENDBRANCH  37  38
BRANCH  37  57
ATOM     57  C   LIG d   1       6.654  -1.217 -10.165  0.00  0.00    -0.022 C 
ATOM     58  H   LIG d   1       7.599  -1.770 -10.052  0.00  0.00     0.029 H 
ATOM     59  H   LIG d   1       6.655  -0.682 -11.126  0.00  0.00     0.029 H 
ATOM     60  H   LIG d   1       5.810  -1.923 -10.140  0.00  0.00     0.029 H 
ENDBRANCH  37  57
ENDBRANCH  36  37
ENDBRANCH   1  36
TORSDOF 13
ENDMDL
MODEL 2
REMARK VINA RESULT:      -6.0      1.360      5.993
REMARK  13 active torsions:
REMARK  status: ('A' for Active; 'I' for Inactive)
REMARK    1  A    between atoms: C_1  and  C_2 
REMARK    2  A    between atoms: C_2  and  C_4 
REMARK    3  A    between atoms: C_2  and  N_19 
REMARK    4  A    between atoms: C_4  and  N_5 
REMARK    5  A    between atoms: N_5  and  C_6 
REMARK    6  A    between atoms: C_6  and  C_18 
REMARK    7  A    between atoms: C_12  and  C_13 
REMARK    8  A    between atoms: C_12  and  C_14 
REMARK    9  A    between atoms: N_19  and  C_20 
REMARK   10  A    between atoms: C_20  and  C_21 
REMARK   11  A    between atoms: C_20  and  C_32 
REMARK   12  A    between atoms: C_26  and  C_27 
REMARK   13  A    between atoms: C_26  and  C_28 
ROOT
ATOM      1  C   LIG d   1       6.506  -2.565  -6.145  0.00  0.00     0.064 C 
ATOM      2  H   LIG d   1       7.044  -3.424  -5.719  0.00  0.00     0.056 H 
ENDROOT
BRANCH   1   3
ATOM      3  C   LIG d   1       4.994  -2.776  -6.056  0.00  0.00    -0.041 C 
ATOM      4  H   LIG d   1       4.721  -3.701  -6.585  0.00  0.00     0.025 H 
ATOM      5  H   LIG d   1       4.477  -1.922  -6.517  0.00  0.00     0.025 H 
ATOM      6  H   LIG d   1       4.697  -2.857  -4.999  0.00  0.00     0.025 H 
ENDBRANCH   1   3
BRANCH   1   7
ATOM      7  C   LIG d   1       6.906  -2.350  -7.607  0.00  0.00     0.031 C 
ATOM      8  H   LIG d   1       7.862  -1.806  -7.648  0.00  0.00     0.048 H 
ATOM      9  H   LIG d   1       7.016  -3.324  -8.104  0.00  0.00     0.048 H 
BRANCH   7  10
ATOM     10  N   LIG d   1       5.871  -1.568  -8.287  0.00  0.00    -0.345 N 
ATOM     11  H   LIG d   1       4.908  -2.034  -8.543  0.00  0.00     0.146 HD
BRANCH  10  12
ATOM     12  C   LIG d   1       6.101  -0.263  -8.603  0.00  0.00     0.008 C 
ATOM     13  C   LIG d   1       5.058   0.581  -8.799  0.00  0.00     0.015 A 
ATOM     14  C   LIG d   1       5.176   1.934  -9.120  0.00  0.00     0.161 A 
ATOM     15  C   LIG d   1       3.607   0.193  -8.696  0.00  0.00    -0.002 A 
ATOM     16  C   LIG d   1       3.815   2.558  -9.266  0.00  0.00     0.014 A 
ATOM     17  O   LIG d   1       6.229   2.524  -9.263  0.00  0.00    -0.292 OA
ATOM     18  C   LIG d   1       2.783   1.453  -8.998  0.00  0.00    -0.021 A 
ATOM     19  H   LIG d   1       3.674   2.950 -10.285  0.00  0.00     0.035 H 
ATOM     20  H   LIG d   1       3.678   3.371  -8.538  0.00  0.00     0.035 H 
ATOM     21  H   LIG d   1       1.971   2.069  -8.584  0.00  0.00     0.032 H 
ATOM     22  C   LIG d   1       2.734   0.236  -9.951  0.00  0.00    -0.024 A 
ATOM     23  H   LIG d   1       3.720  -0.587  -7.930  0.00  0.00     0.036 H 
BRANCH  22  24
ATOM     24  C   LIG d   1       3.444   0.356 -11.302  0.00  0.00    -0.059 C 
ATOM     25  H   LIG d   1       4.245   1.108 -11.229  0.00  0.00     0.024 H 
ATOM     26  H   LIG d   1       2.719   0.664 -12.069  0.00  0.00     0.024 H 
ATOM     27  H   LIG d   1       3.878  -0.617 -11.576  0.00  0.00     0.024 H 
ENDBRANCH  22  24
BRANCH  22  28
ATOM     28  C   LIG d   1       1.455  -0.604  -9.950  0.00  0.00    -0.059 C 
ATOM     29  H   LIG d   1       0.870  -0.381  -9.046  0.00  0.00     0.024 H 
ATOM     30  H   LIG d   1       1.717  -1.671  -9.962  0.00  0.00     0.024 H 
ATOM     31  H   LIG d   1       0.858  -0.363 -10.842  0.00  0.00     0.024 H 
ENDBRANCH  22  28
BRANCH  12  32
ATOM     32  C   LIG d   1       7.514   0.243  -8.734  0.00  0.00    -0.026 C 
ATOM     33  H   LIG d   1       7.528   1.333  -8.587  0.00  0.00     0.029 H 
ATOM     34  H   LIG d   1       7.898   0.003  -9.736  0.00  0.00     0.029 H 
ATOM     35  H   LIG d   1       8.148  -0.237  -7.973  0.00  0.00     0.029 H 
ENDBRANCH  12  32
ENDBRANCH  10  12
ENDBRANCH   7  10
ENDBRANCH   1   7
BRANCH   1  36
ATOM     36  N   LIG d   1       6.883  -1.387  -5.359  0.00  0.00    -0.284 NA
BRANCH  36  37
ATOM     37  C   LIG d   1       6.831  -1.432  -3.998  0.00  0.00     0.036 C 
BRANCH  37  38
ATOM     38  C   LIG d   1       6.027  -0.575  -3.321  0.00  0.00    -0.035 A 
ATOM     39  C   LIG d   1       6.309   0.771  -3.094  0.00  0.00    -0.127 A 
ATOM     40  C   LIG d   1       5.195   1.415  -2.312  0.00  0.00    -0.038 A 
ATOM     41  O   LIG d   1       7.311   1.345  -3.474  0.00  0.00    -0.876 OA
ATOM     42  C   LIG d   1       4.145   0.326  -2.046  0.00  0.00    -0.025 A 
ATOM     43  H   LIG d   1       4.736   2.232  -2.889  0.00  0.00     0.030 H 
ATOM     44  H   LIG d   1       5.567   1.807  -1.354  0.00  0.00     0.030 H 
ATOM     45  C   LIG d   1       4.706  -0.945  -2.701  0.00  0.00    -0.006 A 
ATOM     46  H   LIG d   1       3.747   0.697  -1.091  0.00  0.00     0.032 H 
ATOM     47  C   LIG d   1       3.424  -0.319  -3.253  0.00  0.00    -0.024 A 
ATOM     48  H   LIG d   1       4.946  -1.992  -2.463  0.00  0.00     0.036 H 
BRANCH  47  49
ATOM     49  C   LIG d   1       3.510   0.395  -4.604  0.00  0.00    -0.059 C 
ATOM     50  H   LIG d   1       2.802   1.236  -4.621  0.00  0.00     0.024 H 
ATOM     51  H   LIG d   1       3.259  -0.313  -5.408  0.00  0.00     0.024 H 
ATOM     52  H   LIG d   1       4.531   0.773  -4.753  0.00  0.00     0.024 H 
ENDBRANCH  47  49
BRANCH  47  53
ATOM     53  C   LIG d   1       2.106  -1.047  -2.975  0.00  0.00    -0.059 C 
ATOM     54  H   LIG d   1       1.553  -1.175  -3.916  0.00  0.00     0.024 H 
ATOM     55  H   LIG d   1       1.502  -0.454  -2.271  0.00  0.00     0.024 H 
ATOM     56  H   LIG d   1       2.317  -2.032  -2.536  0.00  0.00     0.024 H 
ENDBRANCH  47  53
ENDBRANCH  37  38
BRANCH  37  57
ATOM     57  C   LIG d   1       7.668  -2.433  -3.245  0.00  0.00    -0.022 C 
ATOM     58  H   LIG d   1       7.872  -2.054  -2.233  0.00  0.00     0.029 H 
ATOM     59  H   LIG d   1       8.617  -2.591  -3.776  0.00  0.00     0.029 H 
ATOM     60  H   LIG d   1       7.124  -3.388  -3.177  0.00  0.00     0.029 H 
ENDBRANCH  37  57
ENDBRANCH  36  37
ENDBRANCH   1  36
TORSDOF 13
ENDMDL
MODEL 3
REMARK VINA RESULT:      -5.8      2.214      4.917
REMARK  13 active torsions:
REMARK  status: ('A' for Active; 'I' for Inactive)
REMARK    1  A    between atoms: C_1  and  C_2 
REMARK    2  A    between atoms: C_2  and  C_4 
REMARK    3  A    between atoms: C_2  and  N_19 
REMARK    4  A    between atoms: C_4  and  N_5 
REMARK    5  A    between atoms: N_5  and  C_6 
REMARK    6  A    between atoms: C_6  and  C_18 
REMARK    7  A    between atoms: C_12  and  C_13 
REMARK    8  A    between atoms: C_12  and  C_14 
REMARK    9  A    between atoms: N_19  and  C_20 
REMARK   10  A    between atoms: C_20  and  C_21 
REMARK   11  A    between atoms: C_20  and  C_32 
REMARK   12  A    between atoms: C_26  and  C_27 
REMARK   13  A    between atoms: C_26  and  C_28 
ROOT
ATOM      1  C   LIG d   1       4.915   1.491  -8.679  0.00  0.00     0.064 C 
ATOM      2  H   LIG d   1       5.053   2.152  -7.811  0.00  0.00     0.056 H 
ENDROOT
BRANCH   1   3
ATOM      3  C   LIG d   1       4.041   2.166  -9.737  0.00  0.00    -0.041 C 
ATOM      4  H   LIG d   1       4.115   3.259  -9.631  0.00  0.00     0.025 H 
ATOM      5  H   LIG d   1       2.995   1.854  -9.601  0.00  0.00     0.025 H 
ATOM      6  H   LIG d   1       4.384   1.871 -10.739  0.00  0.00     0.025 H 
ENDBRANCH   1   3
BRANCH   1   7
ATOM      7  C   LIG d   1       4.274   0.168  -8.254  0.00  0.00     0.031 C 
ATOM      8  H   LIG d   1       3.242   0.125  -8.632  0.00  0.00     0.048 H 
ATOM      9  H   LIG d   1       4.852  -0.669  -8.669  0.00  0.00     0.048 H 
BRANCH   7  10
ATOM     10  N   LIG d   1       4.263   0.079  -6.792  0.00  0.00    -0.345 N 
ATOM     11  H   LIG d   1       3.969   0.951  -6.189  0.00  0.00     0.146 HD
BRANCH  10  12
ATOM     12  C   LIG d   1       4.617  -1.085  -6.179  0.00  0.00     0.008 C 
ATOM     13  C   LIG d   1       4.265  -1.306  -4.888  0.00  0.00     0.015 A 
ATOM     14  C   LIG d   1       4.568  -2.460  -4.166  0.00  0.00     0.161 A 
ATOM     15  C   LIG d   1       3.484  -0.344  -4.034  0.00  0.00    -0.002 A 
ATOM     16  C   LIG d   1       4.023  -2.360  -2.766  0.00  0.00     0.014 A 
ATOM     17  O   LIG d   1       5.186  -3.411  -4.603  0.00  0.00    -0.292 OA
ATOM     18  C   LIG d   1       3.319  -1.000  -2.656  0.00  0.00    -0.021 A 
ATOM     19  H   LIG d   1       4.838  -2.412  -2.028  0.00  0.00     0.035 H 
ATOM     20  H   LIG d   1       3.300  -3.164  -2.571  0.00  0.00     0.035 H 
ATOM     21  H   LIG d   1       2.548  -1.262  -1.915  0.00  0.00     0.032 H 
ATOM     22  C   LIG d   1       4.160   0.287  -2.816  0.00  0.00    -0.024 A 
ATOM     23  H   LIG d   1       2.888   0.112  -4.837  0.00  0.00     0.036 H 
BRANCH  22  24
ATOM     24  C   LIG d   1       5.682   0.165  -2.710  0.00  0.00    -0.059 C 
ATOM     25  H   LIG d   1       5.982   0.220  -1.653  0.00  0.00     0.024 H 
ATOM     26  H   LIG d   1       6.155   0.985  -3.269  0.00  0.00     0.024 H 
ATOM     27  H   LIG d   1       6.003  -0.799  -3.133  0.00  0.00     0.024 H 
ENDBRANCH  22  24
BRANCH  22  28
ATOM     28  C   LIG d   1       3.564   1.587  -2.272  0.00  0.00    -0.059 C 
ATOM     29  H   LIG d   1       2.480   1.462  -2.128  0.00  0.00     0.024 H 
ATOM     30  H   LIG d   1       3.746   2.402  -2.987  0.00  0.00     0.024 H 
ATOM     31  H   LIG d   1       4.036   1.832  -1.308  0.00  0.00     0.024 H 
ENDBRANCH  22  28
BRANCH  12  32
ATOM     32  C   LIG d   1       5.401  -2.127  -6.935  0.00  0.00    -0.026 C 
ATOM     33  H   LIG d   1       5.499  -1.820  -7.987  0.00  0.00     0.029 H 
ATOM     34  H   LIG d   1       4.875  -3.091  -6.882  0.00  0.00     0.029 H 
ATOM     35  H   LIG d   1       6.401  -2.230  -6.489  0.00  0.00     0.029 H 
ENDBRANCH  12  32
ENDBRANCH  10  12
ENDBRANCH   7  10
ENDBRANCH   1   7
BRANCH   1  36
ATOM     36  N   LIG d   1       6.244   1.231  -9.238  0.00  0.00    -0.284 NA
BRANCH  36  37
ATOM     37  C   LIG d   1       7.359   1.602  -8.547  0.00  0.00     0.036 C 
BRANCH  37  38
ATOM     38  C   LIG d   1       7.814   0.831  -7.529  0.00  0.00    -0.035 A 
ATOM     39  C   LIG d   1       8.536  -0.351  -7.686  0.00  0.00    -0.127 A 
ATOM     40  C   LIG d   1       8.878  -0.938  -6.342  0.00  0.00    -0.038 A 
ATOM     41  O   LIG d   1       8.847  -0.839  -8.755  0.00  0.00    -0.876 OA
ATOM     42  C   LIG d   1       8.288  -0.001  -5.279  0.00  0.00    -0.025 A 
ATOM     43  H   LIG d   1       9.969  -1.000  -6.211  0.00  0.00     0.030 H 
ATOM     44  H   LIG d   1       8.438  -1.940  -6.232  0.00  0.00     0.030 H 
ATOM     45  C   LIG d   1       7.605   1.127  -6.068  0.00  0.00    -0.006 A 
ATOM     46  H   LIG d   1       8.090  -0.737  -4.487  0.00  0.00     0.032 H 
ATOM     47  C   LIG d   1       8.818   1.450  -5.193  0.00  0.00    -0.024 A 
ATOM     48  H   LIG d   1       6.634   1.635  -6.160  0.00  0.00     0.036 H 
BRANCH  47  49
ATOM     49  C   LIG d   1      10.135   1.774  -5.902  0.00  0.00    -0.059 C 
ATOM     50  H   LIG d   1      10.734   0.856  -6.002  0.00  0.00     0.024 H 
ATOM     51  H   LIG d   1      10.695   2.514  -5.313  0.00  0.00     0.024 H 
ATOM     52  H   LIG d   1       9.922   2.183  -6.900  0.00  0.00     0.024 H 
ENDBRANCH  47  49
BRANCH  47  53
ATOM     53  C   LIG d   1       8.566   2.212  -3.889  0.00  0.00    -0.059 C 
ATOM     54  H   LIG d   1       9.129   3.157  -3.903  0.00  0.00     0.024 H 
ATOM     55  H   LIG d   1       8.897   1.599  -3.038  0.00  0.00     0.024 H 
ATOM     56  H   LIG d   1       7.493   2.426  -3.792  0.00  0.00     0.024 H 
ENDBRANCH  47  53
ENDBRANCH  37  38
BRANCH  37  57
ATOM     57  C   LIG d   1       8.086   2.870  -8.914  0.00  0.00    -0.022 C 
ATOM     58  H   LIG d   1       7.355   3.658  -9.147  0.00  0.00     0.029 H 
ATOM     59  H   LIG d   1       8.720   2.687  -9.794  0.00  0.00     0.029 H 
ATOM     60  H   LIG d   1       8.715   3.189  -8.070  0.00  0.00     0.029 H 
ENDBRANCH  37  57
ENDBRANCH  36  37
ENDBRANCH   1  36
TORSDOF 13
ENDMDL
MODEL 4
REMARK VINA RESULT:      -5.8      1.588      2.519
REMARK  13 active torsions:
REMARK  status: ('A' for Active; 'I' for Inactive)
REMARK    1  A    between atoms: C_1  and  C_2 
REMARK    2  A    between atoms: C_2  and  C_4 
REMARK    3  A    between atoms: C_2  and  N_19 
REMARK    4  A    between atoms: C_4  and  N_5 
REMARK    5  A    between atoms: N_5  and  C_6 
REMARK    6  A    between atoms: C_6  and  C_18 
REMARK    7  A    between atoms: C_12  and  C_13 
REMARK    8  A    between atoms: C_12  and  C_14 
REMARK    9  A    between atoms: N_19  and  C_20 
REMARK   10  A    between atoms: C_20  and  C_21 
REMARK   11  A    between atoms: C_20  and  C_32 
REMARK   12  A    between atoms: C_26  and  C_27 
REMARK   13  A    between atoms: C_26  and  C_28 
ROOT
ATOM      1  C   LIG d   1       8.109  -0.414  -7.194  0.00  0.00     0.064 C 
ATOM      2  H   LIG d   1       8.097  -1.267  -7.889  0.00  0.00     0.056 H 
ENDROOT
BRANCH   1   3
ATOM      3  C   LIG d   1       9.323   0.478  -7.456  0.00  0.00    -0.041 C 
ATOM      4  H   LIG d   1       8.992   1.425  -7.907  0.00  0.00     0.025 H 
ATOM      5  H   LIG d   1      10.013  -0.035  -8.143  0.00  0.00     0.025 H 
ATOM      6  H   LIG d   1       9.838   0.685  -6.506  0.00  0.00     0.025 H 
ENDBRANCH   1   3
BRANCH   1   7
ATOM      7  C   LIG d   1       8.137  -0.902  -5.743  0.00  0.00     0.031 C 
ATOM      8  H   LIG d   1       8.240  -1.997  -5.728  0.00  0.00     0.048 H 
ATOM      9  H   LIG d   1       8.989  -0.446  -5.220  0.00  0.00     0.048 H 
BRANCH   7  10
ATOM     10  N   LIG d   1       6.890  -0.519  -5.075  0.00  0.00    -0.345 N 
ATOM     11  H   LIG d   1       6.569   0.533  -5.071  0.00  0.00     0.146 HD
BRANCH  10  12
ATOM     12  C   LIG d   1       6.130  -1.466  -4.459  0.00  0.00     0.008 C 
ATOM     13  C   LIG d   1       4.874  -1.165  -4.048  0.00  0.00     0.015 A 
ATOM     14  C   LIG d   1       4.007  -2.056  -3.414  0.00  0.00     0.161 A 
ATOM     15  C   LIG d   1       4.213   0.177  -4.217  0.00  0.00    -0.002 A 
ATOM     16  C   LIG d   1       2.700  -1.380  -3.099  0.00  0.00     0.014 A 
ATOM     17  O   LIG d   1       4.271  -3.213  -3.151  0.00  0.00    -0.292 OA
ATOM     18  C   LIG d   1       2.808   0.065  -3.607  0.00  0.00    -0.021 A 
ATOM     19  H   LIG d   1       2.517  -1.373  -2.013  0.00  0.00     0.035 H 
ATOM     20  H   LIG d   1       1.867  -1.886  -3.607  0.00  0.00     0.035 H 
ATOM     21  H   LIG d   1       1.749   0.246  -3.847  0.00  0.00     0.032 H 
ATOM     22  C   LIG d   1       3.866   0.998  -2.973  0.00  0.00    -0.024 A 
ATOM     23  H   LIG d   1       4.715   0.469  -5.150  0.00  0.00     0.036 H 
BRANCH  22  24
ATOM     24  C   LIG d   1       4.495   0.568  -1.646  0.00  0.00    -0.059 C 
ATOM     25  H   LIG d   1       4.749  -0.502  -1.689  0.00  0.00     0.024 H 
ATOM     26  H   LIG d   1       3.781   0.744  -0.829  0.00  0.00     0.024 H 
ATOM     27  H   LIG d   1       5.409   1.155  -1.466  0.00  0.00     0.024 H 
ENDBRANCH  22  24
BRANCH  22  28
ATOM     28  C   LIG d   1       3.671   2.504  -3.154  0.00  0.00    -0.059 C 
ATOM     29  H   LIG d   1       3.491   2.726  -4.216  0.00  0.00     0.024 H 
ATOM     30  H   LIG d   1       4.574   3.034  -2.818  0.00  0.00     0.024 H 
ATOM     31  H   LIG d   1       2.808   2.837  -2.558  0.00  0.00     0.024 H 
ENDBRANCH  22  28
BRANCH  12  32
ATOM     32  C   LIG d   1       6.685  -2.849  -4.235  0.00  0.00    -0.026 C 
ATOM     33  H   LIG d   1       6.017  -3.592  -4.696  0.00  0.00     0.029 H 
ATOM     34  H   LIG d   1       6.758  -3.044  -3.155  0.00  0.00     0.029 H 
ATOM     35  H   LIG d   1       7.684  -2.923  -4.689  0.00  0.00     0.029 H 
ENDBRANCH  12  32
ENDBRANCH  10  12
ENDBRANCH   7  10
ENDBRANCH   1   7
BRANCH   1  36
ATOM     36  N   LIG d   1       6.881   0.350  -7.427  0.00  0.00    -0.284 NA
BRANCH  36  37
ATOM     37  C   LIG d   1       6.091   0.060  -8.499  0.00  0.00     0.036 C 
BRANCH  37  38
ATOM     38  C   LIG d   1       4.986   0.805  -8.749  0.00  0.00    -0.035 A 
ATOM     39  C   LIG d   1       4.999   2.139  -9.155  0.00  0.00    -0.127 A 
ATOM     40  C   LIG d   1       3.592   2.644  -9.341  0.00  0.00    -0.038 A 
ATOM     41  O   LIG d   1       6.003   2.800  -9.336  0.00  0.00    -0.876 OA
ATOM     42  C   LIG d   1       2.649   1.480  -9.001  0.00  0.00    -0.025 A 
ATOM     43  H   LIG d   1       3.426   2.957 -10.382  0.00  0.00     0.030 H 
ATOM     44  H   LIG d   1       3.390   3.488  -8.666  0.00  0.00     0.030 H 
ATOM     45  C   LIG d   1       3.570   0.311  -8.620  0.00  0.00    -0.006 A 
ATOM     46  H   LIG d   1       1.791   2.055  -8.627  0.00  0.00     0.032 H 
ATOM     47  C   LIG d   1       2.701   0.205  -9.874  0.00  0.00    -0.024 A 
ATOM     48  H   LIG d   1       3.741  -0.408  -7.805  0.00  0.00     0.036 H 
BRANCH  47  49
ATOM     49  C   LIG d   1       3.405   0.294 -11.231  0.00  0.00    -0.059 C 
ATOM     50  H   LIG d   1       4.345   0.853 -11.120  0.00  0.00     0.024 H 
ATOM     51  H   LIG d   1       2.751   0.812 -11.948  0.00  0.00     0.024 H 
ATOM     52  H   LIG d   1       3.622  -0.719 -11.598  0.00  0.00     0.024 H 
ENDBRANCH  47  49
BRANCH  47  53
ATOM     53  C   LIG d   1       1.492  -0.732  -9.819  0.00  0.00    -0.059 C 
ATOM     54  H   LIG d   1       0.829  -0.525 -10.671  0.00  0.00     0.024 H 
ATOM     55  H   LIG d   1       0.944  -0.568  -8.879  0.00  0.00     0.024 H 
ATOM     56  H   LIG d   1       1.834  -1.775  -9.866  0.00  0.00     0.024 H 
ENDBRANCH  47  53
ENDBRANCH  37  38
BRANCH  37  57
ATOM     57  C   LIG d   1       6.445  -1.089  -9.407  0.00  0.00    -0.022 C 
ATOM     58  H   LIG d   1       5.917  -1.995  -9.076  0.00  0.00     0.029 H 
ATOM     59  H   LIG d   1       7.530  -1.262  -9.373  0.00  0.00     0.029 H 
ATOM     60  H   LIG d   1       6.146  -0.846 -10.438  0.00  0.00     0.029 H 
ENDBRANCH  37  57
ENDBRANCH  36  37
ENDBRANCH   1  36
TORSDOF 13
ENDMDL
MODEL 5
REMARK VINA RESULT:      -5.8      2.189      3.566
REMARK  13 active torsions:
REMARK  status: ('A' for Active; 'I' for Inactive)
REMARK    1  A    between atoms: C_1  and  C_2 
REMARK    2  A    between atoms: C_2  and  C_4 
REMARK    3  A    between atoms: C_2  and  N_19 
REMARK    4  A    between atoms: C_4  and  N_5 
REMARK    5  A    between atoms: N_5  and  C_6 
REMARK    6  A    between atoms: C_6  and  C_18 
REMARK    7  A    between atoms: C_12  and  C_13 
REMARK    8  A    between atoms: C_12  and  C_14 
REMARK    9  A    between atoms: N_19  and  C_20 
REMARK   10  A    between atoms: C_20  and  C_21 
REMARK   11  A    between atoms: C_20  and  C_32 
REMARK   12  A    between atoms: C_26  and  C_27 
REMARK   13  A    between atoms: C_26  and  C_28 
ROOT
ATOM      1  C   LIG d   1       6.430   1.031  -8.514  0.00  0.00     0.064 C 
ATOM      2  H   LIG d   1       6.411   0.278  -9.315  0.00  0.00     0.056 H 
ENDROOT
BRANCH   1   3
ATOM      3  C   LIG d   1       7.382   2.174  -8.870  0.00  0.00    -0.041 C 
ATOM      4  H   LIG d   1       8.128   1.817  -9.595  0.00  0.00     0.025 H 
ATOM      5  H   LIG d   1       7.891   2.524  -7.960  0.00  0.00     0.025 H 
ATOM      6  H   LIG d   1       6.810   3.003  -9.312  0.00  0.00     0.025 H 
ENDBRANCH   1   3
BRANCH   1   7
ATOM      7  C   LIG d   1       6.865   0.398  -7.190  0.00  0.00     0.031 C 
ATOM      8  H   LIG d   1       7.382  -0.552  -7.392  0.00  0.00     0.048 H 
ATOM      9  H   LIG d   1       7.546   1.081  -6.663  0.00  0.00     0.048 H 
BRANCH   7  10
ATOM     10  N   LIG d   1       5.686   0.144  -6.359  0.00  0.00    -0.345 N 
ATOM     11  H   LIG d   1       4.857   0.867  -6.344  0.00  0.00     0.146 HD
BRANCH  10  12
ATOM     12  C   LIG d   1       5.616  -0.988  -5.603  0.00  0.00     0.008 C 
ATOM     13  C   LIG d   1       4.711  -1.076  -4.598  0.00  0.00     0.015 A 
ATOM     14  C   LIG d   1       4.549  -2.186  -3.768  0.00  0.00     0.161 A 
ATOM     15  C   LIG d   1       3.734   0.006  -4.222  0.00  0.00    -0.002 A 
ATOM     16  C   LIG d   1       3.456  -1.932  -2.763  0.00  0.00     0.014 A 
ATOM     17  O   LIG d   1       5.198  -3.211  -3.843  0.00  0.00    -0.292 OA
ATOM     18  C   LIG d   1       2.915  -0.521  -3.036  0.00  0.00    -0.021 A 
ATOM     19  H   LIG d   1       3.853  -1.980  -1.738  0.00  0.00     0.035 H 
ATOM     20  H   LIG d   1       2.644  -2.665  -2.877  0.00  0.00     0.035 H 
ATOM     21  H   LIG d   1       1.875  -0.666  -2.705  0.00  0.00     0.032 H 
ATOM     22  C   LIG d   1       3.865   0.686  -2.858  0.00  0.00    -0.024 A 
ATOM     23  H   LIG d   1       3.602   0.435  -5.226  0.00  0.00     0.036 H 
BRANCH  22  24
ATOM     24  C   LIG d   1       5.165   0.465  -2.080  0.00  0.00    -0.059 C 
ATOM     25  H   LIG d   1       4.957   0.505  -1.000  0.00  0.00     0.024 H 
ATOM     26  H   LIG d   1       5.887   1.251  -2.344  0.00  0.00     0.024 H 
ATOM     27  H   LIG d   1       5.583  -0.520  -2.337  0.00  0.00     0.024 H 
ENDBRANCH  22  24
BRANCH  22  28
ATOM     28  C   LIG d   1       3.224   2.065  -2.692  0.00  0.00    -0.059 C 
ATOM     29  H   LIG d   1       4.008   2.816  -2.519  0.00  0.00     0.024 H 
ATOM     30  H   LIG d   1       2.536   2.049  -1.835  0.00  0.00     0.024 H 
ATOM     31  H   LIG d   1       2.665   2.321  -3.605  0.00  0.00     0.024 H 
ENDBRANCH  22  28
BRANCH  12  32
ATOM     32  C   LIG d   1       6.544  -2.141  -5.887  0.00  0.00    -0.026 C 
ATOM     33  H   LIG d   1       6.644  -2.272  -6.974  0.00  0.00     0.029 H 
ATOM     34  H   LIG d   1       6.132  -3.059  -5.443  0.00  0.00     0.029 H 
ATOM     35  H   LIG d   1       7.532  -1.933  -5.450  0.00  0.00     0.029 H 
ENDBRANCH  12  32
ENDBRANCH  10  12
ENDBRANCH   7  10
ENDBRANCH   1   7
BRANCH   1  36
ATOM     36  N   LIG d   1       5.068   1.554  -8.379  0.00  0.00    -0.284 NA
BRANCH  36  37
ATOM     37  C   LIG d   1       4.123   1.242  -9.311  0.00  0.00     0.036 C 
BRANCH  37  38
ATOM     38  C   LIG d   1       3.795  -0.054  -9.536  0.00  0.00    -0.035 A 
ATOM     39  C   LIG d   1       3.137  -0.880  -8.624  0.00  0.00    -0.127 A 
ATOM     40  C   LIG d   1       2.934  -2.251  -9.211  0.00  0.00    -0.038 A 
ATOM     41  O   LIG d   1       2.777  -0.540  -7.514  0.00  0.00    -0.876 OA
ATOM     42  C   LIG d   1       3.544  -2.232 -10.621  0.00  0.00    -0.025 A 
ATOM     43  H   LIG d   1       1.863  -2.490  -9.280  0.00  0.00     0.030 H 
ATOM     44  H   LIG d   1       3.442  -3.014  -8.603  0.00  0.00     0.030 H 
ATOM     45  C   LIG d   1       4.095  -0.809 -10.803  0.00  0.00    -0.006 A 
ATOM     46  H   LIG d   1       3.846  -3.286 -10.695  0.00  0.00     0.032 H 
ATOM     47  C   LIG d   1       2.934  -1.284 -11.680  0.00  0.00    -0.024 A 
ATOM     48  H   LIG d   1       5.023  -0.282 -11.069  0.00  0.00     0.036 H 
BRANCH  47  49
ATOM     49  C   LIG d   1       1.550  -0.694 -11.399  0.00  0.00    -0.059 C 
ATOM     50  H   LIG d   1       1.611   0.404 -11.402  0.00  0.00     0.024 H 
ATOM     51  H   LIG d   1       1.198  -1.039 -10.416  0.00  0.00     0.024 H 
ATOM     52  H   LIG d   1       0.847  -1.024 -12.177  0.00  0.00     0.024 H 
ENDBRANCH  47  49
BRANCH  47  53
ATOM     53  C   LIG d   1       3.236  -1.587 -13.149  0.00  0.00    -0.059 C 
ATOM     54  H   LIG d   1       2.414  -2.178 -13.578  0.00  0.00     0.024 H 
ATOM     55  H   LIG d   1       4.174  -2.158 -13.220  0.00  0.00     0.024 H 
ATOM     56  H   LIG d   1       3.339  -0.644 -13.704  0.00  0.00     0.024 H 
ENDBRANCH  47  53
ENDBRANCH  37  38
BRANCH  37  57
ATOM     57  C   LIG d   1       3.443   2.337 -10.091  0.00  0.00    -0.022 C 
ATOM     58  H   LIG d   1       2.462   1.983 -10.441  0.00  0.00     0.029 H 
ATOM     59  H   LIG d   1       4.065   2.611 -10.956  0.00  0.00     0.029 H 
ATOM     60  H   LIG d   1       3.308   3.217  -9.445  0.00  0.00     0.029 H 
ENDBRANCH  37  57
ENDBRANCH  36  37
ENDBRANCH   1  36
TORSDOF 13
ENDMDL
MODEL 6
REMARK VINA RESULT:      -5.7      1.938      3.217
REMARK  13 active torsions:
REMARK  status: ('A' for Active; 'I' for Inactive)
REMARK    1  A    between atoms: C_1  and  C_2 
REMARK    2  A    between atoms: C_2  and  C_4 
REMARK    3  A    between atoms: C_2  and  N_19 
REMARK    4  A    between atoms: C_4  and  N_5 
REMARK    5  A    between atoms: N_5  and  C_6 
REMARK    6  A    between atoms: C_6  and  C_18 
REMARK    7  A    between atoms: C_12  and  C_13 
REMARK    8  A    between atoms: C_12  and  C_14 
REMARK    9  A    between atoms: N_19  and  C_20 
REMARK   10  A    between atoms: C_20  and  C_21 
REMARK   11  A    between atoms: C_20  and  C_32 
REMARK   12  A    between atoms: C_26  and  C_27 
REMARK   13  A    between atoms: C_26  and  C_28 
ROOT
ATOM      1  C   LIG d   1       8.520   1.367  -5.458  0.00  0.00     0.064 C 
ATOM      2  H   LIG d   1       9.358   1.900  -5.930  0.00  0.00     0.056 H 
ENDROOT
BRANCH   1   3
ATOM      3  C   LIG d   1       8.117   2.048  -4.150  0.00  0.00    -0.041 C 
ATOM      4  H   LIG d   1       7.807   1.285  -3.419  0.00  0.00     0.025 H 
ATOM      5  H   LIG d   1       7.281   2.737  -4.338  0.00  0.00     0.025 H 
ATOM      6  H   LIG d   1       8.973   2.611  -3.750  0.00  0.00     0.025 H 
ENDBRANCH   1   3
BRANCH   1   7
ATOM      7  C   LIG d   1       8.898  -0.091  -5.181  0.00  0.00     0.031 C 
ATOM      8  H   LIG d   1       8.778  -0.681  -6.101  0.00  0.00     0.048 H 
ATOM      9  H   LIG d   1       9.944  -0.141  -4.846  0.00  0.00     0.048 H 
BRANCH   7  10
ATOM     10  N   LIG d   1       8.023  -0.631  -4.137  0.00  0.00    -0.345 N 
ATOM     11  H   LIG d   1       8.102  -0.258  -3.105  0.00  0.00     0.146 HD
BRANCH  10  12
ATOM     12  C   LIG d   1       7.113  -1.597  -4.444  0.00  0.00     0.008 C 
ATOM     13  C   LIG d   1       5.787  -1.345  -4.312  0.00  0.00     0.015 A 
ATOM     14  C   LIG d   1       4.771  -2.255  -4.603  0.00  0.00     0.161 A 
ATOM     15  C   LIG d   1       5.203  -0.042  -3.837  0.00  0.00    -0.002 A 
ATOM     16  C   LIG d   1       3.424  -1.638  -4.337  0.00  0.00     0.014 A 
ATOM     17  O   LIG d   1       4.947  -3.387  -5.012  0.00  0.00    -0.292 OA
ATOM     18  C   LIG d   1       3.677  -0.208  -3.839  0.00  0.00    -0.021 A 
ATOM     19  H   LIG d   1       2.883  -2.204  -3.564  0.00  0.00     0.035 H 
ATOM     20  H   LIG d   1       2.822  -1.605  -5.256  0.00  0.00     0.035 H 
ATOM     21  H   LIG d   1       2.760   0.272  -4.215  0.00  0.00     0.032 H 
ATOM     22  C   LIG d   1       4.441  -0.008  -2.510  0.00  0.00    -0.024 A 
ATOM     23  H   LIG d   1       5.989   0.620  -4.228  0.00  0.00     0.036 H 
BRANCH  22  24
ATOM     24  C   LIG d   1       4.587  -1.215  -1.581  0.00  0.00    -0.059 C 
ATOM     25  H   LIG d   1       4.923  -2.087  -2.162  0.00  0.00     0.024 H 
ATOM     26  H   LIG d   1       3.617  -1.436  -1.114  0.00  0.00     0.024 H 
ATOM     27  H   LIG d   1       5.328  -0.988  -0.799  0.00  0.00     0.024 H 
ENDBRANCH  22  24
BRANCH  22  28
ATOM     28  C   LIG d   1       4.296   1.347  -1.815  0.00  0.00    -0.059 C 
ATOM     29  H   LIG d   1       5.180   1.533  -1.186  0.00  0.00     0.024 H 
ATOM     30  H   LIG d   1       3.394   1.342  -1.186  0.00  0.00     0.024 H 
ATOM     31  H   LIG d   1       4.212   2.141  -2.572  0.00  0.00     0.024 H 
ENDBRANCH  22  28
BRANCH  12  32
ATOM     32  C   LIG d   1       7.579  -2.944  -4.932  0.00  0.00    -0.026 C 
ATOM     33  H   LIG d   1       8.147  -2.819  -5.867  0.00  0.00     0.029 H 
ATOM     34  H   LIG d   1       6.708  -3.589  -5.117  0.00  0.00     0.029 H 
ATOM     35  H   LIG d   1       8.224  -3.408  -4.171  0.00  0.00     0.029 H 
ENDBRANCH  12  32
ENDBRANCH  10  12
ENDBRANCH   7  10
ENDBRANCH   1   7
BRANCH   1  36
ATOM     36  N   LIG d   1       7.397   1.409  -6.398  0.00  0.00    -0.284 NA
BRANCH  36  37
ATOM     37  C   LIG d   1       7.611   1.740  -7.702  0.00  0.00     0.036 C 
BRANCH  37  38
ATOM     38  C   LIG d   1       6.740   1.332  -8.657  0.00  0.00    -0.035 A 
ATOM     39  C   LIG d   1       6.919   0.217  -9.475  0.00  0.00    -0.127 A 
ATOM     40  C   LIG d   1       5.753   0.065 -10.416  0.00  0.00    -0.038 A 
ATOM     41  O   LIG d   1       7.879  -0.528  -9.434  0.00  0.00    -0.876 OA
ATOM     42  C   LIG d   1       4.785   1.220 -10.122  0.00  0.00    -0.025 A 
ATOM     43  H   LIG d   1       5.241  -0.894 -10.248  0.00  0.00     0.030 H 
ATOM     44  H   LIG d   1       6.087   0.123 -11.462  0.00  0.00     0.030 H 
ATOM     45  C   LIG d   1       5.445   2.023  -8.991  0.00  0.00    -0.006 A 
ATOM     46  H   LIG d   1       4.353   1.345 -11.125  0.00  0.00     0.032 H 
ATOM     47  C   LIG d   1       4.124   1.297  -8.726  0.00  0.00    -0.024 A 
ATOM     48  H   LIG d   1       5.760   3.047  -8.744  0.00  0.00     0.036 H 
BRANCH  47  49
ATOM     49  C   LIG d   1       4.169   0.047  -7.843  0.00  0.00    -0.059 C 
ATOM     50  H   LIG d   1       3.325   0.066  -7.138  0.00  0.00     0.024 H 
ATOM     51  H   LIG d   1       5.115   0.030  -7.282  0.00  0.00     0.024 H 
ATOM     52  H   LIG d   1       4.100  -0.850  -8.474  0.00  0.00     0.024 H 
ENDBRANCH  47  49
BRANCH  47  53
ATOM     53  C   LIG d   1       2.862   2.152  -8.594  0.00  0.00    -0.059 C 
ATOM     54  H   LIG d   1       2.252   2.047  -9.503  0.00  0.00     0.024 H 
ATOM     55  H   LIG d   1       3.147   3.207  -8.462  0.00  0.00     0.024 H 
ATOM     56  H   LIG d   1       2.282   1.818  -7.722  0.00  0.00     0.024 H 
ENDBRANCH  47  53
ENDBRANCH  37  38
BRANCH  37  57
ATOM     57  C   LIG d   1       8.816   2.560  -8.083  0.00  0.00    -0.022 C 
ATOM     58  H   LIG d   1       9.186   3.102  -7.200  0.00  0.00     0.029 H 
ATOM     59  H   LIG d   1       8.537   3.279  -8.866  0.00  0.00     0.029 H 
ATOM     60  H   LIG d   1       9.607   1.895  -8.462  0.00  0.00     0.029 H 
ENDBRANCH  37  57
ENDBRANCH  36  37
ENDBRANCH   1  36
TORSDOF 13
ENDMDL
MODEL 7
REMARK VINA RESULT:      -5.6      3.052      4.830
REMARK  13 active torsions:
REMARK  status: ('A' for Active; 'I' for Inactive)
REMARK    1  A    between atoms: C_1  and  C_2 
REMARK    2  A    between atoms: C_2  and  C_4 
REMARK    3  A    between atoms: C_2  and  N_19 
REMARK    4  A    between atoms: C_4  and  N_5 
REMARK    5  A    between atoms: N_5  and  C_6 
REMARK    6  A    between atoms: C_6  and  C_18 
REMARK    7  A    between atoms: C_12  and  C_13 
REMARK    8  A    between atoms: C_12  and  C_14 
REMARK    9  A    between atoms: N_19  and  C_20 
REMARK   10  A    between atoms: C_20  and  C_21 
REMARK   11  A    between atoms: C_20  and  C_32 
REMARK   12  A    between atoms: C_26  and  C_27 
REMARK   13  A    between atoms: C_26  and  C_28 
ROOT
ATOM      1  C   LIG d   1       3.253   0.824  -8.804  0.00  0.00     0.064 C 
ATOM      2  H   LIG d   1       4.244   0.440  -9.086  0.00  0.00     0.056 H 
ENDROOT
BRANCH   1   3
ATOM      3  C   LIG d   1       3.249   2.353  -8.796  0.00  0.00    -0.041 C 
ATOM      4  H   LIG d   1       3.493   2.725  -9.802  0.00  0.00     0.025 H 
ATOM      5  H   LIG d   1       3.998   2.717  -8.078  0.00  0.00     0.025 H 
ATOM      6  H   LIG d   1       2.253   2.716  -8.503  0.00  0.00     0.025 H 
ENDBRANCH   1   3
BRANCH   1   7
ATOM      7  C   LIG d   1       2.847   0.305  -7.422  0.00  0.00     0.031 C 
ATOM      8  H   LIG d   1       2.192   1.040  -6.934  0.00  0.00     0.048 H 
ATOM      9  H   LIG d   1       2.311  -0.649  -7.532  0.00  0.00     0.048 H 
BRANCH   7  10
ATOM     10  N   LIG d   1       4.046   0.100  -6.606  0.00  0.00    -0.345 N 
ATOM     11  H   LIG d   1       4.736   0.937  -6.422  0.00  0.00     0.146 HD
BRANCH  10  12
ATOM     12  C   LIG d   1       4.308  -1.127  -6.076  0.00  0.00     0.008 C 
ATOM     13  C   LIG d   1       4.104  -1.352  -4.754  0.00  0.00     0.015 A 
ATOM     14  C   LIG d   1       4.331  -2.568  -4.109  0.00  0.00     0.161 A 
ATOM     15  C   LIG d   1       3.594  -0.327  -3.777  0.00  0.00    -0.002 A 
ATOM     16  C   LIG d   1       4.000  -2.452  -2.644  0.00  0.00     0.014 A 
ATOM     17  O   LIG d   1       4.740  -3.577  -4.650  0.00  0.00    -0.292 OA
ATOM     18  C   LIG d   1       3.523  -1.013  -2.405  0.00  0.00    -0.021 A 
ATOM     19  H   LIG d   1       4.891  -2.650  -2.028  0.00  0.00     0.035 H 
ATOM     20  H   LIG d   1       3.200  -3.154  -2.369  0.00  0.00     0.035 H 
ATOM     21  H   LIG d   1       2.829  -1.195  -1.570  0.00  0.00     0.032 H 
ATOM     22  C   LIG d   1       4.513   0.149  -2.651  0.00  0.00    -0.024 A 
ATOM     23  H   LIG d   1       2.967   0.242  -4.478  0.00  0.00     0.036 H 
BRANCH  22  24
ATOM     24  C   LIG d   1       6.001  -0.191  -2.762  0.00  0.00    -0.059 C 
ATOM     25  H   LIG d   1       6.202  -1.136  -2.235  0.00  0.00     0.024 H 
ATOM     26  H   LIG d   1       6.595   0.616  -2.309  0.00  0.00     0.024 H 
ATOM     27  H   LIG d   1       6.275  -0.297  -3.823  0.00  0.00     0.024 H 
ENDBRANCH  22  24
BRANCH  22  28
ATOM     28  C   LIG d   1       4.191   1.495  -1.999  0.00  0.00    -0.059 C 
ATOM     29  H   LIG d   1       4.275   1.403  -0.906  0.00  0.00     0.024 H 
ATOM     30  H   LIG d   1       3.167   1.795  -2.263  0.00  0.00     0.024 H 
ATOM     31  H   LIG d   1       4.900   2.256  -2.359  0.00  0.00     0.024 H 
ENDBRANCH  22  28
BRANCH  12  32
ATOM     32  C   LIG d   1       4.822  -2.235  -6.958  0.00  0.00    -0.026 C 
ATOM     33  H   LIG d   1       5.606  -1.842  -7.622  0.00  0.00     0.029 H 
ATOM     34  H   LIG d   1       3.996  -2.635  -7.564  0.00  0.00     0.029 H 
ATOM     35  H   LIG d   1       5.240  -3.039  -6.333  0.00  0.00     0.029 H 
ENDBRANCH  12  32
ENDBRANCH  10  12
ENDBRANCH   7  10
ENDBRANCH   1   7
BRANCH   1  36
ATOM     36  N   LIG d   1       2.301   0.338  -9.806  0.00  0.00    -0.284 NA
BRANCH  36  37
ATOM     37  C   LIG d   1       2.702  -0.564 -10.746  0.00  0.00     0.036 C 
BRANCH  37  38
ATOM     38  C   LIG d   1       2.174  -1.813 -10.757  0.00  0.00    -0.035 A 
ATOM     39  C   LIG d   1       1.091  -2.213 -11.539  0.00  0.00    -0.127 A 
ATOM     40  C   LIG d   1       0.780  -3.667 -11.297  0.00  0.00    -0.038 A 
ATOM     41  O   LIG d   1       0.485  -1.493 -12.308  0.00  0.00    -0.876 OA
ATOM     42  C   LIG d   1       1.787  -4.175 -10.254  0.00  0.00    -0.025 A 
ATOM     43  H   LIG d   1       0.890  -4.247 -12.225  0.00  0.00     0.030 H 
ATOM     44  H   LIG d   1      -0.242  -3.787 -10.908  0.00  0.00     0.030 H 
ATOM     45  C   LIG d   1       2.669  -2.962  -9.921  0.00  0.00    -0.006 A 
ATOM     46  H   LIG d   1       1.167  -4.945  -9.774  0.00  0.00     0.032 H 
ATOM     47  C   LIG d   1       3.291  -4.175 -10.615  0.00  0.00    -0.024 A 
ATOM     48  H   LIG d   1       3.019  -2.374  -9.059  0.00  0.00     0.036 H 
BRANCH  47  49
ATOM     49  C   LIG d   1       3.673  -4.025 -12.090  0.00  0.00    -0.059 C 
ATOM     50  H   LIG d   1       2.809  -3.649 -12.657  0.00  0.00     0.024 H 
ATOM     51  H   LIG d   1       3.976  -5.004 -12.490  0.00  0.00     0.024 H 
ATOM     52  H   LIG d   1       4.509  -3.317 -12.182  0.00  0.00     0.024 H 
ENDBRANCH  47  49
BRANCH  47  53
ATOM     53  C   LIG d   1       4.211  -5.072  -9.783  0.00  0.00    -0.059 C 
ATOM     54  H   LIG d   1       3.713  -5.331  -8.838  0.00  0.00     0.024 H 
ATOM     55  H   LIG d   1       5.149  -4.536  -9.571  0.00  0.00     0.024 H 
ATOM     56  H   LIG d   1       4.434  -5.990 -10.345  0.00  0.00     0.024 H 
ENDBRANCH  47  53
ENDBRANCH  37  38
BRANCH  37  57
ATOM     57  C   LIG d   1       3.732  -0.174 -11.774  0.00  0.00    -0.022 C 
ATOM     58  H   LIG d   1       4.718  -0.554 -11.468  0.00  0.00     0.029 H 
ATOM     59  H   LIG d   1       3.770   0.922 -11.857  0.00  0.00     0.029 H 
ATOM     60  H   LIG d   1       3.459  -0.605 -12.749  0.00  0.00     0.029 H 
ENDBRANCH  37  57
ENDBRANCH  36  37
ENDBRANCH   1  36
TORSDOF 13
ENDMDL
MODEL 8
REMARK VINA RESULT:      -5.5      1.737      6.200
REMARK  13 active torsions:
REMARK  status: ('A' for Active; 'I' for Inactive)
REMARK    1  A    between atoms: C_1  and  C_2 
REMARK    2  A    between atoms: C_2  and  C_4 
REMARK    3  A    between atoms: C_2  and  N_19 
REMARK    4  A    between atoms: C_4  and  N_5 
REMARK    5  A    between atoms: N_5  and  C_6 
REMARK    6  A    between atoms: C_6  and  C_18 
REMARK    7  A    between atoms: C_12  and  C_13 
REMARK    8  A    between atoms: C_12  and  C_14 
REMARK    9  A    between atoms: N_19  and  C_20 
REMARK   10  A    between atoms: C_20  and  C_21 
REMARK   11  A    between atoms: C_20  and  C_32 
REMARK   12  A    between atoms: C_26  and  C_27 
REMARK   13  A    between atoms: C_26  and  C_28 
ROOT
ATOM      1  C   LIG d   1       6.342  -3.000  -6.954  0.00  0.00     0.064 C 
ATOM      2  H   LIG d   1       6.992  -3.136  -6.078  0.00  0.00     0.056 H 
ENDROOT
BRANCH   1   3
ATOM      3  C   LIG d   1       5.689  -4.325  -7.352  0.00  0.00    -0.041 C 
ATOM      4  H   LIG d   1       5.035  -4.671  -6.538  0.00  0.00     0.025 H 
ATOM      5  H   LIG d   1       6.470  -5.076  -7.540  0.00  0.00     0.025 H 
ATOM      6  H   LIG d   1       5.092  -4.180  -8.265  0.00  0.00     0.025 H 
ENDBRANCH   1   3
BRANCH   1   7
ATOM      7  C   LIG d   1       7.141  -2.449  -8.138  0.00  0.00     0.031 C 
ATOM      8  H   LIG d   1       7.963  -1.822  -7.763  0.00  0.00     0.048 H 
ATOM      9  H   LIG d   1       7.553  -3.284  -8.722  0.00  0.00     0.048 H 
BRANCH   7  10
ATOM     10  N   LIG d   1       6.261  -1.644  -8.988  0.00  0.00    -0.345 N 
ATOM     11  H   LIG d   1       5.440  -2.124  -9.541  0.00  0.00     0.146 HD
BRANCH  10  12
ATOM     12  C   LIG d   1       6.461  -0.301  -9.095  0.00  0.00     0.008 C 
ATOM     13  C   LIG d   1       5.399   0.543  -9.111  0.00  0.00     0.015 A 
ATOM     14  C   LIG d   1       5.487   1.932  -9.209  0.00  0.00     0.161 A 
ATOM     15  C   LIG d   1       3.960   0.115  -9.016  0.00  0.00    -0.002 A 
ATOM     16  C   LIG d   1       4.112   2.545  -9.199  0.00  0.00     0.014 A 
ATOM     17  O   LIG d   1       6.525   2.559  -9.294  0.00  0.00    -0.292 OA
ATOM     18  C   LIG d   1       3.108   1.391  -9.075  0.00  0.00    -0.021 A 
ATOM     19  H   LIG d   1       3.925   3.095 -10.133  0.00  0.00     0.035 H 
ATOM     20  H   LIG d   1       3.996   3.225  -8.343  0.00  0.00     0.035 H 
ATOM     21  H   LIG d   1       2.305   1.915  -8.535  0.00  0.00     0.032 H 
ATOM     22  C   LIG d   1       3.035   0.345 -10.212  0.00  0.00    -0.024 A 
ATOM     23  H   LIG d   1       4.115  -0.778  -8.393  0.00  0.00     0.036 H 
BRANCH  22  24
ATOM     24  C   LIG d   1       3.686   0.697 -11.551  0.00  0.00    -0.059 C 
ATOM     25  H   LIG d   1       4.764   0.866 -11.402  0.00  0.00     0.024 H 
ATOM     26  H   LIG d   1       3.224   1.610 -11.954  0.00  0.00     0.024 H 
ATOM     27  H   LIG d   1       3.540  -0.132 -12.260  0.00  0.00     0.024 H 
ENDBRANCH  22  24
BRANCH  22  28
ATOM     28  C   LIG d   1       1.768  -0.509 -10.300  0.00  0.00    -0.059 C 
ATOM     29  H   LIG d   1       0.974   0.063 -10.802  0.00  0.00     0.024 H 
ATOM     30  H   LIG d   1       1.438  -0.780  -9.287  0.00  0.00     0.024 H 
ATOM     31  H   LIG d   1       1.981  -1.424 -10.873  0.00  0.00     0.024 H 
ENDBRANCH  22  28
BRANCH  12  32
ATOM     32  C   LIG d   1       7.861   0.248  -9.196  0.00  0.00    -0.026 C 
ATOM     33  H   LIG d   1       8.258   0.057 -10.204  0.00  0.00     0.029 H 
ATOM     34  H   LIG d   1       8.502  -0.246  -8.451  0.00  0.00     0.029 H 
ATOM     35  H   LIG d   1       7.846   1.331  -9.007  0.00  0.00     0.029 H 
ENDBRANCH  12  32
ENDBRANCH  10  12
ENDBRANCH   7  10
ENDBRANCH   1   7
BRANCH   1  36
ATOM     36  N   LIG d   1       5.304  -2.038  -6.577  0.00  0.00    -0.284 NA
BRANCH  36  37
ATOM     37  C   LIG d   1       5.497  -1.209  -5.513  0.00  0.00     0.036 C 
BRANCH  37  38
ATOM     38  C   LIG d   1       4.585  -1.167  -4.511  0.00  0.00    -0.035 A 
ATOM     39  C   LIG d   1       4.375  -2.184  -3.581  0.00  0.00    -0.127 A 
ATOM     40  C   LIG d   1       3.289  -1.793  -2.614  0.00  0.00    -0.038 A 
ATOM     41  O   LIG d   1       4.984  -3.235  -3.552  0.00  0.00    -0.876 OA
ATOM     42  C   LIG d   1       2.803  -0.396  -3.025  0.00  0.00    -0.025 A 
ATOM     43  H   LIG d   1       3.677  -1.758  -1.585  0.00  0.00     0.030 H 
ATOM     44  H   LIG d   1       2.450  -2.502  -2.664  0.00  0.00     0.030 H 
ATOM     45  C   LIG d   1       3.649  -0.017  -4.249  0.00  0.00    -0.006 A 
ATOM     46  H   LIG d   1       1.758  -0.469  -2.692  0.00  0.00     0.032 H 
ATOM     47  C   LIG d   1       3.799   0.786  -2.956  0.00  0.00    -0.024 A 
ATOM     48  H   LIG d   1       3.538   0.319  -5.291  0.00  0.00     0.036 H 
BRANCH  47  49
ATOM     49  C   LIG d   1       5.085   0.591  -2.148  0.00  0.00    -0.059 C 
ATOM     50  H   LIG d   1       5.208  -0.474  -1.905  0.00  0.00     0.024 H 
ATOM     51  H   LIG d   1       5.024   1.175  -1.218  0.00  0.00     0.024 H 
ATOM     52  H   LIG d   1       5.944   0.934  -2.741  0.00  0.00     0.024 H 
ENDBRANCH  47  49
BRANCH  47  53
ATOM     53  C   LIG d   1       3.210   2.199  -2.928  0.00  0.00    -0.059 C 
ATOM     54  H   LIG d   1       3.900   2.872  -2.401  0.00  0.00     0.024 H 
ATOM     55  H   LIG d   1       2.242   2.181  -2.405  0.00  0.00     0.024 H 
ATOM     56  H   LIG d   1       3.064   2.554  -3.957  0.00  0.00     0.024 H 
ENDBRANCH  47  53
ENDBRANCH  37  38
BRANCH  37  57
ATOM     57  C   LIG d   1       6.726  -0.339  -5.449  0.00  0.00    -0.022 C 
ATOM     58  H   LIG d   1       7.613  -0.968  -5.285  0.00  0.00     0.029 H 
ATOM     59  H   LIG d   1       6.625   0.377  -4.621  0.00  0.00     0.029 H 
ATOM     60  H   LIG d   1       6.835   0.210  -6.396  0.00  0.00     0.029 H 
ENDBRANCH  37  57
ENDBRANCH  36  37
ENDBRANCH   1  36
TORSDOF 13
ENDMDL
MODEL 9
REMARK VINA RESULT:      -5.5      2.701      4.555
REMARK  13 active torsions:
REMARK  status: ('A' for Active; 'I' for Inactive)
REMARK    1  A    between atoms: C_1  and  C_2 
REMARK    2  A    between atoms: C_2  and  C_4 
REMARK    3  A    between atoms: C_2  and  N_19 
REMARK    4  A    between atoms: C_4  and  N_5 
REMARK    5  A    between atoms: N_5  and  C_6 
REMARK    6  A    between atoms: C_6  and  C_18 
REMARK    7  A    between atoms: C_12  and  C_13 
REMARK    8  A    between atoms: C_12  and  C_14 
REMARK    9  A    between atoms: N_19  and  C_20 
REMARK   10  A    between atoms: C_20  and  C_21 
REMARK   11  A    between atoms: C_20  and  C_32 
REMARK   12  A    between atoms: C_26  and  C_27 
REMARK   13  A    between atoms: C_26  and  C_28 
ROOT
ATOM      1  C   LIG d   1       3.556   0.904  -9.065  0.00  0.00     0.064 C 
ATOM      2  H   LIG d   1       3.918   1.238 -10.048  0.00  0.00     0.056 H 
ENDROOT
BRANCH   1   3
ATOM      3  C   LIG d   1       2.799   2.029  -8.358  0.00  0.00    -0.041 C 
ATOM      4  H   LIG d   1       2.656   2.869  -9.054  0.00  0.00     0.025 H 
ATOM      5  H   LIG d   1       3.379   2.369  -7.487  0.00  0.00     0.025 H 
ATOM      6  H   LIG d   1       1.819   1.659  -8.024  0.00  0.00     0.025 H 
ENDBRANCH   1   3
BRANCH   1   7
ATOM      7  C   LIG d   1       4.725   0.445  -8.189  0.00  0.00     0.031 C 
ATOM      8  H   LIG d   1       5.183  -0.452  -8.631  0.00  0.00     0.048 H 
ATOM      9  H   LIG d   1       5.473   1.247  -8.127  0.00  0.00     0.048 H 
BRANCH   7  10
ATOM     10  N   LIG d   1       4.233   0.129  -6.845  0.00  0.00    -0.345 N 
ATOM     11  H   LIG d   1       3.567   0.832  -6.324  0.00  0.00     0.146 HD
BRANCH  10  12
ATOM     12  C   LIG d   1       4.603  -1.035  -6.241  0.00  0.00     0.008 C 
ATOM     13  C   LIG d   1       4.258  -1.268  -4.951  0.00  0.00     0.015 A 
ATOM     14  C   LIG d   1       4.576  -2.424  -4.238  0.00  0.00     0.161 A 
ATOM     15  C   LIG d   1       3.470  -0.320  -4.087  0.00  0.00    -0.002 A 
ATOM     16  C   LIG d   1       4.036  -2.339  -2.835  0.00  0.00     0.014 A 
ATOM     17  O   LIG d   1       5.202  -3.366  -4.684  0.00  0.00    -0.292 OA
ATOM     18  C   LIG d   1       3.318  -0.987  -2.713  0.00  0.00    -0.021 A 
ATOM     19  H   LIG d   1       4.854  -2.387  -2.100  0.00  0.00     0.035 H 
ATOM     20  H   LIG d   1       3.322  -3.152  -2.643  0.00  0.00     0.035 H 
ATOM     21  H   LIG d   1       2.554  -1.262  -1.970  0.00  0.00     0.032 H 
ATOM     22  C   LIG d   1       4.146   0.310  -2.867  0.00  0.00    -0.024 A 
ATOM     23  H   LIG d   1       2.866   0.135  -4.885  0.00  0.00     0.036 H 
BRANCH  22  24
ATOM     24  C   LIG d   1       5.669   0.203  -2.769  0.00  0.00    -0.059 C 
ATOM     25  H   LIG d   1       6.132   0.838  -3.539  0.00  0.00     0.024 H 
ATOM     26  H   LIG d   1       5.973  -0.842  -2.924  0.00  0.00     0.024 H 
ATOM     27  H   LIG d   1       5.997   0.536  -1.773  0.00  0.00     0.024 H 
ENDBRANCH  22  24
BRANCH  22  28
ATOM     28  C   LIG d   1       3.538   1.600  -2.312  0.00  0.00    -0.059 C 
ATOM     29  H   LIG d   1       4.337   2.335  -2.135  0.00  0.00     0.024 H 
ATOM     30  H   LIG d   1       3.022   1.384  -1.365  0.00  0.00     0.024 H 
ATOM     31  H   LIG d   1       2.818   2.008  -3.037  0.00  0.00     0.024 H 
ENDBRANCH  22  28
BRANCH  12  32
ATOM     32  C   LIG d   1       5.394  -2.063  -7.008  0.00  0.00    -0.026 C 
ATOM     33  H   LIG d   1       4.705  -2.706  -7.577  0.00  0.00     0.029 H 
ATOM     34  H   LIG d   1       5.972  -2.679  -6.304  0.00  0.00     0.029 H 
ATOM     35  H   LIG d   1       6.080  -1.556  -7.702  0.00  0.00     0.029 H 
ENDBRANCH  12  32
ENDBRANCH  10  12
ENDBRANCH   7  10
ENDBRANCH   1   7
BRANCH   1  36
ATOM     36  N   LIG d   1       2.650  -0.223  -9.297  0.00  0.00    -0.284 NA
BRANCH  36  37
ATOM     37  C   LIG d   1       2.516  -0.743 -10.550  0.00  0.00     0.036 C 
BRANCH  37  38
ATOM     38  C   LIG d   1       3.614  -1.127 -11.246  0.00  0.00    -0.035 A 
ATOM     39  C   LIG d   1       4.383  -2.255 -10.963  0.00  0.00    -0.127 A 
ATOM     40  C   LIG d   1       5.521  -2.372 -11.942  0.00  0.00    -0.038 A 
ATOM     41  O   LIG d   1       4.164  -3.035 -10.057  0.00  0.00    -0.876 OA
ATOM     42  C   LIG d   1       5.413  -1.178 -12.902  0.00  0.00    -0.025 A 
ATOM     43  H   LIG d   1       5.448  -3.309 -12.513  0.00  0.00     0.030 H 
ATOM     44  H   LIG d   1       6.488  -2.336 -11.419  0.00  0.00     0.030 H 
ATOM     45  C   LIG d   1       4.181  -0.391 -12.431  0.00  0.00    -0.006 A 
ATOM     46  H   LIG d   1       6.478  -1.047 -13.137  0.00  0.00     0.032 H 
ATOM     47  C   LIG d   1       4.162  -1.064 -13.804  0.00  0.00    -0.024 A 
ATOM     48  H   LIG d   1       3.883   0.624 -12.127  0.00  0.00     0.036 H 
BRANCH  47  49
ATOM     49  C   LIG d   1       3.283  -2.306 -13.970  0.00  0.00    -0.059 C 
ATOM     50  H   LIG d   1       2.229  -2.002 -14.041  0.00  0.00     0.024 H 
ATOM     51  H   LIG d   1       3.417  -2.967 -13.101  0.00  0.00     0.024 H 
ATOM     52  H   LIG d   1       3.574  -2.840 -14.886  0.00  0.00     0.024 H 
ENDBRANCH  47  49
BRANCH  47  53
ATOM     53  C   LIG d   1       4.267  -0.160 -15.036  0.00  0.00    -0.059 C 
ATOM     54  H   LIG d   1       3.627  -0.558 -15.836  0.00  0.00     0.024 H 
ATOM     55  H   LIG d   1       5.311  -0.130 -15.380  0.00  0.00     0.024 H 
ATOM     56  H   LIG d   1       3.938   0.855 -14.773  0.00  0.00     0.024 H 
ENDBRANCH  47  53
ENDBRANCH  37  38
BRANCH  37  57
ATOM     57  C   LIG d   1       1.147  -0.890 -11.162  0.00  0.00    -0.022 C 
ATOM     58  H   LIG d   1       1.233  -1.394 -12.137  0.00  0.00     0.029 H 
ATOM     59  H   LIG d   1       0.698   0.104 -11.301  0.00  0.00     0.029 H 
ATOM     60  H   LIG d   1       0.510  -1.489 -10.495  0.00  0.00     0.029 H 
ENDBRANCH  37  57
ENDBRANCH  36  37
ENDBRANCH   1  36
TORSDOF 13
ENDMDL
MODEL 10
REMARK VINA RESULT:      -5.5      2.751      4.963
REMARK  13 active torsions:
REMARK  status: ('A' for Active; 'I' for Inactive)
REMARK    1  A    between atoms: C_1  and  C_2 
REMARK    2  A    between atoms: C_2  and  C_4 
REMARK    3  A    between atoms: C_2  and  N_19 
REMARK    4  A    between atoms: C_4  and  N_5 
REMARK    5  A    between atoms: N_5  and  C_6 
REMARK    6  A    between atoms: C_6  and  C_18 
REMARK    7  A    between atoms: C_12  and  C_13 
REMARK    8  A    between atoms: C_12  and  C_14 
REMARK    9  A    between atoms: N_19  and  C_20 
REMARK   10  A    between atoms: C_20  and  C_21 
REMARK   11  A    between atoms: C_20  and  C_32 
REMARK   12  A    between atoms: C_26  and  C_27 
REMARK   13  A    between atoms: C_26  and  C_28 
ROOT
ATOM      1  C   LIG d   1       4.955   1.644  -8.686  0.00  0.00     0.064 C 
ATOM      2  H   LIG d   1       5.319   2.190  -7.803  0.00  0.00     0.056 H 
ENDROOT
BRANCH   1   3
ATOM      3  C   LIG d   1       3.903   2.466  -9.432  0.00  0.00    -0.041 C 
ATOM      4  H   LIG d   1       2.899   2.172  -9.091  0.00  0.00     0.025 H 
ATOM      5  H   LIG d   1       3.992   2.281 -10.513  0.00  0.00     0.025 H 
ATOM      6  H   LIG d   1       4.061   3.535  -9.229  0.00  0.00     0.025 H 
ENDBRANCH   1   3
BRANCH   1   7
ATOM      7  C   LIG d   1       4.356   0.296  -8.277  0.00  0.00     0.031 C 
ATOM      8  H   LIG d   1       3.332   0.217  -8.671  0.00  0.00     0.048 H 
ATOM      9  H   LIG d   1       4.971  -0.518  -8.687  0.00  0.00     0.048 H 
BRANCH   7  10
ATOM     10  N   LIG d   1       4.326   0.198  -6.816  0.00  0.00    -0.345 N 
ATOM     11  H   LIG d   1       4.051   1.075  -6.211  0.00  0.00     0.146 HD
BRANCH  10  12
ATOM     12  C   LIG d   1       4.640  -0.979  -6.206  0.00  0.00     0.008 C 
ATOM     13  C   LIG d   1       4.250  -1.205  -4.928  0.00  0.00     0.015 A 
ATOM     14  C   LIG d   1       4.510  -2.373  -4.210  0.00  0.00     0.161 A 
ATOM     15  C   LIG d   1       3.469  -0.235  -4.083  0.00  0.00    -0.002 A 
ATOM     16  C   LIG d   1       3.932  -2.275  -2.823  0.00  0.00     0.014 A 
ATOM     17  O   LIG d   1       5.118  -3.333  -4.641  0.00  0.00    -0.292 OA
ATOM     18  C   LIG d   1       3.255  -0.901  -2.716  0.00  0.00    -0.021 A 
ATOM     19  H   LIG d   1       4.726  -2.351  -2.065  0.00  0.00     0.035 H 
ATOM     20  H   LIG d   1       3.186  -3.065  -2.655  0.00  0.00     0.035 H 
ATOM     21  H   LIG d   1       2.460  -1.153  -1.997  0.00  0.00     0.032 H 
ATOM     22  C   LIG d   1       4.128   0.370  -2.842  0.00  0.00    -0.024 A 
ATOM     23  H   LIG d   1       2.903   0.242  -4.896  0.00  0.00     0.036 H 
BRANCH  22  24
ATOM     24  C   LIG d   1       5.643   0.213  -2.699  0.00  0.00    -0.059 C 
ATOM     25  H   LIG d   1       5.912  -0.850  -2.793  0.00  0.00     0.024 H 
ATOM     26  H   LIG d   1       5.959   0.587  -1.715  0.00  0.00     0.024 H 
ATOM     27  H   LIG d   1       6.147   0.789  -3.490  0.00  0.00     0.024 H 
ENDBRANCH  22  24
BRANCH  22  28
ATOM     28  C   LIG d   1       3.546   1.677  -2.299  0.00  0.00    -0.059 C 
ATOM     29  H   LIG d   1       2.477   1.539  -2.078  0.00  0.00     0.024 H 
ATOM     30  H   LIG d   1       3.664   2.470  -3.050  0.00  0.00     0.024 H 
ATOM     31  H   LIG d   1       4.078   1.960  -1.379  0.00  0.00     0.024 H 
ENDBRANCH  22  28
BRANCH  12  32
ATOM     32  C   LIG d   1       5.419  -2.030  -6.953  0.00  0.00    -0.026 C 
ATOM     33  H   LIG d   1       4.775  -2.903  -7.137  0.00  0.00     0.029 H 
ATOM     34  H   LIG d   1       6.289  -2.336  -6.354  0.00  0.00     0.029 H 
ATOM     35  H   LIG d   1       5.763  -1.619  -7.915  0.00  0.00     0.029 H 
ENDBRANCH  12  32
ENDBRANCH  10  12
ENDBRANCH   7  10
ENDBRANCH   1   7
BRANCH   1  36
ATOM     36  N   LIG d   1       6.109   1.419  -9.560  0.00  0.00    -0.284 NA
BRANCH  36  37
ATOM     37  C   LIG d   1       7.289   0.988  -9.033  0.00  0.00     0.036 C 
BRANCH  37  38
ATOM     38  C   LIG d   1       8.019   1.811  -8.240  0.00  0.00    -0.035 A 
ATOM     39  C   LIG d   1       8.006   1.791  -6.846  0.00  0.00    -0.127 A 
ATOM     40  C   LIG d   1       8.939   2.840  -6.299  0.00  0.00    -0.038 A 
ATOM     41  O   LIG d   1       7.339   1.034  -6.168  0.00  0.00    -0.876 OA
ATOM     42  C   LIG d   1       9.564   3.558  -7.504  0.00  0.00    -0.025 A 
ATOM     43  H   LIG d   1       9.733   2.376  -5.696  0.00  0.00     0.030 H 
ATOM     44  H   LIG d   1       8.389   3.567  -5.684  0.00  0.00     0.030 H 
ATOM     45  C   LIG d   1       8.953   2.880  -8.740  0.00  0.00    -0.006 A 
ATOM     46  H   LIG d   1       9.718   4.549  -7.055  0.00  0.00     0.032 H 
ATOM     47  C   LIG d   1      10.453   2.743  -8.473  0.00  0.00    -0.024 A 
ATOM     48  H   LIG d   1       8.411   3.125  -9.665  0.00  0.00     0.036 H 
BRANCH  47  49
ATOM     49  C   LIG d   1      10.965   1.380  -8.000  0.00  0.00    -0.059 C 
ATOM     50  H   LIG d   1      11.697   0.992  -8.723  0.00  0.00     0.024 H 
ATOM     51  H   LIG d   1      10.120   0.680  -7.922  0.00  0.00     0.024 H 
ATOM     52  H   LIG d   1      11.443   1.490  -7.017  0.00  0.00     0.024 H 
ENDBRANCH  47  49
BRANCH  47  53
ATOM     53  C   LIG d   1      11.407   3.529  -9.377  0.00  0.00    -0.059 C 
ATOM     54  H   LIG d   1      11.511   4.555  -8.996  0.00  0.00     0.024 H 
ATOM     55  H   LIG d   1      11.002   3.555 -10.399  0.00  0.00     0.024 H 
ATOM     56  H   LIG d   1      12.390   3.038  -9.384  0.00  0.00     0.024 H 
ENDBRANCH  47  53
ENDBRANCH  37  38
BRANCH  37  57
ATOM     57  C   LIG d   1       7.784  -0.403  -9.331  0.00  0.00    -0.022 C 
ATOM     58  H   LIG d   1       8.687  -0.607  -8.737  0.00  0.00     0.029 H 
ATOM     59  H   LIG d   1       8.023  -0.486 -10.402  0.00  0.00     0.029 H 
ATOM     60  H   LIG d   1       7.002  -1.134  -9.074  0.00  0.00     0.029 H 
ENDBRANCH  37  57
ENDBRANCH  36  37
ENDBRANCH   1  36
TORSDOF 13
ENDMDL
