MODEL 1
REMARK VINA RESULT:      -7.4      0.000      0.000
REMARK  5 active torsions:
REMARK  status: ('A' for Active; 'I' for Inactive)
REMARK    1  A    between atoms: C_1  and  N_2 
REMARK    2  A    between atoms: C_4  and  C_11 
REMARK    3  A    between atoms: C_18  and  O_22 
REMARK    4  A    between atoms: O_22  and  C_23 
REMARK    5  A    between atoms: C_23  and  C_25 
ROOT
ATOM      1  C   LIG d   1       5.308  -2.294  -6.152  0.00  0.00    -0.006 C 
ATOM      2  C   LIG d   1       4.410  -2.113  -7.161  0.00  0.00     0.176 A 
ATOM      3  C   LIG d   1       3.721  -0.906  -7.451  0.00  0.00     0.232 A 
ATOM      4  O   LIG d   1       3.809   0.159  -6.863  0.00  0.00    -0.283 OA
ATOM      5  C   LIG d   1       2.878  -1.215  -8.620  0.00  0.00     0.068 A 
ATOM      6  C   LIG d   1       1.978  -0.469  -9.380  0.00  0.00    -0.044 A 
ATOM      7  C   LIG d   1       1.326  -1.052 -10.431  0.00  0.00    -0.018 A 
ATOM      8  C   LIG d   1       1.556  -2.389 -10.742  0.00  0.00     0.135 A 
ATOM      9  C   LIG d   1       2.447  -3.143  -9.996  0.00  0.00     0.024 A 
ATOM     10  C   LIG d   1       3.117  -2.565  -8.927  0.00  0.00     0.143 A 
ATOM     11  O   LIG d   1       4.020  -3.057  -8.051  0.00  0.00    -0.451 OA
ATOM     12  H   LIG d   1       5.683  -3.283  -5.933  0.00  0.00     0.066 H 
ATOM     13  H   LIG d   1       1.798   0.569  -9.141  0.00  0.00     0.063 H 
ATOM     14  H   LIG d   1       0.629  -0.474 -11.019  0.00  0.00     0.065 H 
ATOM     15  H   LIG d   1       2.619  -4.181 -10.245  0.00  0.00     0.069 H 
ENDROOT
BRANCH   1  16
ATOM     16  C   LIG d   1       5.765  -1.149  -5.367  0.00  0.00     0.004 A 
ATOM     17  C   LIG d   1       6.841  -0.334  -5.642  0.00  0.00     0.013 A 
ATOM     18  N   LIG d   1       6.948   0.616  -4.680  0.00  0.00    -0.349 N 
ATOM     19  H   LIG d   1       7.501  -0.437  -6.492  0.00  0.00     0.082 H 
ATOM     20  C   LIG d   1       5.944   0.471  -3.744  0.00  0.00     0.049 A 
ATOM     21  C   LIG d   1       5.162  -0.631  -4.123  0.00  0.00     0.007 A 
ATOM     22  C   LIG d   1       5.615   1.176  -2.591  0.00  0.00    -0.038 A 
ATOM     23  C   LIG d   1       4.069  -1.011  -3.350  0.00  0.00    -0.052 A 
ATOM     24  C   LIG d   1       3.758  -0.300  -2.210  0.00  0.00    -0.061 A 
ATOM     25  H   LIG d   1       3.466  -1.858  -3.641  0.00  0.00     0.062 H 
ATOM     26  C   LIG d   1       4.531   0.789  -1.834  0.00  0.00    -0.060 A 
ATOM     27  H   LIG d   1       2.911  -0.592  -1.608  0.00  0.00     0.062 H 
ATOM     28  H   LIG d   1       4.279   1.339  -0.939  0.00  0.00     0.062 H 
ATOM     29  H   LIG d   1       6.211   2.025  -2.288  0.00  0.00     0.064 H 
BRANCH  18  30
ATOM     30  C   LIG d   1       7.980   1.655  -4.645  0.00  0.00     0.012 C 
ATOM     31  H   LIG d   1       8.883   1.255  -4.184  0.00  0.00     0.046 H 
ATOM     32  H   LIG d   1       7.620   2.504  -4.063  0.00  0.00     0.046 H 
ATOM     33  H   LIG d   1       8.204   1.980  -5.660  0.00  0.00     0.046 H 
ENDBRANCH  18  30
ENDBRANCH   1  16
BRANCH   8  34
ATOM     34  O   LIG d   1       0.902  -2.960 -11.787  0.00  0.00    -0.425 OA
BRANCH  34  35
ATOM     35  C   LIG d   1       0.499  -4.231 -11.634  0.00  0.00     0.315 C 
ATOM     36  O   LIG d   1       1.071  -5.121 -12.218  0.00  0.00    -0.250 OA
BRANCH  35  37
ATOM     37  C   LIG d   1      -0.667  -4.548 -10.733  0.00  0.00     0.057 C 
ATOM     38  C   LIG d   1      -1.964  -4.515 -11.545  0.00  0.00    -0.040 C 
ATOM     39  C   LIG d   1      -3.147  -4.836 -10.630  0.00  0.00    -0.052 C 
ATOM     40  H   LIG d   1      -2.097  -3.523 -11.976  0.00  0.00     0.027 H 
ATOM     41  H   LIG d   1      -1.910  -5.254 -12.344  0.00  0.00     0.027 H 
ATOM     42  C   LIG d   1      -2.960  -6.230 -10.025  0.00  0.00    -0.053 C 
ATOM     43  H   LIG d   1      -3.200  -4.097  -9.830  0.00  0.00     0.026 H 
ATOM     44  H   LIG d   1      -4.070  -4.813 -11.209  0.00  0.00     0.026 H 
ATOM     45  C   LIG d   1      -1.663  -6.262  -9.213  0.00  0.00    -0.052 C 
ATOM     46  H   LIG d   1      -3.803  -6.459  -9.372  0.00  0.00     0.026 H 
ATOM     47  H   LIG d   1      -2.906  -6.969 -10.824  0.00  0.00     0.026 H 
ATOM     48  C   LIG d   1      -0.480  -5.941 -10.128  0.00  0.00    -0.040 C 
ATOM     49  H   LIG d   1      -1.716  -5.523  -8.413  0.00  0.00     0.026 H 
ATOM     50  H   LIG d   1      -1.530  -7.254  -8.781  0.00  0.00     0.026 H 
ATOM     51  H   LIG d   1      -0.427  -6.681 -10.926  0.00  0.00     0.027 H 
ATOM     52  H   LIG d   1       0.444  -5.964  -9.549  0.00  0.00     0.027 H 
ATOM     53  H   LIG d   1      -0.721  -3.808  -9.934  0.00  0.00     0.041 H 
ENDBRANCH  35  37
ENDBRANCH  34  35
ENDBRANCH   8  34
TORSDOF 5
ENDMDL
MODEL 2
REMARK VINA RESULT:      -7.3      6.408      8.439
REMARK  5 active torsions:
REMARK  status: ('A' for Active; 'I' for Inactive)
REMARK    1  A    between atoms: C_1  and  N_2 
REMARK    2  A    between atoms: C_4  and  C_11 
REMARK    3  A    between atoms: C_18  and  O_22 
REMARK    4  A    between atoms: O_22  and  C_23 
REMARK    5  A    between atoms: C_23  and  C_25 
ROOT
ATOM      1  C   LIG d   1       6.828  -3.510  -5.128  0.00  0.00    -0.006 C 
ATOM      2  C   LIG d   1       6.564  -4.837  -5.297  0.00  0.00     0.176 A 
ATOM      3  C   LIG d   1       5.280  -5.405  -5.511  0.00  0.00     0.232 A 
ATOM      4  O   LIG d   1       4.212  -4.820  -5.580  0.00  0.00    -0.283 OA
ATOM      5  C   LIG d   1       5.517  -6.854  -5.635  0.00  0.00     0.068 A 
ATOM      6  C   LIG d   1       4.681  -7.949  -5.853  0.00  0.00    -0.044 A 
ATOM      7  C   LIG d   1       5.209  -9.208  -5.915  0.00  0.00    -0.018 A 
ATOM      8  C   LIG d   1       6.579  -9.401  -5.761  0.00  0.00     0.135 A 
ATOM      9  C   LIG d   1       7.422  -8.323  -5.544  0.00  0.00     0.024 A 
ATOM     10  C   LIG d   1       6.900  -7.038  -5.479  0.00  0.00     0.143 A 
ATOM     11  O   LIG d   1       7.480  -5.834  -5.283  0.00  0.00    -0.451 OA
ATOM     12  H   LIG d   1       7.820  -3.189  -4.844  0.00  0.00     0.066 H 
ATOM     13  H   LIG d   1       3.617  -7.803  -5.973  0.00  0.00     0.063 H 
ATOM     14  H   LIG d   1       4.562 -10.056  -6.083  0.00  0.00     0.065 H 
ATOM     15  H   LIG d   1       8.484  -8.482  -5.425  0.00  0.00     0.069 H 
ENDROOT
BRANCH   1  16
ATOM     16  C   LIG d   1       5.771  -2.523  -5.332  0.00  0.00     0.004 A 
ATOM     17  C   LIG d   1       5.434  -1.904  -6.516  0.00  0.00     0.013 A 
ATOM     18  N   LIG d   1       4.404  -1.048  -6.303  0.00  0.00    -0.349 N 
ATOM     19  H   LIG d   1       5.917  -2.073  -7.468  0.00  0.00     0.082 H 
ATOM     20  C   LIG d   1       4.018  -1.076  -4.978  0.00  0.00     0.049 A 
ATOM     21  C   LIG d   1       4.846  -1.991  -4.311  0.00  0.00     0.007 A 
ATOM     22  C   LIG d   1       3.030  -0.405  -4.265  0.00  0.00    -0.038 A 
ATOM     23  C   LIG d   1       4.679  -2.222  -2.948  0.00  0.00    -0.052 A 
ATOM     24  C   LIG d   1       3.695  -1.546  -2.258  0.00  0.00    -0.061 A 
ATOM     25  H   LIG d   1       5.316  -2.926  -2.434  0.00  0.00     0.062 H 
ATOM     26  C   LIG d   1       2.875  -0.642  -2.916  0.00  0.00    -0.060 A 
ATOM     27  H   LIG d   1       3.562  -1.722  -1.201  0.00  0.00     0.062 H 
ATOM     28  H   LIG d   1       2.107  -0.118  -2.366  0.00  0.00     0.062 H 
ATOM     29  H   LIG d   1       2.387   0.303  -4.767  0.00  0.00     0.064 H 
BRANCH  18  30
ATOM     30  C   LIG d   1       3.784  -0.215  -7.337  0.00  0.00     0.012 C 
ATOM     31  H   LIG d   1       3.755   0.821  -6.999  0.00  0.00     0.046 H 
ATOM     32  H   LIG d   1       2.768  -0.565  -7.524  0.00  0.00     0.046 H 
ATOM     33  H   LIG d   1       4.366  -0.282  -8.255  0.00  0.00     0.046 H 
ENDBRANCH  18  30
ENDBRANCH   1  16
BRANCH   8  34
ATOM     34  O   LIG d   1       7.095 -10.656  -5.824  0.00  0.00    -0.425 OA
BRANCH  34  35
ATOM     35  C   LIG d   1       6.656 -11.541  -4.916  0.00  0.00     0.315 C 
ATOM     36  O   LIG d   1       5.999 -12.493  -5.268  0.00  0.00    -0.250 OA
BRANCH  35  37
ATOM     37  C   LIG d   1       6.983 -11.350  -3.457  0.00  0.00     0.057 C 
ATOM     38  C   LIG d   1       5.694 -11.087  -2.675  0.00  0.00    -0.040 C 
ATOM     39  C   LIG d   1       6.027 -10.893  -1.194  0.00  0.00    -0.052 C 
ATOM     40  H   LIG d   1       5.213 -10.189  -3.060  0.00  0.00     0.027 H 
ATOM     41  H   LIG d   1       5.021 -11.937  -2.788  0.00  0.00     0.027 H 
ATOM     42  C   LIG d   1       6.703 -12.154  -0.653  0.00  0.00    -0.053 C 
ATOM     43  H   LIG d   1       6.700 -10.043  -1.081  0.00  0.00     0.026 H 
ATOM     44  H   LIG d   1       5.109 -10.706  -0.637  0.00  0.00     0.026 H 
ATOM     45  C   LIG d   1       7.992 -12.417  -1.436  0.00  0.00    -0.052 C 
ATOM     46  H   LIG d   1       6.940 -12.016   0.402  0.00  0.00     0.026 H 
ATOM     47  H   LIG d   1       6.031 -13.005  -0.766  0.00  0.00     0.026 H 
ATOM     48  C   LIG d   1       7.659 -12.612  -2.916  0.00  0.00    -0.040 C 
ATOM     49  H   LIG d   1       8.665 -11.567  -1.323  0.00  0.00     0.026 H 
ATOM     50  H   LIG d   1       8.473 -13.316  -1.050  0.00  0.00     0.026 H 
ATOM     51  H   LIG d   1       6.987 -13.462  -3.028  0.00  0.00     0.027 H 
ATOM     52  H   LIG d   1       8.578 -12.799  -3.473  0.00  0.00     0.027 H 
ATOM     53  H   LIG d   1       7.656 -10.500  -3.344  0.00  0.00     0.041 H 
ENDBRANCH  35  37
ENDBRANCH  34  35
ENDBRANCH   8  34
TORSDOF 5
ENDMDL
MODEL 3
REMARK VINA RESULT:      -7.2      2.249      3.741
REMARK  5 active torsions:
REMARK  status: ('A' for Active; 'I' for Inactive)
REMARK    1  A    between atoms: C_1  and  N_2 
REMARK    2  A    between atoms: C_4  and  C_11 
REMARK    3  A    between atoms: C_18  and  O_22 
REMARK    4  A    between atoms: O_22  and  C_23 
REMARK    5  A    between atoms: C_23  and  C_25 
ROOT
ATOM      1  C   LIG d   1       5.191  -2.263  -6.122  0.00  0.00    -0.006 C 
ATOM      2  C   LIG d   1       4.333  -2.024  -7.153  0.00  0.00     0.176 A 
ATOM      3  C   LIG d   1       3.700  -0.784  -7.434  0.00  0.00     0.232 A 
ATOM      4  O   LIG d   1       3.811   0.262  -6.817  0.00  0.00    -0.283 OA
ATOM      5  C   LIG d   1       2.883  -1.032  -8.635  0.00  0.00     0.068 A 
ATOM      6  C   LIG d   1       2.036  -0.233  -9.403  0.00  0.00    -0.044 A 
ATOM      7  C   LIG d   1       1.395  -0.765 -10.487  0.00  0.00    -0.018 A 
ATOM      8  C   LIG d   1       1.583  -2.103 -10.825  0.00  0.00     0.135 A 
ATOM      9  C   LIG d   1       2.421  -2.909 -10.071  0.00  0.00     0.024 A 
ATOM     10  C   LIG d   1       3.079  -2.383  -8.968  0.00  0.00     0.143 A 
ATOM     11  O   LIG d   1       3.935  -2.930  -8.078  0.00  0.00    -0.451 OA
ATOM     12  H   LIG d   1       5.521  -3.272  -5.917  0.00  0.00     0.066 H 
ATOM     13  H   LIG d   1       1.888   0.805  -9.143  0.00  0.00     0.063 H 
ATOM     14  H   LIG d   1       0.740  -0.147 -11.081  0.00  0.00     0.065 H 
ATOM     15  H   LIG d   1       2.561  -3.946 -10.341  0.00  0.00     0.069 H 
ENDROOT
BRANCH   1  16
ATOM     16  C   LIG d   1       5.667  -1.156  -5.295  0.00  0.00     0.004 A 
ATOM     17  C   LIG d   1       6.810  -0.411  -5.490  0.00  0.00     0.013 A 
ATOM     18  N   LIG d   1       6.912   0.524  -4.512  0.00  0.00    -0.349 N 
ATOM     19  H   LIG d   1       7.516  -0.549  -6.295  0.00  0.00     0.082 H 
ATOM     20  C   LIG d   1       5.841   0.437  -3.646  0.00  0.00     0.049 A 
ATOM     21  C   LIG d   1       5.017  -0.609  -4.089  0.00  0.00     0.007 A 
ATOM     22  C   LIG d   1       5.482   1.153  -2.508  0.00  0.00    -0.038 A 
ATOM     23  C   LIG d   1       3.852  -0.924  -3.394  0.00  0.00    -0.052 A 
ATOM     24  C   LIG d   1       3.513  -0.202  -2.269  0.00  0.00    -0.061 A 
ATOM     25  H   LIG d   1       3.217  -1.728  -3.735  0.00  0.00     0.062 H 
ATOM     26  C   LIG d   1       4.327   0.831  -1.830  0.00  0.00    -0.060 A 
ATOM     27  H   LIG d   1       2.611  -0.444  -1.728  0.00  0.00     0.062 H 
ATOM     28  H   LIG d   1       4.052   1.390  -0.947  0.00  0.00     0.062 H 
ATOM     29  H   LIG d   1       6.109   1.959  -2.157  0.00  0.00     0.064 H 
BRANCH  18  30
ATOM     30  C   LIG d   1       8.004   1.494  -4.396  0.00  0.00     0.012 C 
ATOM     31  H   LIG d   1       8.663   1.404  -5.260  0.00  0.00     0.046 H 
ATOM     32  H   LIG d   1       8.570   1.296  -3.485  0.00  0.00     0.046 H 
ATOM     33  H   LIG d   1       7.592   2.502  -4.356  0.00  0.00     0.046 H 
ENDBRANCH  18  30
ENDBRANCH   1  16
BRANCH   8  34
ATOM     34  O   LIG d   1       0.941  -2.622 -11.903  0.00  0.00    -0.425 OA
BRANCH  34  35
ATOM     35  C   LIG d   1       1.699  -2.969 -12.955  0.00  0.00     0.315 C 
ATOM     36  O   LIG d   1       1.907  -4.136 -13.193  0.00  0.00    -0.250 OA
BRANCH  35  37
ATOM     37  C   LIG d   1       2.290  -1.903 -13.842  0.00  0.00     0.057 C 
ATOM     38  C   LIG d   1       3.762  -1.696 -13.479  0.00  0.00    -0.040 C 
ATOM     39  C   LIG d   1       4.362  -0.614 -14.379  0.00  0.00    -0.052 C 
ATOM     40  H   LIG d   1       3.839  -1.386 -12.437  0.00  0.00     0.027 H 
ATOM     41  H   LIG d   1       4.306  -2.630 -13.621  0.00  0.00     0.027 H 
ATOM     42  C   LIG d   1       4.254  -1.049 -15.842  0.00  0.00    -0.053 C 
ATOM     43  H   LIG d   1       3.818   0.321 -14.237  0.00  0.00     0.026 H 
ATOM     44  H   LIG d   1       5.411  -0.466 -14.120  0.00  0.00     0.026 H 
ATOM     45  C   LIG d   1       2.782  -1.256 -16.204  0.00  0.00    -0.052 C 
ATOM     46  H   LIG d   1       4.681  -0.278 -16.483  0.00  0.00     0.026 H 
ATOM     47  H   LIG d   1       4.797  -1.983 -15.984  0.00  0.00     0.026 H 
ATOM     48  C   LIG d   1       2.182  -2.338 -15.305  0.00  0.00    -0.040 C 
ATOM     49  H   LIG d   1       2.238  -0.322 -16.062  0.00  0.00     0.026 H 
ATOM     50  H   LIG d   1       2.705  -1.566 -17.247  0.00  0.00     0.026 H 
ATOM     51  H   LIG d   1       2.726  -3.272 -15.448  0.00  0.00     0.027 H 
ATOM     52  H   LIG d   1       1.133  -2.485 -15.563  0.00  0.00     0.027 H 
ATOM     53  H   LIG d   1       1.747  -0.969 -13.699  0.00  0.00     0.041 H 
ENDBRANCH  35  37
ENDBRANCH  34  35
ENDBRANCH   8  34
TORSDOF 5
ENDMDL
MODEL 4
REMARK VINA RESULT:      -7.2      6.841      9.763
REMARK  5 active torsions:
REMARK  status: ('A' for Active; 'I' for Inactive)
REMARK    1  A    between atoms: C_1  and  N_2 
REMARK    2  A    between atoms: C_4  and  C_11 
REMARK    3  A    between atoms: C_18  and  O_22 
REMARK    4  A    between atoms: O_22  and  C_23 
REMARK    5  A    between atoms: C_23  and  C_25 
ROOT
ATOM      1  C   LIG d   1       4.685  -9.637  -4.800  0.00  0.00    -0.006 C 
ATOM      2  C   LIG d   1       5.107  -8.378  -5.109  0.00  0.00     0.176 A 
ATOM      3  C   LIG d   1       6.441  -7.904  -5.008  0.00  0.00     0.232 A 
ATOM      4  O   LIG d   1       7.423  -8.524  -4.635  0.00  0.00    -0.283 OA
ATOM      5  C   LIG d   1       6.386  -6.500  -5.454  0.00  0.00     0.068 A 
ATOM      6  C   LIG d   1       7.344  -5.496  -5.589  0.00  0.00    -0.044 A 
ATOM      7  C   LIG d   1       6.975  -4.258  -6.035  0.00  0.00    -0.018 A 
ATOM      8  C   LIG d   1       5.646  -3.995  -6.353  0.00  0.00     0.135 A 
ATOM      9  C   LIG d   1       4.683  -4.983  -6.224  0.00  0.00     0.024 A 
ATOM     10  C   LIG d   1       5.042  -6.246  -5.773  0.00  0.00     0.143 A 
ATOM     11  O   LIG d   1       4.324  -7.370  -5.559  0.00  0.00    -0.451 OA
ATOM     12  H   LIG d   1       3.628  -9.864  -4.789  0.00  0.00     0.066 H 
ATOM     13  H   LIG d   1       8.377  -5.697  -5.343  0.00  0.00     0.063 H 
ATOM     14  H   LIG d   1       7.718  -3.481  -6.139  0.00  0.00     0.065 H 
ATOM     15  H   LIG d   1       3.653  -4.770  -6.473  0.00  0.00     0.069 H 
ENDROOT
BRANCH   1  16
ATOM     16  C   LIG d   1       5.660 -10.678  -4.485  0.00  0.00     0.004 A 
ATOM     17  C   LIG d   1       6.333 -11.479  -5.382  0.00  0.00     0.013 A 
ATOM     18  N   LIG d   1       7.150 -12.327  -4.708  0.00  0.00    -0.349 N 
ATOM     19  H   LIG d   1       6.227 -11.439  -6.456  0.00  0.00     0.082 H 
ATOM     20  C   LIG d   1       7.054 -12.112  -3.348  0.00  0.00     0.049 A 
ATOM     21  C   LIG d   1       6.125 -11.080  -3.143  0.00  0.00     0.007 A 
ATOM     22  C   LIG d   1       7.672 -12.700  -2.250  0.00  0.00    -0.038 A 
ATOM     23  C   LIG d   1       5.828 -10.653  -1.852  0.00  0.00    -0.052 A 
ATOM     24  C   LIG d   1       6.451 -11.248  -0.776  0.00  0.00    -0.061 A 
ATOM     25  H   LIG d   1       5.114  -9.858  -1.693  0.00  0.00     0.062 H 
ATOM     26  C   LIG d   1       7.369 -12.268  -0.977  0.00  0.00    -0.060 A 
ATOM     27  H   LIG d   1       6.223 -10.920   0.227  0.00  0.00     0.062 H 
ATOM     28  H   LIG d   1       7.852 -12.728  -0.127  0.00  0.00     0.062 H 
ATOM     29  H   LIG d   1       8.388 -13.496  -2.395  0.00  0.00     0.064 H 
BRANCH  18  30
ATOM     30  C   LIG d   1       8.018 -13.326  -5.337  0.00  0.00     0.012 C 
ATOM     31  H   LIG d   1       8.987 -12.878  -5.557  0.00  0.00     0.046 H 
ATOM     32  H   LIG d   1       7.559 -13.673  -6.263  0.00  0.00     0.046 H 
ATOM     33  H   LIG d   1       8.152 -14.169  -4.660  0.00  0.00     0.046 H 
ENDBRANCH  18  30
ENDBRANCH   1  16
BRANCH   8  34
ATOM     34  O   LIG d   1       5.290  -2.762  -6.795  0.00  0.00    -0.425 OA
BRANCH  34  35
ATOM     35  C   LIG d   1       5.391  -1.748  -5.920  0.00  0.00     0.315 C 
ATOM     36  O   LIG d   1       6.191  -0.863  -6.112  0.00  0.00    -0.250 OA
BRANCH  35  37
ATOM     37  C   LIG d   1       4.507  -1.714  -4.701  0.00  0.00     0.057 C 
ATOM     38  C   LIG d   1       5.375  -1.712  -3.440  0.00  0.00    -0.040 C 
ATOM     39  C   LIG d   1       4.477  -1.678  -2.202  0.00  0.00    -0.052 C 
ATOM     40  H   LIG d   1       5.988  -2.614  -3.420  0.00  0.00     0.027 H 
ATOM     41  H   LIG d   1       6.021  -0.834  -3.446  0.00  0.00     0.027 H 
ATOM     42  C   LIG d   1       3.618  -0.412  -2.230  0.00  0.00    -0.053 C 
ATOM     43  H   LIG d   1       3.831  -2.556  -2.197  0.00  0.00     0.026 H 
ATOM     44  H   LIG d   1       5.096  -1.677  -1.304  0.00  0.00     0.026 H 
ATOM     45  C   LIG d   1       2.750  -0.414  -3.491  0.00  0.00    -0.052 C 
ATOM     46  H   LIG d   1       2.978  -0.387  -1.348  0.00  0.00     0.026 H 
ATOM     47  H   LIG d   1       4.263   0.466  -2.236  0.00  0.00     0.026 H 
ATOM     48  C   LIG d   1       3.647  -0.448  -4.729  0.00  0.00    -0.040 C 
ATOM     49  H   LIG d   1       2.103  -1.292  -3.485  0.00  0.00     0.026 H 
ATOM     50  H   LIG d   1       2.137   0.487  -3.510  0.00  0.00     0.026 H 
ATOM     51  H   LIG d   1       4.292   0.430  -4.734  0.00  0.00     0.027 H 
ATOM     52  H   LIG d   1       3.029  -0.450  -5.626  0.00  0.00     0.027 H 
ATOM     53  H   LIG d   1       3.861  -2.592  -4.695  0.00  0.00     0.041 H 
ENDBRANCH  35  37
ENDBRANCH  34  35
ENDBRANCH   8  34
TORSDOF 5
ENDMDL
MODEL 5
REMARK VINA RESULT:      -7.2      3.180      9.056
REMARK  5 active torsions:
REMARK  status: ('A' for Active; 'I' for Inactive)
REMARK    1  A    between atoms: C_1  and  N_2 
REMARK    2  A    between atoms: C_4  and  C_11 
REMARK    3  A    between atoms: C_18  and  O_22 
REMARK    4  A    between atoms: O_22  and  C_23 
REMARK    5  A    between atoms: C_23  and  C_25 
ROOT
ATOM      1  C   LIG d   1       2.812   0.226 -10.091  0.00  0.00    -0.006 C 
ATOM      2  C   LIG d   1       3.658  -0.308  -9.166  0.00  0.00     0.176 A 
ATOM      3  C   LIG d   1       4.076  -1.664  -9.110  0.00  0.00     0.232 A 
ATOM      4  O   LIG d   1       3.760  -2.569  -9.864  0.00  0.00    -0.283 OA
ATOM      5  C   LIG d   1       4.979  -1.741  -7.948  0.00  0.00     0.068 A 
ATOM      6  C   LIG d   1       5.709  -2.776  -7.365  0.00  0.00    -0.044 A 
ATOM      7  C   LIG d   1       6.472  -2.533  -6.258  0.00  0.00    -0.018 A 
ATOM      8  C   LIG d   1       6.520  -1.255  -5.708  0.00  0.00     0.135 A 
ATOM      9  C   LIG d   1       5.800  -0.216  -6.275  0.00  0.00     0.024 A 
ATOM     10  C   LIG d   1       5.021  -0.448  -7.401  0.00  0.00     0.143 A 
ATOM     11  O   LIG d   1       4.236   0.364  -8.142  0.00  0.00    -0.451 OA
ATOM     12  H   LIG d   1       2.453   1.239  -9.974  0.00  0.00     0.066 H 
ATOM     13  H   LIG d   1       5.673  -3.769  -7.790  0.00  0.00     0.063 H 
ATOM     14  H   LIG d   1       7.038  -3.334  -5.807  0.00  0.00     0.065 H 
ATOM     15  H   LIG d   1       5.843   0.773  -5.842  0.00  0.00     0.069 H 
ENDROOT
BRANCH   1  16
ATOM     16  C   LIG d   1       2.391  -0.570 -11.242  0.00  0.00     0.004 A 
ATOM     17  C   LIG d   1       1.185  -1.219 -11.402  0.00  0.00     0.013 A 
ATOM     18  N   LIG d   1       1.169  -1.854 -12.600  0.00  0.00    -0.349 N 
ATOM     19  H   LIG d   1       0.379  -1.224 -10.684  0.00  0.00     0.082 H 
ATOM     20  C   LIG d   1       2.353  -1.641 -13.277  0.00  0.00     0.049 A 
ATOM     21  C   LIG d   1       3.168  -0.835 -12.468  0.00  0.00     0.007 A 
ATOM     22  C   LIG d   1       2.824  -2.059 -14.517  0.00  0.00    -0.038 A 
ATOM     23  C   LIG d   1       4.436  -0.460 -12.906  0.00  0.00    -0.052 A 
ATOM     24  C   LIG d   1       4.885  -0.885 -14.139  0.00  0.00    -0.061 A 
ATOM     25  H   LIG d   1       5.063   0.161 -12.285  0.00  0.00     0.062 H 
ATOM     26  C   LIG d   1       4.080  -1.682 -14.939  0.00  0.00    -0.060 A 
ATOM     27  H   LIG d   1       5.867  -0.596 -14.481  0.00  0.00     0.062 H 
ATOM     28  H   LIG d   1       4.441  -2.009 -15.903  0.00  0.00     0.062 H 
ATOM     29  H   LIG d   1       2.206  -2.681 -15.148  0.00  0.00     0.064 H 
BRANCH  18  30
ATOM     30  C   LIG d   1       0.048  -2.650 -13.108  0.00  0.00     0.012 C 
ATOM     31  H   LIG d   1      -0.621  -2.010 -13.683  0.00  0.00     0.046 H 
ATOM     32  H   LIG d   1      -0.497  -3.084 -12.269  0.00  0.00     0.046 H 
ATOM     33  H   LIG d   1       0.427  -3.447 -13.747  0.00  0.00     0.046 H 
ENDBRANCH  18  30
ENDBRANCH   1  16
BRANCH   8  34
ATOM     34  O   LIG d   1       7.281  -1.023  -4.607  0.00  0.00    -0.425 OA
BRANCH  34  35
ATOM     35  C   LIG d   1       6.918  -1.644  -3.474  0.00  0.00     0.315 C 
ATOM     36  O   LIG d   1       7.565  -2.578  -3.062  0.00  0.00    -0.250 OA
BRANCH  35  37
ATOM     37  C   LIG d   1       5.704  -1.175  -2.714  0.00  0.00     0.057 C 
ATOM     38  C   LIG d   1       5.664   0.355  -2.709  0.00  0.00    -0.040 C 
ATOM     39  C   LIG d   1       4.431   0.830  -1.937  0.00  0.00    -0.052 C 
ATOM     40  H   LIG d   1       6.564   0.740  -2.229  0.00  0.00     0.027 H 
ATOM     41  H   LIG d   1       5.614   0.720  -3.735  0.00  0.00     0.027 H 
ATOM     42  C   LIG d   1       3.168   0.290  -2.610  0.00  0.00    -0.053 C 
ATOM     43  H   LIG d   1       4.481   0.465  -0.911  0.00  0.00     0.026 H 
ATOM     44  H   LIG d   1       4.403   1.920  -1.934  0.00  0.00     0.026 H 
ATOM     45  C   LIG d   1       3.208  -1.240  -2.615  0.00  0.00    -0.052 C 
ATOM     46  H   LIG d   1       2.289   0.628  -2.060  0.00  0.00     0.026 H 
ATOM     47  H   LIG d   1       3.118   0.654  -3.636  0.00  0.00     0.026 H 
ATOM     48  C   LIG d   1       4.440  -1.716  -3.387  0.00  0.00    -0.040 C 
ATOM     49  H   LIG d   1       3.258  -1.606  -1.589  0.00  0.00     0.026 H 
ATOM     50  H   LIG d   1       2.308  -1.625  -3.095  0.00  0.00     0.026 H 
ATOM     51  H   LIG d   1       4.389  -1.351  -4.412  0.00  0.00     0.027 H 
ATOM     52  H   LIG d   1       4.469  -2.806  -3.390  0.00  0.00     0.027 H 
ATOM     53  H   LIG d   1       5.754  -1.540  -1.688  0.00  0.00     0.041 H 
ENDBRANCH  35  37
ENDBRANCH  34  35
ENDBRANCH   8  34
TORSDOF 5
ENDMDL
MODEL 6
REMARK VINA RESULT:      -7.1      6.664      9.253
REMARK  5 active torsions:
REMARK  status: ('A' for Active; 'I' for Inactive)
REMARK    1  A    between atoms: C_1  and  N_2 
REMARK    2  A    between atoms: C_4  and  C_11 
REMARK    3  A    between atoms: C_18  and  O_22 
REMARK    4  A    between atoms: O_22  and  C_23 
REMARK    5  A    between atoms: C_23  and  C_25 
ROOT
ATOM      1  C   LIG d   1       7.173  -3.096  -5.405  0.00  0.00    -0.006 C 
ATOM      2  C   LIG d   1       7.878  -4.100  -4.811  0.00  0.00     0.176 A 
ATOM      3  C   LIG d   1       8.600  -3.997  -3.593  0.00  0.00     0.232 A 
ATOM      4  O   LIG d   1       8.715  -3.015  -2.879  0.00  0.00    -0.283 OA
ATOM      5  C   LIG d   1       9.180  -5.335  -3.375  0.00  0.00     0.068 A 
ATOM      6  C   LIG d   1       9.982  -5.883  -2.375  0.00  0.00    -0.044 A 
ATOM      7  C   LIG d   1      10.374  -7.190  -2.456  0.00  0.00    -0.018 A 
ATOM      8  C   LIG d   1       9.977  -7.975  -3.535  0.00  0.00     0.135 A 
ATOM      9  C   LIG d   1       9.180  -7.444  -4.536  0.00  0.00     0.024 A 
ATOM     10  C   LIG d   1       8.774  -6.118  -4.468  0.00  0.00     0.143 A 
ATOM     11  O   LIG d   1       8.012  -5.361  -5.287  0.00  0.00    -0.451 OA
ATOM     12  H   LIG d   1       6.762  -3.237  -6.395  0.00  0.00     0.066 H 
ATOM     13  H   LIG d   1      10.292  -5.276  -1.536  0.00  0.00     0.063 H 
ATOM     14  H   LIG d   1      10.995  -7.614  -1.681  0.00  0.00     0.065 H 
ATOM     15  H   LIG d   1       8.877  -8.060  -5.370  0.00  0.00     0.069 H 
ENDROOT
BRANCH   1  16
ATOM     16  C   LIG d   1       6.970  -1.831  -4.703  0.00  0.00     0.004 A 
ATOM     17  C   LIG d   1       7.717  -0.681  -4.839  0.00  0.00     0.013 A 
ATOM     18  N   LIG d   1       7.224   0.279  -4.018  0.00  0.00    -0.349 N 
ATOM     19  H   LIG d   1       8.567  -0.563  -5.495  0.00  0.00     0.082 H 
ATOM     20  C   LIG d   1       6.131  -0.195  -3.321  0.00  0.00     0.049 A 
ATOM     21  C   LIG d   1       5.921  -1.527  -3.711  0.00  0.00     0.007 A 
ATOM     22  C   LIG d   1       5.284   0.381  -2.380  0.00  0.00    -0.038 A 
ATOM     23  C   LIG d   1       4.874  -2.260  -3.159  0.00  0.00    -0.052 A 
ATOM     24  C   LIG d   1       4.045  -1.671  -2.228  0.00  0.00    -0.061 A 
ATOM     25  H   LIG d   1       4.710  -3.284  -3.459  0.00  0.00     0.062 H 
ATOM     26  C   LIG d   1       4.252  -0.355  -1.841  0.00  0.00    -0.060 A 
ATOM     27  H   LIG d   1       3.232  -2.236  -1.797  0.00  0.00     0.062 H 
ATOM     28  H   LIG d   1       3.597   0.097  -1.111  0.00  0.00     0.062 H 
ATOM     29  H   LIG d   1       5.437   1.405  -2.071  0.00  0.00     0.064 H 
BRANCH  18  30
ATOM     30  C   LIG d   1       7.770   1.633  -3.894  0.00  0.00     0.012 C 
ATOM     31  H   LIG d   1       8.827   1.624  -4.161  0.00  0.00     0.046 H 
ATOM     32  H   LIG d   1       7.658   1.977  -2.866  0.00  0.00     0.046 H 
ATOM     33  H   LIG d   1       7.233   2.305  -4.563  0.00  0.00     0.046 H 
ENDBRANCH  18  30
ENDBRANCH   1  16
BRANCH   8  34
ATOM     34  O   LIG d   1      10.372  -9.272  -3.606  0.00  0.00    -0.425 OA
BRANCH  34  35
ATOM     35  C   LIG d   1       9.407 -10.205  -3.601  0.00  0.00     0.315 C 
ATOM     36  O   LIG d   1       9.293 -10.963  -4.535  0.00  0.00    -0.250 OA
BRANCH  35  37
ATOM     37  C   LIG d   1       8.464 -10.307  -2.429  0.00  0.00     0.057 C 
ATOM     38  C   LIG d   1       7.020 -10.207  -2.925  0.00  0.00    -0.040 C 
ATOM     39  C   LIG d   1       6.064 -10.310  -1.736  0.00  0.00    -0.052 C 
ATOM     40  H   LIG d   1       6.874  -9.250  -3.427  0.00  0.00     0.027 H 
ATOM     41  H   LIG d   1       6.819 -11.018  -3.625  0.00  0.00     0.027 H 
ATOM     42  C   LIG d   1       6.268 -11.653  -1.032  0.00  0.00    -0.053 C 
ATOM     43  H   LIG d   1       6.264  -9.498  -1.036  0.00  0.00     0.026 H 
ATOM     44  H   LIG d   1       5.035 -10.239  -2.090  0.00  0.00     0.026 H 
ATOM     45  C   LIG d   1       7.713 -11.753  -0.535  0.00  0.00    -0.052 C 
ATOM     46  H   LIG d   1       5.587 -11.727  -0.184  0.00  0.00     0.026 H 
ATOM     47  H   LIG d   1       6.068 -12.465  -1.731  0.00  0.00     0.026 H 
ATOM     48  C   LIG d   1       8.669 -11.650  -1.725  0.00  0.00    -0.040 C 
ATOM     49  H   LIG d   1       7.913 -10.941   0.165  0.00  0.00     0.026 H 
ATOM     50  H   LIG d   1       7.858 -12.710  -0.034  0.00  0.00     0.026 H 
ATOM     51  H   LIG d   1       8.468 -12.462  -2.423  0.00  0.00     0.027 H 
ATOM     52  H   LIG d   1       9.698 -11.721  -1.371  0.00  0.00     0.027 H 
ATOM     53  H   LIG d   1       8.664  -9.495  -1.730  0.00  0.00     0.041 H 
ENDBRANCH  35  37
ENDBRANCH  34  35
ENDBRANCH   8  34
TORSDOF 5
ENDMDL
MODEL 7
REMARK VINA RESULT:      -7.0      6.278     10.136
REMARK  5 active torsions:
REMARK  status: ('A' for Active; 'I' for Inactive)
REMARK    1  A    between atoms: C_1  and  N_2 
REMARK    2  A    between atoms: C_4  and  C_11 
REMARK    3  A    between atoms: C_18  and  O_22 
REMARK    4  A    between atoms: O_22  and  C_23 
REMARK    5  A    between atoms: C_23  and  C_25 
ROOT
ATOM      1  C   LIG d   1      10.831   5.305  -1.524  0.00  0.00    -0.006 C 
ATOM      2  C   LIG d   1      10.276   4.533  -2.501  0.00  0.00     0.176 A 
ATOM      3  C   LIG d   1       9.989   4.953  -3.826  0.00  0.00     0.232 A 
ATOM      4  O   LIG d   1      10.183   6.054  -4.314  0.00  0.00    -0.283 OA
ATOM      5  C   LIG d   1       9.408   3.771  -4.487  0.00  0.00     0.068 A 
ATOM      6  C   LIG d   1       8.926   3.529  -5.774  0.00  0.00    -0.044 A 
ATOM      7  C   LIG d   1       8.430   2.297  -6.094  0.00  0.00    -0.018 A 
ATOM      8  C   LIG d   1       8.401   1.283  -5.140  0.00  0.00     0.135 A 
ATOM      9  C   LIG d   1       8.876   1.509  -3.859  0.00  0.00     0.024 A 
ATOM     10  C   LIG d   1       9.384   2.755  -3.518  0.00  0.00     0.143 A 
ATOM     11  O   LIG d   1       9.901   3.239  -2.368  0.00  0.00    -0.451 OA
ATOM     12  H   LIG d   1      10.893   4.933  -0.511  0.00  0.00     0.066 H 
ATOM     13  H   LIG d   1       8.947   4.314  -6.516  0.00  0.00     0.063 H 
ATOM     14  H   LIG d   1       8.057   2.110  -7.090  0.00  0.00     0.065 H 
ATOM     15  H   LIG d   1       8.850   0.716  -3.125  0.00  0.00     0.069 H 
ENDROOT
BRANCH   1  16
ATOM     16  C   LIG d   1      11.343   6.635  -1.847  0.00  0.00     0.004 A 
ATOM     17  C   LIG d   1      12.556   6.936  -2.426  0.00  0.00     0.013 A 
ATOM     18  N   LIG d   1      12.672   8.281  -2.563  0.00  0.00    -0.349 N 
ATOM     19  H   LIG d   1      13.302   6.214  -2.724  0.00  0.00     0.082 H 
ATOM     20  C   LIG d   1      11.541   8.914  -2.090  0.00  0.00     0.049 A 
ATOM     21  C   LIG d   1      10.662   7.925  -1.622  0.00  0.00     0.007 A 
ATOM     22  C   LIG d   1      11.168  10.251  -2.009  0.00  0.00    -0.038 A 
ATOM     23  C   LIG d   1       9.429   8.284  -1.083  0.00  0.00    -0.052 A 
ATOM     24  C   LIG d   1       9.077   9.615  -1.012  0.00  0.00    -0.061 A 
ATOM     25  H   LIG d   1       8.751   7.524  -0.724  0.00  0.00     0.062 H 
ATOM     26  C   LIG d   1       9.945  10.593  -1.473  0.00  0.00    -0.060 A 
ATOM     27  H   LIG d   1       8.122   9.897  -0.594  0.00  0.00     0.062 H 
ATOM     28  H   LIG d   1       9.659  11.633  -1.412  0.00  0.00     0.062 H 
ATOM     29  H   LIG d   1      11.836  11.022  -2.364  0.00  0.00     0.064 H 
BRANCH  18  30
ATOM     30  C   LIG d   1      13.833   8.964  -3.138  0.00  0.00     0.012 C 
ATOM     31  H   LIG d   1      14.731   8.681  -2.589  0.00  0.00     0.046 H 
ATOM     32  H   LIG d   1      13.691  10.043  -3.069  0.00  0.00     0.046 H 
ATOM     33  H   LIG d   1      13.942   8.678  -4.184  0.00  0.00     0.046 H 
ENDBRANCH  18  30
ENDBRANCH   1  16
BRANCH   8  34
ATOM     34  O   LIG d   1       7.905   0.062  -5.469  0.00  0.00    -0.425 OA
BRANCH  34  35
ATOM     35  C   LIG d   1       6.579  -0.108  -5.354  0.00  0.00     0.315 C 
ATOM     36  O   LIG d   1       5.847   0.207  -6.263  0.00  0.00    -0.250 OA
BRANCH  35  37
ATOM     37  C   LIG d   1       6.002  -0.694  -4.090  0.00  0.00     0.057 C 
ATOM     38  C   LIG d   1       5.262   0.398  -3.313  0.00  0.00    -0.040 C 
ATOM     39  C   LIG d   1       4.677  -0.196  -2.031  0.00  0.00    -0.052 C 
ATOM     40  H   LIG d   1       5.958   1.197  -3.059  0.00  0.00     0.027 H 
ATOM     41  H   LIG d   1       4.457   0.800  -3.929  0.00  0.00     0.027 H 
ATOM     42  C   LIG d   1       3.700  -1.318  -2.388  0.00  0.00    -0.053 C 
ATOM     43  H   LIG d   1       5.482  -0.598  -1.415  0.00  0.00     0.026 H 
ATOM     44  H   LIG d   1       4.150   0.581  -1.478  0.00  0.00     0.026 H 
ATOM     45  C   LIG d   1       4.440  -2.410  -3.165  0.00  0.00    -0.052 C 
ATOM     46  H   LIG d   1       3.283  -1.742  -1.474  0.00  0.00     0.026 H 
ATOM     47  H   LIG d   1       2.895  -0.918  -3.004  0.00  0.00     0.026 H 
ATOM     48  C   LIG d   1       5.025  -1.816  -4.447  0.00  0.00    -0.040 C 
ATOM     49  H   LIG d   1       5.245  -2.812  -2.550  0.00  0.00     0.026 H 
ATOM     50  H   LIG d   1       3.744  -3.209  -3.419  0.00  0.00     0.026 H 
ATOM     51  H   LIG d   1       4.219  -1.415  -5.062  0.00  0.00     0.027 H 
ATOM     52  H   LIG d   1       5.552  -2.593  -5.001  0.00  0.00     0.027 H 
ATOM     53  H   LIG d   1       6.807  -1.094  -3.474  0.00  0.00     0.041 H 
ENDBRANCH  35  37
ENDBRANCH  34  35
ENDBRANCH   8  34
TORSDOF 5
ENDMDL
MODEL 8
REMARK VINA RESULT:      -7.0      5.686      8.998
REMARK  5 active torsions:
REMARK  status: ('A' for Active; 'I' for Inactive)
REMARK    1  A    between atoms: C_1  and  N_2 
REMARK    2  A    between atoms: C_4  and  C_11 
REMARK    3  A    between atoms: C_18  and  O_22 
REMARK    4  A    between atoms: O_22  and  C_23 
REMARK    5  A    between atoms: C_23  and  C_25 
ROOT
ATOM      1  C   LIG d   1      10.305   4.102  -2.503  0.00  0.00    -0.006 C 
ATOM      2  C   LIG d   1       9.680   3.369  -3.467  0.00  0.00     0.176 A 
ATOM      3  C   LIG d   1       9.797   3.570  -4.867  0.00  0.00     0.232 A 
ATOM      4  O   LIG d   1      10.462   4.416  -5.442  0.00  0.00    -0.283 OA
ATOM      5  C   LIG d   1       8.944   2.535  -5.478  0.00  0.00     0.068 A 
ATOM      6  C   LIG d   1       8.634   2.200  -6.796  0.00  0.00    -0.044 A 
ATOM      7  C   LIG d   1       7.781   1.163  -7.052  0.00  0.00    -0.018 A 
ATOM      8  C   LIG d   1       7.221   0.441  -6.002  0.00  0.00     0.135 A 
ATOM      9  C   LIG d   1       7.520   0.762  -4.688  0.00  0.00     0.024 A 
ATOM     10  C   LIG d   1       8.384   1.813  -4.412  0.00  0.00     0.143 A 
ATOM     11  O   LIG d   1       8.839   2.330  -3.250  0.00  0.00    -0.451 OA
ATOM     12  H   LIG d   1      10.052   3.953  -1.462  0.00  0.00     0.066 H 
ATOM     13  H   LIG d   1       9.067   2.759  -7.613  0.00  0.00     0.063 H 
ATOM     14  H   LIG d   1       7.541   0.904  -8.073  0.00  0.00     0.065 H 
ATOM     15  H   LIG d   1       7.080   0.197  -3.879  0.00  0.00     0.069 H 
ENDROOT
BRANCH   1  16
ATOM     16  C   LIG d   1      11.316   5.088  -2.875  0.00  0.00     0.004 A 
ATOM     17  C   LIG d   1      12.647   4.848  -3.142  0.00  0.00     0.013 A 
ATOM     18  N   LIG d   1      13.265   6.016  -3.447  0.00  0.00    -0.349 N 
ATOM     19  H   LIG d   1      13.125   3.880  -3.110  0.00  0.00     0.082 H 
ATOM     20  C   LIG d   1      12.369   7.064  -3.404  0.00  0.00     0.049 A 
ATOM     21  C   LIG d   1      11.117   6.541  -3.047  0.00  0.00     0.007 A 
ATOM     22  C   LIG d   1      12.496   8.430  -3.636  0.00  0.00    -0.038 A 
ATOM     23  C   LIG d   1      10.015   7.384  -2.926  0.00  0.00    -0.052 A 
ATOM     24  C   LIG d   1      10.161   8.735  -3.160  0.00  0.00    -0.061 A 
ATOM     25  H   LIG d   1       9.051   6.982  -2.652  0.00  0.00     0.062 H 
ATOM     26  C   LIG d   1      11.398   9.253  -3.513  0.00  0.00    -0.060 A 
ATOM     27  H   LIG d   1       9.309   9.391  -3.067  0.00  0.00     0.062 H 
ATOM     28  H   LIG d   1      11.501  10.313  -3.694  0.00  0.00     0.062 H 
ATOM     29  H   LIG d   1      13.455   8.844  -3.910  0.00  0.00     0.064 H 
BRANCH  18  30
ATOM     30  C   LIG d   1      14.686   6.144  -3.783  0.00  0.00     0.012 C 
ATOM     31  H   LIG d   1      14.939   5.433  -4.569  0.00  0.00     0.046 H 
ATOM     32  H   LIG d   1      15.288   5.938  -2.898  0.00  0.00     0.046 H 
ATOM     33  H   LIG d   1      14.887   7.157  -4.131  0.00  0.00     0.046 H 
ENDBRANCH  18  30
ENDBRANCH   1  16
BRANCH   8  34
ATOM     34  O   LIG d   1       6.375  -0.588  -6.268  0.00  0.00    -0.425 OA
BRANCH  34  35
ATOM     35  C   LIG d   1       5.061  -0.343  -6.145  0.00  0.00     0.315 C 
ATOM     36  O   LIG d   1       4.524   0.458  -6.873  0.00  0.00    -0.250 OA
BRANCH  35  37
ATOM     37  C   LIG d   1       4.254  -1.070  -5.099  0.00  0.00     0.057 C 
ATOM     38  C   LIG d   1       5.147  -2.082  -4.378  0.00  0.00    -0.040 C 
ATOM     39  C   LIG d   1       4.328  -2.819  -3.317  0.00  0.00    -0.052 C 
ATOM     40  H   LIG d   1       5.538  -2.800  -5.099  0.00  0.00     0.027 H 
ATOM     41  H   LIG d   1       5.976  -1.559  -3.899  0.00  0.00     0.027 H 
ATOM     42  C   LIG d   1       3.780  -1.812  -2.304  0.00  0.00    -0.053 C 
ATOM     43  H   LIG d   1       3.499  -3.342  -3.795  0.00  0.00     0.026 H 
ATOM     44  H   LIG d   1       4.964  -3.540  -2.803  0.00  0.00     0.026 H 
ATOM     45  C   LIG d   1       2.887  -0.799  -3.026  0.00  0.00    -0.052 C 
ATOM     46  H   LIG d   1       3.196  -2.337  -1.548  0.00  0.00     0.026 H 
ATOM     47  H   LIG d   1       4.608  -1.289  -1.826  0.00  0.00     0.026 H 
ATOM     48  C   LIG d   1       3.706  -0.062  -4.086  0.00  0.00    -0.040 C 
ATOM     49  H   LIG d   1       2.058  -1.322  -3.504  0.00  0.00     0.026 H 
ATOM     50  H   LIG d   1       2.496  -0.082  -2.304  0.00  0.00     0.026 H 
ATOM     51  H   LIG d   1       4.533   0.461  -3.608  0.00  0.00     0.027 H 
ATOM     52  H   LIG d   1       3.069   0.659  -4.601  0.00  0.00     0.027 H 
ATOM     53  H   LIG d   1       3.426  -1.593  -5.577  0.00  0.00     0.041 H 
ENDBRANCH  35  37
ENDBRANCH  34  35
ENDBRANCH   8  34
TORSDOF 5
ENDMDL
MODEL 9
REMARK VINA RESULT:      -6.8      5.630      9.027
REMARK  5 active torsions:
REMARK  status: ('A' for Active; 'I' for Inactive)
REMARK    1  A    between atoms: C_1  and  N_2 
REMARK    2  A    between atoms: C_4  and  C_11 
REMARK    3  A    between atoms: C_18  and  O_22 
REMARK    4  A    between atoms: O_22  and  C_23 
REMARK    5  A    between atoms: C_23  and  C_25 
ROOT
ATOM      1  C   LIG d   1      10.018   4.348  -2.667  0.00  0.00    -0.006 C 
ATOM      2  C   LIG d   1       9.455   3.538  -3.608  0.00  0.00     0.176 A 
ATOM      3  C   LIG d   1       9.642   3.644  -5.012  0.00  0.00     0.232 A 
ATOM      4  O   LIG d   1      10.324   4.459  -5.610  0.00  0.00    -0.283 OA
ATOM      5  C   LIG d   1       8.837   2.554  -5.591  0.00  0.00     0.068 A 
ATOM      6  C   LIG d   1       8.601   2.122  -6.896  0.00  0.00    -0.044 A 
ATOM      7  C   LIG d   1       7.779   1.054  -7.122  0.00  0.00    -0.018 A 
ATOM      8  C   LIG d   1       7.175   0.397  -6.054  0.00  0.00     0.135 A 
ATOM      9  C   LIG d   1       7.400   0.814  -4.752  0.00  0.00     0.024 A 
ATOM     10  C   LIG d   1       8.233   1.897  -4.506  0.00  0.00     0.143 A 
ATOM     11  O   LIG d   1       8.619   2.502  -3.362  0.00  0.00    -0.451 OA
ATOM     12  H   LIG d   1       9.713   4.267  -1.633  0.00  0.00     0.066 H 
ATOM     13  H   LIG d   1       9.069   2.630  -7.727  0.00  0.00     0.063 H 
ATOM     14  H   LIG d   1       7.596   0.720  -8.132  0.00  0.00     0.065 H 
ATOM     15  H   LIG d   1       6.927   0.298  -3.929  0.00  0.00     0.069 H 
ENDROOT
BRANCH   1  16
ATOM     16  C   LIG d   1      11.033   5.324  -3.056  0.00  0.00     0.004 A 
ATOM     17  C   LIG d   1      10.846   6.674  -3.260  0.00  0.00     0.013 A 
ATOM     18  N   LIG d   1      12.025   7.246  -3.614  0.00  0.00    -0.349 N 
ATOM     19  H   LIG d   1       9.907   7.197  -3.157  0.00  0.00     0.082 H 
ATOM     20  C   LIG d   1      13.030   6.301  -3.647  0.00  0.00     0.049 A 
ATOM     21  C   LIG d   1      12.464   5.063  -3.303  0.00  0.00     0.007 A 
ATOM     22  C   LIG d   1      14.388   6.371  -3.940  0.00  0.00    -0.038 A 
ATOM     23  C   LIG d   1      13.258   3.920  -3.257  0.00  0.00    -0.052 A 
ATOM     24  C   LIG d   1      14.602   4.011  -3.550  0.00  0.00    -0.061 A 
ATOM     25  H   LIG d   1      12.824   2.968  -2.991  0.00  0.00     0.062 H 
ATOM     26  C   LIG d   1      15.162   5.233  -3.890  0.00  0.00    -0.060 A 
ATOM     27  H   LIG d   1      15.220   3.126  -3.516  0.00  0.00     0.062 H 
ATOM     28  H   LIG d   1      16.216   5.293  -4.119  0.00  0.00     0.062 H 
ATOM     29  H   LIG d   1      14.834   7.318  -4.207  0.00  0.00     0.064 H 
BRANCH  18  30
ATOM     30  C   LIG d   1      12.205   8.669  -3.913  0.00  0.00     0.012 C 
ATOM     31  H   LIG d   1      11.307   9.056  -4.394  0.00  0.00     0.046 H 
ATOM     32  H   LIG d   1      13.058   8.793  -4.581  0.00  0.00     0.046 H 
ATOM     33  H   LIG d   1      12.386   9.215  -2.988  0.00  0.00     0.046 H 
ENDBRANCH  18  30
ENDBRANCH   1  16
BRANCH   8  34
ATOM     34  O   LIG d   1       6.359  -0.663  -6.289  0.00  0.00    -0.425 OA
BRANCH  34  35
ATOM     35  C   LIG d   1       5.038  -0.449  -6.190  0.00  0.00     0.315 C 
ATOM     36  O   LIG d   1       4.488   0.307  -6.956  0.00  0.00    -0.250 OA
BRANCH  35  37
ATOM     37  C   LIG d   1       4.239  -1.153  -5.123  0.00  0.00     0.057 C 
ATOM     38  C   LIG d   1       5.144  -2.130  -4.369  0.00  0.00    -0.040 C 
ATOM     39  C   LIG d   1       4.332  -2.844  -3.286  0.00  0.00    -0.052 C 
ATOM     40  H   LIG d   1       5.545  -2.865  -5.066  0.00  0.00     0.027 H 
ATOM     41  H   LIG d   1       5.964  -1.581  -3.906  0.00  0.00     0.027 H 
ATOM     42  C   LIG d   1       3.768  -1.813  -2.307  0.00  0.00    -0.053 C 
ATOM     43  H   LIG d   1       3.511  -3.393  -3.749  0.00  0.00     0.026 H 
ATOM     44  H   LIG d   1       4.977  -3.540  -2.749  0.00  0.00     0.026 H 
ATOM     45  C   LIG d   1       2.864  -0.836  -3.061  0.00  0.00    -0.052 C 
ATOM     46  H   LIG d   1       3.190  -2.322  -1.535  0.00  0.00     0.026 H 
ATOM     47  H   LIG d   1       4.588  -1.264  -1.844  0.00  0.00     0.026 H 
ATOM     48  C   LIG d   1       3.675  -0.121  -4.144  0.00  0.00    -0.040 C 
ATOM     49  H   LIG d   1       2.043  -1.384  -3.524  0.00  0.00     0.026 H 
ATOM     50  H   LIG d   1       2.462  -0.101  -2.364  0.00  0.00     0.026 H 
ATOM     51  H   LIG d   1       4.494   0.427  -3.680  0.00  0.00     0.027 H 
ATOM     52  H   LIG d   1       3.030   0.575  -4.681  0.00  0.00     0.027 H 
ATOM     53  H   LIG d   1       3.419  -1.702  -5.586  0.00  0.00     0.041 H 
ENDBRANCH  35  37
ENDBRANCH  34  35
ENDBRANCH   8  34
TORSDOF 5
ENDMDL
MODEL 10
REMARK VINA RESULT:      -6.7      4.983      6.498
REMARK  5 active torsions:
REMARK  status: ('A' for Active; 'I' for Inactive)
REMARK    1  A    between atoms: C_1  and  N_2 
REMARK    2  A    between atoms: C_4  and  C_11 
REMARK    3  A    between atoms: C_18  and  O_22 
REMARK    4  A    between atoms: O_22  and  C_23 
REMARK    5  A    between atoms: C_23  and  C_25 
ROOT
ATOM      1  C   LIG d   1       7.780  -2.938  -3.894  0.00  0.00    -0.006 C 
ATOM      2  C   LIG d   1       7.090  -3.835  -4.654  0.00  0.00     0.176 A 
ATOM      3  C   LIG d   1       5.891  -3.571  -5.365  0.00  0.00     0.232 A 
ATOM      4  O   LIG d   1       5.279  -2.517  -5.422  0.00  0.00    -0.283 OA
ATOM      5  C   LIG d   1       5.545  -4.843  -6.024  0.00  0.00     0.068 A 
ATOM      6  C   LIG d   1       4.500  -5.241  -6.858  0.00  0.00    -0.044 A 
ATOM      7  C   LIG d   1       4.447  -6.527  -7.318  0.00  0.00    -0.018 A 
ATOM      8  C   LIG d   1       5.432  -7.441  -6.955  0.00  0.00     0.135 A 
ATOM      9  C   LIG d   1       6.476  -7.061  -6.128  0.00  0.00     0.024 A 
ATOM     10  C   LIG d   1       6.544  -5.758  -5.653  0.00  0.00     0.143 A 
ATOM     11  O   LIG d   1       7.432  -5.131  -4.851  0.00  0.00    -0.451 OA
ATOM     12  H   LIG d   1       8.612  -3.268  -3.289  0.00  0.00     0.066 H 
ATOM     13  H   LIG d   1       3.734  -4.533  -7.140  0.00  0.00     0.063 H 
ATOM     14  H   LIG d   1       3.638  -6.834  -7.963  0.00  0.00     0.065 H 
ATOM     15  H   LIG d   1       7.236  -7.777  -5.852  0.00  0.00     0.069 H 
ENDROOT
BRANCH   1  16
ATOM     16  C   LIG d   1       7.395  -1.528  -3.900  0.00  0.00     0.004 A 
ATOM     17  C   LIG d   1       7.986  -0.512  -4.619  0.00  0.00     0.013 A 
ATOM     18  N   LIG d   1       7.350   0.657  -4.358  0.00  0.00    -0.349 N 
ATOM     19  H   LIG d   1       8.827  -0.628  -5.287  0.00  0.00     0.082 H 
ATOM     20  C   LIG d   1       6.314   0.456  -3.469  0.00  0.00     0.049 A 
ATOM     21  C   LIG d   1       6.291  -0.908  -3.141  0.00  0.00     0.007 A 
ATOM     22  C   LIG d   1       5.377   1.310  -2.898  0.00  0.00    -0.038 A 
ATOM     23  C   LIG d   1       5.338  -1.398  -2.252  0.00  0.00    -0.052 A 
ATOM     24  C   LIG d   1       4.417  -0.535  -1.696  0.00  0.00    -0.061 A 
ATOM     25  H   LIG d   1       5.319  -2.447  -1.999  0.00  0.00     0.062 H 
ATOM     26  C   LIG d   1       4.439   0.813  -2.019  0.00  0.00    -0.060 A 
ATOM     27  H   LIG d   1       3.677  -0.911  -1.006  0.00  0.00     0.062 H 
ATOM     28  H   LIG d   1       3.713   1.480  -1.578  0.00  0.00     0.062 H 
ATOM     29  H   LIG d   1       5.385   2.363  -3.142  0.00  0.00     0.064 H 
BRANCH  18  30
ATOM     30  C   LIG d   1       7.709   1.951  -4.944  0.00  0.00     0.012 C 
ATOM     31  H   LIG d   1       6.991   2.706  -4.625  0.00  0.00     0.046 H 
ATOM     32  H   LIG d   1       7.695   1.873  -6.032  0.00  0.00     0.046 H 
ATOM     33  H   LIG d   1       8.707   2.236  -4.613  0.00  0.00     0.046 H 
ENDBRANCH  18  30
ENDBRANCH   1  16
BRANCH   8  34
ATOM     34  O   LIG d   1       5.370  -8.717  -7.417  0.00  0.00    -0.425 OA
BRANCH  34  35
ATOM     35  C   LIG d   1       4.794  -9.628  -6.616  0.00  0.00     0.315 C 
ATOM     36  O   LIG d   1       4.048 -10.457  -7.082  0.00  0.00    -0.250 OA
BRANCH  35  37
ATOM     37  C   LIG d   1       5.080  -9.617  -5.137  0.00  0.00     0.057 C 
ATOM     38  C   LIG d   1       3.907 -10.254  -4.386  0.00  0.00    -0.040 C 
ATOM     39  C   LIG d   1       4.197 -10.243  -2.884  0.00  0.00    -0.052 C 
ATOM     40  H   LIG d   1       2.998  -9.687  -4.585  0.00  0.00     0.027 H 
ATOM     41  H   LIG d   1       3.775 -11.282  -4.724  0.00  0.00     0.027 H 
ATOM     42  C   LIG d   1       5.473 -11.040  -2.605  0.00  0.00    -0.053 C 
ATOM     43  H   LIG d   1       4.329  -9.215  -2.546  0.00  0.00     0.026 H 
ATOM     44  H   LIG d   1       3.362 -10.697  -2.350  0.00  0.00     0.026 H 
ATOM     45  C   LIG d   1       6.645 -10.404  -3.356  0.00  0.00    -0.052 C 
ATOM     46  H   LIG d   1       5.680 -11.033  -1.535  0.00  0.00     0.026 H 
ATOM     47  H   LIG d   1       5.342 -12.068  -2.943  0.00  0.00     0.026 H 
ATOM     48  C   LIG d   1       6.356 -10.414  -4.857  0.00  0.00    -0.040 C 
ATOM     49  H   LIG d   1       6.778  -9.375  -3.018  0.00  0.00     0.026 H 
ATOM     50  H   LIG d   1       7.555 -10.971  -3.156  0.00  0.00     0.026 H 
ATOM     51  H   LIG d   1       6.225 -11.442  -5.194  0.00  0.00     0.027 H 
ATOM     52  H   LIG d   1       7.191  -9.961  -5.392  0.00  0.00     0.027 H 
ATOM     53  H   LIG d   1       5.211  -8.590  -4.799  0.00  0.00     0.041 H 
ENDBRANCH  35  37
ENDBRANCH  34  35
ENDBRANCH   8  34
TORSDOF 5
ENDMDL
