MODEL 1
REMARK VINA RESULT:      -7.5      0.000      0.000
REMARK  2 active torsions:
REMARK  status: ('A' for Active; 'I' for Inactive)
REMARK    1  A    between atoms: C_4  and  C_7 
REMARK    2  A    between atoms: C_10  and  C_14 
ROOT
ATOM      1  C   LIG d   1       4.071  -0.634  -5.805  0.00  0.00     0.112 A 
ATOM      2  C   LIG d   1       3.583   0.083  -6.885  0.00  0.00     0.189 A 
ATOM      3  C   LIG d   1       3.558  -0.799  -7.994  0.00  0.00     0.189 A 
ATOM      4  C   LIG d   1       3.076  -0.081  -9.075  0.00  0.00     0.112 A 
ATOM      5  C   LIG d   1       2.799   1.278  -8.571  0.00  0.00     0.349 A 
ATOM      6  O   LIG d   1       2.361   2.209  -9.217  0.00  0.00    -0.244 OA
ATOM      7  O   LIG d   1       3.129   1.300  -7.264  0.00  0.00    -0.418 OA
ATOM      8  O   LIG d   1       4.006  -2.018  -7.612  0.00  0.00    -0.418 OA
ATOM      9  C   LIG d   1       4.334  -1.996  -6.304  0.00  0.00     0.349 A 
ATOM     10  O   LIG d   1       4.768  -2.928  -5.657  0.00  0.00    -0.244 OA
ENDROOT
BRANCH   1  11
ATOM     11  C   LIG d   1       4.280  -0.136  -4.429  0.00  0.00    -0.007 A 
ATOM     12  C   LIG d   1       5.575   0.075  -3.948  0.00  0.00    -0.054 A 
ATOM     13  C   LIG d   1       5.762   0.545  -2.665  0.00  0.00    -0.061 A 
ATOM     14  H   LIG d   1       6.427  -0.131  -4.579  0.00  0.00     0.062 H 
ATOM     15  C   LIG d   1       4.672   0.809  -1.855  0.00  0.00    -0.062 A 
ATOM     16  H   LIG d   1       6.763   0.708  -2.292  0.00  0.00     0.062 H 
ATOM     17  C   LIG d   1       3.387   0.602  -2.325  0.00  0.00    -0.061 A 
ATOM     18  H   LIG d   1       4.824   1.177  -0.851  0.00  0.00     0.062 H 
ATOM     19  C   LIG d   1       3.184   0.133  -3.606  0.00  0.00    -0.054 A 
ATOM     20  H   LIG d   1       2.540   0.809  -1.687  0.00  0.00     0.062 H 
ATOM     21  H   LIG d   1       2.181  -0.027  -3.971  0.00  0.00     0.062 H 
ENDBRANCH   1  11
BRANCH   4  22
ATOM     22  C   LIG d   1       2.867  -0.579 -10.450  0.00  0.00    -0.007 A 
ATOM     23  C   LIG d   1       1.641  -1.142 -10.814  0.00  0.00    -0.054 A 
ATOM     24  C   LIG d   1       1.452  -1.604 -12.099  0.00  0.00    -0.061 A 
ATOM     25  H   LIG d   1       0.843  -1.215 -10.089  0.00  0.00     0.062 H 
ATOM     26  C   LIG d   1       2.473  -1.511 -13.028  0.00  0.00    -0.062 A 
ATOM     27  H   LIG d   1       0.504  -2.040 -12.382  0.00  0.00     0.062 H 
ATOM     28  C   LIG d   1       3.691  -0.955 -12.675  0.00  0.00    -0.061 A 
ATOM     29  H   LIG d   1       2.320  -1.875 -14.034  0.00  0.00     0.062 H 
ATOM     30  C   LIG d   1       3.891  -0.483 -11.394  0.00  0.00    -0.054 A 
ATOM     31  H   LIG d   1       4.483  -0.886 -13.405  0.00  0.00     0.062 H 
ATOM     32  H   LIG d   1       4.839  -0.045 -11.122  0.00  0.00     0.062 H 
ENDBRANCH   4  22
TORSDOF 2
ENDMDL
MODEL 2
REMARK VINA RESULT:      -7.5      0.014      7.447
REMARK  2 active torsions:
REMARK  status: ('A' for Active; 'I' for Inactive)
REMARK    1  A    between atoms: C_4  and  C_7 
REMARK    2  A    between atoms: C_10  and  C_14 
ROOT
ATOM      1  C   LIG d   1       3.073  -0.082  -9.074  0.00  0.00     0.112 A 
ATOM      2  C   LIG d   1       3.557  -0.797  -7.991  0.00  0.00     0.189 A 
ATOM      3  C   LIG d   1       3.584   0.089  -6.885  0.00  0.00     0.189 A 
ATOM      4  C   LIG d   1       4.073  -0.623  -5.804  0.00  0.00     0.112 A 
ATOM      5  C   LIG d   1       4.335  -1.987  -6.300  0.00  0.00     0.349 A 
ATOM      6  O   LIG d   1       4.773  -2.916  -5.650  0.00  0.00    -0.244 OA
ATOM      7  O   LIG d   1       4.010  -2.012  -7.608  0.00  0.00    -0.418 OA
ATOM      8  O   LIG d   1       3.125   1.304  -7.269  0.00  0.00    -0.418 OA
ATOM      9  C   LIG d   1       2.797   1.278  -8.576  0.00  0.00     0.349 A 
ATOM     10  O   LIG d   1       2.355   2.206  -9.225  0.00  0.00    -0.244 OA
ENDROOT
BRANCH   1  11
ATOM     11  C   LIG d   1       2.869  -0.583 -10.450  0.00  0.00    -0.007 A 
ATOM     12  C   LIG d   1       1.649  -1.157 -10.814  0.00  0.00    -0.054 A 
ATOM     13  C   LIG d   1       1.463  -1.617 -12.101  0.00  0.00    -0.061 A 
ATOM     14  H   LIG d   1       0.852  -1.240 -10.089  0.00  0.00     0.062 H 
ATOM     15  C   LIG d   1       2.482  -1.511 -13.031  0.00  0.00    -0.062 A 
ATOM     16  H   LIG d   1       0.520  -2.061 -12.384  0.00  0.00     0.062 H 
ATOM     17  C   LIG d   1       3.694  -0.944 -12.677  0.00  0.00    -0.061 A 
ATOM     18  H   LIG d   1       2.332  -1.872 -14.037  0.00  0.00     0.062 H 
ATOM     19  C   LIG d   1       3.893  -0.479 -11.394  0.00  0.00    -0.054 A 
ATOM     20  H   LIG d   1       4.486  -0.865 -13.408  0.00  0.00     0.062 H 
ATOM     21  H   LIG d   1       4.840  -0.037 -11.120  0.00  0.00     0.062 H 
ENDBRANCH   1  11
BRANCH   4  22
ATOM     22  C   LIG d   1       4.277  -0.122  -4.429  0.00  0.00    -0.007 A 
ATOM     23  C   LIG d   1       5.570   0.075  -3.937  0.00  0.00    -0.054 A 
ATOM     24  C   LIG d   1       5.752   0.543  -2.653  0.00  0.00    -0.061 A 
ATOM     25  H   LIG d   1       6.424  -0.140  -4.562  0.00  0.00     0.062 H 
ATOM     26  C   LIG d   1       4.658   0.818  -1.852  0.00  0.00    -0.062 A 
ATOM     27  H   LIG d   1       6.751   0.696  -2.272  0.00  0.00     0.062 H 
ATOM     28  C   LIG d   1       3.374   0.624  -2.332  0.00  0.00    -0.061 A 
ATOM     29  H   LIG d   1       4.806   1.185  -0.847  0.00  0.00     0.062 H 
ATOM     30  C   LIG d   1       3.177   0.163  -3.617  0.00  0.00    -0.054 A 
ATOM     31  H   LIG d   1       2.524   0.841  -1.700  0.00  0.00     0.062 H 
ATOM     32  H   LIG d   1       2.175   0.018  -3.991  0.00  0.00     0.062 H 
ENDBRANCH   4  22
TORSDOF 2
ENDMDL
MODEL 3
REMARK VINA RESULT:      -6.5      5.065      8.163
REMARK  2 active torsions:
REMARK  status: ('A' for Active; 'I' for Inactive)
REMARK    1  A    between atoms: C_4  and  C_7 
REMARK    2  A    between atoms: C_10  and  C_14 
ROOT
ATOM      1  C   LIG d   1       5.678  -5.413  -5.964  0.00  0.00     0.112 A 
ATOM      2  C   LIG d   1       6.423  -4.489  -5.251  0.00  0.00     0.189 A 
ATOM      3  C   LIG d   1       5.519  -3.510  -4.766  0.00  0.00     0.189 A 
ATOM      4  C   LIG d   1       6.264  -2.582  -4.059  0.00  0.00     0.112 A 
ATOM      5  C   LIG d   1       7.663  -3.046  -4.126  0.00  0.00     0.349 A 
ATOM      6  O   LIG d   1       8.626  -2.500  -3.625  0.00  0.00    -0.244 OA
ATOM      7  O   LIG d   1       7.679  -4.180  -4.854  0.00  0.00    -0.418 OA
ATOM      8  O   LIG d   1       4.262  -3.823  -5.158  0.00  0.00    -0.418 OA
ATOM      9  C   LIG d   1       4.277  -4.959  -5.884  0.00  0.00     0.349 A 
ATOM     10  O   LIG d   1       3.314  -5.508  -6.382  0.00  0.00    -0.244 OA
ENDROOT
BRANCH   1  11
ATOM     11  C   LIG d   1       6.184  -6.616  -6.658  0.00  0.00    -0.007 A 
ATOM     12  C   LIG d   1       6.771  -6.502  -7.921  0.00  0.00    -0.054 A 
ATOM     13  C   LIG d   1       7.246  -7.628  -8.561  0.00  0.00    -0.061 A 
ATOM     14  H   LIG d   1       6.852  -5.535  -8.395  0.00  0.00     0.062 H 
ATOM     15  C   LIG d   1       7.143  -8.868  -7.955  0.00  0.00    -0.062 A 
ATOM     16  H   LIG d   1       7.699  -7.542  -9.538  0.00  0.00     0.062 H 
ATOM     17  C   LIG d   1       6.563  -8.988  -6.705  0.00  0.00    -0.061 A 
ATOM     18  H   LIG d   1       7.517  -9.746  -8.460  0.00  0.00     0.062 H 
ATOM     19  C   LIG d   1       6.084  -7.871  -6.053  0.00  0.00    -0.054 A 
ATOM     20  H   LIG d   1       6.485  -9.959  -6.237  0.00  0.00     0.062 H 
ATOM     21  H   LIG d   1       5.631  -7.966  -5.077  0.00  0.00     0.062 H 
ENDBRANCH   1  11
BRANCH   4  22
ATOM     22  C   LIG d   1       5.758  -1.381  -3.364  0.00  0.00    -0.007 A 
ATOM     23  C   LIG d   1       4.782  -1.502  -2.371  0.00  0.00    -0.054 A 
ATOM     24  C   LIG d   1       4.315  -0.377  -1.726  0.00  0.00    -0.061 A 
ATOM     25  H   LIG d   1       4.395  -2.476  -2.110  0.00  0.00     0.062 H 
ATOM     26  C   LIG d   1       4.810   0.872  -2.060  0.00  0.00    -0.062 A 
ATOM     27  H   LIG d   1       3.560  -0.469  -0.958  0.00  0.00     0.062 H 
ATOM     28  C   LIG d   1       5.777   1.000  -3.043  0.00  0.00    -0.061 A 
ATOM     29  H   LIG d   1       4.441   1.750  -1.552  0.00  0.00     0.062 H 
ATOM     30  C   LIG d   1       6.258  -0.118  -3.692  0.00  0.00    -0.054 A 
ATOM     31  H   LIG d   1       6.158   1.978  -3.298  0.00  0.00     0.062 H 
ATOM     32  H   LIG d   1       7.015  -0.017  -4.454  0.00  0.00     0.062 H 
ENDBRANCH   4  22
TORSDOF 2
ENDMDL
MODEL 4
REMARK VINA RESULT:      -6.5      1.365      2.842
REMARK  2 active torsions:
REMARK  status: ('A' for Active; 'I' for Inactive)
REMARK    1  A    between atoms: C_4  and  C_7 
REMARK    2  A    between atoms: C_10  and  C_14 
ROOT
ATOM      1  C   LIG d   1       3.743  -0.409  -5.669  0.00  0.00     0.112 A 
ATOM      2  C   LIG d   1       4.176  -1.214  -6.709  0.00  0.00     0.189 A 
ATOM      3  C   LIG d   1       3.672  -0.652  -7.908  0.00  0.00     0.189 A 
ATOM      4  C   LIG d   1       4.100  -1.462  -8.947  0.00  0.00     0.112 A 
ATOM      5  C   LIG d   1       4.895  -2.537  -8.326  0.00  0.00     0.349 A 
ATOM      6  O   LIG d   1       5.446  -3.451  -8.907  0.00  0.00    -0.244 OA
ATOM      7  O   LIG d   1       4.891  -2.326  -6.995  0.00  0.00    -0.418 OA
ATOM      8  O   LIG d   1       2.962   0.463  -7.622  0.00  0.00    -0.418 OA
ATOM      9  C   LIG d   1       2.960   0.676  -6.290  0.00  0.00     0.349 A 
ATOM     10  O   LIG d   1       2.413   1.592  -5.709  0.00  0.00    -0.244 OA
ENDROOT
BRANCH   1  11
ATOM     11  C   LIG d   1       4.016  -0.594  -4.228  0.00  0.00    -0.007 A 
ATOM     12  C   LIG d   1       3.712  -1.808  -3.607  0.00  0.00    -0.054 A 
ATOM     13  C   LIG d   1       3.974  -1.976  -2.263  0.00  0.00    -0.061 A 
ATOM     14  H   LIG d   1       3.272  -2.613  -4.177  0.00  0.00     0.062 H 
ATOM     15  C   LIG d   1       4.538  -0.946  -1.530  0.00  0.00    -0.062 A 
ATOM     16  H   LIG d   1       3.740  -2.914  -1.781  0.00  0.00     0.062 H 
ATOM     17  C   LIG d   1       4.841   0.259  -2.140  0.00  0.00    -0.061 A 
ATOM     18  H   LIG d   1       4.742  -1.082  -0.479  0.00  0.00     0.062 H 
ATOM     19  C   LIG d   1       4.585   0.441  -3.482  0.00  0.00    -0.054 A 
ATOM     20  H   LIG d   1       5.280   1.060  -1.562  0.00  0.00     0.062 H 
ATOM     21  H   LIG d   1       4.822   1.382  -3.956  0.00  0.00     0.062 H 
ENDBRANCH   1  11
BRANCH   4  22
ATOM     22  C   LIG d   1       3.828  -1.275 -10.388  0.00  0.00    -0.007 A 
ATOM     23  C   LIG d   1       4.675  -0.482 -11.166  0.00  0.00    -0.054 A 
ATOM     24  C   LIG d   1       4.415  -0.313 -12.509  0.00  0.00    -0.061 A 
ATOM     25  H   LIG d   1       5.531  -0.002 -10.715  0.00  0.00     0.062 H 
ATOM     26  C   LIG d   1       3.318  -0.927 -13.088  0.00  0.00    -0.062 A 
ATOM     27  H   LIG d   1       5.069   0.300 -13.112  0.00  0.00     0.062 H 
ATOM     28  C   LIG d   1       2.474  -1.714 -12.323  0.00  0.00    -0.061 A 
ATOM     29  H   LIG d   1       3.119  -0.792 -14.141  0.00  0.00     0.062 H 
ATOM     30  C   LIG d   1       2.726  -1.897 -10.979  0.00  0.00    -0.054 A 
ATOM     31  H   LIG d   1       1.620  -2.191 -12.781  0.00  0.00     0.062 H 
ATOM     32  H   LIG d   1       2.070  -2.515 -10.386  0.00  0.00     0.062 H 
ENDBRANCH   4  22
TORSDOF 2
ENDMDL
MODEL 5
REMARK VINA RESULT:      -6.4      1.291      6.958
REMARK  2 active torsions:
REMARK  status: ('A' for Active; 'I' for Inactive)
REMARK    1  A    between atoms: C_4  and  C_7 
REMARK    2  A    between atoms: C_10  and  C_14 
ROOT
ATOM      1  C   LIG d   1       3.757  -1.657  -8.870  0.00  0.00     0.112 A 
ATOM      2  C   LIG d   1       3.445  -0.766  -7.856  0.00  0.00     0.189 A 
ATOM      3  C   LIG d   1       3.952  -1.311  -6.651  0.00  0.00     0.189 A 
ATOM      4  C   LIG d   1       3.635  -0.424  -5.637  0.00  0.00     0.112 A 
ATOM      5  C   LIG d   1       2.918   0.692  -6.282  0.00  0.00     0.349 A 
ATOM      6  O   LIG d   1       2.473   1.677  -5.726  0.00  0.00    -0.244 OA
ATOM      7  O   LIG d   1       2.840   0.416  -7.599  0.00  0.00    -0.418 OA
ATOM      8  O   LIG d   1       4.563  -2.491  -6.911  0.00  0.00    -0.418 OA
ATOM      9  C   LIG d   1       4.487  -2.766  -8.228  0.00  0.00     0.349 A 
ATOM     10  O   LIG d   1       4.936  -3.748  -8.785  0.00  0.00    -0.244 OA
ENDROOT
BRANCH   1  11
ATOM     11  C   LIG d   1       3.431  -1.520 -10.305  0.00  0.00    -0.007 A 
ATOM     12  C   LIG d   1       4.448  -1.310 -11.239  0.00  0.00    -0.054 A 
ATOM     13  C   LIG d   1       4.136  -1.190 -12.578  0.00  0.00    -0.061 A 
ATOM     14  H   LIG d   1       5.476  -1.243 -10.914  0.00  0.00     0.062 H 
ATOM     15  C   LIG d   1       2.820  -1.276 -12.996  0.00  0.00    -0.062 A 
ATOM     16  H   LIG d   1       4.922  -1.027 -13.301  0.00  0.00     0.062 H 
ATOM     17  C   LIG d   1       1.808  -1.484 -12.076  0.00  0.00    -0.061 A 
ATOM     18  H   LIG d   1       2.582  -1.181 -14.045  0.00  0.00     0.062 H 
ATOM     19  C   LIG d   1       2.104  -1.607 -10.734  0.00  0.00    -0.054 A 
ATOM     20  H   LIG d   1       0.782  -1.549 -12.409  0.00  0.00     0.062 H 
ATOM     21  H   LIG d   1       1.313  -1.769 -10.018  0.00  0.00     0.062 H 
ENDBRANCH   1  11
BRANCH   4  22
ATOM     22  C   LIG d   1       3.962  -0.560  -4.202  0.00  0.00    -0.007 A 
ATOM     23  C   LIG d   1       3.733  -1.770  -3.542  0.00  0.00    -0.054 A 
ATOM     24  C   LIG d   1       4.041  -1.891  -2.204  0.00  0.00    -0.061 A 
ATOM     25  H   LIG d   1       3.316  -2.609  -4.079  0.00  0.00     0.062 H 
ATOM     26  C   LIG d   1       4.576  -0.817  -1.514  0.00  0.00    -0.062 A 
ATOM     27  H   LIG d   1       3.866  -2.826  -1.691  0.00  0.00     0.062 H 
ATOM     28  C   LIG d   1       4.805   0.385  -2.161  0.00  0.00    -0.061 A 
ATOM     29  H   LIG d   1       4.816  -0.916  -0.465  0.00  0.00     0.062 H 
ATOM     30  C   LIG d   1       4.507   0.518  -3.502  0.00  0.00    -0.054 A 
ATOM     31  H   LIG d   1       5.222   1.220  -1.617  0.00  0.00     0.062 H 
ATOM     32  H   LIG d   1       4.691   1.453  -4.006  0.00  0.00     0.062 H 
ENDBRANCH   4  22
TORSDOF 2
ENDMDL
MODEL 6
REMARK VINA RESULT:      -6.3      5.376      7.569
REMARK  2 active torsions:
REMARK  status: ('A' for Active; 'I' for Inactive)
REMARK    1  A    between atoms: C_4  and  C_7 
REMARK    2  A    between atoms: C_10  and  C_14 
ROOT
ATOM      1  C   LIG d   1       6.945   0.998  -4.500  0.00  0.00     0.112 A 
ATOM      2  C   LIG d   1       7.951   1.898  -4.193  0.00  0.00     0.189 A 
ATOM      3  C   LIG d   1       8.520   2.321  -5.420  0.00  0.00     0.189 A 
ATOM      4  C   LIG d   1       9.531   3.216  -5.114  0.00  0.00     0.112 A 
ATOM      5  C   LIG d   1       9.545   3.327  -3.643  0.00  0.00     0.349 A 
ATOM      6  O   LIG d   1      10.293   4.020  -2.982  0.00  0.00    -0.244 OA
ATOM      7  O   LIG d   1       8.583   2.512  -3.166  0.00  0.00    -0.418 OA
ATOM      8  O   LIG d   1       7.883   1.711  -6.447  0.00  0.00    -0.418 OA
ATOM      9  C   LIG d   1       6.920   0.898  -5.971  0.00  0.00     0.349 A 
ATOM     10  O   LIG d   1       6.169   0.209  -6.632  0.00  0.00    -0.244 OA
ENDROOT
BRANCH   1  11
ATOM     11  C   LIG d   1       6.069   0.286  -3.546  0.00  0.00    -0.007 A 
ATOM     12  C   LIG d   1       5.285   1.006  -2.641  0.00  0.00    -0.054 A 
ATOM     13  C   LIG d   1       4.465   0.334  -1.757  0.00  0.00    -0.061 A 
ATOM     14  H   LIG d   1       5.321   2.085  -2.632  0.00  0.00     0.062 H 
ATOM     15  C   LIG d   1       4.417  -1.049  -1.766  0.00  0.00    -0.062 A 
ATOM     16  H   LIG d   1       3.859   0.890  -1.056  0.00  0.00     0.062 H 
ATOM     17  C   LIG d   1       5.191  -1.768  -2.660  0.00  0.00    -0.061 A 
ATOM     18  H   LIG d   1       3.774  -1.569  -1.073  0.00  0.00     0.062 H 
ATOM     19  C   LIG d   1       6.015  -1.110  -3.549  0.00  0.00    -0.054 A 
ATOM     20  H   LIG d   1       5.150  -2.848  -2.661  0.00  0.00     0.062 H 
ATOM     21  H   LIG d   1       6.618  -1.673  -4.246  0.00  0.00     0.062 H 
ENDBRANCH   1  11
BRANCH   4  22
ATOM     22  C   LIG d   1      10.406   3.929  -6.068  0.00  0.00    -0.007 A 
ATOM     23  C   LIG d   1      11.735   3.530  -6.234  0.00  0.00    -0.054 A 
ATOM     24  C   LIG d   1      12.545   4.198  -7.126  0.00  0.00    -0.061 A 
ATOM     25  H   LIG d   1      12.125   2.699  -5.665  0.00  0.00     0.062 H 
ATOM     26  C   LIG d   1      12.047   5.263  -7.857  0.00  0.00    -0.062 A 
ATOM     27  H   LIG d   1      13.573   3.891  -7.257  0.00  0.00     0.062 H 
ATOM     28  C   LIG d   1      10.731   5.664  -7.696  0.00  0.00    -0.061 A 
ATOM     29  H   LIG d   1      12.686   5.783  -8.555  0.00  0.00     0.062 H 
ATOM     30  C   LIG d   1       9.907   5.000  -6.812  0.00  0.00    -0.054 A 
ATOM     31  H   LIG d   1      10.348   6.496  -8.269  0.00  0.00     0.062 H 
ATOM     32  H   LIG d   1       8.881   5.310  -6.692  0.00  0.00     0.062 H 
ENDBRANCH   4  22
TORSDOF 2
ENDMDL
MODEL 7
REMARK VINA RESULT:      -6.3     10.934     13.668
REMARK  2 active torsions:
REMARK  status: ('A' for Active; 'I' for Inactive)
REMARK    1  A    between atoms: C_4  and  C_7 
REMARK    2  A    between atoms: C_10  and  C_14 
ROOT
ATOM      1  C   LIG d   1       3.492 -13.021  -6.470  0.00  0.00     0.112 A 
ATOM      2  C   LIG d   1       3.410 -12.100  -5.439  0.00  0.00     0.189 A 
ATOM      3  C   LIG d   1       4.726 -11.904  -4.950  0.00  0.00     0.189 A 
ATOM      4  C   LIG d   1       4.644 -10.989  -3.915  0.00  0.00     0.112 A 
ATOM      5  C   LIG d   1       3.218 -10.629  -3.802  0.00  0.00     0.349 A 
ATOM      6  O   LIG d   1       2.735  -9.848  -3.006  0.00  0.00    -0.244 OA
ATOM      7  O   LIG d   1       2.547 -11.332  -4.736  0.00  0.00    -0.418 OA
ATOM      8  O   LIG d   1       5.590 -12.668  -5.659  0.00  0.00    -0.418 OA
ATOM      9  C   LIG d   1       4.919 -13.370  -6.595  0.00  0.00     0.349 A 
ATOM     10  O   LIG d   1       5.403 -14.148  -7.393  0.00  0.00    -0.244 OA
ENDROOT
BRANCH   1  11
ATOM     11  C   LIG d   1       2.375 -13.543  -7.286  0.00  0.00    -0.007 A 
ATOM     12  C   LIG d   1       1.601 -14.607  -6.817  0.00  0.00    -0.054 A 
ATOM     13  C   LIG d   1       0.557 -15.085  -7.582  0.00  0.00    -0.061 A 
ATOM     14  H   LIG d   1       1.820 -15.054  -5.859  0.00  0.00     0.062 H 
ATOM     15  C   LIG d   1       0.275 -14.513  -8.810  0.00  0.00    -0.062 A 
ATOM     16  H   LIG d   1      -0.042 -15.908  -7.221  0.00  0.00     0.062 H 
ATOM     17  C   LIG d   1       1.039 -13.459  -9.280  0.00  0.00    -0.061 A 
ATOM     18  H   LIG d   1      -0.543 -14.891  -9.404  0.00  0.00     0.062 H 
ATOM     19  C   LIG d   1       2.085 -12.970  -8.527  0.00  0.00    -0.054 A 
ATOM     20  H   LIG d   1       0.814 -13.017 -10.241  0.00  0.00     0.062 H 
ATOM     21  H   LIG d   1       2.680 -12.147  -8.896  0.00  0.00     0.062 H 
ENDBRANCH   1  11
BRANCH   4  22
ATOM     22  C   LIG d   1       5.760 -10.467  -3.100  0.00  0.00    -0.007 A 
ATOM     23  C   LIG d   1       6.655  -9.543  -3.645  0.00  0.00    -0.054 A 
ATOM     24  C   LIG d   1       7.694  -9.059  -2.879  0.00  0.00    -0.061 A 
ATOM     25  H   LIG d   1       6.533  -9.208  -4.664  0.00  0.00     0.062 H 
ATOM     26  C   LIG d   1       7.852  -9.487  -1.572  0.00  0.00    -0.062 A 
ATOM     27  H   LIG d   1       8.387  -8.344  -3.298  0.00  0.00     0.062 H 
ATOM     28  C   LIG d   1       6.970 -10.403  -1.025  0.00  0.00    -0.061 A 
ATOM     29  H   LIG d   1       8.668  -9.105  -0.975  0.00  0.00     0.062 H 
ATOM     30  C   LIG d   1       5.922 -10.890  -1.779  0.00  0.00    -0.054 A 
ATOM     31  H   LIG d   1       7.099 -10.733  -0.005  0.00  0.00     0.062 H 
ATOM     32  H   LIG d   1       5.231 -11.600  -1.350  0.00  0.00     0.062 H 
ENDBRANCH   4  22
TORSDOF 2
ENDMDL
MODEL 8
REMARK VINA RESULT:      -6.3      5.407      8.319
REMARK  2 active torsions:
REMARK  status: ('A' for Active; 'I' for Inactive)
REMARK    1  A    between atoms: C_4  and  C_7 
REMARK    2  A    between atoms: C_10  and  C_14 
ROOT
ATOM      1  C   LIG d   1       9.597   3.208  -5.079  0.00  0.00     0.112 A 
ATOM      2  C   LIG d   1       8.578   2.323  -5.391  0.00  0.00     0.189 A 
ATOM      3  C   LIG d   1       7.997   1.908  -4.167  0.00  0.00     0.189 A 
ATOM      4  C   LIG d   1       6.983   1.018  -4.479  0.00  0.00     0.112 A 
ATOM      5  C   LIG d   1       6.968   0.917  -5.950  0.00  0.00     0.349 A 
ATOM      6  O   LIG d   1       6.216   0.233  -6.616  0.00  0.00    -0.244 OA
ATOM      7  O   LIG d   1       7.946   1.716  -6.422  0.00  0.00    -0.418 OA
ATOM      8  O   LIG d   1       8.627   2.521  -3.138  0.00  0.00    -0.418 OA
ATOM      9  C   LIG d   1       9.604   3.321  -3.609  0.00  0.00     0.349 A 
ATOM     10  O   LIG d   1      10.352   4.010  -2.944  0.00  0.00    -0.244 OA
ENDROOT
BRANCH   1  11
ATOM     11  C   LIG d   1      10.491   3.904  -6.028  0.00  0.00    -0.007 A 
ATOM     12  C   LIG d   1      10.005   4.954  -6.810  0.00  0.00    -0.054 A 
ATOM     13  C   LIG d   1      10.847   5.603  -7.690  0.00  0.00    -0.061 A 
ATOM     14  H   LIG d   1       8.972   5.257  -6.727  0.00  0.00     0.062 H 
ATOM     15  C   LIG d   1      12.171   5.216  -7.798  0.00  0.00    -0.062 A 
ATOM     16  H   LIG d   1      10.472   6.415  -8.295  0.00  0.00     0.062 H 
ATOM     17  C   LIG d   1      12.660   4.176  -7.026  0.00  0.00    -0.061 A 
ATOM     18  H   LIG d   1      12.826   5.727  -8.487  0.00  0.00     0.062 H 
ATOM     19  C   LIG d   1      11.829   3.519  -6.143  0.00  0.00    -0.054 A 
ATOM     20  H   LIG d   1      13.695   3.878  -7.116  0.00  0.00     0.062 H 
ATOM     21  H   LIG d   1      12.212   2.708  -5.541  0.00  0.00     0.062 H 
ENDBRANCH   1  11
BRANCH   4  22
ATOM     22  C   LIG d   1       6.089   0.323  -3.530  0.00  0.00    -0.007 A 
ATOM     23  C   LIG d   1       6.030  -1.073  -3.514  0.00  0.00    -0.054 A 
ATOM     24  C   LIG d   1       5.194  -1.714  -2.626  0.00  0.00    -0.061 A 
ATOM     25  H   LIG d   1       6.640  -1.647  -4.196  0.00  0.00     0.062 H 
ATOM     26  C   LIG d   1       4.413  -0.979  -1.751  0.00  0.00    -0.062 A 
ATOM     27  H   LIG d   1       5.148  -2.794  -2.611  0.00  0.00     0.062 H 
ATOM     28  C   LIG d   1       4.464   0.404  -1.762  0.00  0.00    -0.061 A 
ATOM     29  H   LIG d   1       3.759  -1.486  -1.057  0.00  0.00     0.062 H 
ATOM     30  C   LIG d   1       5.302   1.059  -2.642  0.00  0.00    -0.054 A 
ATOM     31  H   LIG d   1       3.852   0.972  -1.077  0.00  0.00     0.062 H 
ATOM     32  H   LIG d   1       5.345   2.137  -2.645  0.00  0.00     0.062 H 
ENDBRANCH   4  22
TORSDOF 2
ENDMDL
MODEL 9
REMARK VINA RESULT:      -6.0      5.051      7.757
REMARK  2 active torsions:
REMARK  status: ('A' for Active; 'I' for Inactive)
REMARK    1  A    between atoms: C_4  and  C_7 
REMARK    2  A    between atoms: C_10  and  C_14 
ROOT
ATOM      1  C   LIG d   1       9.581   1.451  -4.521  0.00  0.00     0.112 A 
ATOM      2  C   LIG d   1       8.758   0.368  -4.780  0.00  0.00     0.189 A 
ATOM      3  C   LIG d   1       7.552   0.581  -4.068  0.00  0.00     0.189 A 
ATOM      4  C   LIG d   1       6.732  -0.505  -4.322  0.00  0.00     0.112 A 
ATOM      5  C   LIG d   1       7.491  -1.386  -5.228  0.00  0.00     0.349 A 
ATOM      6  O   LIG d   1       7.112  -2.447  -5.684  0.00  0.00    -0.244 OA
ATOM      7  O   LIG d   1       8.686  -0.804  -5.451  0.00  0.00    -0.418 OA
ATOM      8  O   LIG d   1       7.622   1.757  -3.401  0.00  0.00    -0.418 OA
ATOM      9  C   LIG d   1       8.817   2.340  -3.626  0.00  0.00     0.349 A 
ATOM     10  O   LIG d   1       9.194   3.403  -3.174  0.00  0.00    -0.244 OA
ENDROOT
BRANCH   1  11
ATOM     11  C   LIG d   1      10.946   1.675  -5.041  0.00  0.00    -0.007 A 
ATOM     12  C   LIG d   1      12.029   0.986  -4.489  0.00  0.00    -0.054 A 
ATOM     13  C   LIG d   1      13.300   1.196  -4.984  0.00  0.00    -0.061 A 
ATOM     14  H   LIG d   1      11.872   0.292  -3.677  0.00  0.00     0.062 H 
ATOM     15  C   LIG d   1      13.504   2.085  -6.024  0.00  0.00    -0.062 A 
ATOM     16  H   LIG d   1      14.138   0.664  -4.558  0.00  0.00     0.062 H 
ATOM     17  C   LIG d   1      12.435   2.771  -6.575  0.00  0.00    -0.061 A 
ATOM     18  H   LIG d   1      14.500   2.245  -6.408  0.00  0.00     0.062 H 
ATOM     19  C   LIG d   1      11.159   2.571  -6.091  0.00  0.00    -0.054 A 
ATOM     20  H   LIG d   1      12.601   3.465  -7.387  0.00  0.00     0.062 H 
ATOM     21  H   LIG d   1      10.327   3.107  -6.523  0.00  0.00     0.062 H 
ENDBRANCH   1  11
BRANCH   4  22
ATOM     22  C   LIG d   1       5.366  -0.728  -3.802  0.00  0.00    -0.007 A 
ATOM     23  C   LIG d   1       4.286  -0.025  -4.341  0.00  0.00    -0.054 A 
ATOM     24  C   LIG d   1       3.015  -0.238  -3.852  0.00  0.00    -0.061 A 
ATOM     25  H   LIG d   1       4.447   0.685  -5.140  0.00  0.00     0.062 H 
ATOM     26  C   LIG d   1       2.807  -1.147  -2.829  0.00  0.00    -0.062 A 
ATOM     27  H   LIG d   1       2.178   0.305  -4.268  0.00  0.00     0.062 H 
ATOM     28  C   LIG d   1       3.873  -1.847  -2.289  0.00  0.00    -0.061 A 
ATOM     29  H   LIG d   1       1.810  -1.310  -2.449  0.00  0.00     0.062 H 
ATOM     30  C   LIG d   1       5.149  -1.648  -2.774  0.00  0.00    -0.054 A 
ATOM     31  H   LIG d   1       3.703  -2.554  -1.490  0.00  0.00     0.062 H 
ATOM     32  H   LIG d   1       5.978  -2.198  -2.356  0.00  0.00     0.062 H 
ENDBRANCH   4  22
TORSDOF 2
ENDMDL
MODEL 10
REMARK VINA RESULT:      -5.8      5.093      7.070
REMARK  2 active torsions:
REMARK  status: ('A' for Active; 'I' for Inactive)
REMARK    1  A    between atoms: C_4  and  C_7 
REMARK    2  A    between atoms: C_10  and  C_14 
ROOT
ATOM      1  C   LIG d   1       8.947   2.431  -4.386  0.00  0.00     0.112 A 
ATOM      2  C   LIG d   1       7.858   1.721  -3.908  0.00  0.00     0.189 A 
ATOM      3  C   LIG d   1       7.864   0.461  -4.557  0.00  0.00     0.189 A 
ATOM      4  C   LIG d   1       6.772  -0.245  -4.084  0.00  0.00     0.112 A 
ATOM      5  C   LIG d   1       6.106   0.638  -3.109  0.00  0.00     0.349 A 
ATOM      6  O   LIG d   1       5.104   0.379  -2.471  0.00  0.00    -0.244 OA
ATOM      7  O   LIG d   1       6.805   1.790  -3.062  0.00  0.00    -0.418 OA
ATOM      8  O   LIG d   1       8.922   0.391  -5.398  0.00  0.00    -0.418 OA
ATOM      9  C   LIG d   1       9.623   1.542  -5.350  0.00  0.00     0.349 A 
ATOM     10  O   LIG d   1      10.627   1.800  -5.984  0.00  0.00    -0.244 OA
ENDROOT
BRANCH   1  11
ATOM     11  C   LIG d   1       9.354   3.799  -4.003  0.00  0.00    -0.007 A 
ATOM     12  C   LIG d   1       9.168   4.861  -4.892  0.00  0.00    -0.054 A 
ATOM     13  C   LIG d   1       9.545   6.137  -4.526  0.00  0.00    -0.061 A 
ATOM     14  H   LIG d   1       8.731   4.684  -5.864  0.00  0.00     0.062 H 
ATOM     15  C   LIG d   1      10.105   6.366  -3.282  0.00  0.00    -0.062 A 
ATOM     16  H   LIG d   1       9.402   6.958  -5.212  0.00  0.00     0.062 H 
ATOM     17  C   LIG d   1      10.292   5.319  -2.397  0.00  0.00    -0.061 A 
ATOM     18  H   LIG d   1      10.398   7.367  -3.000  0.00  0.00     0.062 H 
ATOM     19  C   LIG d   1       9.920   4.038  -2.749  0.00  0.00    -0.054 A 
ATOM     20  H   LIG d   1      10.731   5.505  -1.427  0.00  0.00     0.062 H 
ATOM     21  H   LIG d   1      10.067   3.223  -2.057  0.00  0.00     0.062 H 
ENDBRANCH   1  11
BRANCH   4  22
ATOM     22  C   LIG d   1       6.366  -1.614  -4.466  0.00  0.00    -0.007 A 
ATOM     23  C   LIG d   1       5.040  -1.882  -4.814  0.00  0.00    -0.054 A 
ATOM     24  C   LIG d   1       4.668  -3.160  -5.170  0.00  0.00    -0.061 A 
ATOM     25  H   LIG d   1       4.307  -1.088  -4.804  0.00  0.00     0.062 H 
ATOM     26  C   LIG d   1       5.606  -4.179  -5.184  0.00  0.00    -0.062 A 
ATOM     27  H   LIG d   1       3.643  -3.369  -5.440  0.00  0.00     0.062 H 
ATOM     28  C   LIG d   1       6.922  -3.921  -4.839  0.00  0.00    -0.061 A 
ATOM     29  H   LIG d   1       5.310  -5.179  -5.463  0.00  0.00     0.062 H 
ATOM     30  C   LIG d   1       7.308  -2.644  -4.487  0.00  0.00    -0.054 A 
ATOM     31  H   LIG d   1       7.648  -4.720  -4.851  0.00  0.00     0.062 H 
ATOM     32  H   LIG d   1       8.335  -2.444  -4.224  0.00  0.00     0.062 H 
ENDBRANCH   4  22
TORSDOF 2
ENDMDL
