MODEL 1
REMARK VINA RESULT:      -6.9      0.000      0.000
REMARK  12 active torsions:
REMARK  status: ('A' for Active; 'I' for Inactive)
REMARK    1  A    between atoms: C_1  and  C_2 
REMARK    2  A    between atoms: C_4  and  C_36 
REMARK    3  A    between atoms: C_6  and  O_8 
REMARK    4  A    between atoms: O_8  and  C_9 
REMARK    5  A    between atoms: C_9  and  C_11 
REMARK    6  A    between atoms: C_11  and  C_12 
REMARK    7  A    between atoms: C_12  and  C_13 
REMARK    8  A    between atoms: C_13  and  C_14 
REMARK    9  A    between atoms: C_14  and  C_15 
REMARK   10  A    between atoms: C_15  and  C_16 
REMARK   11  A    between atoms: C_16  and  C_17 
REMARK   12  A    between atoms: C_17  and  C_18 
ROOT
ATOM      1  C   LIG d   1       5.812  -5.921  -7.220  0.00  0.00     0.410 C 
ATOM      2  F   LIG d   1       7.182  -6.144  -7.391  0.00  0.00    -0.186 F 
ATOM      3  F   LIG d   1       5.356  -5.038  -8.205  0.00  0.00    -0.186 F 
ENDROOT
BRANCH   1   4
ATOM      4  C   LIG d   1       5.072  -7.229  -7.335  0.00  0.00     0.389 C 
ATOM      5  O   LIG d   1       3.905  -7.238  -7.645  0.00  0.00    -0.243 OA
BRANCH   4   6
ATOM      6  O   LIG d   1       5.712  -8.385  -7.093  0.00  0.00    -0.421 OA
BRANCH   6   7
ATOM      7  C   LIG d   1       5.743  -8.840  -5.812  0.00  0.00     0.132 A 
ATOM      8  C   LIG d   1       6.921  -8.777  -5.081  0.00  0.00    -0.016 A 
ATOM      9  C   LIG d   1       6.951  -9.241  -3.780  0.00  0.00    -0.047 A 
ATOM     10  H   LIG d   1       7.814  -8.367  -5.530  0.00  0.00     0.066 H 
ATOM     11  C   LIG d   1       5.808  -9.765  -3.205  0.00  0.00    -0.056 A 
ATOM     12  C   LIG d   1       4.632  -9.828  -3.932  0.00  0.00    -0.047 A 
ATOM     13  H   LIG d   1       5.832 -10.126  -2.188  0.00  0.00     0.062 H 
ATOM     14  C   LIG d   1       4.600  -9.371  -5.235  0.00  0.00    -0.016 A 
ATOM     15  H   LIG d   1       3.683  -9.425  -5.803  0.00  0.00     0.066 H 
BRANCH   9  16
ATOM     16  C   LIG d   1       8.229  -9.173  -2.986  0.00  0.00    -0.040 C 
ATOM     17  H   LIG d   1       7.996  -9.002  -1.935  0.00  0.00     0.028 H 
ATOM     18  H   LIG d   1       8.771 -10.113  -3.089  0.00  0.00     0.028 H 
ATOM     19  H   LIG d   1       8.846  -8.355  -3.359  0.00  0.00     0.028 H 
ENDBRANCH   9  16
BRANCH  12  20
ATOM     20  C   LIG d   1       3.389 -10.401  -3.303  0.00  0.00    -0.040 C 
ATOM     21  H   LIG d   1       2.832 -10.969  -4.050  0.00  0.00     0.028 H 
ATOM     22  H   LIG d   1       3.668 -11.059  -2.480  0.00  0.00     0.028 H 
ATOM     23  H   LIG d   1       2.766  -9.591  -2.925  0.00  0.00     0.028 H 
ENDBRANCH  12  20
ENDBRANCH   6   7
ENDBRANCH   4   6
ENDBRANCH   1   4
BRANCH   1  24
ATOM     24  C   LIG d   1       5.563  -5.315  -5.838  0.00  0.00     0.389 C 
ATOM     25  F   LIG d   1       4.370  -5.824  -5.313  0.00  0.00    -0.192 F 
ATOM     26  F   LIG d   1       6.624  -5.643  -4.986  0.00  0.00    -0.192 F 
BRANCH  24  27
ATOM     27  C   LIG d   1       5.458  -3.793  -5.958  0.00  0.00     0.384 C 
ATOM     28  F   LIG d   1       6.589  -3.299  -6.616  0.00  0.00    -0.192 F 
ATOM     29  F   LIG d   1       4.311  -3.461  -6.689  0.00  0.00    -0.192 F 
BRANCH  27  30
ATOM     30  C   LIG d   1       5.370  -3.175  -4.562  0.00  0.00     0.384 C 
ATOM     31  F   LIG d   1       4.501  -3.933  -3.770  0.00  0.00    -0.192 F 
ATOM     32  F   LIG d   1       6.641  -3.161  -3.977  0.00  0.00    -0.192 F 
BRANCH  30  33
ATOM     33  C   LIG d   1       4.843  -1.743  -4.670  0.00  0.00     0.384 C 
ATOM     34  F   LIG d   1       5.613  -1.031  -5.596  0.00  0.00    -0.192 F 
ATOM     35  F   LIG d   1       3.509  -1.768  -5.095  0.00  0.00    -0.192 F 
BRANCH  33  36
ATOM     36  C   LIG d   1       4.930  -1.063  -3.303  0.00  0.00     0.387 C 
ATOM     37  F   LIG d   1       4.771  -2.019  -2.295  0.00  0.00    -0.192 F 
ATOM     38  F   LIG d   1       6.179  -0.446  -3.168  0.00  0.00    -0.192 F 
BRANCH  36  39
ATOM     39  C   LIG d   1       3.826  -0.009  -3.186  0.00  0.00     0.409 C 
ATOM     40  F   LIG d   1       3.600   0.571  -4.439  0.00  0.00    -0.189 F 
ATOM     41  F   LIG d   1       2.649  -0.616  -2.735  0.00  0.00    -0.189 F 
BRANCH  39  42
ATOM     42  C   LIG d   1       4.255   1.071  -2.192  0.00  0.00     0.460 C 
ATOM     43  F   LIG d   1       3.169   1.911  -1.918  0.00  0.00    -0.165 F 
ATOM     44  F   LIG d   1       4.689   0.469  -1.006  0.00  0.00    -0.165 F 
ATOM     45  F   LIG d   1       5.298   1.824  -2.743  0.00  0.00    -0.165 F 
ENDBRANCH  39  42
ENDBRANCH  36  39
ENDBRANCH  33  36
ENDBRANCH  30  33
ENDBRANCH  27  30
ENDBRANCH  24  27
ENDBRANCH   1  24
TORSDOF 12
ENDMDL
MODEL 2
REMARK VINA RESULT:      -6.9      5.096      8.055
REMARK  12 active torsions:
REMARK  status: ('A' for Active; 'I' for Inactive)
REMARK    1  A    between atoms: C_1  and  C_2 
REMARK    2  A    between atoms: C_4  and  C_36 
REMARK    3  A    between atoms: C_6  and  O_8 
REMARK    4  A    between atoms: O_8  and  C_9 
REMARK    5  A    between atoms: C_9  and  C_11 
REMARK    6  A    between atoms: C_11  and  C_12 
REMARK    7  A    between atoms: C_12  and  C_13 
REMARK    8  A    between atoms: C_13  and  C_14 
REMARK    9  A    between atoms: C_14  and  C_15 
REMARK   10  A    between atoms: C_15  and  C_16 
REMARK   11  A    between atoms: C_16  and  C_17 
REMARK   12  A    between atoms: C_17  and  C_18 
ROOT
ATOM      1  C   LIG d   1       3.059  -0.624  -3.459  0.00  0.00     0.410 C 
ATOM      2  F   LIG d   1       3.702  -1.790  -3.885  0.00  0.00    -0.186 F 
ATOM      3  F   LIG d   1       1.855  -0.959  -2.829  0.00  0.00    -0.186 F 
ENDROOT
BRANCH   1   4
ATOM      4  C   LIG d   1       3.946   0.112  -2.488  0.00  0.00     0.389 C 
ATOM      5  O   LIG d   1       3.583   1.161  -2.014  0.00  0.00    -0.243 OA
BRANCH   4   6
ATOM      6  O   LIG d   1       5.141  -0.400  -2.151  0.00  0.00    -0.421 OA
BRANCH   6   7
ATOM      7  C   LIG d   1       6.174  -0.234  -3.019  0.00  0.00     0.132 A 
ATOM      8  C   LIG d   1       6.643   1.040  -3.305  0.00  0.00    -0.016 A 
ATOM      9  C   LIG d   1       7.692   1.207  -4.189  0.00  0.00    -0.047 A 
ATOM     10  H   LIG d   1       6.188   1.901  -2.837  0.00  0.00     0.066 H 
ATOM     11  C   LIG d   1       8.275   0.105  -4.787  0.00  0.00    -0.056 A 
ATOM     12  C   LIG d   1       7.809  -1.166  -4.503  0.00  0.00    -0.047 A 
ATOM     13  H   LIG d   1       9.096   0.236  -5.476  0.00  0.00     0.062 H 
ATOM     14  C   LIG d   1       6.757  -1.337  -3.625  0.00  0.00    -0.016 A 
ATOM     15  H   LIG d   1       6.391  -2.329  -3.407  0.00  0.00     0.066 H 
BRANCH   9  16
ATOM     16  C   LIG d   1       8.202   2.589  -4.500  0.00  0.00    -0.040 C 
ATOM     17  H   LIG d   1       7.547   3.331  -4.041  0.00  0.00     0.028 H 
ATOM     18  H   LIG d   1       9.212   2.702  -4.104  0.00  0.00     0.028 H 
ATOM     19  H   LIG d   1       8.217   2.737  -5.580  0.00  0.00     0.028 H 
ENDBRANCH   9  16
BRANCH  12  20
ATOM     20  C   LIG d   1       8.446  -2.365  -5.157  0.00  0.00    -0.040 C 
ATOM     21  H   LIG d   1       8.750  -2.107  -6.173  0.00  0.00     0.028 H 
ATOM     22  H   LIG d   1       9.321  -2.670  -4.583  0.00  0.00     0.028 H 
ATOM     23  H   LIG d   1       7.730  -3.184  -5.190  0.00  0.00     0.028 H 
ENDBRANCH  12  20
ENDBRANCH   6   7
ENDBRANCH   4   6
ENDBRANCH   1   4
BRANCH   1  24
ATOM     24  C   LIG d   1       2.772   0.270  -4.666  0.00  0.00     0.389 C 
ATOM     25  F   LIG d   1       1.416   0.182  -4.999  0.00  0.00    -0.192 F 
ATOM     26  F   LIG d   1       3.089   1.596  -4.350  0.00  0.00    -0.192 F 
BRANCH  24  27
ATOM     27  C   LIG d   1       3.620  -0.188  -5.854  0.00  0.00     0.384 C 
ATOM     28  F   LIG d   1       4.920   0.309  -5.717  0.00  0.00    -0.192 F 
ATOM     29  F   LIG d   1       3.655  -1.586  -5.891  0.00  0.00    -0.192 F 
BRANCH  27  30
ATOM     30  C   LIG d   1       3.007   0.341  -7.153  0.00  0.00     0.384 C 
ATOM     31  F   LIG d   1       1.854  -0.391  -7.456  0.00  0.00    -0.192 F 
ATOM     32  F   LIG d   1       2.674   1.691  -6.995  0.00  0.00    -0.192 F 
BRANCH  30  33
ATOM     33  C   LIG d   1       4.018   0.194  -8.291  0.00  0.00     0.384 C 
ATOM     34  F   LIG d   1       4.766   1.371  -8.405  0.00  0.00    -0.192 F 
ATOM     35  F   LIG d   1       4.874  -0.879  -8.018  0.00  0.00    -0.192 F 
BRANCH  33  36
ATOM     36  C   LIG d   1       3.275  -0.067  -9.602  0.00  0.00     0.387 C 
ATOM     37  F   LIG d   1       2.925  -1.419  -9.680  0.00  0.00    -0.192 F 
ATOM     38  F   LIG d   1       2.117   0.718  -9.646  0.00  0.00    -0.192 F 
BRANCH  36  39
ATOM     39  C   LIG d   1       4.180   0.294 -10.782  0.00  0.00     0.409 C 
ATOM     40  F   LIG d   1       4.066   1.661 -11.057  0.00  0.00    -0.189 F 
ATOM     41  F   LIG d   1       5.508  -0.007 -10.461  0.00  0.00    -0.189 F 
BRANCH  39  42
ATOM     42  C   LIG d   1       3.759  -0.511 -12.013  0.00  0.00     0.460 C 
ATOM     43  F   LIG d   1       2.363  -0.537 -12.098  0.00  0.00    -0.165 F 
ATOM     44  F   LIG d   1       4.285   0.087 -13.164  0.00  0.00    -0.165 F 
ATOM     45  F   LIG d   1       4.244  -1.819 -11.904  0.00  0.00    -0.165 F 
ENDBRANCH  39  42
ENDBRANCH  36  39
ENDBRANCH  33  36
ENDBRANCH  30  33
ENDBRANCH  27  30
ENDBRANCH  24  27
ENDBRANCH   1  24
TORSDOF 12
ENDMDL
MODEL 3
REMARK VINA RESULT:      -6.8      3.558      6.169
REMARK  12 active torsions:
REMARK  status: ('A' for Active; 'I' for Inactive)
REMARK    1  A    between atoms: C_1  and  C_2 
REMARK    2  A    between atoms: C_4  and  C_36 
REMARK    3  A    between atoms: C_6  and  O_8 
REMARK    4  A    between atoms: O_8  and  C_9 
REMARK    5  A    between atoms: C_9  and  C_11 
REMARK    6  A    between atoms: C_11  and  C_12 
REMARK    7  A    between atoms: C_12  and  C_13 
REMARK    8  A    between atoms: C_13  and  C_14 
REMARK    9  A    between atoms: C_14  and  C_15 
REMARK   10  A    between atoms: C_15  and  C_16 
REMARK   11  A    between atoms: C_16  and  C_17 
REMARK   12  A    between atoms: C_17  and  C_18 
ROOT
ATOM      1  C   LIG d   1       5.054  -3.278  -8.265  0.00  0.00     0.410 C 
ATOM      2  F   LIG d   1       3.679  -3.029  -8.318  0.00  0.00    -0.186 F 
ATOM      3  F   LIG d   1       5.273  -4.651  -8.106  0.00  0.00    -0.186 F 
ENDROOT
BRANCH   1   4
ATOM      4  C   LIG d   1       5.699  -2.812  -9.545  0.00  0.00     0.389 C 
ATOM      5  O   LIG d   1       6.754  -3.281  -9.896  0.00  0.00    -0.243 OA
BRANCH   4   6
ATOM      6  O   LIG d   1       5.098  -1.873 -10.295  0.00  0.00    -0.421 OA
BRANCH   6   7
ATOM      7  C   LIG d   1       5.156  -0.583  -9.868  0.00  0.00     0.132 A 
ATOM      8  C   LIG d   1       6.384   0.040  -9.704  0.00  0.00    -0.016 A 
ATOM      9  C   LIG d   1       6.441   1.350  -9.270  0.00  0.00    -0.047 A 
ATOM     10  H   LIG d   1       7.296  -0.499  -9.915  0.00  0.00     0.066 H 
ATOM     11  C   LIG d   1       5.274   2.041  -9.000  0.00  0.00    -0.056 A 
ATOM     12  C   LIG d   1       4.048   1.422  -9.163  0.00  0.00    -0.047 A 
ATOM     13  H   LIG d   1       5.319   3.065  -8.662  0.00  0.00     0.062 H 
ATOM     14  C   LIG d   1       3.987   0.110  -9.592  0.00  0.00    -0.016 A 
ATOM     15  H   LIG d   1       3.029  -0.374  -9.715  0.00  0.00     0.066 H 
BRANCH   9  16
ATOM     16  C   LIG d   1       7.774   2.027  -9.091  0.00  0.00    -0.040 C 
ATOM     17  H   LIG d   1       7.765   2.990  -9.603  0.00  0.00     0.028 H 
ATOM     18  H   LIG d   1       7.964   2.182  -8.029  0.00  0.00     0.028 H 
ATOM     19  H   LIG d   1       8.560   1.400  -9.513  0.00  0.00     0.028 H 
ENDBRANCH   9  16
BRANCH  12  20
ATOM     20  C   LIG d   1       2.778   2.177  -8.868  0.00  0.00    -0.040 C 
ATOM     21  H   LIG d   1       2.853   3.188  -9.272  0.00  0.00     0.028 H 
ATOM     22  H   LIG d   1       1.934   1.664  -9.330  0.00  0.00     0.028 H 
ATOM     23  H   LIG d   1       2.627   2.228  -7.790  0.00  0.00     0.028 H 
ENDBRANCH  12  20
ENDBRANCH   6   7
ENDBRANCH   4   6
ENDBRANCH   1   4
BRANCH   1  24
ATOM     24  C   LIG d   1       5.664  -2.524  -7.083  0.00  0.00     0.389 C 
ATOM     25  F   LIG d   1       7.014  -2.263  -7.342  0.00  0.00    -0.192 F 
ATOM     26  F   LIG d   1       4.982  -1.315  -6.899  0.00  0.00    -0.192 F 
BRANCH  24  27
ATOM     27  C   LIG d   1       5.543  -3.375  -5.817  0.00  0.00     0.384 C 
ATOM     28  F   LIG d   1       4.250  -3.901  -5.732  0.00  0.00    -0.192 F 
ATOM     29  F   LIG d   1       6.470  -4.421  -5.868  0.00  0.00    -0.192 F 
BRANCH  27  30
ATOM     30  C   LIG d   1       5.822  -2.506  -4.589  0.00  0.00     0.384 C 
ATOM     31  F   LIG d   1       6.793  -3.122  -3.792  0.00  0.00    -0.192 F 
ATOM     32  F   LIG d   1       6.284  -1.251  -5.001  0.00  0.00    -0.192 F 
BRANCH  30  33
ATOM     33  C   LIG d   1       4.534  -2.335  -3.782  0.00  0.00     0.384 C 
ATOM     34  F   LIG d   1       3.493  -1.958  -4.638  0.00  0.00    -0.192 F 
ATOM     35  F   LIG d   1       4.209  -3.546  -3.159  0.00  0.00    -0.192 F 
BRANCH  33  36
ATOM     36  C   LIG d   1       4.737  -1.254  -2.719  0.00  0.00     0.387 C 
ATOM     37  F   LIG d   1       4.426  -1.774  -1.458  0.00  0.00    -0.192 F 
ATOM     38  F   LIG d   1       6.071  -0.831  -2.733  0.00  0.00    -0.192 F 
BRANCH  36  39
ATOM     39  C   LIG d   1       3.823  -0.064  -3.019  0.00  0.00     0.409 C 
ATOM     40  F   LIG d   1       3.892   0.245  -4.382  0.00  0.00    -0.189 F 
ATOM     41  F   LIG d   1       2.505  -0.393  -2.683  0.00  0.00    -0.189 F 
BRANCH  39  42
ATOM     42  C   LIG d   1       4.272   1.145  -2.198  0.00  0.00     0.460 C 
ATOM     43  F   LIG d   1       5.317   1.798  -2.862  0.00  0.00    -0.165 F 
ATOM     44  F   LIG d   1       3.197   2.027  -2.039  0.00  0.00    -0.165 F 
ATOM     45  F   LIG d   1       4.714   0.718  -0.941  0.00  0.00    -0.165 F 
ENDBRANCH  39  42
ENDBRANCH  36  39
ENDBRANCH  33  36
ENDBRANCH  30  33
ENDBRANCH  27  30
ENDBRANCH  24  27
ENDBRANCH   1  24
TORSDOF 12
ENDMDL
MODEL 4
REMARK VINA RESULT:      -6.8      0.793      2.295
REMARK  12 active torsions:
REMARK  status: ('A' for Active; 'I' for Inactive)
REMARK    1  A    between atoms: C_1  and  C_2 
REMARK    2  A    between atoms: C_4  and  C_36 
REMARK    3  A    between atoms: C_6  and  O_8 
REMARK    4  A    between atoms: O_8  and  C_9 
REMARK    5  A    between atoms: C_9  and  C_11 
REMARK    6  A    between atoms: C_11  and  C_12 
REMARK    7  A    between atoms: C_12  and  C_13 
REMARK    8  A    between atoms: C_13  and  C_14 
REMARK    9  A    between atoms: C_14  and  C_15 
REMARK   10  A    between atoms: C_15  and  C_16 
REMARK   11  A    between atoms: C_16  and  C_17 
REMARK   12  A    between atoms: C_17  and  C_18 
ROOT
ATOM      1  C   LIG d   1       5.616  -6.247  -7.219  0.00  0.00     0.410 C 
ATOM      2  F   LIG d   1       6.976  -6.302  -6.899  0.00  0.00    -0.186 F 
ATOM      3  F   LIG d   1       5.452  -5.604  -8.450  0.00  0.00    -0.186 F 
ENDROOT
BRANCH   1   4
ATOM      4  C   LIG d   1       5.064  -7.647  -7.305  0.00  0.00     0.389 C 
ATOM      5  O   LIG d   1       3.937  -7.828  -7.701  0.00  0.00    -0.243 OA
BRANCH   4   6
ATOM      6  O   LIG d   1       5.825  -8.692  -6.942  0.00  0.00    -0.421 OA
BRANCH   6   7
ATOM      7  C   LIG d   1       5.735  -9.131  -5.659  0.00  0.00     0.132 A 
ATOM      8  C   LIG d   1       4.578  -9.756  -5.218  0.00  0.00    -0.016 A 
ATOM      9  C   LIG d   1       4.487 -10.201  -3.914  0.00  0.00    -0.047 A 
ATOM     10  H   LIG d   1       3.747  -9.894  -5.895  0.00  0.00     0.066 H 
ATOM     11  C   LIG d   1       5.550 -10.026  -3.047  0.00  0.00    -0.056 A 
ATOM     12  C   LIG d   1       6.706  -9.403  -3.484  0.00  0.00    -0.047 A 
ATOM     13  H   LIG d   1       5.479 -10.375  -2.028  0.00  0.00     0.062 H 
ATOM     14  C   LIG d   1       6.798  -8.951  -4.786  0.00  0.00    -0.016 A 
ATOM     15  H   LIG d   1       7.698  -8.461  -5.126  0.00  0.00     0.066 H 
BRANCH   9  16
ATOM     16  C   LIG d   1       3.231 -10.880  -3.435  0.00  0.00    -0.040 C 
ATOM     17  H   LIG d   1       2.585 -10.149  -2.947  0.00  0.00     0.028 H 
ATOM     18  H   LIG d   1       2.707 -11.317  -4.285  0.00  0.00     0.028 H 
ATOM     19  H   LIG d   1       3.490 -11.666  -2.725  0.00  0.00     0.028 H 
ENDBRANCH   9  16
BRANCH  12  20
ATOM     20  C   LIG d   1       7.862  -9.212  -2.538  0.00  0.00    -0.040 C 
ATOM     21  H   LIG d   1       8.111  -8.152  -2.477  0.00  0.00     0.028 H 
ATOM     22  H   LIG d   1       7.586  -9.577  -1.548  0.00  0.00     0.028 H 
ATOM     23  H   LIG d   1       8.725  -9.768  -2.902  0.00  0.00     0.028 H 
ENDBRANCH  12  20
ENDBRANCH   6   7
ENDBRANCH   4   6
ENDBRANCH   1   4
BRANCH   1  24
ATOM     24  C   LIG d   1       4.868  -5.470  -6.134  0.00  0.00     0.389 C 
ATOM     25  F   LIG d   1       3.598  -5.119  -6.604  0.00  0.00    -0.192 F 
ATOM     26  F   LIG d   1       4.738  -6.270  -4.993  0.00  0.00    -0.192 F 
BRANCH  24  27
ATOM     27  C   LIG d   1       5.650  -4.203  -5.782  0.00  0.00     0.384 C 
ATOM     28  F   LIG d   1       6.714  -4.532  -4.936  0.00  0.00    -0.192 F 
ATOM     29  F   LIG d   1       6.149  -3.622  -6.954  0.00  0.00    -0.192 F 
BRANCH  27  30
ATOM     30  C   LIG d   1       4.725  -3.211  -5.075  0.00  0.00     0.384 C 
ATOM     31  F   LIG d   1       3.846  -2.647  -6.007  0.00  0.00    -0.192 F 
ATOM     32  F   LIG d   1       3.991  -3.880  -4.089  0.00  0.00    -0.192 F 
BRANCH  30  33
ATOM     33  C   LIG d   1       5.560  -2.106  -4.428  0.00  0.00     0.384 C 
ATOM     34  F   LIG d   1       6.281  -2.635  -3.352  0.00  0.00    -0.192 F 
ATOM     35  F   LIG d   1       6.450  -1.580  -5.372  0.00  0.00    -0.192 F 
BRANCH  33  36
ATOM     36  C   LIG d   1       4.635  -0.996  -3.925  0.00  0.00     0.387 C 
ATOM     37  F   LIG d   1       4.600   0.043  -4.863  0.00  0.00    -0.192 F 
ATOM     38  F   LIG d   1       3.345  -1.508  -3.748  0.00  0.00    -0.192 F 
BRANCH  36  39
ATOM     39  C   LIG d   1       5.159  -0.460  -2.591  0.00  0.00     0.409 C 
ATOM     40  F   LIG d   1       4.865  -1.374  -1.574  0.00  0.00    -0.189 F 
ATOM     41  F   LIG d   1       6.544  -0.282  -2.672  0.00  0.00    -0.189 F 
BRANCH  39  42
ATOM     42  C   LIG d   1       4.491   0.881  -2.282  0.00  0.00     0.460 C 
ATOM     43  F   LIG d   1       5.072   1.884  -3.065  0.00  0.00    -0.165 F 
ATOM     44  F   LIG d   1       3.124   0.798  -2.569  0.00  0.00    -0.165 F 
ATOM     45  F   LIG d   1       4.665   1.188  -0.928  0.00  0.00    -0.165 F 
ENDBRANCH  39  42
ENDBRANCH  36  39
ENDBRANCH  33  36
ENDBRANCH  30  33
ENDBRANCH  27  30
ENDBRANCH  24  27
ENDBRANCH   1  24
TORSDOF 12
ENDMDL
MODEL 5
REMARK VINA RESULT:      -6.7      3.351      6.171
REMARK  12 active torsions:
REMARK  status: ('A' for Active; 'I' for Inactive)
REMARK    1  A    between atoms: C_1  and  C_2 
REMARK    2  A    between atoms: C_4  and  C_36 
REMARK    3  A    between atoms: C_6  and  O_8 
REMARK    4  A    between atoms: O_8  and  C_9 
REMARK    5  A    between atoms: C_9  and  C_11 
REMARK    6  A    between atoms: C_11  and  C_12 
REMARK    7  A    between atoms: C_12  and  C_13 
REMARK    8  A    between atoms: C_13  and  C_14 
REMARK    9  A    between atoms: C_14  and  C_15 
REMARK   10  A    between atoms: C_15  and  C_16 
REMARK   11  A    between atoms: C_16  and  C_17 
REMARK   12  A    between atoms: C_17  and  C_18 
ROOT
ATOM      1  C   LIG d   1       5.159  -3.644  -8.526  0.00  0.00     0.410 C 
ATOM      2  F   LIG d   1       5.719  -4.682  -9.276  0.00  0.00    -0.186 F 
ATOM      3  F   LIG d   1       5.909  -2.477  -8.712  0.00  0.00    -0.186 F 
ENDROOT
BRANCH   1   4
ATOM      4  C   LIG d   1       3.741  -3.407  -8.976  0.00  0.00     0.389 C 
ATOM      5  O   LIG d   1       3.149  -4.264  -9.588  0.00  0.00    -0.243 OA
BRANCH   4   6
ATOM      6  O   LIG d   1       3.134  -2.241  -8.696  0.00  0.00    -0.421 OA
BRANCH   6   7
ATOM      7  C   LIG d   1       3.409  -1.173  -9.490  0.00  0.00     0.132 A 
ATOM      8  C   LIG d   1       3.632  -1.355 -10.847  0.00  0.00    -0.016 A 
ATOM      9  C   LIG d   1       3.912  -0.268 -11.652  0.00  0.00    -0.047 A 
ATOM     10  H   LIG d   1       3.587  -2.346 -11.274  0.00  0.00     0.066 H 
ATOM     11  C   LIG d   1       3.969   1.002 -11.107  0.00  0.00    -0.056 A 
ATOM     12  C   LIG d   1       3.747   1.186  -9.754  0.00  0.00    -0.047 A 
ATOM     13  H   LIG d   1       4.186   1.850 -11.737  0.00  0.00     0.062 H 
ATOM     14  C   LIG d   1       3.472   0.101  -8.944  0.00  0.00    -0.016 A 
ATOM     15  H   LIG d   1       3.303   0.245  -7.887  0.00  0.00     0.066 H 
BRANCH   9  16
ATOM     16  C   LIG d   1       4.154  -0.465 -13.126  0.00  0.00    -0.040 C 
ATOM     17  H   LIG d   1       5.194  -0.747 -13.289  0.00  0.00     0.028 H 
ATOM     18  H   LIG d   1       3.500  -1.254 -13.500  0.00  0.00     0.028 H 
ATOM     19  H   LIG d   1       3.942   0.464 -13.657  0.00  0.00     0.028 H 
ENDBRANCH   9  16
BRANCH  12  20
ATOM     20  C   LIG d   1       3.810   2.570  -9.163  0.00  0.00    -0.040 C 
ATOM     21  H   LIG d   1       3.613   2.517  -8.091  0.00  0.00     0.028 H 
ATOM     22  H   LIG d   1       4.802   2.991  -9.329  0.00  0.00     0.028 H 
ATOM     23  H   LIG d   1       3.062   3.203  -9.638  0.00  0.00     0.028 H 
ENDBRANCH  12  20
ENDBRANCH   6   7
ENDBRANCH   4   6
ENDBRANCH   1   4
BRANCH   1  24
ATOM     24  C   LIG d   1       5.167  -4.023  -7.044  0.00  0.00     0.389 C 
ATOM     25  F   LIG d   1       3.851  -4.195  -6.599  0.00  0.00    -0.192 F 
ATOM     26  F   LIG d   1       5.876  -5.217  -6.872  0.00  0.00    -0.192 F 
BRANCH  24  27
ATOM     27  C   LIG d   1       5.837  -2.911  -6.235  0.00  0.00     0.384 C 
ATOM     28  F   LIG d   1       7.157  -2.749  -6.671  0.00  0.00    -0.192 F 
ATOM     29  F   LIG d   1       5.136  -1.714  -6.418  0.00  0.00    -0.192 F 
BRANCH  27  30
ATOM     30  C   LIG d   1       5.832  -3.284  -4.752  0.00  0.00     0.384 C 
ATOM     31  F   LIG d   1       4.665  -3.997  -4.454  0.00  0.00    -0.192 F 
ATOM     32  F   LIG d   1       6.949  -4.077  -4.466  0.00  0.00    -0.192 F 
BRANCH  30  33
ATOM     33  C   LIG d   1       5.881  -2.011  -3.906  0.00  0.00     0.384 C 
ATOM     34  F   LIG d   1       6.787  -2.184  -2.853  0.00  0.00    -0.192 F 
ATOM     35  F   LIG d   1       6.293  -0.937  -4.703  0.00  0.00    -0.192 F 
BRANCH  33  36
ATOM     36  C   LIG d   1       4.491  -1.721  -3.339  0.00  0.00     0.387 C 
ATOM     37  F   LIG d   1       3.588  -1.527  -4.390  0.00  0.00    -0.192 F 
ATOM     38  F   LIG d   1       4.070  -2.803  -2.557  0.00  0.00    -0.192 F 
BRANCH  36  39
ATOM     39  C   LIG d   1       4.544  -0.459  -2.475  0.00  0.00     0.409 C 
ATOM     40  F   LIG d   1       4.523  -0.819  -1.122  0.00  0.00    -0.189 F 
ATOM     41  F   LIG d   1       5.720   0.245  -2.750  0.00  0.00    -0.189 F 
BRANCH  39  42
ATOM     42  C   LIG d   1       3.336   0.425  -2.787  0.00  0.00     0.460 C 
ATOM     43  F   LIG d   1       2.161  -0.323  -2.646  0.00  0.00    -0.165 F 
ATOM     44  F   LIG d   1       3.308   1.507  -1.900  0.00  0.00    -0.165 F 
ATOM     45  F   LIG d   1       3.431   0.900  -4.099  0.00  0.00    -0.165 F 
ENDBRANCH  39  42
ENDBRANCH  36  39
ENDBRANCH  33  36
ENDBRANCH  30  33
ENDBRANCH  27  30
ENDBRANCH  24  27
ENDBRANCH   1  24
TORSDOF 12
ENDMDL
MODEL 6
REMARK VINA RESULT:      -6.6      3.104      5.669
REMARK  12 active torsions:
REMARK  status: ('A' for Active; 'I' for Inactive)
REMARK    1  A    between atoms: C_1  and  C_2 
REMARK    2  A    between atoms: C_4  and  C_36 
REMARK    3  A    between atoms: C_6  and  O_8 
REMARK    4  A    between atoms: O_8  and  C_9 
REMARK    5  A    between atoms: C_9  and  C_11 
REMARK    6  A    between atoms: C_11  and  C_12 
REMARK    7  A    between atoms: C_12  and  C_13 
REMARK    8  A    between atoms: C_13  and  C_14 
REMARK    9  A    between atoms: C_14  and  C_15 
REMARK   10  A    between atoms: C_15  and  C_16 
REMARK   11  A    between atoms: C_16  and  C_17 
REMARK   12  A    between atoms: C_17  and  C_18 
ROOT
ATOM      1  C   LIG d   1       4.528  -4.988  -7.543  0.00  0.00     0.410 C 
ATOM      2  F   LIG d   1       3.432  -4.617  -6.757  0.00  0.00    -0.186 F 
ATOM      3  F   LIG d   1       4.865  -6.319  -7.277  0.00  0.00    -0.186 F 
ENDROOT
BRANCH   1   4
ATOM      4  C   LIG d   1       4.173  -4.841  -9.001  0.00  0.00     0.389 C 
ATOM      5  O   LIG d   1       4.980  -5.131  -9.851  0.00  0.00    -0.243 OA
BRANCH   4   6
ATOM      6  O   LIG d   1       2.958  -4.389  -9.353  0.00  0.00    -0.421 OA
BRANCH   6   7
ATOM      7  C   LIG d   1       2.875  -3.145  -9.895  0.00  0.00     0.132 A 
ATOM      8  C   LIG d   1       2.775  -2.033  -9.070  0.00  0.00    -0.016 A 
ATOM      9  C   LIG d   1       2.690  -0.770  -9.623  0.00  0.00    -0.047 A 
ATOM     10  H   LIG d   1       2.765  -2.156  -7.997  0.00  0.00     0.066 H 
ATOM     11  C   LIG d   1       2.703  -0.612 -10.996  0.00  0.00    -0.056 A 
ATOM     12  C   LIG d   1       2.803  -1.718 -11.820  0.00  0.00    -0.047 A 
ATOM     13  H   LIG d   1       2.637   0.376 -11.427  0.00  0.00     0.062 H 
ATOM     14  C   LIG d   1       2.883  -2.984 -11.272  0.00  0.00    -0.016 A 
ATOM     15  H   LIG d   1       2.956  -3.848 -11.916  0.00  0.00     0.066 H 
BRANCH   9  16
ATOM     16  C   LIG d   1       2.582   0.437  -8.728  0.00  0.00    -0.040 C 
ATOM     17  H   LIG d   1       1.581   0.484  -8.299  0.00  0.00     0.028 H 
ATOM     18  H   LIG d   1       3.317   0.363  -7.927  0.00  0.00     0.028 H 
ATOM     19  H   LIG d   1       2.769   1.340  -9.311  0.00  0.00     0.028 H 
ENDBRANCH   9  16
BRANCH  12  20
ATOM     20  C   LIG d   1       2.817  -1.544 -13.317  0.00  0.00    -0.040 C 
ATOM     21  H   LIG d   1       2.886  -2.521 -13.797  0.00  0.00     0.028 H 
ATOM     22  H   LIG d   1       1.899  -1.048 -13.633  0.00  0.00     0.028 H 
ATOM     23  H   LIG d   1       3.675  -0.937 -13.604  0.00  0.00     0.028 H 
ENDBRANCH  12  20
ENDBRANCH   6   7
ENDBRANCH   4   6
ENDBRANCH   1   4
BRANCH   1  24
ATOM     24  C   LIG d   1       5.719  -4.085  -7.216  0.00  0.00     0.389 C 
ATOM     25  F   LIG d   1       6.906  -4.728  -7.583  0.00  0.00    -0.192 F 
ATOM     26  F   LIG d   1       5.601  -2.883  -7.923  0.00  0.00    -0.192 F 
BRANCH  24  27
ATOM     27  C   LIG d   1       5.740  -3.793  -5.714  0.00  0.00     0.384 C 
ATOM     28  F   LIG d   1       4.820  -4.623  -5.065  0.00  0.00    -0.192 F 
ATOM     29  F   LIG d   1       7.023  -4.036  -5.210  0.00  0.00    -0.192 F 
BRANCH  27  30
ATOM     30  C   LIG d   1       5.367  -2.330  -5.473  0.00  0.00     0.384 C 
ATOM     31  F   LIG d   1       6.412  -1.504  -5.900  0.00  0.00    -0.192 F 
ATOM     32  F   LIG d   1       4.205  -2.021  -6.190  0.00  0.00    -0.192 F 
BRANCH  30  33
ATOM     33  C   LIG d   1       5.119  -2.106  -3.980  0.00  0.00     0.384 C 
ATOM     34  F   LIG d   1       3.901  -2.691  -3.616  0.00  0.00    -0.192 F 
ATOM     35  F   LIG d   1       6.155  -2.689  -3.242  0.00  0.00    -0.192 F 
BRANCH  33  36
ATOM     36  C   LIG d   1       5.069  -0.605  -3.691  0.00  0.00     0.387 C 
ATOM     37  F   LIG d   1       6.359  -0.141  -3.409  0.00  0.00    -0.192 F 
ATOM     38  F   LIG d   1       4.565   0.070  -4.809  0.00  0.00    -0.192 F 
BRANCH  36  39
ATOM     39  C   LIG d   1       4.160  -0.346  -2.487  0.00  0.00     0.409 C 
ATOM     40  F   LIG d   1       2.828  -0.572  -2.852  0.00  0.00    -0.189 F 
ATOM     41  F   LIG d   1       4.510  -1.210  -1.444  0.00  0.00    -0.189 F 
BRANCH  39  42
ATOM     42  C   LIG d   1       4.324   1.103  -2.025  0.00  0.00     0.460 C 
ATOM     43  F   LIG d   1       3.080   1.744  -2.052  0.00  0.00    -0.165 F 
ATOM     44  F   LIG d   1       4.830   1.123  -0.721  0.00  0.00    -0.165 F 
ATOM     45  F   LIG d   1       5.210   1.768  -2.880  0.00  0.00    -0.165 F 
ENDBRANCH  39  42
ENDBRANCH  36  39
ENDBRANCH  33  36
ENDBRANCH  30  33
ENDBRANCH  27  30
ENDBRANCH  24  27
ENDBRANCH   1  24
TORSDOF 12
ENDMDL
MODEL 7
REMARK VINA RESULT:      -6.6      1.349      2.202
REMARK  12 active torsions:
REMARK  status: ('A' for Active; 'I' for Inactive)
REMARK    1  A    between atoms: C_1  and  C_2 
REMARK    2  A    between atoms: C_4  and  C_36 
REMARK    3  A    between atoms: C_6  and  O_8 
REMARK    4  A    between atoms: O_8  and  C_9 
REMARK    5  A    between atoms: C_9  and  C_11 
REMARK    6  A    between atoms: C_11  and  C_12 
REMARK    7  A    between atoms: C_12  and  C_13 
REMARK    8  A    between atoms: C_13  and  C_14 
REMARK    9  A    between atoms: C_14  and  C_15 
REMARK   10  A    between atoms: C_15  and  C_16 
REMARK   11  A    between atoms: C_16  and  C_17 
REMARK   12  A    between atoms: C_17  and  C_18 
ROOT
ATOM      1  C   LIG d   1       5.650  -6.556  -6.302  0.00  0.00     0.410 C 
ATOM      2  F   LIG d   1       4.951  -6.425  -7.506  0.00  0.00    -0.186 F 
ATOM      3  F   LIG d   1       4.781  -7.015  -5.306  0.00  0.00    -0.186 F 
ENDROOT
BRANCH   1   4
ATOM      4  C   LIG d   1       6.776  -7.542  -6.480  0.00  0.00     0.389 C 
ATOM      5  O   LIG d   1       7.749  -7.238  -7.127  0.00  0.00    -0.243 OA
BRANCH   4   6
ATOM      6  O   LIG d   1       6.697  -8.759  -5.916  0.00  0.00    -0.421 OA
BRANCH   6   7
ATOM      7  C   LIG d   1       7.075  -8.885  -4.617  0.00  0.00     0.132 A 
ATOM      8  C   LIG d   1       8.174  -8.184  -4.141  0.00  0.00    -0.016 A 
ATOM      9  C   LIG d   1       8.557  -8.314  -2.821  0.00  0.00    -0.047 A 
ATOM     10  H   LIG d   1       8.730  -7.536  -4.804  0.00  0.00     0.066 H 
ATOM     11  C   LIG d   1       7.846  -9.142  -1.971  0.00  0.00    -0.056 A 
ATOM     12  C   LIG d   1       6.750  -9.842  -2.443  0.00  0.00    -0.047 A 
ATOM     13  H   LIG d   1       8.146  -9.242  -0.939  0.00  0.00     0.062 H 
ATOM     14  C   LIG d   1       6.367  -9.720  -3.765  0.00  0.00    -0.016 A 
ATOM     15  H   LIG d   1       5.514 -10.270  -4.133  0.00  0.00     0.066 H 
BRANCH   9  16
ATOM     16  C   LIG d   1       9.750  -7.552  -2.304  0.00  0.00    -0.040 C 
ATOM     17  H   LIG d   1      10.188  -6.969  -3.115  0.00  0.00     0.028 H 
ATOM     18  H   LIG d   1       9.435  -6.882  -1.504  0.00  0.00     0.028 H 
ATOM     19  H   LIG d   1      10.491  -8.254  -1.920  0.00  0.00     0.028 H 
ENDBRANCH   9  16
BRANCH  12  20
ATOM     20  C   LIG d   1       5.978 -10.744  -1.516  0.00  0.00    -0.040 C 
ATOM     21  H   LIG d   1       5.058 -10.246  -1.206  0.00  0.00     0.028 H 
ATOM     22  H   LIG d   1       5.732 -11.672  -2.033  0.00  0.00     0.028 H 
ATOM     23  H   LIG d   1       6.583 -10.967  -0.638  0.00  0.00     0.028 H 
ENDBRANCH  12  20
ENDBRANCH   6   7
ENDBRANCH   4   6
ENDBRANCH   1   4
BRANCH   1  24
ATOM     24  C   LIG d   1       6.222  -5.198  -5.893  0.00  0.00     0.389 C 
ATOM     25  F   LIG d   1       7.164  -5.375  -4.874  0.00  0.00    -0.192 F 
ATOM     26  F   LIG d   1       6.838  -4.599  -6.998  0.00  0.00    -0.192 F 
BRANCH  24  27
ATOM     27  C   LIG d   1       5.091  -4.298  -5.390  0.00  0.00     0.384 C 
ATOM     28  F   LIG d   1       4.245  -3.975  -6.455  0.00  0.00    -0.192 F 
ATOM     29  F   LIG d   1       4.363  -4.972  -4.403  0.00  0.00    -0.192 F 
BRANCH  27  30
ATOM     30  C   LIG d   1       5.682  -3.016  -4.801  0.00  0.00     0.384 C 
ATOM     31  F   LIG d   1       6.740  -3.340  -3.945  0.00  0.00    -0.192 F 
ATOM     32  F   LIG d   1       6.153  -2.201  -5.837  0.00  0.00    -0.192 F 
BRANCH  30  33
ATOM     33  C   LIG d   1       4.602  -2.269  -4.017  0.00  0.00     0.384 C 
ATOM     34  F   LIG d   1       3.485  -2.068  -4.836  0.00  0.00    -0.192 F 
ATOM     35  F   LIG d   1       4.230  -3.026  -2.900  0.00  0.00    -0.192 F 
BRANCH  33  36
ATOM     36  C   LIG d   1       5.148  -0.916  -3.558  0.00  0.00     0.387 C 
ATOM     37  F   LIG d   1       6.463  -1.072  -3.106  0.00  0.00    -0.192 F 
ATOM     38  F   LIG d   1       5.127  -0.017  -4.630  0.00  0.00    -0.192 F 
BRANCH  36  39
ATOM     39  C   LIG d   1       4.279  -0.374  -2.421  0.00  0.00     0.409 C 
ATOM     40  F   LIG d   1       2.929  -0.492  -2.769  0.00  0.00    -0.189 F 
ATOM     41  F   LIG d   1       4.525  -1.107  -1.256  0.00  0.00    -0.189 F 
BRANCH  39  42
ATOM     42  C   LIG d   1       4.616   1.098  -2.178  0.00  0.00     0.460 C 
ATOM     43  F   LIG d   1       5.859   1.392  -2.751  0.00  0.00    -0.165 F 
ATOM     44  F   LIG d   1       3.632   1.904  -2.759  0.00  0.00    -0.165 F 
ATOM     45  F   LIG d   1       4.668   1.344  -0.801  0.00  0.00    -0.165 F 
ENDBRANCH  39  42
ENDBRANCH  36  39
ENDBRANCH  33  36
ENDBRANCH  30  33
ENDBRANCH  27  30
ENDBRANCH  24  27
ENDBRANCH   1  24
TORSDOF 12
ENDMDL
MODEL 8
REMARK VINA RESULT:      -6.5      0.773      1.873
REMARK  12 active torsions:
REMARK  status: ('A' for Active; 'I' for Inactive)
REMARK    1  A    between atoms: C_1  and  C_2 
REMARK    2  A    between atoms: C_4  and  C_36 
REMARK    3  A    between atoms: C_6  and  O_8 
REMARK    4  A    between atoms: O_8  and  C_9 
REMARK    5  A    between atoms: C_9  and  C_11 
REMARK    6  A    between atoms: C_11  and  C_12 
REMARK    7  A    between atoms: C_12  and  C_13 
REMARK    8  A    between atoms: C_13  and  C_14 
REMARK    9  A    between atoms: C_14  and  C_15 
REMARK   10  A    between atoms: C_15  and  C_16 
REMARK   11  A    between atoms: C_16  and  C_17 
REMARK   12  A    between atoms: C_17  and  C_18 
ROOT
ATOM      1  C   LIG d   1       4.923  -6.297  -6.176  0.00  0.00     0.410 C 
ATOM      2  F   LIG d   1       4.011  -5.983  -7.188  0.00  0.00    -0.186 F 
ATOM      3  F   LIG d   1       4.258  -6.347  -4.946  0.00  0.00    -0.186 F 
ENDROOT
BRANCH   1   4
ATOM      4  C   LIG d   1       5.551  -7.637  -6.463  0.00  0.00     0.389 C 
ATOM      5  O   LIG d   1       5.181  -8.287  -7.411  0.00  0.00    -0.243 OA
BRANCH   4   6
ATOM      6  O   LIG d   1       6.522  -8.107  -5.663  0.00  0.00    -0.421 OA
BRANCH   6   7
ATOM      7  C   LIG d   1       6.158  -8.876  -4.602  0.00  0.00     0.132 A 
ATOM      8  C   LIG d   1       4.902  -9.465  -4.570  0.00  0.00    -0.016 A 
ATOM      9  C   LIG d   1       4.534 -10.245  -3.491  0.00  0.00    -0.047 A 
ATOM     10  H   LIG d   1       4.213  -9.314  -5.388  0.00  0.00     0.066 H 
ATOM     11  C   LIG d   1       5.415 -10.440  -2.444  0.00  0.00    -0.056 A 
ATOM     12  C   LIG d   1       6.668  -9.854  -2.474  0.00  0.00    -0.047 A 
ATOM     13  H   LIG d   1       5.127 -11.050  -1.602  0.00  0.00     0.062 H 
ATOM     14  C   LIG d   1       7.038  -9.068  -3.548  0.00  0.00    -0.016 A 
ATOM     15  H   LIG d   1       8.015  -8.607  -3.569  0.00  0.00     0.066 H 
BRANCH   9  16
ATOM     16  C   LIG d   1       3.170 -10.885  -3.455  0.00  0.00    -0.040 C 
ATOM     17  H   LIG d   1       3.177 -11.789  -4.065  0.00  0.00     0.028 H 
ATOM     18  H   LIG d   1       2.916 -11.143  -2.427  0.00  0.00     0.028 H 
ATOM     19  H   LIG d   1       2.431 -10.187  -3.848  0.00  0.00     0.028 H 
ENDBRANCH   9  16
BRANCH  12  20
ATOM     20  C   LIG d   1       7.626 -10.067  -1.331  0.00  0.00    -0.040 C 
ATOM     21  H   LIG d   1       8.115  -9.123  -1.085  0.00  0.00     0.028 H 
ATOM     22  H   LIG d   1       7.080 -10.431  -0.461  0.00  0.00     0.028 H 
ATOM     23  H   LIG d   1       8.379 -10.800  -1.620  0.00  0.00     0.028 H 
ENDBRANCH  12  20
ENDBRANCH   6   7
ENDBRANCH   4   6
ENDBRANCH   1   4
BRANCH   1  24
ATOM     24  C   LIG d   1       6.014  -5.225  -6.123  0.00  0.00     0.389 C 
ATOM     25  F   LIG d   1       6.770  -5.387  -4.957  0.00  0.00    -0.192 F 
ATOM     26  F   LIG d   1       6.847  -5.351  -7.240  0.00  0.00    -0.192 F 
BRANCH  24  27
ATOM     27  C   LIG d   1       5.367  -3.838  -6.123  0.00  0.00     0.384 C 
ATOM     28  F   LIG d   1       6.057  -3.003  -7.007  0.00  0.00    -0.192 F 
ATOM     29  F   LIG d   1       4.032  -3.946  -6.528  0.00  0.00    -0.192 F 
BRANCH  27  30
ATOM     30  C   LIG d   1       5.425  -3.248  -4.713  0.00  0.00     0.384 C 
ATOM     31  F   LIG d   1       4.543  -3.943  -3.878  0.00  0.00    -0.192 F 
ATOM     32  F   LIG d   1       6.728  -3.362  -4.213  0.00  0.00    -0.192 F 
BRANCH  30  33
ATOM     33  C   LIG d   1       5.025  -1.772  -4.761  0.00  0.00     0.384 C 
ATOM     34  F   LIG d   1       5.976  -1.054  -5.495  0.00  0.00    -0.192 F 
ATOM     35  F   LIG d   1       3.773  -1.648  -5.374  0.00  0.00    -0.192 F 
BRANCH  33  36
ATOM     36  C   LIG d   1       4.953  -1.216  -3.338  0.00  0.00     0.387 C 
ATOM     37  F   LIG d   1       4.598  -2.241  -2.454  0.00  0.00    -0.192 F 
ATOM     38  F   LIG d   1       6.202  -0.700  -2.975  0.00  0.00    -0.192 F 
BRANCH  36  39
ATOM     39  C   LIG d   1       3.904  -0.104  -3.276  0.00  0.00     0.409 C 
ATOM     40  F   LIG d   1       3.835   0.541  -4.516  0.00  0.00    -0.189 F 
ATOM     41  F   LIG d   1       2.657  -0.656  -2.968  0.00  0.00    -0.189 F 
BRANCH  39  42
ATOM     42  C   LIG d   1       4.295   0.907  -2.197  0.00  0.00     0.460 C 
ATOM     43  F   LIG d   1       3.216   1.762  -1.946  0.00  0.00    -0.165 F 
ATOM     44  F   LIG d   1       4.633   0.227  -1.021  0.00  0.00    -0.165 F 
ATOM     45  F   LIG d   1       5.392   1.657  -2.634  0.00  0.00    -0.165 F 
ENDBRANCH  39  42
ENDBRANCH  36  39
ENDBRANCH  33  36
ENDBRANCH  30  33
ENDBRANCH  27  30
ENDBRANCH  24  27
ENDBRANCH   1  24
TORSDOF 12
ENDMDL
MODEL 9
REMARK VINA RESULT:      -6.3      6.617      9.514
REMARK  12 active torsions:
REMARK  status: ('A' for Active; 'I' for Inactive)
REMARK    1  A    between atoms: C_1  and  C_2 
REMARK    2  A    between atoms: C_4  and  C_36 
REMARK    3  A    between atoms: C_6  and  O_8 
REMARK    4  A    between atoms: O_8  and  C_9 
REMARK    5  A    between atoms: C_9  and  C_11 
REMARK    6  A    between atoms: C_11  and  C_12 
REMARK    7  A    between atoms: C_12  and  C_13 
REMARK    8  A    between atoms: C_13  and  C_14 
REMARK    9  A    between atoms: C_14  and  C_15 
REMARK   10  A    between atoms: C_15  and  C_16 
REMARK   11  A    between atoms: C_16  and  C_17 
REMARK   12  A    between atoms: C_17  and  C_18 
ROOT
ATOM      1  C   LIG d   1       9.344   2.057  -5.674  0.00  0.00     0.410 C 
ATOM      2  F   LIG d   1      10.555   1.368  -5.796  0.00  0.00    -0.186 F 
ATOM      3  F   LIG d   1       9.166   2.888  -6.786  0.00  0.00    -0.186 F 
ENDROOT
BRANCH   1   4
ATOM      4  C   LIG d   1       8.209   1.069  -5.598  0.00  0.00     0.389 C 
ATOM      5  O   LIG d   1       7.249   1.194  -6.319  0.00  0.00    -0.243 OA
BRANCH   4   6
ATOM      6  O   LIG d   1       8.267   0.047  -4.727  0.00  0.00    -0.421 OA
BRANCH   6   7
ATOM      7  C   LIG d   1       7.106  -0.367  -4.154  0.00  0.00     0.132 A 
ATOM      8  C   LIG d   1       6.462   0.441  -3.228  0.00  0.00    -0.016 A 
ATOM      9  C   LIG d   1       5.283   0.018  -2.645  0.00  0.00    -0.047 A 
ATOM     10  H   LIG d   1       6.882   1.401  -2.963  0.00  0.00     0.066 H 
ATOM     11  C   LIG d   1       4.744  -1.209  -2.984  0.00  0.00    -0.056 A 
ATOM     12  C   LIG d   1       5.384  -2.016  -3.907  0.00  0.00    -0.047 A 
ATOM     13  H   LIG d   1       3.822  -1.538  -2.529  0.00  0.00     0.062 H 
ATOM     14  C   LIG d   1       6.566  -1.600  -4.488  0.00  0.00    -0.016 A 
ATOM     15  H   LIG d   1       7.068  -2.233  -5.205  0.00  0.00     0.066 H 
BRANCH   9  16
ATOM     16  C   LIG d   1       4.583   0.895  -1.640  0.00  0.00    -0.040 C 
ATOM     17  H   LIG d   1       4.741   0.497  -0.637  0.00  0.00     0.028 H 
ATOM     18  H   LIG d   1       4.986   1.907  -1.697  0.00  0.00     0.028 H 
ATOM     19  H   LIG d   1       3.515   0.917  -1.858  0.00  0.00     0.028 H 
ENDBRANCH   9  16
BRANCH  12  20
ATOM     20  C   LIG d   1       4.794  -3.353  -4.275  0.00  0.00    -0.040 C 
ATOM     21  H   LIG d   1       5.594  -4.037  -4.563  0.00  0.00     0.028 H 
ATOM     22  H   LIG d   1       4.259  -3.762  -3.418  0.00  0.00     0.028 H 
ATOM     23  H   LIG d   1       4.105  -3.229  -5.109  0.00  0.00     0.028 H 
ENDBRANCH  12  20
ENDBRANCH   6   7
ENDBRANCH   4   6
ENDBRANCH   1   4
BRANCH   1  24
ATOM     24  C   LIG d   1       9.366   2.906  -4.402  0.00  0.00     0.389 C 
ATOM     25  F   LIG d   1       8.054   3.158  -3.985  0.00  0.00    -0.192 F 
ATOM     26  F   LIG d   1      10.051   2.218  -3.394  0.00  0.00    -0.192 F 
BRANCH  24  27
ATOM     27  C   LIG d   1      10.074   4.233  -4.685  0.00  0.00     0.384 C 
ATOM     28  F   LIG d   1      11.279   3.985  -5.351  0.00  0.00    -0.192 F 
ATOM     29  F   LIG d   1       9.255   5.037  -5.486  0.00  0.00    -0.192 F 
BRANCH  27  30
ATOM     30  C   LIG d   1      10.360   4.951  -3.365  0.00  0.00     0.384 C 
ATOM     31  F   LIG d   1       9.542   4.424  -2.360  0.00  0.00    -0.192 F 
ATOM     32  F   LIG d   1      11.703   4.770  -3.017  0.00  0.00    -0.192 F 
BRANCH  30  33
ATOM     33  C   LIG d   1      10.073   6.445  -3.525  0.00  0.00     0.384 C 
ATOM     34  F   LIG d   1      11.055   7.026  -4.334  0.00  0.00    -0.192 F 
ATOM     35  F   LIG d   1       8.817   6.617  -4.119  0.00  0.00    -0.192 F 
BRANCH  33  36
ATOM     36  C   LIG d   1      10.082   7.116  -2.150  0.00  0.00     0.387 C 
ATOM     37  F   LIG d   1       8.822   6.981  -1.556  0.00  0.00    -0.192 F 
ATOM     38  F   LIG d   1      11.047   6.506  -1.340  0.00  0.00    -0.192 F 
BRANCH  36  39
ATOM     39  C   LIG d   1      10.414   8.601  -2.310  0.00  0.00     0.409 C 
ATOM     40  F   LIG d   1      11.795   8.754  -2.481  0.00  0.00    -0.189 F 
ATOM     41  F   LIG d   1       9.747   9.111  -3.428  0.00  0.00    -0.189 F 
BRANCH  39  42
ATOM     42  C   LIG d   1       9.968   9.361  -1.059  0.00  0.00     0.460 C 
ATOM     43  F   LIG d   1       8.584   9.566  -1.107  0.00  0.00    -0.165 F 
ATOM     44  F   LIG d   1      10.289   8.615   0.080  0.00  0.00    -0.165 F 
ATOM     45  F   LIG d   1      10.621  10.598  -1.007  0.00  0.00    -0.165 F 
ENDBRANCH  39  42
ENDBRANCH  36  39
ENDBRANCH  33  36
ENDBRANCH  30  33
ENDBRANCH  27  30
ENDBRANCH  24  27
ENDBRANCH   1  24
TORSDOF 12
ENDMDL
