MODEL 1
REMARK VINA RESULT:      -5.2      0.000      0.000
REMARK  2 active torsions:
REMARK  status: ('A' for Active; 'I' for Inactive)
REMARK    1  A    between atoms: C_3  and  C_7 
REMARK    2  A    between atoms: N_12  and  N_13 
ROOT
ATOM      1  C   LIG d   1       4.924  -1.056  -4.360  0.00  0.00     0.070 C 
ATOM      2  H   LIG d   1       4.888  -1.756  -5.194  0.00  0.00     0.057 H 
ATOM      3  C   LIG d   1       5.153  -1.823  -3.041  0.00  0.00    -0.027 C 
ATOM      4  C   LIG d   1       3.719  -1.969  -2.465  0.00  0.00    -0.034 C 
ATOM      5  C   LIG d   1       3.073  -0.629  -2.905  0.00  0.00     0.033 C 
ATOM      6  N   LIG d   1       3.638  -0.354  -4.240  0.00  0.00    -0.213 N 
ATOM      7  H   LIG d   1       5.591  -2.802  -3.235  0.00  0.00     0.029 H 
ATOM      8  H   LIG d   1       5.784  -1.247  -2.363  0.00  0.00     0.029 H 
ATOM      9  H   LIG d   1       3.202  -2.816  -2.914  0.00  0.00     0.028 H 
ATOM     10  H   LIG d   1       3.741  -2.055  -1.379  0.00  0.00     0.028 H 
ATOM     11  H   LIG d   1       3.341   0.166  -2.209  0.00  0.00     0.048 H 
ATOM     12  H   LIG d   1       1.989  -0.729  -2.966  0.00  0.00     0.048 H 
ENDROOT
BRANCH   1  13
ATOM     13  C   LIG d   1       6.034  -0.058  -4.571  0.00  0.00    -0.007 A 
ATOM     14  C   LIG d   1       6.509   0.698  -3.512  0.00  0.00    -0.054 A 
ATOM     15  C   LIG d   1       7.532   1.603  -3.753  0.00  0.00    -0.043 A 
ATOM     16  H   LIG d   1       6.093   0.585  -2.522  0.00  0.00     0.062 H 
ATOM     17  C   LIG d   1       8.039   1.721  -5.033  0.00  0.00     0.028 A 
ATOM     18  H   LIG d   1       7.926   2.210  -2.951  0.00  0.00     0.063 H 
ATOM     19  N   LIG d   1       7.562   0.985  -6.018  0.00  0.00    -0.263 NA
ATOM     20  H   LIG d   1       8.835   2.424  -5.229  0.00  0.00     0.083 H 
ATOM     21  C   LIG d   1       6.594   0.110  -5.824  0.00  0.00     0.033 A 
ATOM     22  H   LIG d   1       6.233  -0.478  -6.654  0.00  0.00     0.083 H 
ENDBRANCH   1  13
BRANCH   6  23
ATOM     23  N   LIG d   1       3.093   0.380  -5.150  0.00  0.00     0.045 NA
ATOM     24  O   LIG d   1       2.703   1.501  -4.876  0.00  0.00    -0.126 OA
ENDBRANCH   6  23
TORSDOF 2
ENDMDL
MODEL 2
REMARK VINA RESULT:      -5.1      2.314      3.177
REMARK  2 active torsions:
REMARK  status: ('A' for Active; 'I' for Inactive)
REMARK    1  A    between atoms: C_3  and  C_7 
REMARK    2  A    between atoms: N_12  and  N_13 
ROOT
ATOM      1  C   LIG d   1       3.370  -0.329  -3.820  0.00  0.00     0.070 C 
ATOM      2  H   LIG d   1       2.341  -0.034  -3.613  0.00  0.00     0.057 H 
ATOM      3  C   LIG d   1       3.624  -1.755  -3.287  0.00  0.00    -0.027 C 
ATOM      4  C   LIG d   1       4.291  -1.503  -1.909  0.00  0.00    -0.034 C 
ATOM      5  C   LIG d   1       5.129  -0.230  -2.201  0.00  0.00     0.033 C 
ATOM      6  N   LIG d   1       4.298   0.570  -3.120  0.00  0.00    -0.213 N 
ATOM      7  H   LIG d   1       2.685  -2.295  -3.168  0.00  0.00     0.029 H 
ATOM      8  H   LIG d   1       4.299  -2.300  -3.948  0.00  0.00     0.029 H 
ATOM      9  H   LIG d   1       3.542  -1.308  -1.142  0.00  0.00     0.028 H 
ATOM     10  H   LIG d   1       4.931  -2.338  -1.626  0.00  0.00     0.028 H 
ATOM     11  H   LIG d   1       6.071  -0.501  -2.679  0.00  0.00     0.048 H 
ATOM     12  H   LIG d   1       5.318   0.323  -1.280  0.00  0.00     0.048 H 
ENDROOT
BRANCH   1  13
ATOM     13  C   LIG d   1       3.632  -0.282  -5.303  0.00  0.00    -0.007 A 
ATOM     14  C   LIG d   1       2.706   0.289  -6.162  0.00  0.00    -0.054 A 
ATOM     15  C   LIG d   1       2.989   0.312  -7.519  0.00  0.00    -0.043 A 
ATOM     16  H   LIG d   1       1.785   0.708  -5.782  0.00  0.00     0.062 H 
ATOM     17  C   LIG d   1       4.177  -0.234  -7.967  0.00  0.00     0.028 A 
ATOM     18  H   LIG d   1       2.290   0.748  -8.217  0.00  0.00     0.063 H 
ATOM     19  N   LIG d   1       5.035  -0.770  -7.122  0.00  0.00    -0.263 NA
ATOM     20  H   LIG d   1       4.405  -0.220  -9.023  0.00  0.00     0.083 H 
ATOM     21  C   LIG d   1       4.801  -0.802  -5.824  0.00  0.00     0.033 A 
ATOM     22  H   LIG d   1       5.530  -1.246  -5.162  0.00  0.00     0.083 H 
ENDBRANCH   1  13
BRANCH   6  23
ATOM     23  N   LIG d   1       4.374   1.848  -3.281  0.00  0.00     0.045 NA
ATOM     24  O   LIG d   1       3.360   2.503  -3.443  0.00  0.00    -0.126 OA
ENDBRANCH   6  23
TORSDOF 2
ENDMDL
MODEL 3
REMARK VINA RESULT:      -5.1      2.251      3.136
REMARK  2 active torsions:
REMARK  status: ('A' for Active; 'I' for Inactive)
REMARK    1  A    between atoms: C_3  and  C_7 
REMARK    2  A    between atoms: N_12  and  N_13 
ROOT
ATOM      1  C   LIG d   1       4.253  -1.124  -3.205  0.00  0.00     0.070 C 
ATOM      2  H   LIG d   1       3.274  -1.601  -3.220  0.00  0.00     0.057 H 
ATOM      3  C   LIG d   1       4.615  -0.712  -1.762  0.00  0.00    -0.027 C 
ATOM      4  C   LIG d   1       4.217   0.787  -1.713  0.00  0.00    -0.034 C 
ATOM      5  C   LIG d   1       4.573   1.247  -3.151  0.00  0.00     0.033 C 
ATOM      6  N   LIG d   1       4.224   0.103  -4.014  0.00  0.00    -0.213 N 
ATOM      7  H   LIG d   1       4.036  -1.289  -1.040  0.00  0.00     0.029 H 
ATOM      8  H   LIG d   1       5.684  -0.834  -1.582  0.00  0.00     0.029 H 
ATOM      9  H   LIG d   1       3.151   0.902  -1.520  0.00  0.00     0.028 H 
ATOM     10  H   LIG d   1       4.808   1.323  -0.971  0.00  0.00     0.028 H 
ATOM     11  H   LIG d   1       5.638   1.466  -3.223  0.00  0.00     0.048 H 
ATOM     12  H   LIG d   1       3.986   2.124  -3.427  0.00  0.00     0.048 H 
ENDROOT
BRANCH   1  13
ATOM     13  C   LIG d   1       5.296  -2.068  -3.745  0.00  0.00    -0.007 A 
ATOM     14  C   LIG d   1       6.637  -1.875  -3.453  0.00  0.00    -0.054 A 
ATOM     15  C   LIG d   1       7.561  -2.770  -3.971  0.00  0.00    -0.043 A 
ATOM     16  H   LIG d   1       6.954  -1.048  -2.836  0.00  0.00     0.062 H 
ATOM     17  C   LIG d   1       7.117  -3.816  -4.757  0.00  0.00     0.028 A 
ATOM     18  H   LIG d   1       8.615  -2.649  -3.764  0.00  0.00     0.063 H 
ATOM     19  N   LIG d   1       5.834  -3.969  -5.016  0.00  0.00    -0.263 NA
ATOM     20  H   LIG d   1       7.831  -4.517  -5.165  0.00  0.00     0.083 H 
ATOM     21  C   LIG d   1       4.927  -3.141  -4.534  0.00  0.00     0.033 A 
ATOM     22  H   LIG d   1       3.884  -3.301  -4.764  0.00  0.00     0.083 H 
ENDBRANCH   1  13
BRANCH   6  23
ATOM     23  N   LIG d   1       3.940   0.170  -5.271  0.00  0.00     0.045 NA
ATOM     24  O   LIG d   1       3.020   0.872  -5.651  0.00  0.00    -0.126 OA
ENDBRANCH   6  23
TORSDOF 2
ENDMDL
MODEL 4
REMARK VINA RESULT:      -4.8      2.534      3.579
REMARK  2 active torsions:
REMARK  status: ('A' for Active; 'I' for Inactive)
REMARK    1  A    between atoms: C_3  and  C_7 
REMARK    2  A    between atoms: N_12  and  N_13 
ROOT
ATOM      1  C   LIG d   1       6.981  -1.464  -4.328  0.00  0.00     0.070 C 
ATOM      2  H   LIG d   1       7.760  -0.826  -4.744  0.00  0.00     0.057 H 
ATOM      3  C   LIG d   1       7.619  -2.644  -3.566  0.00  0.00    -0.027 C 
ATOM      4  C   LIG d   1       7.587  -3.795  -4.607  0.00  0.00    -0.034 C 
ATOM      5  C   LIG d   1       6.254  -3.505  -5.345  0.00  0.00     0.033 C 
ATOM      6  N   LIG d   1       6.169  -2.034  -5.413  0.00  0.00    -0.213 N 
ATOM      7  H   LIG d   1       8.645  -2.410  -3.283  0.00  0.00     0.029 H 
ATOM      8  H   LIG d   1       7.027  -2.902  -2.688  0.00  0.00     0.029 H 
ATOM      9  H   LIG d   1       8.433  -3.727  -5.290  0.00  0.00     0.028 H 
ATOM     10  H   LIG d   1       7.559  -4.766  -4.114  0.00  0.00     0.028 H 
ATOM     11  H   LIG d   1       5.414  -3.907  -4.779  0.00  0.00     0.048 H 
ATOM     12  H   LIG d   1       6.272  -3.931  -6.349  0.00  0.00     0.048 H 
ENDROOT
BRANCH   1  13
ATOM     13  C   LIG d   1       6.104  -0.667  -3.397  0.00  0.00    -0.007 A 
ATOM     14  C   LIG d   1       5.138  -1.299  -2.629  0.00  0.00    -0.054 A 
ATOM     15  C   LIG d   1       4.355  -0.526  -1.785  0.00  0.00    -0.043 A 
ATOM     16  H   LIG d   1       5.001  -2.369  -2.686  0.00  0.00     0.062 H 
ATOM     17  C   LIG d   1       4.560   0.840  -1.740  0.00  0.00     0.028 A 
ATOM     18  H   LIG d   1       3.593  -0.986  -1.173  0.00  0.00     0.063 H 
ATOM     19  N   LIG d   1       5.487   1.408  -2.486  0.00  0.00    -0.263 NA
ATOM     20  H   LIG d   1       3.954   1.449  -1.086  0.00  0.00     0.083 H 
ATOM     21  C   LIG d   1       6.255   0.703  -3.294  0.00  0.00     0.033 A 
ATOM     22  H   LIG d   1       7.007   1.203  -3.886  0.00  0.00     0.083 H 
ENDBRANCH   1  13
BRANCH   6  23
ATOM     23  N   LIG d   1       5.494  -1.359  -6.282  0.00  0.00     0.045 NA
ATOM     24  O   LIG d   1       4.276  -1.384  -6.259  0.00  0.00    -0.126 OA
ENDBRANCH   6  23
TORSDOF 2
ENDMDL
MODEL 5
REMARK VINA RESULT:      -4.6      2.092      4.109
REMARK  2 active torsions:
REMARK  status: ('A' for Active; 'I' for Inactive)
REMARK    1  A    between atoms: C_3  and  C_7 
REMARK    2  A    between atoms: N_12  and  N_13 
ROOT
ATOM      1  C   LIG d   1       6.922  -0.833  -3.574  0.00  0.00     0.070 C 
ATOM      2  H   LIG d   1       7.471  -0.182  -2.895  0.00  0.00     0.057 H 
ATOM      3  C   LIG d   1       7.394  -2.292  -3.399  0.00  0.00    -0.027 C 
ATOM      4  C   LIG d   1       8.426  -2.469  -4.544  0.00  0.00    -0.034 C 
ATOM      5  C   LIG d   1       7.792  -1.604  -5.666  0.00  0.00     0.033 C 
ATOM      6  N   LIG d   1       7.197  -0.450  -4.966  0.00  0.00    -0.213 N 
ATOM      7  H   LIG d   1       7.869  -2.429  -2.427  0.00  0.00     0.029 H 
ATOM      8  H   LIG d   1       6.561  -2.985  -3.520  0.00  0.00     0.029 H 
ATOM      9  H   LIG d   1       9.401  -2.077  -4.255  0.00  0.00     0.028 H 
ATOM     10  H   LIG d   1       8.499  -3.513  -4.846  0.00  0.00     0.028 H 
ATOM     11  H   LIG d   1       7.021  -2.171  -6.187  0.00  0.00     0.048 H 
ATOM     12  H   LIG d   1       8.557  -1.270  -6.368  0.00  0.00     0.048 H 
ENDROOT
BRANCH   1  13
ATOM     13  C   LIG d   1       5.443  -0.736  -3.300  0.00  0.00    -0.007 A 
ATOM     14  C   LIG d   1       4.929   0.339  -2.594  0.00  0.00    -0.054 A 
ATOM     15  C   LIG d   1       3.562   0.387  -2.365  0.00  0.00    -0.043 A 
ATOM     16  H   LIG d   1       5.578   1.123  -2.230  0.00  0.00     0.062 H 
ATOM     17  C   LIG d   1       2.763  -0.633  -2.846  0.00  0.00     0.028 A 
ATOM     18  H   LIG d   1       3.127   1.211  -1.818  0.00  0.00     0.063 H 
ATOM     19  N   LIG d   1       3.287  -1.642  -3.513  0.00  0.00    -0.263 NA
ATOM     20  H   LIG d   1       1.698  -0.603  -2.672  0.00  0.00     0.083 H 
ATOM     21  C   LIG d   1       4.582  -1.717  -3.754  0.00  0.00     0.033 A 
ATOM     22  H   LIG d   1       4.973  -2.557  -4.308  0.00  0.00     0.083 H 
ENDBRANCH   1  13
BRANCH   6  23
ATOM     23  N   LIG d   1       6.959   0.705  -5.491  0.00  0.00     0.045 NA
ATOM     24  O   LIG d   1       6.415   0.779  -6.577  0.00  0.00    -0.126 OA
ENDBRANCH   6  23
TORSDOF 2
ENDMDL
MODEL 6
REMARK VINA RESULT:      -4.6      2.563      3.814
REMARK  2 active torsions:
REMARK  status: ('A' for Active; 'I' for Inactive)
REMARK    1  A    between atoms: C_3  and  C_7 
REMARK    2  A    between atoms: N_12  and  N_13 
ROOT
ATOM      1  C   LIG d   1       4.174  -0.006  -4.321  0.00  0.00     0.070 C 
ATOM      2  H   LIG d   1       3.850   0.659  -5.122  0.00  0.00     0.057 H 
ATOM      3  C   LIG d   1       3.085  -0.086  -3.231  0.00  0.00    -0.027 C 
ATOM      4  C   LIG d   1       3.573   0.937  -2.170  0.00  0.00    -0.034 C 
ATOM      5  C   LIG d   1       5.112   0.760  -2.258  0.00  0.00     0.033 C 
ATOM      6  N   LIG d   1       5.388   0.528  -3.688  0.00  0.00    -0.213 N 
ATOM      7  H   LIG d   1       2.116   0.209  -3.632  0.00  0.00     0.029 H 
ATOM      8  H   LIG d   1       3.037  -1.088  -2.806  0.00  0.00     0.029 H 
ATOM      9  H   LIG d   1       3.282   1.951  -2.443  0.00  0.00     0.028 H 
ATOM     10  H   LIG d   1       3.204   0.677  -1.179  0.00  0.00     0.028 H 
ATOM     11  H   LIG d   1       5.426  -0.100  -1.666  0.00  0.00     0.048 H 
ATOM     12  H   LIG d   1       5.620   1.662  -1.914  0.00  0.00     0.048 H 
ENDROOT
BRANCH   1  13
ATOM     13  C   LIG d   1       4.448  -1.381  -4.873  0.00  0.00    -0.007 A 
ATOM     14  C   LIG d   1       4.627  -2.458  -4.019  0.00  0.00    -0.054 A 
ATOM     15  C   LIG d   1       4.876  -3.706  -4.571  0.00  0.00    -0.043 A 
ATOM     16  H   LIG d   1       4.573  -2.328  -2.948  0.00  0.00     0.062 H 
ATOM     17  C   LIG d   1       4.938  -3.832  -5.946  0.00  0.00     0.028 A 
ATOM     18  H   LIG d   1       5.021  -4.566  -3.935  0.00  0.00     0.063 H 
ATOM     19  N   LIG d   1       4.764  -2.786  -6.729  0.00  0.00    -0.263 NA
ATOM     20  H   LIG d   1       5.132  -4.800  -6.384  0.00  0.00     0.083 H 
ATOM     21  C   LIG d   1       4.519  -1.587  -6.238  0.00  0.00     0.033 A 
ATOM     22  H   LIG d   1       4.377  -0.754  -6.912  0.00  0.00     0.083 H 
ENDBRANCH   1  13
BRANCH   6  23
ATOM     23  N   LIG d   1       6.509   0.758  -4.284  0.00  0.00     0.045 NA
ATOM     24  O   LIG d   1       7.375   1.406  -3.723  0.00  0.00    -0.126 OA
ENDBRANCH   6  23
TORSDOF 2
ENDMDL
MODEL 7
REMARK VINA RESULT:      -4.4      2.463      2.721
REMARK  2 active torsions:
REMARK  status: ('A' for Active; 'I' for Inactive)
REMARK    1  A    between atoms: C_3  and  C_7 
REMARK    2  A    between atoms: N_12  and  N_13 
ROOT
ATOM      1  C   LIG d   1       5.023  -1.500  -4.298  0.00  0.00     0.070 C 
ATOM      2  H   LIG d   1       4.405  -1.315  -5.176  0.00  0.00     0.057 H 
ATOM      3  C   LIG d   1       4.398  -2.621  -3.442  0.00  0.00    -0.027 C 
ATOM      4  C   LIG d   1       3.615  -1.839  -2.354  0.00  0.00    -0.034 C 
ATOM      5  C   LIG d   1       4.542  -0.616  -2.127  0.00  0.00     0.033 C 
ATOM      6  N   LIG d   1       5.079  -0.292  -3.462  0.00  0.00    -0.213 N 
ATOM      7  H   LIG d   1       3.721  -3.231  -4.041  0.00  0.00     0.029 H 
ATOM      8  H   LIG d   1       5.173  -3.240  -2.989  0.00  0.00     0.029 H 
ATOM      9  H   LIG d   1       2.640  -1.524  -2.725  0.00  0.00     0.028 H 
ATOM     10  H   LIG d   1       3.514  -2.430  -1.444  0.00  0.00     0.028 H 
ATOM     11  H   LIG d   1       5.352  -0.880  -1.446  0.00  0.00     0.048 H 
ATOM     12  H   LIG d   1       3.974   0.226  -1.731  0.00  0.00     0.048 H 
ENDROOT
BRANCH   1  13
ATOM     13  C   LIG d   1       6.415  -1.894  -4.720  0.00  0.00    -0.007 A 
ATOM     14  C   LIG d   1       7.287  -2.475  -3.813  0.00  0.00    -0.054 A 
ATOM     15  C   LIG d   1       8.558  -2.822  -4.246  0.00  0.00    -0.043 A 
ATOM     16  H   LIG d   1       6.983  -2.653  -2.792  0.00  0.00     0.062 H 
ATOM     17  C   LIG d   1       8.910  -2.578  -5.560  0.00  0.00     0.028 A 
ATOM     18  H   LIG d   1       9.263  -3.276  -3.565  0.00  0.00     0.063 H 
ATOM     19  N   LIG d   1       8.056  -2.023  -6.396  0.00  0.00    -0.263 NA
ATOM     20  H   LIG d   1       9.898  -2.845  -5.905  0.00  0.00     0.083 H 
ATOM     21  C   LIG d   1       6.837  -1.686  -6.020  0.00  0.00     0.033 A 
ATOM     22  H   LIG d   1       6.164  -1.237  -6.735  0.00  0.00     0.083 H 
ENDBRANCH   1  13
BRANCH   6  23
ATOM     23  N   LIG d   1       5.522   0.861  -3.833  0.00  0.00     0.045 NA
ATOM     24  O   LIG d   1       5.912   1.661  -3.001  0.00  0.00    -0.126 OA
ENDBRANCH   6  23
TORSDOF 2
ENDMDL
MODEL 8
REMARK VINA RESULT:      -4.3      3.047      3.833
REMARK  2 active torsions:
REMARK  status: ('A' for Active; 'I' for Inactive)
REMARK    1  A    between atoms: C_3  and  C_7 
REMARK    2  A    between atoms: N_12  and  N_13 
ROOT
ATOM      1  C   LIG d   1       3.552  -0.681  -6.777  0.00  0.00     0.070 C 
ATOM      2  H   LIG d   1       2.540  -1.027  -6.983  0.00  0.00     0.057 H 
ATOM      3  C   LIG d   1       4.554  -1.837  -6.978  0.00  0.00    -0.027 C 
ATOM      4  C   LIG d   1       4.768  -2.374  -5.538  0.00  0.00    -0.034 C 
ATOM      5  C   LIG d   1       4.691  -1.066  -4.708  0.00  0.00     0.033 C 
ATOM      6  N   LIG d   1       3.659  -0.251  -5.375  0.00  0.00    -0.213 N 
ATOM      7  H   LIG d   1       4.127  -2.609  -7.618  0.00  0.00     0.029 H 
ATOM      8  H   LIG d   1       5.491  -1.468  -7.395  0.00  0.00     0.029 H 
ATOM      9  H   LIG d   1       3.971  -3.061  -5.256  0.00  0.00     0.028 H 
ATOM     10  H   LIG d   1       5.745  -2.846  -5.438  0.00  0.00     0.028 H 
ATOM     11  H   LIG d   1       5.652  -0.551  -4.727  0.00  0.00     0.048 H 
ATOM     12  H   LIG d   1       4.398  -1.283  -3.680  0.00  0.00     0.048 H 
ENDROOT
BRANCH   1  13
ATOM     13  C   LIG d   1       3.901   0.465  -7.691  0.00  0.00    -0.007 A 
ATOM     14  C   LIG d   1       2.903   1.250  -8.247  0.00  0.00    -0.054 A 
ATOM     15  C   LIG d   1       3.271   2.294  -9.081  0.00  0.00    -0.043 A 
ATOM     16  H   LIG d   1       1.862   1.052  -8.034  0.00  0.00     0.062 H 
ATOM     17  C   LIG d   1       4.612   2.516  -9.331  0.00  0.00     0.028 A 
ATOM     18  H   LIG d   1       2.518   2.925  -9.533  0.00  0.00     0.063 H 
ATOM     19  N   LIG d   1       5.535   1.750  -8.785  0.00  0.00    -0.263 NA
ATOM     20  H   LIG d   1       4.906   3.327  -9.980  0.00  0.00     0.083 H 
ATOM     21  C   LIG d   1       5.222   0.752  -7.981  0.00  0.00     0.033 A 
ATOM     22  H   LIG d   1       6.007   0.148  -7.550  0.00  0.00     0.083 H 
ENDBRANCH   1  13
BRANCH   6  23
ATOM     23  N   LIG d   1       2.964   0.683  -4.819  0.00  0.00     0.045 NA
ATOM     24  O   LIG d   1       3.442   1.340  -3.911  0.00  0.00    -0.126 OA
ENDBRANCH   6  23
TORSDOF 2
ENDMDL
MODEL 9
REMARK VINA RESULT:      -4.2      3.165      4.687
REMARK  2 active torsions:
REMARK  status: ('A' for Active; 'I' for Inactive)
REMARK    1  A    between atoms: C_3  and  C_7 
REMARK    2  A    between atoms: N_12  and  N_13 
ROOT
ATOM      1  C   LIG d   1       6.422  -1.385  -4.833  0.00  0.00     0.070 C 
ATOM      2  H   LIG d   1       5.777  -2.198  -5.164  0.00  0.00     0.057 H 
ATOM      3  C   LIG d   1       6.689  -0.416  -6.003  0.00  0.00    -0.027 C 
ATOM      4  C   LIG d   1       8.066  -0.886  -6.543  0.00  0.00    -0.034 C 
ATOM      5  C   LIG d   1       8.780  -1.313  -5.234  0.00  0.00     0.033 C 
ATOM      6  N   LIG d   1       7.722  -1.920  -4.405  0.00  0.00    -0.213 N 
ATOM      7  H   LIG d   1       5.920  -0.516  -6.770  0.00  0.00     0.029 H 
ATOM      8  H   LIG d   1       6.745   0.613  -5.648  0.00  0.00     0.029 H 
ATOM      9  H   LIG d   1       7.952  -1.733  -7.219  0.00  0.00     0.028 H 
ATOM     10  H   LIG d   1       8.595  -0.066  -7.029  0.00  0.00     0.028 H 
ATOM     11  H   LIG d   1       9.202  -0.442  -4.733  0.00  0.00     0.048 H 
ATOM     12  H   LIG d   1       9.562  -2.043  -5.447  0.00  0.00     0.048 H 
ENDROOT
BRANCH   1  13
ATOM     13  C   LIG d   1       5.773  -0.644  -3.692  0.00  0.00    -0.007 A 
ATOM     14  C   LIG d   1       4.844  -1.277  -2.882  0.00  0.00    -0.054 A 
ATOM     15  C   LIG d   1       4.273  -0.557  -1.843  0.00  0.00    -0.043 A 
ATOM     16  H   LIG d   1       4.571  -2.309  -3.055  0.00  0.00     0.062 H 
ATOM     17  C   LIG d   1       4.646   0.759  -1.653  0.00  0.00     0.028 A 
ATOM     18  H   LIG d   1       3.545  -1.019  -1.193  0.00  0.00     0.063 H 
ATOM     19  N   LIG d   1       5.533   1.331  -2.444  0.00  0.00    -0.263 NA
ATOM     20  H   LIG d   1       4.206   1.327  -0.847  0.00  0.00     0.083 H 
ATOM     21  C   LIG d   1       6.101   0.674  -3.436  0.00  0.00     0.033 A 
ATOM     22  H   LIG d   1       6.826   1.174  -4.060  0.00  0.00     0.083 H 
ENDBRANCH   1  13
BRANCH   6  23
ATOM     23  N   LIG d   1       7.909  -2.780  -3.460  0.00  0.00     0.045 NA
ATOM     24  O   LIG d   1       8.866  -3.531  -3.501  0.00  0.00    -0.126 OA
ENDBRANCH   6  23
TORSDOF 2
ENDMDL
