MODEL 1
REMARK VINA RESULT:      -6.7      0.000      0.000
REMARK  8 active torsions:
REMARK  status: ('A' for Active; 'I' for Inactive)
REMARK    1  A    between atoms: C_1  and  C_2 
REMARK    2  A    between atoms: C_3  and  C_24 
REMARK    3  A    between atoms: C_6  and  O_12 
REMARK    4  A    between atoms: O_12  and  C_13 
REMARK    5  A    between atoms: C_13  and  C_15 
REMARK    6  A    between atoms: C_18  and  N_21 
REMARK    7  A    between atoms: C_24  and  O_26 
REMARK    8  A    between atoms: O_26  and  C_27 
ROOT
ATOM      1  C   LIG d   1       5.294  -1.417  -3.073  0.00  0.00     0.117 A 
ATOM      2  C   LIG d   1       5.614  -0.094  -3.033  0.00  0.00     0.107 A 
ATOM      3  C   LIG d   1       6.897   0.028  -3.757  0.00  0.00     0.038 A 
ATOM      4  C   LIG d   1       7.742   1.091  -4.060  0.00  0.00    -0.007 A 
ATOM      5  C   LIG d   1       8.900   0.859  -4.779  0.00  0.00     0.147 A 
ATOM      6  C   LIG d   1       9.223  -0.434  -5.184  0.00  0.00     0.064 A 
ATOM      7  C   LIG d   1       8.392  -1.491  -4.881  0.00  0.00    -0.001 A 
ATOM      8  C   LIG d   1       7.221  -1.273  -4.165  0.00  0.00     0.137 A 
ATOM      9  O   LIG d   1       6.239  -2.093  -3.735  0.00  0.00    -0.459 OA
ATOM     10 BR   LIG d   1      10.813  -0.740  -6.159  0.00  0.00    -0.046 Br
ATOM     11  H   LIG d   1       7.491   2.092  -3.741  0.00  0.00     0.066 H 
ATOM     12  H   LIG d   1       8.651  -2.490  -5.200  0.00  0.00     0.067 H 
ENDROOT
BRANCH   5  13
ATOM     13  O   LIG d   1       9.729   1.892  -5.084  0.00  0.00    -0.421 OA
BRANCH  13  14
ATOM     14  C   LIG d   1      10.494   2.377  -4.087  0.00  0.00     0.344 C 
ATOM     15  O   LIG d   1      11.393   1.700  -3.627  0.00  0.00    -0.244 OA
BRANCH  14  16
ATOM     16  C   LIG d   1      10.241   3.730  -3.551  0.00  0.00     0.060 A 
ATOM     17  C   LIG d   1       9.582   4.682  -4.332  0.00  0.00    -0.041 A 
ATOM     18  C   LIG d   1       9.344   5.941  -3.823  0.00  0.00     0.016 A 
ATOM     19  H   LIG d   1       9.261   4.433  -5.332  0.00  0.00     0.063 H 
ATOM     20  C   LIG d   1       9.755   6.262  -2.541  0.00  0.00     0.273 A 
ATOM     21  H   LIG d   1       8.835   6.679  -4.425  0.00  0.00     0.069 H 
ATOM     22  C   LIG d   1      10.409   5.324  -1.761  0.00  0.00     0.016 A 
ATOM     23  C   LIG d   1      10.654   4.060  -2.259  0.00  0.00    -0.041 A 
ATOM     24  H   LIG d   1      10.728   5.582  -0.763  0.00  0.00     0.069 H 
ATOM     25  H   LIG d   1      11.164   3.329  -1.650  0.00  0.00     0.063 H 
BRANCH  20  26
ATOM     26  N   LIG d   1       9.497   7.616  -2.001  0.00  0.00     0.080 N 
ATOM     27  O   LIG d   1       8.843   7.750  -0.982  0.00  0.00     0.041 OA
ATOM     28  O   LIG d   1       9.939   8.596  -2.575  0.00  0.00    -0.576 OA
ENDBRANCH  20  26
ENDBRANCH  14  16
ENDBRANCH  13  14
ENDBRANCH   5  13
BRANCH   2  29
ATOM     29  C   LIG d   1       4.845   0.988  -2.405  0.00  0.00     0.343 C 
ATOM     30  O   LIG d   1       4.895   1.149  -1.200  0.00  0.00    -0.245 OA
BRANCH  29  31
ATOM     31  O   LIG d   1       4.085   1.803  -3.162  0.00  0.00    -0.464 OA
BRANCH  31  32
ATOM     32  C   LIG d   1       3.035   1.182  -3.951  0.00  0.00     0.082 C 
ATOM     33  H   LIG d   1       3.377   1.061  -4.979  0.00  0.00     0.066 H 
ATOM     34  H   LIG d   1       2.793   0.207  -3.530  0.00  0.00     0.066 H 
ATOM     35  H   LIG d   1       2.147   1.815  -3.937  0.00  0.00     0.066 H 
ENDBRANCH  31  32
ENDBRANCH  29  31
ENDBRANCH   2  29
BRANCH   1  36
ATOM     36  C   LIG d   1       4.060  -2.027  -2.460  0.00  0.00    -0.005 C 
ATOM     37  H   LIG d   1       3.173  -1.589  -2.918  0.00  0.00     0.031 H 
ATOM     38  H   LIG d   1       4.063  -3.103  -2.631  0.00  0.00     0.031 H 
ATOM     39  H   LIG d   1       4.050  -1.829  -1.388  0.00  0.00     0.031 H 
ENDBRANCH   1  36
TORSDOF 8
ENDMDL
MODEL 2
REMARK VINA RESULT:      -6.0      5.715      8.669
REMARK  8 active torsions:
REMARK  status: ('A' for Active; 'I' for Inactive)
REMARK    1  A    between atoms: C_1  and  C_2 
REMARK    2  A    between atoms: C_3  and  C_24 
REMARK    3  A    between atoms: C_6  and  O_12 
REMARK    4  A    between atoms: O_12  and  C_13 
REMARK    5  A    between atoms: C_13  and  C_15 
REMARK    6  A    between atoms: C_18  and  N_21 
REMARK    7  A    between atoms: C_24  and  O_26 
REMARK    8  A    between atoms: O_26  and  C_27 
ROOT
ATOM      1  C   LIG d   1       6.924  -9.717  -4.138  0.00  0.00     0.117 A 
ATOM      2  C   LIG d   1       5.860  -9.086  -4.707  0.00  0.00     0.107 A 
ATOM      3  C   LIG d   1       6.329  -7.721  -5.024  0.00  0.00     0.038 A 
ATOM      4  C   LIG d   1       5.737  -6.601  -5.600  0.00  0.00    -0.007 A 
ATOM      5  C   LIG d   1       6.478  -5.444  -5.762  0.00  0.00     0.147 A 
ATOM      6  C   LIG d   1       7.804  -5.400  -5.338  0.00  0.00     0.064 A 
ATOM      7  C   LIG d   1       8.393  -6.504  -4.761  0.00  0.00    -0.001 A 
ATOM      8  C   LIG d   1       7.664  -7.676  -4.597  0.00  0.00     0.137 A 
ATOM      9  O   LIG d   1       7.969  -8.885  -4.079  0.00  0.00    -0.459 OA
ATOM     10 BR   LIG d   1       8.804  -3.810  -5.557  0.00  0.00    -0.046 Br
ATOM     11  H   LIG d   1       4.708  -6.637  -5.924  0.00  0.00     0.066 H 
ATOM     12  H   LIG d   1       9.422  -6.459  -4.436  0.00  0.00     0.067 H 
ENDROOT
BRANCH   5  13
ATOM     13  O   LIG d   1       5.909  -4.348  -6.328  0.00  0.00    -0.421 OA
BRANCH  13  14
ATOM     14  C   LIG d   1       4.740  -3.928  -5.808  0.00  0.00     0.344 C 
ATOM     15  O   LIG d   1       3.716  -4.539  -6.043  0.00  0.00    -0.244 OA
BRANCH  14  16
ATOM     16  C   LIG d   1       4.700  -2.724  -4.953  0.00  0.00     0.060 A 
ATOM     17  C   LIG d   1       4.838  -1.456  -5.520  0.00  0.00    -0.041 A 
ATOM     18  C   LIG d   1       4.795  -0.336  -4.716  0.00  0.00     0.016 A 
ATOM     19  H   LIG d   1       4.979  -1.352  -6.585  0.00  0.00     0.063 H 
ATOM     20  C   LIG d   1       4.613  -0.467  -3.350  0.00  0.00     0.273 A 
ATOM     21  H   LIG d   1       4.901   0.645  -5.153  0.00  0.00     0.069 H 
ATOM     22  C   LIG d   1       4.476  -1.722  -2.781  0.00  0.00     0.016 A 
ATOM     23  C   LIG d   1       4.519  -2.850  -3.574  0.00  0.00    -0.041 A 
ATOM     24  H   LIG d   1       4.336  -1.817  -1.715  0.00  0.00     0.069 H 
ATOM     25  H   LIG d   1       4.412  -3.828  -3.129  0.00  0.00     0.063 H 
BRANCH  20  26
ATOM     26  N   LIG d   1       4.568   0.739  -2.493  0.00  0.00     0.080 N 
ATOM     27  O   LIG d   1       5.570   1.416  -2.342  0.00  0.00     0.041 OA
ATOM     28  O   LIG d   1       3.530   1.055  -1.940  0.00  0.00    -0.576 OA
ENDBRANCH  20  26
ENDBRANCH  14  16
ENDBRANCH  13  14
ENDBRANCH   5  13
BRANCH   2  29
ATOM     29  C   LIG d   1       4.525  -9.644  -4.956  0.00  0.00     0.343 C 
ATOM     30  O   LIG d   1       4.250 -10.098  -6.051  0.00  0.00    -0.245 OA
BRANCH  29  31
ATOM     31  O   LIG d   1       3.604  -9.655  -3.972  0.00  0.00    -0.464 OA
BRANCH  31  32
ATOM     32  C   LIG d   1       3.207 -10.952  -3.454  0.00  0.00     0.082 C 
ATOM     33  H   LIG d   1       3.772 -11.169  -2.547  0.00  0.00     0.066 H 
ATOM     34  H   LIG d   1       2.142 -10.941  -3.226  0.00  0.00     0.066 H 
ATOM     35  H   LIG d   1       3.410 -11.720  -4.200  0.00  0.00     0.066 H 
ENDBRANCH  31  32
ENDBRANCH  29  31
ENDBRANCH   2  29
BRANCH   1  36
ATOM     36  C   LIG d   1       6.922 -11.142  -3.646  0.00  0.00    -0.005 C 
ATOM     37  H   LIG d   1       6.498 -11.790  -4.414  0.00  0.00     0.031 H 
ATOM     38  H   LIG d   1       7.944 -11.454  -3.431  0.00  0.00     0.031 H 
ATOM     39  H   LIG d   1       6.321 -11.213  -2.739  0.00  0.00     0.031 H 
ENDBRANCH   1  36
TORSDOF 8
ENDMDL
MODEL 3
REMARK VINA RESULT:      -6.0      2.807      7.951
REMARK  8 active torsions:
REMARK  status: ('A' for Active; 'I' for Inactive)
REMARK    1  A    between atoms: C_1  and  C_2 
REMARK    2  A    between atoms: C_3  and  C_24 
REMARK    3  A    between atoms: C_6  and  O_12 
REMARK    4  A    between atoms: O_12  and  C_13 
REMARK    5  A    between atoms: C_13  and  C_15 
REMARK    6  A    between atoms: C_18  and  N_21 
REMARK    7  A    between atoms: C_24  and  O_26 
REMARK    8  A    between atoms: O_26  and  C_27 
ROOT
ATOM      1  C   LIG d   1      11.756   7.285  -2.710  0.00  0.00     0.117 A 
ATOM      2  C   LIG d   1      10.749   6.592  -2.110  0.00  0.00     0.107 A 
ATOM      3  C   LIG d   1      10.697   5.286  -2.798  0.00  0.00     0.038 A 
ATOM      4  C   LIG d   1       9.903   4.151  -2.666  0.00  0.00    -0.007 A 
ATOM      5  C   LIG d   1      10.124   3.063  -3.491  0.00  0.00     0.147 A 
ATOM      6  C   LIG d   1      11.127   3.112  -4.455  0.00  0.00     0.064 A 
ATOM      7  C   LIG d   1      11.913   4.235  -4.594  0.00  0.00    -0.001 A 
ATOM      8  C   LIG d   1      11.707   5.335  -3.769  0.00  0.00     0.137 A 
ATOM      9  O   LIG d   1      12.306   6.540  -3.676  0.00  0.00    -0.459 OA
ATOM     10 BR   LIG d   1      11.415   1.621  -5.583  0.00  0.00    -0.046 Br
ATOM     11  H   LIG d   1       9.123   4.118  -1.920  0.00  0.00     0.066 H 
ATOM     12  H   LIG d   1      12.689   4.262  -5.345  0.00  0.00     0.067 H 
ENDROOT
BRANCH   5  13
ATOM     13  O   LIG d   1       9.356   1.949  -3.366  0.00  0.00    -0.421 OA
BRANCH  13  14
ATOM     14  C   LIG d   1       8.195   1.927  -4.048  0.00  0.00     0.344 C 
ATOM     15  O   LIG d   1       7.952   2.795  -4.863  0.00  0.00    -0.244 OA
BRANCH  14  16
ATOM     16  C   LIG d   1       7.215   0.848  -3.805  0.00  0.00     0.060 A 
ATOM     17  C   LIG d   1       7.460  -0.443  -4.278  0.00  0.00    -0.041 A 
ATOM     18  C   LIG d   1       6.544  -1.445  -4.043  0.00  0.00     0.016 A 
ATOM     19  H   LIG d   1       8.366  -0.655  -4.828  0.00  0.00     0.063 H 
ATOM     20  C   LIG d   1       5.384  -1.176  -3.339  0.00  0.00     0.273 A 
ATOM     21  H   LIG d   1       6.732  -2.444  -4.408  0.00  0.00     0.069 H 
ATOM     22  C   LIG d   1       5.133   0.101  -2.868  0.00  0.00     0.016 A 
ATOM     23  C   LIG d   1       6.042   1.114  -3.097  0.00  0.00    -0.041 A 
ATOM     24  H   LIG d   1       4.226   0.305  -2.320  0.00  0.00     0.069 H 
ATOM     25  H   LIG d   1       5.846   2.110  -2.729  0.00  0.00     0.063 H 
BRANCH  20  26
ATOM     26  N   LIG d   1       4.404  -2.257  -3.090  0.00  0.00     0.080 N 
ATOM     27  O   LIG d   1       3.605  -2.156  -2.176  0.00  0.00     0.041 OA
ATOM     28  O   LIG d   1       4.394  -3.247  -3.801  0.00  0.00    -0.576 OA
ENDBRANCH  20  26
ENDBRANCH  14  16
ENDBRANCH  13  14
ENDBRANCH   5  13
BRANCH   2  29
ATOM     29  C   LIG d   1       9.893   7.047  -1.007  0.00  0.00     0.343 C 
ATOM     30  O   LIG d   1       8.752   7.403  -1.229  0.00  0.00    -0.245 OA
BRANCH  29  31
ATOM     31  O   LIG d   1      10.371   7.069   0.253  0.00  0.00    -0.464 OA
BRANCH  31  32
ATOM     32  C   LIG d   1      11.105   5.898   0.701  0.00  0.00     0.082 C 
ATOM     33  H   LIG d   1      11.706   6.159   1.573  0.00  0.00     0.066 H 
ATOM     34  H   LIG d   1      10.402   5.109   0.967  0.00  0.00     0.066 H 
ATOM     35  H   LIG d   1      11.757   5.549  -0.098  0.00  0.00     0.066 H 
ENDBRANCH  31  32
ENDBRANCH  29  31
ENDBRANCH   2  29
BRANCH   1  36
ATOM     36  C   LIG d   1      12.184   8.681  -2.342  0.00  0.00    -0.005 C 
ATOM     37  H   LIG d   1      13.165   8.647  -1.867  0.00  0.00     0.031 H 
ATOM     38  H   LIG d   1      12.239   9.295  -3.242  0.00  0.00     0.031 H 
ATOM     39  H   LIG d   1      11.461   9.114  -1.651  0.00  0.00     0.031 H 
ENDBRANCH   1  36
TORSDOF 8
ENDMDL
MODEL 4
REMARK VINA RESULT:      -5.9      4.933      7.981
REMARK  8 active torsions:
REMARK  status: ('A' for Active; 'I' for Inactive)
REMARK    1  A    between atoms: C_1  and  C_2 
REMARK    2  A    between atoms: C_3  and  C_24 
REMARK    3  A    between atoms: C_6  and  O_12 
REMARK    4  A    between atoms: O_12  and  C_13 
REMARK    5  A    between atoms: C_13  and  C_15 
REMARK    6  A    between atoms: C_18  and  N_21 
REMARK    7  A    between atoms: C_24  and  O_26 
REMARK    8  A    between atoms: O_26  and  C_27 
ROOT
ATOM      1  C   LIG d   1       3.965  -1.365  -3.446  0.00  0.00     0.117 A 
ATOM      2  C   LIG d   1       5.214  -0.845  -3.597  0.00  0.00     0.107 A 
ATOM      3  C   LIG d   1       6.025  -1.923  -4.201  0.00  0.00     0.038 A 
ATOM      4  C   LIG d   1       7.355  -2.033  -4.593  0.00  0.00    -0.007 A 
ATOM      5  C   LIG d   1       7.809  -3.217  -5.144  0.00  0.00     0.147 A 
ATOM      6  C   LIG d   1       6.941  -4.295  -5.293  0.00  0.00     0.064 A 
ATOM      7  C   LIG d   1       5.623  -4.194  -4.901  0.00  0.00    -0.001 A 
ATOM      8  C   LIG d   1       5.150  -3.009  -4.350  0.00  0.00     0.137 A 
ATOM      9  O   LIG d   1       3.941  -2.627  -3.888  0.00  0.00    -0.459 OA
ATOM     10 BR   LIG d   1       7.575  -5.912  -6.041  0.00  0.00    -0.046 Br
ATOM     11  H   LIG d   1       8.027  -1.196  -4.473  0.00  0.00     0.066 H 
ATOM     12  H   LIG d   1       4.958  -5.036  -5.021  0.00  0.00     0.067 H 
ENDROOT
BRANCH   5  13
ATOM     13  O   LIG d   1       9.106  -3.331  -5.535  0.00  0.00    -0.421 OA
BRANCH  13  14
ATOM     14  C   LIG d   1      10.040  -3.310  -4.565  0.00  0.00     0.344 C 
ATOM     15  O   LIG d   1      10.773  -2.348  -4.447  0.00  0.00    -0.244 OA
BRANCH  14  16
ATOM     16  C   LIG d   1      10.176  -4.458  -3.644  0.00  0.00     0.060 A 
ATOM     17  C   LIG d   1       9.580  -4.420  -2.382  0.00  0.00    -0.041 A 
ATOM     18  C   LIG d   1       9.707  -5.497  -1.531  0.00  0.00     0.016 A 
ATOM     19  H   LIG d   1       9.023  -3.548  -2.073  0.00  0.00     0.063 H 
ATOM     20  C   LIG d   1      10.420  -6.615  -1.925  0.00  0.00     0.273 A 
ATOM     21  H   LIG d   1       9.247  -5.469  -0.554  0.00  0.00     0.069 H 
ATOM     22  C   LIG d   1      11.014  -6.660  -3.174  0.00  0.00     0.016 A 
ATOM     23  C   LIG d   1      10.896  -5.588  -4.036  0.00  0.00    -0.041 A 
ATOM     24  H   LIG d   1      11.570  -7.535  -3.475  0.00  0.00     0.069 H 
ATOM     25  H   LIG d   1      11.359  -5.624  -5.010  0.00  0.00     0.063 H 
BRANCH  20  26
ATOM     26  N   LIG d   1      10.552  -7.767  -1.005  0.00  0.00     0.080 N 
ATOM     27  O   LIG d   1       9.886  -8.771  -1.188  0.00  0.00     0.041 OA
ATOM     28  O   LIG d   1      11.327  -7.714  -0.067  0.00  0.00    -0.576 OA
ENDBRANCH  20  26
ENDBRANCH  14  16
ENDBRANCH  13  14
ENDBRANCH   5  13
BRANCH   2  29
ATOM     29  C   LIG d   1       5.663   0.506  -3.238  0.00  0.00     0.343 C 
ATOM     30  O   LIG d   1       5.461   0.936  -2.118  0.00  0.00    -0.245 OA
BRANCH  29  31
ATOM     31  O   LIG d   1       6.301   1.269  -4.148  0.00  0.00    -0.464 OA
BRANCH  31  32
ATOM     32  C   LIG d   1       7.675   1.636  -3.855  0.00  0.00     0.082 C 
ATOM     33  H   LIG d   1       8.098   2.167  -4.708  0.00  0.00     0.066 H 
ATOM     34  H   LIG d   1       7.699   2.280  -2.976  0.00  0.00     0.066 H 
ATOM     35  H   LIG d   1       8.259   0.736  -3.662  0.00  0.00     0.066 H 
ENDBRANCH  31  32
ENDBRANCH  29  31
ENDBRANCH   2  29
BRANCH   1  36
ATOM     36  C   LIG d   1       2.786  -0.628  -2.864  0.00  0.00    -0.005 C 
ATOM     37  H   LIG d   1       2.214  -0.165  -3.669  0.00  0.00     0.031 H 
ATOM     38  H   LIG d   1       2.149  -1.329  -2.324  0.00  0.00     0.031 H 
ATOM     39  H   LIG d   1       3.139   0.143  -2.180  0.00  0.00     0.031 H 
ENDBRANCH   1  36
TORSDOF 8
ENDMDL
MODEL 5
REMARK VINA RESULT:      -5.9      6.677      9.364
REMARK  8 active torsions:
REMARK  status: ('A' for Active; 'I' for Inactive)
REMARK    1  A    between atoms: C_1  and  C_2 
REMARK    2  A    between atoms: C_3  and  C_24 
REMARK    3  A    between atoms: C_6  and  O_12 
REMARK    4  A    between atoms: O_12  and  C_13 
REMARK    5  A    between atoms: C_13  and  C_15 
REMARK    6  A    between atoms: C_18  and  N_21 
REMARK    7  A    between atoms: C_24  and  O_26 
REMARK    8  A    between atoms: O_26  and  C_27 
ROOT
ATOM      1  C   LIG d   1       4.587  -1.890  -4.650  0.00  0.00     0.117 A 
ATOM      2  C   LIG d   1       4.167  -0.707  -5.178  0.00  0.00     0.107 A 
ATOM      3  C   LIG d   1       4.753  -0.643  -6.533  0.00  0.00     0.038 A 
ATOM      4  C   LIG d   1       4.711   0.289  -7.564  0.00  0.00    -0.007 A 
ATOM      5  C   LIG d   1       5.388   0.034  -8.743  0.00  0.00     0.147 A 
ATOM      6  C   LIG d   1       6.116  -1.144  -8.889  0.00  0.00     0.064 A 
ATOM      7  C   LIG d   1       6.165  -2.069  -7.867  0.00  0.00    -0.001 A 
ATOM      8  C   LIG d   1       5.486  -1.829  -6.678  0.00  0.00     0.137 A 
ATOM      9  O   LIG d   1       5.356  -2.534  -5.535  0.00  0.00    -0.459 OA
ATOM     10 BR   LIG d   1       7.044  -1.478 -10.502  0.00  0.00    -0.046 Br
ATOM     11  H   LIG d   1       4.149   1.204  -7.448  0.00  0.00     0.066 H 
ATOM     12  H   LIG d   1       6.733  -2.979  -7.990  0.00  0.00     0.067 H 
ENDROOT
BRANCH   5  13
ATOM     13  O   LIG d   1       5.348   0.937  -9.758  0.00  0.00    -0.421 OA
BRANCH  13  14
ATOM     14  C   LIG d   1       4.134   1.263 -10.239  0.00  0.00     0.344 C 
ATOM     15  O   LIG d   1       3.730   2.405 -10.147  0.00  0.00    -0.244 OA
BRANCH  14  16
ATOM     16  C   LIG d   1       3.290   0.232 -10.878  0.00  0.00     0.060 A 
ATOM     17  C   LIG d   1       3.674  -0.333 -12.096  0.00  0.00    -0.041 A 
ATOM     18  C   LIG d   1       2.884  -1.299 -12.683  0.00  0.00     0.016 A 
ATOM     19  H   LIG d   1       4.587  -0.014 -12.577  0.00  0.00     0.063 H 
ATOM     20  C   LIG d   1       1.715  -1.710 -12.069  0.00  0.00     0.273 A 
ATOM     21  H   LIG d   1       3.180  -1.738 -13.625  0.00  0.00     0.069 H 
ATOM     22  C   LIG d   1       1.328  -1.154 -10.862  0.00  0.00     0.016 A 
ATOM     23  C   LIG d   1       2.109  -0.186 -10.263  0.00  0.00    -0.041 A 
ATOM     24  H   LIG d   1       0.414  -1.478 -10.388  0.00  0.00     0.069 H 
ATOM     25  H   LIG d   1       1.806   0.247  -9.322  0.00  0.00     0.063 H 
BRANCH  20  26
ATOM     26  N   LIG d   1       0.872  -2.747 -12.705  0.00  0.00     0.080 N 
ATOM     27  O   LIG d   1      -0.341  -2.644 -12.681  0.00  0.00     0.041 OA
ATOM     28  O   LIG d   1       1.391  -3.703 -13.253  0.00  0.00    -0.576 OA
ENDBRANCH  20  26
ENDBRANCH  14  16
ENDBRANCH  13  14
ENDBRANCH   5  13
BRANCH   2  29
ATOM     29  C   LIG d   1       3.309   0.297  -4.536  0.00  0.00     0.343 C 
ATOM     30  O   LIG d   1       2.100   0.232  -4.658  0.00  0.00    -0.245 OA
BRANCH  29  31
ATOM     31  O   LIG d   1       3.859   1.289  -3.809  0.00  0.00    -0.464 OA
BRANCH  31  32
ATOM     32  C   LIG d   1       3.710   1.213  -2.366  0.00  0.00     0.082 C 
ATOM     33  H   LIG d   1       4.218   0.322  -1.996  0.00  0.00     0.066 H 
ATOM     34  H   LIG d   1       4.149   2.099  -1.909  0.00  0.00     0.066 H 
ATOM     35  H   LIG d   1       2.652   1.160  -2.112  0.00  0.00     0.066 H 
ENDBRANCH  31  32
ENDBRANCH  29  31
ENDBRANCH   2  29
BRANCH   1  36
ATOM     36  C   LIG d   1       4.239  -2.395  -3.274  0.00  0.00    -0.005 C 
ATOM     37  H   LIG d   1       5.090  -2.250  -2.608  0.00  0.00     0.031 H 
ATOM     38  H   LIG d   1       3.380  -1.845  -2.891  0.00  0.00     0.031 H 
ATOM     39  H   LIG d   1       3.997  -3.457  -3.326  0.00  0.00     0.031 H 
ENDBRANCH   1  36
TORSDOF 8
ENDMDL
MODEL 6
REMARK VINA RESULT:      -5.8      4.764      6.798
REMARK  8 active torsions:
REMARK  status: ('A' for Active; 'I' for Inactive)
REMARK    1  A    between atoms: C_1  and  C_2 
REMARK    2  A    between atoms: C_3  and  C_24 
REMARK    3  A    between atoms: C_6  and  O_12 
REMARK    4  A    between atoms: O_12  and  C_13 
REMARK    5  A    between atoms: C_13  and  C_15 
REMARK    6  A    between atoms: C_18  and  N_21 
REMARK    7  A    between atoms: C_24  and  O_26 
REMARK    8  A    between atoms: O_26  and  C_27 
ROOT
ATOM      1  C   LIG d   1       2.516  -1.488  -9.227  0.00  0.00     0.117 A 
ATOM      2  C   LIG d   1       3.539  -0.887  -8.558  0.00  0.00     0.107 A 
ATOM      3  C   LIG d   1       4.409  -1.986  -8.090  0.00  0.00     0.038 A 
ATOM      4  C   LIG d   1       5.591  -2.042  -7.358  0.00  0.00    -0.007 A 
ATOM      5  C   LIG d   1       6.168  -3.269  -7.087  0.00  0.00     0.147 A 
ATOM      6  C   LIG d   1       5.561  -4.440  -7.534  0.00  0.00     0.064 A 
ATOM      7  C   LIG d   1       4.387  -4.390  -8.254  0.00  0.00    -0.001 A 
ATOM      8  C   LIG d   1       3.797  -3.164  -8.540  0.00  0.00     0.137 A 
ATOM      9  O   LIG d   1       2.679  -2.815  -9.209  0.00  0.00    -0.459 OA
ATOM     10 BR   LIG d   1       6.355  -6.112  -7.149  0.00  0.00    -0.046 Br
ATOM     11  H   LIG d   1       6.058  -1.133  -7.010  0.00  0.00     0.066 H 
ATOM     12  H   LIG d   1       3.924  -5.304  -8.596  0.00  0.00     0.067 H 
ENDROOT
BRANCH   5  13
ATOM     13  O   LIG d   1       7.325  -3.333  -6.377  0.00  0.00    -0.421 OA
BRANCH  13  14
ATOM     14  C   LIG d   1       7.219  -3.332  -5.034  0.00  0.00     0.344 C 
ATOM     15  O   LIG d   1       7.636  -4.274  -4.390  0.00  0.00    -0.244 OA
BRANCH  14  16
ATOM     16  C   LIG d   1       6.595  -2.185  -4.343  0.00  0.00     0.060 A 
ATOM     17  C   LIG d   1       7.216  -0.934  -4.358  0.00  0.00    -0.041 A 
ATOM     18  C   LIG d   1       6.625   0.133  -3.715  0.00  0.00     0.016 A 
ATOM     19  H   LIG d   1       8.157  -0.803  -4.871  0.00  0.00     0.063 H 
ATOM     20  C   LIG d   1       5.419  -0.032  -3.058  0.00  0.00     0.273 A 
ATOM     21  H   LIG d   1       7.104   1.101  -3.726  0.00  0.00     0.069 H 
ATOM     22  C   LIG d   1       4.798  -1.269  -3.038  0.00  0.00     0.016 A 
ATOM     23  C   LIG d   1       5.379  -2.346  -3.677  0.00  0.00    -0.041 A 
ATOM     24  H   LIG d   1       3.857  -1.391  -2.523  0.00  0.00     0.069 H 
ATOM     25  H   LIG d   1       4.894  -3.310  -3.661  0.00  0.00     0.063 H 
BRANCH  20  26
ATOM     26  N   LIG d   1       4.790   1.118  -2.370  0.00  0.00     0.080 N 
ATOM     27  O   LIG d   1       4.219   1.976  -3.018  0.00  0.00     0.041 OA
ATOM     28  O   LIG d   1       4.843   1.205  -1.156  0.00  0.00    -0.576 OA
ENDBRANCH  20  26
ENDBRANCH  14  16
ENDBRANCH  13  14
ENDBRANCH   5  13
BRANCH   2  29
ATOM     29  C   LIG d   1       3.737   0.552  -8.346  0.00  0.00     0.343 C 
ATOM     30  O   LIG d   1       3.290   1.087  -7.349  0.00  0.00    -0.245 OA
BRANCH  29  31
ATOM     31  O   LIG d   1       4.416   1.280  -9.254  0.00  0.00    -0.464 OA
BRANCH  31  32
ATOM     32  C   LIG d   1       3.706   2.381  -9.882  0.00  0.00     0.082 C 
ATOM     33  H   LIG d   1       4.279   3.300  -9.758  0.00  0.00     0.066 H 
ATOM     34  H   LIG d   1       3.577   2.171 -10.943  0.00  0.00     0.066 H 
ATOM     35  H   LIG d   1       2.729   2.497  -9.414  0.00  0.00     0.066 H 
ENDBRANCH  31  32
ENDBRANCH  29  31
ENDBRANCH   2  29
BRANCH   1  36
ATOM     36  C   LIG d   1       1.371  -0.764  -9.886  0.00  0.00    -0.005 C 
ATOM     37  H   LIG d   1       1.705   0.221 -10.214  0.00  0.00     0.031 H 
ATOM     38  H   LIG d   1       1.027  -1.335 -10.749  0.00  0.00     0.031 H 
ATOM     39  H   LIG d   1       0.552  -0.652  -9.176  0.00  0.00     0.031 H 
ENDBRANCH   1  36
TORSDOF 8
ENDMDL
MODEL 7
REMARK VINA RESULT:      -5.7      6.418      9.248
REMARK  8 active torsions:
REMARK  status: ('A' for Active; 'I' for Inactive)
REMARK    1  A    between atoms: C_1  and  C_2 
REMARK    2  A    between atoms: C_3  and  C_24 
REMARK    3  A    between atoms: C_6  and  O_12 
REMARK    4  A    between atoms: O_12  and  C_13 
REMARK    5  A    between atoms: C_13  and  C_15 
REMARK    6  A    between atoms: C_18  and  N_21 
REMARK    7  A    between atoms: C_24  and  O_26 
REMARK    8  A    between atoms: O_26  and  C_27 
ROOT
ATOM      1  C   LIG d   1       4.538 -10.753  -5.999  0.00  0.00     0.117 A 
ATOM      2  C   LIG d   1       4.429  -9.803  -5.029  0.00  0.00     0.107 A 
ATOM      3  C   LIG d   1       4.923  -8.551  -5.639  0.00  0.00     0.038 A 
ATOM      4  C   LIG d   1       5.075  -7.245  -5.185  0.00  0.00    -0.007 A 
ATOM      5  C   LIG d   1       5.577  -6.280  -6.038  0.00  0.00     0.147 A 
ATOM      6  C   LIG d   1       5.939  -6.619  -7.339  0.00  0.00     0.064 A 
ATOM      7  C   LIG d   1       5.795  -7.912  -7.793  0.00  0.00    -0.001 A 
ATOM      8  C   LIG d   1       5.286  -8.893  -6.949  0.00  0.00     0.137 A 
ATOM      9  O   LIG d   1       5.039 -10.209  -7.113  0.00  0.00    -0.459 OA
ATOM     10 BR   LIG d   1       6.633  -5.291  -8.494  0.00  0.00    -0.046 Br
ATOM     11  H   LIG d   1       4.797  -6.986  -4.174  0.00  0.00     0.066 H 
ATOM     12  H   LIG d   1       6.079  -8.164  -8.804  0.00  0.00     0.067 H 
ENDROOT
BRANCH   5  13
ATOM     13  O   LIG d   1       5.725  -5.000  -5.604  0.00  0.00    -0.421 OA
BRANCH  13  14
ATOM     14  C   LIG d   1       4.639  -4.206  -5.660  0.00  0.00     0.344 C 
ATOM     15  O   LIG d   1       3.654  -4.566  -6.275  0.00  0.00    -0.244 OA
BRANCH  14  16
ATOM     16  C   LIG d   1       4.644  -2.896  -4.977  0.00  0.00     0.060 A 
ATOM     17  C   LIG d   1       4.703  -1.717  -5.722  0.00  0.00    -0.041 A 
ATOM     18  C   LIG d   1       4.702  -0.498  -5.078  0.00  0.00     0.016 A 
ATOM     19  H   LIG d   1       4.750  -1.759  -6.801  0.00  0.00     0.063 H 
ATOM     20  C   LIG d   1       4.642  -0.441  -3.697  0.00  0.00     0.273 A 
ATOM     21  H   LIG d   1       4.747   0.416  -5.653  0.00  0.00     0.069 H 
ATOM     22  C   LIG d   1       4.584  -1.606  -2.952  0.00  0.00     0.016 A 
ATOM     23  C   LIG d   1       4.585  -2.832  -3.585  0.00  0.00    -0.041 A 
ATOM     24  H   LIG d   1       4.538  -1.554  -1.875  0.00  0.00     0.069 H 
ATOM     25  H   LIG d   1       4.540  -3.741  -3.002  0.00  0.00     0.063 H 
BRANCH  20  26
ATOM     26  N   LIG d   1       4.642   0.871  -3.013  0.00  0.00     0.080 N 
ATOM     27  O   LIG d   1       5.302   1.030  -2.001  0.00  0.00     0.041 OA
ATOM     28  O   LIG d   1       3.983   1.793  -3.460  0.00  0.00    -0.576 OA
ENDBRANCH  20  26
ENDBRANCH  14  16
ENDBRANCH  13  14
ENDBRANCH   5  13
BRANCH   2  29
ATOM     29  C   LIG d   1       3.926  -9.984  -3.661  0.00  0.00     0.343 C 
ATOM     30  O   LIG d   1       2.729 -10.047  -3.457  0.00  0.00    -0.245 OA
BRANCH  29  31
ATOM     31  O   LIG d   1       4.790 -10.081  -2.632  0.00  0.00    -0.464 OA
BRANCH  31  32
ATOM     32  C   LIG d   1       5.723 -11.195  -2.656  0.00  0.00     0.082 C 
ATOM     33  H   LIG d   1       6.739 -10.814  -2.768  0.00  0.00     0.066 H 
ATOM     34  H   LIG d   1       5.644 -11.754  -1.724  0.00  0.00     0.066 H 
ATOM     35  H   LIG d   1       5.486 -11.850  -3.494  0.00  0.00     0.066 H 
ENDBRANCH  31  32
ENDBRANCH  29  31
ENDBRANCH   2  29
BRANCH   1  36
ATOM     36  C   LIG d   1       4.152 -12.201  -5.838  0.00  0.00    -0.005 C 
ATOM     37  H   LIG d   1       5.042 -12.792  -5.618  0.00  0.00     0.031 H 
ATOM     38  H   LIG d   1       3.439 -12.299  -5.019  0.00  0.00     0.031 H 
ATOM     39  H   LIG d   1       3.697 -12.561  -6.761  0.00  0.00     0.031 H 
ENDBRANCH   1  36
TORSDOF 8
ENDMDL
MODEL 8
REMARK VINA RESULT:      -5.7      3.884      5.975
REMARK  8 active torsions:
REMARK  status: ('A' for Active; 'I' for Inactive)
REMARK    1  A    between atoms: C_1  and  C_2 
REMARK    2  A    between atoms: C_3  and  C_24 
REMARK    3  A    between atoms: C_6  and  O_12 
REMARK    4  A    between atoms: O_12  and  C_13 
REMARK    5  A    between atoms: C_13  and  C_15 
REMARK    6  A    between atoms: C_18  and  N_21 
REMARK    7  A    between atoms: C_24  and  O_26 
REMARK    8  A    between atoms: O_26  and  C_27 
ROOT
ATOM      1  C   LIG d   1       2.686  -0.479  -8.562  0.00  0.00     0.117 A 
ATOM      2  C   LIG d   1       3.724  -1.266  -8.164  0.00  0.00     0.107 A 
ATOM      3  C   LIG d   1       3.940  -0.951  -6.737  0.00  0.00     0.038 A 
ATOM      4  C   LIG d   1       4.834  -1.399  -5.769  0.00  0.00    -0.007 A 
ATOM      5  C   LIG d   1       4.763  -0.889  -4.486  0.00  0.00     0.147 A 
ATOM      6  C   LIG d   1       3.810   0.076  -4.170  0.00  0.00     0.064 A 
ATOM      7  C   LIG d   1       2.926   0.527  -5.126  0.00  0.00    -0.001 A 
ATOM      8  C   LIG d   1       2.980   0.020  -6.419  0.00  0.00     0.137 A 
ATOM      9  O   LIG d   1       2.261   0.266  -7.535  0.00  0.00    -0.459 OA
ATOM     10 BR   LIG d   1       3.728   0.772  -2.414  0.00  0.00    -0.046 Br
ATOM     11  H   LIG d   1       5.574  -2.145  -6.018  0.00  0.00     0.066 H 
ATOM     12  H   LIG d   1       2.190   1.276  -4.871  0.00  0.00     0.067 H 
ENDROOT
BRANCH   5  13
ATOM     13  O   LIG d   1       5.629  -1.325  -3.534  0.00  0.00    -0.421 OA
BRANCH  13  14
ATOM     14  C   LIG d   1       6.941  -1.285  -3.836  0.00  0.00     0.344 C 
ATOM     15  O   LIG d   1       7.625  -2.281  -3.708  0.00  0.00    -0.244 OA
BRANCH  14  16
ATOM     16  C   LIG d   1       7.550  -0.030  -4.324  0.00  0.00     0.060 A 
ATOM     17  C   LIG d   1       7.410   1.149  -3.589  0.00  0.00    -0.041 A 
ATOM     18  C   LIG d   1       7.986   2.315  -4.048  0.00  0.00     0.016 A 
ATOM     19  H   LIG d   1       6.852   1.148  -2.665  0.00  0.00     0.063 H 
ATOM     20  C   LIG d   1       8.701   2.319  -5.231  0.00  0.00     0.273 A 
ATOM     21  H   LIG d   1       7.879   3.228  -3.481  0.00  0.00     0.069 H 
ATOM     22  C   LIG d   1       8.843   1.154  -5.965  0.00  0.00     0.016 A 
ATOM     23  C   LIG d   1       8.272  -0.020  -5.518  0.00  0.00    -0.041 A 
ATOM     24  H   LIG d   1       9.402   1.164  -6.889  0.00  0.00     0.069 H 
ATOM     25  H   LIG d   1       8.384  -0.928  -6.091  0.00  0.00     0.063 H 
BRANCH  20  26
ATOM     26  N   LIG d   1       9.316   3.574  -5.718  0.00  0.00     0.080 N 
ATOM     27  O   LIG d   1       9.565   3.711  -6.902  0.00  0.00     0.041 OA
ATOM     28  O   LIG d   1       9.571   4.472  -4.935  0.00  0.00    -0.576 OA
ENDBRANCH  20  26
ENDBRANCH  14  16
ENDBRANCH  13  14
ENDBRANCH   5  13
BRANCH   2  29
ATOM     29  C   LIG d   1       4.473  -2.227  -8.983  0.00  0.00     0.343 C 
ATOM     30  O   LIG d   1       5.590  -1.950  -9.378  0.00  0.00    -0.245 OA
BRANCH  29  31
ATOM     31  O   LIG d   1       3.925  -3.417  -9.296  0.00  0.00    -0.464 OA
BRANCH  31  32
ATOM     32  C   LIG d   1       3.707  -4.352  -8.206  0.00  0.00     0.082 C 
ATOM     33  H   LIG d   1       4.461  -5.138  -8.246  0.00  0.00     0.066 H 
ATOM     34  H   LIG d   1       3.781  -3.824  -7.256  0.00  0.00     0.066 H 
ATOM     35  H   LIG d   1       2.716  -4.794  -8.299  0.00  0.00     0.066 H 
ENDBRANCH  31  32
ENDBRANCH  29  31
ENDBRANCH   2  29
BRANCH   1  36
ATOM     36  C   LIG d   1       2.104  -0.452  -9.951  0.00  0.00    -0.005 C 
ATOM     37  H   LIG d   1       2.466  -1.313 -10.514  0.00  0.00     0.031 H 
ATOM     38  H   LIG d   1       1.016  -0.489  -9.891  0.00  0.00     0.031 H 
ATOM     39  H   LIG d   1       2.408   0.465 -10.456  0.00  0.00     0.031 H 
ENDBRANCH   1  36
TORSDOF 8
ENDMDL
MODEL 9
REMARK VINA RESULT:      -5.7      6.081      9.384
REMARK  8 active torsions:
REMARK  status: ('A' for Active; 'I' for Inactive)
REMARK    1  A    between atoms: C_1  and  C_2 
REMARK    2  A    between atoms: C_3  and  C_24 
REMARK    3  A    between atoms: C_6  and  O_12 
REMARK    4  A    between atoms: O_12  and  C_13 
REMARK    5  A    between atoms: C_13  and  C_15 
REMARK    6  A    between atoms: C_18  and  N_21 
REMARK    7  A    between atoms: C_24  and  O_26 
REMARK    8  A    between atoms: O_26  and  C_27 
ROOT
ATOM      1  C   LIG d   1       3.615   0.648  -3.671  0.00  0.00     0.117 A 
ATOM      2  C   LIG d   1       4.371  -0.445  -3.973  0.00  0.00     0.107 A 
ATOM      3  C   LIG d   1       4.107  -0.731  -5.399  0.00  0.00     0.038 A 
ATOM      4  C   LIG d   1       4.554  -1.699  -6.292  0.00  0.00    -0.007 A 
ATOM      5  C   LIG d   1       4.102  -1.682  -7.599  0.00  0.00     0.147 A 
ATOM      6  C   LIG d   1       3.195  -0.710  -8.011  0.00  0.00     0.064 A 
ATOM      7  C   LIG d   1       2.744   0.248  -7.129  0.00  0.00    -0.001 A 
ATOM      8  C   LIG d   1       3.194   0.249  -5.813  0.00  0.00     0.137 A 
ATOM      9  O   LIG d   1       2.934   1.042  -4.753  0.00  0.00    -0.459 OA
ATOM     10 BR   LIG d   1       2.577  -0.703  -9.798  0.00  0.00    -0.046 Br
ATOM     11  H   LIG d   1       5.255  -2.454  -5.969  0.00  0.00     0.066 H 
ATOM     12  H   LIG d   1       2.040   0.998  -7.458  0.00  0.00     0.067 H 
ENDROOT
BRANCH   5  13
ATOM     13  O   LIG d   1       4.537  -2.621  -8.480  0.00  0.00    -0.421 OA
BRANCH  13  14
ATOM     14  C   LIG d   1       4.055  -3.870  -8.331  0.00  0.00     0.344 C 
ATOM     15  O   LIG d   1       3.027  -4.195  -8.892  0.00  0.00    -0.244 OA
BRANCH  14  16
ATOM     16  C   LIG d   1       4.774  -4.844  -7.484  0.00  0.00     0.060 A 
ATOM     17  C   LIG d   1       6.109  -5.154  -7.750  0.00  0.00    -0.041 A 
ATOM     18  C   LIG d   1       6.775  -6.060  -6.952  0.00  0.00     0.016 A 
ATOM     19  H   LIG d   1       6.619  -4.685  -8.579  0.00  0.00     0.063 H 
ATOM     20  C   LIG d   1       6.124  -6.661  -5.889  0.00  0.00     0.273 A 
ATOM     21  H   LIG d   1       7.808  -6.301  -7.156  0.00  0.00     0.069 H 
ATOM     22  C   LIG d   1       4.801  -6.359  -5.620  0.00  0.00     0.016 A 
ATOM     23  C   LIG d   1       4.122  -5.455  -6.411  0.00  0.00    -0.041 A 
ATOM     24  H   LIG d   1       4.298  -6.832  -4.790  0.00  0.00     0.069 H 
ATOM     25  H   LIG d   1       3.090  -5.220  -6.200  0.00  0.00     0.063 H 
BRANCH  20  26
ATOM     26  N   LIG d   1       6.845  -7.633  -5.037  0.00  0.00     0.080 N 
ATOM     27  O   LIG d   1       6.241  -8.560  -4.527  0.00  0.00     0.041 OA
ATOM     28  O   LIG d   1       8.042  -7.508  -4.847  0.00  0.00    -0.576 OA
ENDBRANCH  20  26
ENDBRANCH  14  16
ENDBRANCH  13  14
ENDBRANCH   5  13
BRANCH   2  29
ATOM     29  C   LIG d   1       5.262  -1.184  -3.071  0.00  0.00     0.343 C 
ATOM     30  O   LIG d   1       4.795  -1.926  -2.227  0.00  0.00    -0.245 OA
BRANCH  29  31
ATOM     31  O   LIG d   1       6.598  -1.044  -3.179  0.00  0.00    -0.464 OA
BRANCH  31  32
ATOM     32  C   LIG d   1       7.335  -2.153  -3.759  0.00  0.00     0.082 C 
ATOM     33  H   LIG d   1       8.285  -2.270  -3.238  0.00  0.00     0.066 H 
ATOM     34  H   LIG d   1       6.750  -3.067  -3.661  0.00  0.00     0.066 H 
ATOM     35  H   LIG d   1       7.521  -1.954  -4.814  0.00  0.00     0.066 H 
ENDBRANCH  31  32
ENDBRANCH  29  31
ENDBRANCH   2  29
BRANCH   1  36
ATOM     36  C   LIG d   1       3.556   1.311  -2.320  0.00  0.00    -0.005 C 
ATOM     37  H   LIG d   1       4.233   2.167  -2.305  0.00  0.00     0.031 H 
ATOM     38  H   LIG d   1       2.539   1.651  -2.125  0.00  0.00     0.031 H 
ATOM     39  H   LIG d   1       3.855   0.600  -1.551  0.00  0.00     0.031 H 
ENDBRANCH   1  36
TORSDOF 8
ENDMDL
MODEL 10
REMARK VINA RESULT:      -5.6      5.379      8.053
REMARK  8 active torsions:
REMARK  status: ('A' for Active; 'I' for Inactive)
REMARK    1  A    between atoms: C_1  and  C_2 
REMARK    2  A    between atoms: C_3  and  C_24 
REMARK    3  A    between atoms: C_6  and  O_12 
REMARK    4  A    between atoms: O_12  and  C_13 
REMARK    5  A    between atoms: C_13  and  C_15 
REMARK    6  A    between atoms: C_18  and  N_21 
REMARK    7  A    between atoms: C_24  and  O_26 
REMARK    8  A    between atoms: O_26  and  C_27 
ROOT
ATOM      1  C   LIG d   1       5.109  -9.160  -5.230  0.00  0.00     0.117 A 
ATOM      2  C   LIG d   1       6.286  -8.562  -4.894  0.00  0.00     0.107 A 
ATOM      3  C   LIG d   1       6.150  -7.151  -5.313  0.00  0.00     0.038 A 
ATOM      4  C   LIG d   1       6.984  -6.039  -5.258  0.00  0.00    -0.007 A 
ATOM      5  C   LIG d   1       6.537  -4.826  -5.748  0.00  0.00     0.147 A 
ATOM      6  C   LIG d   1       5.265  -4.724  -6.305  0.00  0.00     0.064 A 
ATOM      7  C   LIG d   1       4.437  -5.824  -6.367  0.00  0.00    -0.001 A 
ATOM      8  C   LIG d   1       4.869  -7.049  -5.873  0.00  0.00     0.137 A 
ATOM      9  O   LIG d   1       4.292  -8.267  -5.800  0.00  0.00    -0.459 OA
ATOM     10 BR   LIG d   1       4.669  -3.061  -6.980  0.00  0.00    -0.046 Br
ATOM     11  H   LIG d   1       7.972  -6.121  -4.829  0.00  0.00     0.066 H 
ATOM     12  H   LIG d   1       3.452  -5.734  -6.801  0.00  0.00     0.067 H 
ENDROOT
BRANCH   5  13
ATOM     13  O   LIG d   1       7.344  -3.733  -5.694  0.00  0.00    -0.421 OA
BRANCH  13  14
ATOM     14  C   LIG d   1       7.630  -3.244  -4.472  0.00  0.00     0.344 C 
ATOM     15  O   LIG d   1       8.529  -3.734  -3.817  0.00  0.00    -0.244 OA
BRANCH  14  16
ATOM     16  C   LIG d   1       6.850  -2.115  -3.926  0.00  0.00     0.060 A 
ATOM     17  C   LIG d   1       7.376  -0.821  -3.952  0.00  0.00    -0.041 A 
ATOM     18  C   LIG d   1       6.640   0.229  -3.445  0.00  0.00     0.016 A 
ATOM     19  H   LIG d   1       8.357  -0.645  -4.367  0.00  0.00     0.063 H 
ATOM     20  C   LIG d   1       5.383   0.005  -2.913  0.00  0.00     0.273 A 
ATOM     21  H   LIG d   1       7.045   1.230  -3.465  0.00  0.00     0.069 H 
ATOM     22  C   LIG d   1       4.855  -1.275  -2.883  0.00  0.00     0.016 A 
ATOM     23  C   LIG d   1       5.582  -2.335  -3.386  0.00  0.00    -0.041 A 
ATOM     24  H   LIG d   1       3.874  -1.443  -2.466  0.00  0.00     0.069 H 
ATOM     25  H   LIG d   1       5.169  -3.333  -3.363  0.00  0.00     0.063 H 
BRANCH  20  26
ATOM     26  N   LIG d   1       4.599   1.137  -2.371  0.00  0.00     0.080 N 
ATOM     27  O   LIG d   1       3.882   1.790  -3.109  0.00  0.00     0.041 OA
ATOM     28  O   LIG d   1       4.668   1.415  -1.187  0.00  0.00    -0.576 OA
ENDBRANCH  20  26
ENDBRANCH  14  16
ENDBRANCH  13  14
ENDBRANCH   5  13
BRANCH   2  29
ATOM     29  C   LIG d   1       7.447  -9.187  -4.249  0.00  0.00     0.343 C 
ATOM     30  O   LIG d   1       8.210  -9.873  -4.903  0.00  0.00    -0.245 OA
BRANCH  29  31
ATOM     31  O   LIG d   1       7.670  -9.000  -2.933  0.00  0.00    -0.464 OA
BRANCH  31  32
ATOM     32  C   LIG d   1       6.920  -9.835  -2.011  0.00  0.00     0.082 C 
ATOM     33  H   LIG d   1       7.402  -9.820  -1.034  0.00  0.00     0.066 H 
ATOM     34  H   LIG d   1       5.903  -9.454  -1.922  0.00  0.00     0.066 H 
ATOM     35  H   LIG d   1       6.892 -10.858  -2.387  0.00  0.00     0.066 H 
ENDBRANCH  31  32
ENDBRANCH  29  31
ENDBRANCH   2  29
BRANCH   1  36
ATOM     36  C   LIG d   1       4.778 -10.611  -4.995  0.00  0.00    -0.005 C 
ATOM     37  H   LIG d   1       4.117 -10.698  -4.132  0.00  0.00     0.031 H 
ATOM     38  H   LIG d   1       4.281 -11.018  -5.875  0.00  0.00     0.031 H 
ATOM     39  H   LIG d   1       5.696 -11.168  -4.806  0.00  0.00     0.031 H 
ENDBRANCH   1  36
TORSDOF 8
ENDMDL
