MODEL 1
REMARK VINA RESULT:      -7.3      0.000      0.000
REMARK  7 active torsions:
REMARK  status: ('A' for Active; 'I' for Inactive)
REMARK    1  A    between atoms: C_1  and  N_2 
REMARK       I    between atoms: N_5  and  C_8 
REMARK    2  A    between atoms: C_8  and  C_10 
REMARK    3  A    between atoms: C_10  and  C_11 
REMARK    4  A    between atoms: C_11  and  C_12 
REMARK    5  A    between atoms: C_22  and  N_25 
REMARK    6  A    between atoms: N_25  and  C_26 
REMARK    7  A    between atoms: C_26  and  C_27 
ROOT
ATOM      1  C   LIG d   1       6.103  -1.032  -8.736  0.00  0.00    -0.004 C 
ATOM      2  H   LIG d   1       5.628  -1.927  -9.139  0.00  0.00     0.087 H 
ATOM      3  C   LIG d   1       6.781  -0.247  -9.867  0.00  0.00     0.055 C 
ATOM      4  N   LIG d   1       5.824   0.531 -10.646  0.00  0.00    -0.305 N 
ATOM      5  C   LIG d   1       4.532   0.710 -10.304  0.00  0.00     0.262 C 
ATOM      6  O   LIG d   1       3.823   1.456 -10.946  0.00  0.00    -0.270 OA
ATOM      7  C   LIG d   1       3.989  -0.025  -9.123  0.00  0.00     0.059 C 
ATOM      8  H   LIG d   1       3.619  -1.005  -9.423  0.00  0.00     0.095 H 
ATOM      9  N   LIG d   1       5.099  -0.166  -8.143  0.00  0.00     0.248 N 
ATOM     10  C   LIG d   1       4.461  -0.607  -6.907  0.00  0.00    -0.015 C 
ATOM     11  C   LIG d   1       3.046   0.026  -6.919  0.00  0.00     0.054 C 
ATOM     12  H   LIG d   1       2.284  -0.748  -6.826  0.00  0.00     0.051 H 
ATOM     13  C   LIG d   1       2.921   0.726  -8.315  0.00  0.00     0.019 C 
ATOM     14  H   LIG d   1       7.519   0.430  -9.436  0.00  0.00     0.052 H 
ATOM     15  H   LIG d   1       7.290  -0.947 -10.529  0.00  0.00     0.052 H 
ATOM     16  H   LIG d   1       6.138   0.947 -11.464  0.00  0.00     0.149 HD
ATOM     17  H   LIG d   1       4.388  -1.694  -6.887  0.00  0.00     0.083 H 
ATOM     18  H   LIG d   1       5.025  -0.251  -6.044  0.00  0.00     0.083 H 
ATOM     19  H   LIG d   1       3.161   1.786  -8.241  0.00  0.00     0.034 H 
ATOM     20  H   LIG d   1       1.931   0.580  -8.748  0.00  0.00     0.034 H 
ATOM     21  H   LIG d   1       5.505   0.743  -7.980  0.00  0.00     0.204 HD
ENDROOT
BRANCH   1  22
ATOM     22  C   LIG d   1       7.139  -1.424  -7.681  0.00  0.00     0.000 C 
ATOM     23  H   LIG d   1       7.498  -2.434  -7.882  0.00  0.00     0.033 H 
ATOM     24  H   LIG d   1       6.682  -1.391  -6.693  0.00  0.00     0.033 H 
BRANCH  22  25
ATOM     25  C   LIG d   1       8.314  -0.446  -7.731  0.00  0.00     0.029 C 
ATOM     26  H   LIG d   1       8.288   0.105  -8.671  0.00  0.00     0.036 H 
ATOM     27  H   LIG d   1       9.251  -0.999  -7.661  0.00  0.00     0.036 H 
BRANCH  25  28
ATOM     28  C   LIG d   1       8.213   0.521  -6.579  0.00  0.00     0.216 C 
ATOM     29  N   LIG d   1       9.085   0.441  -5.554  0.00  0.00    -0.291 N 
ATOM     30  C   LIG d   1       9.006   1.373  -4.419  0.00  0.00     0.055 C 
ATOM     31  C   LIG d   1      10.143  -0.580  -5.540  0.00  0.00     0.055 C 
ATOM     32  C   LIG d   1      10.396   1.972  -4.184  0.00  0.00    -0.016 C 
ATOM     33  H   LIG d   1       8.681   0.838  -3.527  0.00  0.00     0.052 H 
ATOM     34  H   LIG d   1       8.298   2.170  -4.649  0.00  0.00     0.052 H 
ATOM     35  N   LIG d   1      11.371   0.888  -4.010  0.00  0.00     0.235 N 
ATOM     36  H   LIG d   1      10.378   2.591  -3.287  0.00  0.00     0.083 H 
ATOM     37  H   LIG d   1      10.680   2.581  -5.042  0.00  0.00     0.083 H 
ATOM     38  C   LIG d   1      11.481   0.110  -5.251  0.00  0.00    -0.016 C 
ATOM     39  H   LIG d   1      11.068   0.283  -3.261  0.00  0.00     0.203 HD
ATOM     40  H   LIG d   1      11.732   0.776  -6.076  0.00  0.00     0.083 H 
ATOM     41  H   LIG d   1      12.261  -0.642  -5.141  0.00  0.00     0.083 H 
ATOM     42  H   LIG d   1       9.935  -1.313  -4.760  0.00  0.00     0.052 H 
ATOM     43  H   LIG d   1      10.189  -1.075  -6.510  0.00  0.00     0.052 H 
ATOM     44  O   LIG d   1       7.347   1.370  -6.574  0.00  0.00    -0.276 OA
BRANCH  35  45
ATOM     45  C   LIG d   1      12.682   1.459  -3.676  0.00  0.00    -0.043 C 
ATOM     46  H   LIG d   1      12.954   2.207  -4.421  0.00  0.00     0.078 H 
ATOM     47  H   LIG d   1      12.634   1.928  -2.692  0.00  0.00     0.078 H 
ATOM     48  H   LIG d   1      13.431   0.668  -3.664  0.00  0.00     0.078 H 
ENDBRANCH  35  45
ENDBRANCH  25  28
ENDBRANCH  22  25
ENDBRANCH   1  22
BRANCH  11  49
ATOM     49  N   LIG d   1       2.914   1.006  -5.832  0.00  0.00    -0.304 N 
ATOM     50  H   LIG d   1       3.819   1.294  -5.494  0.00  0.00     0.123 HD
BRANCH  49  51
ATOM     51  C   LIG d   1       2.089   0.472  -4.740  0.00  0.00     0.022 C 
ATOM     52  H   LIG d   1       1.402   1.243  -4.392  0.00  0.00     0.047 H 
ATOM     53  H   LIG d   1       1.521  -0.385  -5.099  0.00  0.00     0.047 H 
BRANCH  51  54
ATOM     54  C   LIG d   1       2.980   0.043  -3.603  0.00  0.00    -0.034 A 
ATOM     55  C   LIG d   1       3.627   0.993  -2.835  0.00  0.00    -0.057 A 
ATOM     56  C   LIG d   1       4.442   0.599  -1.789  0.00  0.00    -0.061 A 
ATOM     57  H   LIG d   1       3.495   2.043  -3.052  0.00  0.00     0.062 H 
ATOM     58  C   LIG d   1       4.614  -0.745  -1.517  0.00  0.00    -0.062 A 
ATOM     59  H   LIG d   1       4.944   1.342  -1.187  0.00  0.00     0.062 H 
ATOM     60  C   LIG d   1       3.971  -1.695  -2.287  0.00  0.00    -0.061 A 
ATOM     61  H   LIG d   1       5.252  -1.053  -0.701  0.00  0.00     0.062 H 
ATOM     62  C   LIG d   1       3.154  -1.301  -3.330  0.00  0.00    -0.057 A 
ATOM     63  H   LIG d   1       4.106  -2.745  -2.074  0.00  0.00     0.062 H 
ATOM     64  H   LIG d   1       2.651  -2.044  -3.932  0.00  0.00     0.062 H 
ENDBRANCH  51  54
ENDBRANCH  49  51
ENDBRANCH  11  49
TORSDOF 7
ENDMDL
MODEL 2
REMARK VINA RESULT:      -7.2      2.019      2.584
REMARK  7 active torsions:
REMARK  status: ('A' for Active; 'I' for Inactive)
REMARK    1  A    between atoms: C_1  and  N_2 
REMARK       I    between atoms: N_5  and  C_8 
REMARK    2  A    between atoms: C_8  and  C_10 
REMARK    3  A    between atoms: C_10  and  C_11 
REMARK    4  A    between atoms: C_11  and  C_12 
REMARK    5  A    between atoms: C_22  and  N_25 
REMARK    6  A    between atoms: N_25  and  C_26 
REMARK    7  A    between atoms: C_26  and  C_27 
ROOT
ATOM      1  C   LIG d   1       4.547  -1.719  -9.728  0.00  0.00    -0.004 C 
ATOM      2  H   LIG d   1       3.639  -2.085 -10.208  0.00  0.00     0.087 H 
ATOM      3  C   LIG d   1       5.494  -1.129 -10.784  0.00  0.00     0.055 C 
ATOM      4  N   LIG d   1       5.091   0.211 -11.194  0.00  0.00    -0.305 N 
ATOM      5  C   LIG d   1       4.131   0.937 -10.586  0.00  0.00     0.262 C 
ATOM      6  O   LIG d   1       3.924   2.085 -10.919  0.00  0.00    -0.270 OA
ATOM      7  C   LIG d   1       3.327   0.304  -9.499  0.00  0.00     0.059 C 
ATOM      8  H   LIG d   1       2.464  -0.214  -9.917  0.00  0.00     0.095 H 
ATOM      9  N   LIG d   1       4.218  -0.657  -8.794  0.00  0.00     0.248 N 
ATOM     10  C   LIG d   1       3.500  -1.018  -7.576  0.00  0.00    -0.015 C 
ATOM     11  C   LIG d   1       2.671   0.235  -7.194  0.00  0.00     0.054 C 
ATOM     12  H   LIG d   1       1.614  -0.017  -7.118  0.00  0.00     0.051 H 
ATOM     13  C   LIG d   1       2.890   1.247  -8.369  0.00  0.00     0.019 C 
ATOM     14  H   LIG d   1       6.502  -1.085 -10.370  0.00  0.00     0.052 H 
ATOM     15  H   LIG d   1       5.500  -1.781 -11.657  0.00  0.00     0.052 H 
ATOM     16  H   LIG d   1       5.545   0.607 -11.954  0.00  0.00     0.149 HD
ATOM     17  H   LIG d   1       2.839  -1.864  -7.764  0.00  0.00     0.083 H 
ATOM     18  H   LIG d   1       4.205  -1.259  -6.781  0.00  0.00     0.083 H 
ATOM     19  H   LIG d   1       3.679   1.959  -8.128  0.00  0.00     0.034 H 
ATOM     20  H   LIG d   1       1.966   1.764  -8.629  0.00  0.00     0.034 H 
ATOM     21  H   LIG d   1       5.065  -0.178  -8.529  0.00  0.00     0.204 HD
ENDROOT
BRANCH   1  22
ATOM     22  C   LIG d   1       5.241  -2.865  -8.989  0.00  0.00     0.000 C 
ATOM     23  H   LIG d   1       5.292  -3.739  -9.639  0.00  0.00     0.033 H 
ATOM     24  H   LIG d   1       4.677  -3.112  -8.091  0.00  0.00     0.033 H 
BRANCH  22  25
ATOM     25  C   LIG d   1       6.658  -2.436  -8.599  0.00  0.00     0.029 C 
ATOM     26  H   LIG d   1       6.782  -1.372  -8.797  0.00  0.00     0.036 H 
ATOM     27  H   LIG d   1       7.383  -3.002  -9.185  0.00  0.00     0.036 H 
BRANCH  25  28
ATOM     28  C   LIG d   1       6.878  -2.705  -7.133  0.00  0.00     0.216 C 
ATOM     29  N   LIG d   1       7.501  -1.788  -6.366  0.00  0.00    -0.291 N 
ATOM     30  C   LIG d   1       7.726  -2.028  -4.932  0.00  0.00     0.055 C 
ATOM     31  C   LIG d   1       7.972  -0.518  -6.939  0.00  0.00     0.055 C 
ATOM     32  C   LIG d   1       7.226  -0.809  -4.151  0.00  0.00    -0.016 C 
ATOM     33  H   LIG d   1       8.791  -2.170  -4.748  0.00  0.00     0.052 H 
ATOM     34  H   LIG d   1       7.176  -2.915  -4.619  0.00  0.00     0.052 H 
ATOM     35  N   LIG d   1       7.872   0.403  -4.670  0.00  0.00     0.235 N 
ATOM     36  H   LIG d   1       7.473  -0.928  -3.095  0.00  0.00     0.083 H 
ATOM     37  H   LIG d   1       6.146  -0.722  -4.264  0.00  0.00     0.083 H 
ATOM     38  C   LIG d   1       7.461   0.630  -6.061  0.00  0.00    -0.016 C 
ATOM     39  H   LIG d   1       8.874   0.291  -4.631  0.00  0.00     0.203 HD
ATOM     40  H   LIG d   1       6.374   0.674  -6.117  0.00  0.00     0.083 H 
ATOM     41  H   LIG d   1       7.881   1.572  -6.415  0.00  0.00     0.083 H 
ATOM     42  H   LIG d   1       9.062  -0.507  -6.957  0.00  0.00     0.052 H 
ATOM     43  H   LIG d   1       7.585  -0.406  -7.951  0.00  0.00     0.052 H 
ATOM     44  O   LIG d   1       6.495  -3.746  -6.642  0.00  0.00    -0.276 OA
BRANCH  35  45
ATOM     45  C   LIG d   1       7.477   1.556  -3.851  0.00  0.00    -0.043 C 
ATOM     46  H   LIG d   1       7.576   2.469  -4.438  0.00  0.00     0.078 H 
ATOM     47  H   LIG d   1       6.440   1.438  -3.533  0.00  0.00     0.078 H 
ATOM     48  H   LIG d   1       8.121   1.616  -2.974  0.00  0.00     0.078 H 
ENDBRANCH  35  45
ENDBRANCH  25  28
ENDBRANCH  22  25
ENDBRANCH   1  22
BRANCH  11  49
ATOM     49  N   LIG d   1       3.153   0.800  -5.925  0.00  0.00    -0.304 N 
ATOM     50  H   LIG d   1       4.102   0.515  -5.741  0.00  0.00     0.123 HD
BRANCH  49  51
ATOM     51  C   LIG d   1       2.266   0.430  -4.814  0.00  0.00     0.022 C 
ATOM     52  H   LIG d   1       1.675   1.295  -4.516  0.00  0.00     0.047 H 
ATOM     53  H   LIG d   1       1.601  -0.373  -5.132  0.00  0.00     0.047 H 
BRANCH  51  54
ATOM     54  C   LIG d   1       3.095  -0.038  -3.646  0.00  0.00    -0.034 A 
ATOM     55  C   LIG d   1       3.224  -1.390  -3.387  0.00  0.00    -0.057 A 
ATOM     56  C   LIG d   1       3.987  -1.820  -2.318  0.00  0.00    -0.061 A 
ATOM     57  H   LIG d   1       2.730  -2.110  -4.023  0.00  0.00     0.062 H 
ATOM     58  C   LIG d   1       4.615  -0.898  -1.502  0.00  0.00    -0.062 A 
ATOM     59  H   LIG d   1       4.090  -2.877  -2.118  0.00  0.00     0.062 H 
ATOM     60  C   LIG d   1       4.482   0.454  -1.757  0.00  0.00    -0.061 A 
ATOM     61  H   LIG d   1       5.209  -1.233  -0.665  0.00  0.00     0.062 H 
ATOM     62  C   LIG d   1       3.722   0.883  -2.829  0.00  0.00    -0.057 A 
ATOM     63  H   LIG d   1       4.972   1.175  -1.119  0.00  0.00     0.062 H 
ATOM     64  H   LIG d   1       3.618   1.941  -3.029  0.00  0.00     0.062 H 
ENDBRANCH  51  54
ENDBRANCH  49  51
ENDBRANCH  11  49
TORSDOF 7
ENDMDL
MODEL 3
REMARK VINA RESULT:      -7.0      3.756      5.182
REMARK  7 active torsions:
REMARK  status: ('A' for Active; 'I' for Inactive)
REMARK    1  A    between atoms: C_1  and  N_2 
REMARK       I    between atoms: N_5  and  C_8 
REMARK    2  A    between atoms: C_8  and  C_10 
REMARK    3  A    between atoms: C_10  and  C_11 
REMARK    4  A    between atoms: C_11  and  C_12 
REMARK    5  A    between atoms: C_22  and  N_25 
REMARK    6  A    between atoms: N_25  and  C_26 
REMARK    7  A    between atoms: C_26  and  C_27 
ROOT
ATOM      1  C   LIG d   1       2.827  -0.564 -10.959  0.00  0.00    -0.004 C 
ATOM      2  H   LIG d   1       2.245   0.289 -11.307  0.00  0.00     0.087 H 
ATOM      3  C   LIG d   1       4.118  -0.685 -11.782  0.00  0.00     0.055 C 
ATOM      4  N   LIG d   1       5.134   0.268 -11.351  0.00  0.00    -0.305 N 
ATOM      5  C   LIG d   1       5.044   1.027 -10.240  0.00  0.00     0.262 C 
ATOM      6  O   LIG d   1       5.975   1.721  -9.890  0.00  0.00    -0.270 OA
ATOM      7  C   LIG d   1       3.777   1.001  -9.449  0.00  0.00     0.059 C 
ATOM      8  H   LIG d   1       3.074   1.740  -9.832  0.00  0.00     0.095 H 
ATOM      9  N   LIG d   1       3.209  -0.369  -9.572  0.00  0.00     0.248 N 
ATOM     10  C   LIG d   1       2.161  -0.438  -8.559  0.00  0.00    -0.015 C 
ATOM     11  C   LIG d   1       2.634   0.483  -7.406  0.00  0.00     0.054 C 
ATOM     12  H   LIG d   1       1.885   1.247  -7.199  0.00  0.00     0.051 H 
ATOM     13  C   LIG d   1       3.946   1.159  -7.931  0.00  0.00     0.019 C 
ATOM     14  H   LIG d   1       4.513  -1.696 -11.675  0.00  0.00     0.052 H 
ATOM     15  H   LIG d   1       3.887  -0.506 -12.832  0.00  0.00     0.052 H 
ATOM     16  H   LIG d   1       5.928   0.362 -11.899  0.00  0.00     0.149 HD
ATOM     17  H   LIG d   1       1.217  -0.076  -8.967  0.00  0.00     0.083 H 
ATOM     18  H   LIG d   1       2.050  -1.462  -8.201  0.00  0.00     0.083 H 
ATOM     19  H   LIG d   1       4.827   0.624  -7.579  0.00  0.00     0.034 H 
ATOM     20  H   LIG d   1       3.992   2.212  -7.652  0.00  0.00     0.034 H 
ATOM     21  H   LIG d   1       3.924  -1.038  -9.331  0.00  0.00     0.204 HD
ENDROOT
BRANCH   1  22
ATOM     22  C   LIG d   1       2.002  -1.846 -11.095  0.00  0.00     0.000 C 
ATOM     23  H   LIG d   1       1.316  -1.748 -11.937  0.00  0.00     0.033 H 
ATOM     24  H   LIG d   1       1.434  -2.011 -10.181  0.00  0.00     0.033 H 
BRANCH  22  25
ATOM     25  C   LIG d   1       2.938  -3.032 -11.335  0.00  0.00     0.029 C 
ATOM     26  H   LIG d   1       3.970  -2.683 -11.348  0.00  0.00     0.036 H 
ATOM     27  H   LIG d   1       2.699  -3.496 -12.293  0.00  0.00     0.036 H 
BRANCH  25  28
ATOM     28  C   LIG d   1       2.762  -4.042 -10.230  0.00  0.00     0.216 C 
ATOM     29  N   LIG d   1       3.742  -4.226  -9.324  0.00  0.00    -0.291 N 
ATOM     30  C   LIG d   1       3.593  -5.206  -8.237  0.00  0.00     0.055 C 
ATOM     31  C   LIG d   1       4.990  -3.452  -9.392  0.00  0.00     0.055 C 
ATOM     32  C   LIG d   1       3.930  -4.516  -6.911  0.00  0.00    -0.016 C 
ATOM     33  H   LIG d   1       4.274  -6.041  -8.400  0.00  0.00     0.052 H 
ATOM     34  H   LIG d   1       2.565  -5.569  -8.210  0.00  0.00     0.052 H 
ATOM     35  N   LIG d   1       5.264  -3.911  -7.001  0.00  0.00     0.235 N 
ATOM     36  H   LIG d   1       3.918  -5.251  -6.106  0.00  0.00     0.083 H 
ATOM     37  H   LIG d   1       3.192  -3.741  -6.706  0.00  0.00     0.083 H 
ATOM     38  C   LIG d   1       5.263  -2.846  -8.011  0.00  0.00    -0.016 C 
ATOM     39  H   LIG d   1       5.936  -4.619  -7.262  0.00  0.00     0.203 HD
ATOM     40  H   LIG d   1       4.485  -2.120  -7.773  0.00  0.00     0.083 H 
ATOM     41  H   LIG d   1       6.233  -2.349  -8.018  0.00  0.00     0.083 H 
ATOM     42  H   LIG d   1       5.814  -4.109  -9.671  0.00  0.00     0.052 H 
ATOM     43  H   LIG d   1       4.888  -2.655 -10.128  0.00  0.00     0.052 H 
ATOM     44  O   LIG d   1       1.739  -4.689 -10.158  0.00  0.00    -0.276 OA
BRANCH  35  45
ATOM     45  C   LIG d   1       5.633  -3.346  -5.697  0.00  0.00    -0.043 C 
ATOM     46  H   LIG d   1       6.634  -3.681  -5.425  0.00  0.00     0.078 H 
ATOM     47  H   LIG d   1       5.618  -2.257  -5.755  0.00  0.00     0.078 H 
ATOM     48  H   LIG d   1       4.921  -3.678  -4.942  0.00  0.00     0.078 H 
ENDBRANCH  35  45
ENDBRANCH  25  28
ENDBRANCH  22  25
ENDBRANCH   1  22
BRANCH  11  49
ATOM     49  N   LIG d   1       2.905  -0.307  -6.197  0.00  0.00    -0.304 N 
ATOM     50  H   LIG d   1       2.582  -1.256  -6.307  0.00  0.00     0.123 HD
BRANCH  49  51
ATOM     51  C   LIG d   1       2.303   0.320  -5.013  0.00  0.00     0.022 C 
ATOM     52  H   LIG d   1       2.307   1.403  -5.133  0.00  0.00     0.047 H 
ATOM     53  H   LIG d   1       1.277  -0.029  -4.898  0.00  0.00     0.047 H 
BRANCH  51  54
ATOM     54  C   LIG d   1       3.100  -0.052  -3.788  0.00  0.00    -0.034 A 
ATOM     55  C   LIG d   1       3.668   0.936  -3.007  0.00  0.00    -0.057 A 
ATOM     56  C   LIG d   1       4.396   0.596  -1.882  0.00  0.00    -0.061 A 
ATOM     57  H   LIG d   1       3.541   1.975  -3.274  0.00  0.00     0.062 H 
ATOM     58  C   LIG d   1       4.561  -0.734  -1.543  0.00  0.00    -0.062 A 
ATOM     59  H   LIG d   1       4.836   1.368  -1.269  0.00  0.00     0.062 H 
ATOM     60  C   LIG d   1       3.997  -1.723  -2.327  0.00  0.00    -0.061 A 
ATOM     61  H   LIG d   1       5.132  -1.001  -0.665  0.00  0.00     0.062 H 
ATOM     62  C   LIG d   1       3.267  -1.381  -3.450  0.00  0.00    -0.057 A 
ATOM     63  H   LIG d   1       4.128  -2.762  -2.063  0.00  0.00     0.062 H 
ATOM     64  H   LIG d   1       2.826  -2.154  -4.063  0.00  0.00     0.062 H 
ENDBRANCH  51  54
ENDBRANCH  49  51
ENDBRANCH  11  49
TORSDOF 7
ENDMDL
MODEL 4
REMARK VINA RESULT:      -7.0      5.170      7.523
REMARK  7 active torsions:
REMARK  status: ('A' for Active; 'I' for Inactive)
REMARK    1  A    between atoms: C_1  and  N_2 
REMARK       I    between atoms: N_5  and  C_8 
REMARK    2  A    between atoms: C_8  and  C_10 
REMARK    3  A    between atoms: C_10  and  C_11 
REMARK    4  A    between atoms: C_11  and  C_12 
REMARK    5  A    between atoms: C_22  and  N_25 
REMARK    6  A    between atoms: N_25  and  C_26 
REMARK    7  A    between atoms: C_26  and  C_27 
ROOT
ATOM      1  C   LIG d   1      10.443   4.763  -3.844  0.00  0.00    -0.004 C 
ATOM      2  H   LIG d   1      11.509   4.638  -4.033  0.00  0.00     0.087 H 
ATOM      3  C   LIG d   1       9.907   5.958  -4.646  0.00  0.00     0.055 C 
ATOM      4  N   LIG d   1       9.688   5.622  -6.048  0.00  0.00    -0.305 N 
ATOM      5  C   LIG d   1       9.748   4.373  -6.551  0.00  0.00     0.262 C 
ATOM      6  O   LIG d   1       9.451   4.159  -7.707  0.00  0.00    -0.270 OA
ATOM      7  C   LIG d   1      10.188   3.257  -5.661  0.00  0.00     0.059 C 
ATOM      8  H   LIG d   1      11.273   3.159  -5.683  0.00  0.00     0.095 H 
ATOM      9  N   LIG d   1       9.722   3.581  -4.285  0.00  0.00     0.248 N 
ATOM     10  C   LIG d   1       9.901   2.349  -3.524  0.00  0.00    -0.015 C 
ATOM     11  C   LIG d   1       9.690   1.197  -4.539  0.00  0.00     0.054 C 
ATOM     12  H   LIG d   1      10.564   0.546  -4.560  0.00  0.00     0.051 H 
ATOM     13  C   LIG d   1       9.522   1.900  -5.929  0.00  0.00     0.019 C 
ATOM     14  H   LIG d   1       8.963   6.283  -4.208  0.00  0.00     0.052 H 
ATOM     15  H   LIG d   1      10.624   6.776  -4.585  0.00  0.00     0.052 H 
ATOM     16  H   LIG d   1       9.484   6.347  -6.660  0.00  0.00     0.149 HD
ATOM     17  H   LIG d   1      10.907   2.306  -3.107  0.00  0.00     0.083 H 
ATOM     18  H   LIG d   1       9.159   2.289  -2.727  0.00  0.00     0.083 H 
ATOM     19  H   LIG d   1       8.469   2.024  -6.177  0.00  0.00     0.034 H 
ATOM     20  H   LIG d   1      10.046   1.358  -6.717  0.00  0.00     0.034 H 
ATOM     21  H   LIG d   1       8.737   3.791  -4.318  0.00  0.00     0.204 HD
ENDROOT
BRANCH   1  22
ATOM     22  C   LIG d   1      10.203   4.990  -2.350  0.00  0.00     0.000 C 
ATOM     23  H   LIG d   1      10.231   4.033  -1.828  0.00  0.00     0.033 H 
ATOM     24  H   LIG d   1       9.228   5.454  -2.205  0.00  0.00     0.033 H 
BRANCH  22  25
ATOM     25  C   LIG d   1      11.292   5.908  -1.792  0.00  0.00     0.029 C 
ATOM     26  H   LIG d   1      11.784   6.429  -2.613  0.00  0.00     0.036 H 
ATOM     27  H   LIG d   1      12.027   5.312  -1.249  0.00  0.00     0.036 H 
BRANCH  25  28
ATOM     28  C   LIG d   1      10.672   6.914  -0.857  0.00  0.00     0.216 C 
ATOM     29  N   LIG d   1      10.629   8.216  -1.201  0.00  0.00    -0.291 N 
ATOM     30  C   LIG d   1      10.028   9.216  -0.304  0.00  0.00     0.055 C 
ATOM     31  C   LIG d   1      11.180   8.678  -2.483  0.00  0.00     0.055 C 
ATOM     32  C   LIG d   1       9.025  10.049  -1.109  0.00  0.00    -0.016 C 
ATOM     33  H   LIG d   1      10.807   9.865   0.096  0.00  0.00     0.052 H 
ATOM     34  H   LIG d   1       9.512   8.711   0.513  0.00  0.00     0.052 H 
ATOM     35  N   LIG d   1       9.695  10.617  -2.286  0.00  0.00     0.235 N 
ATOM     36  H   LIG d   1       8.641  10.857  -0.485  0.00  0.00     0.083 H 
ATOM     37  H   LIG d   1       8.200   9.415  -1.432  0.00  0.00     0.083 H 
ATOM     38  C   LIG d   1      10.124   9.539  -3.185  0.00  0.00    -0.016 C 
ATOM     39  H   LIG d   1      10.502  11.146  -1.988  0.00  0.00     0.203 HD
ATOM     40  H   LIG d   1       9.265   8.920  -3.445  0.00  0.00     0.083 H 
ATOM     41  H   LIG d   1      10.549   9.968  -4.092  0.00  0.00     0.083 H 
ATOM     42  H   LIG d   1      12.076   9.273  -2.304  0.00  0.00     0.052 H 
ATOM     43  H   LIG d   1      11.426   7.819  -3.108  0.00  0.00     0.052 H 
ATOM     44  O   LIG d   1      10.211   6.551   0.205  0.00  0.00    -0.276 OA
BRANCH  35  45
ATOM     45  C   LIG d   1       8.766  11.504  -2.996  0.00  0.00    -0.043 C 
ATOM     46  H   LIG d   1       8.608  12.410  -2.410  0.00  0.00     0.078 H 
ATOM     47  H   LIG d   1       9.187  11.769  -3.967  0.00  0.00     0.078 H 
ATOM     48  H   LIG d   1       7.814  10.994  -3.141  0.00  0.00     0.078 H 
ENDBRANCH  35  45
ENDBRANCH  25  28
ENDBRANCH  22  25
ENDBRANCH   1  22
BRANCH  11  49
ATOM     49  N   LIG d   1       8.487   0.427  -4.197  0.00  0.00    -0.304 N 
ATOM     50  H   LIG d   1       8.231  -0.196  -4.948  0.00  0.00     0.123 HD
BRANCH  49  51
ATOM     51  C   LIG d   1       7.372   1.319  -3.850  0.00  0.00     0.022 C 
ATOM     52  H   LIG d   1       7.722   2.089  -3.164  0.00  0.00     0.047 H 
ATOM     53  H   LIG d   1       6.986   1.787  -4.756  0.00  0.00     0.047 H 
BRANCH  51  54
ATOM     54  C   LIG d   1       6.276   0.520  -3.192  0.00  0.00    -0.034 A 
ATOM     55  C   LIG d   1       5.267   1.167  -2.504  0.00  0.00    -0.057 A 
ATOM     56  C   LIG d   1       4.260   0.435  -1.903  0.00  0.00    -0.061 A 
ATOM     57  H   LIG d   1       5.265   2.245  -2.438  0.00  0.00     0.062 H 
ATOM     58  C   LIG d   1       4.267  -0.945  -1.985  0.00  0.00    -0.062 A 
ATOM     59  H   LIG d   1       3.470   0.941  -1.369  0.00  0.00     0.062 H 
ATOM     60  C   LIG d   1       5.278  -1.593  -2.669  0.00  0.00    -0.061 A 
ATOM     61  H   LIG d   1       3.481  -1.518  -1.514  0.00  0.00     0.062 H 
ATOM     62  C   LIG d   1       6.283  -0.860  -3.272  0.00  0.00    -0.057 A 
ATOM     63  H   LIG d   1       5.283  -2.671  -2.732  0.00  0.00     0.062 H 
ATOM     64  H   LIG d   1       7.074  -1.366  -3.808  0.00  0.00     0.062 H 
ENDBRANCH  51  54
ENDBRANCH  49  51
ENDBRANCH  11  49
TORSDOF 7
ENDMDL
MODEL 5
REMARK VINA RESULT:      -6.8      4.597      8.469
REMARK  7 active torsions:
REMARK  status: ('A' for Active; 'I' for Inactive)
REMARK    1  A    between atoms: C_1  and  N_2 
REMARK       I    between atoms: N_5  and  C_8 
REMARK    2  A    between atoms: C_8  and  C_10 
REMARK    3  A    between atoms: C_10  and  C_11 
REMARK    4  A    between atoms: C_11  and  C_12 
REMARK    5  A    between atoms: C_22  and  N_25 
REMARK    6  A    between atoms: N_25  and  C_26 
REMARK    7  A    between atoms: C_26  and  C_27 
ROOT
ATOM      1  C   LIG d   1       2.549  -0.437 -11.053  0.00  0.00    -0.004 C 
ATOM      2  H   LIG d   1       2.380   0.591 -11.374  0.00  0.00     0.087 H 
ATOM      3  C   LIG d   1       3.591  -1.105 -11.961  0.00  0.00     0.055 C 
ATOM      4  N   LIG d   1       4.952  -0.705 -11.619  0.00  0.00    -0.305 N 
ATOM      5  C   LIG d   1       5.285   0.001 -10.520  0.00  0.00     0.262 C 
ATOM      6  O   LIG d   1       6.449   0.206 -10.249  0.00  0.00    -0.270 OA
ATOM      7  C   LIG d   1       4.196   0.526  -9.641  0.00  0.00     0.059 C 
ATOM      8  H   LIG d   1       3.868   1.505  -9.989  0.00  0.00     0.095 H 
ATOM      9  N   LIG d   1       3.075  -0.450  -9.699  0.00  0.00     0.248 N 
ATOM     10  C   LIG d   1       2.179  -0.063  -8.614  0.00  0.00    -0.015 C 
ATOM     11  C   LIG d   1       3.091   0.538  -7.515  0.00  0.00     0.054 C 
ATOM     12  H   LIG d   1       2.773   1.552  -7.270  0.00  0.00     0.051 H 
ATOM     13  C   LIG d   1       4.525   0.572  -8.143  0.00  0.00     0.019 C 
ATOM     14  H   LIG d   1       3.505  -2.187 -11.863  0.00  0.00     0.052 H 
ATOM     15  H   LIG d   1       3.389  -0.827 -12.995  0.00  0.00     0.052 H 
ATOM     16  H   LIG d   1       5.665  -0.964 -12.224  0.00  0.00     0.149 HD
ATOM     17  H   LIG d   1       1.466   0.684  -8.963  0.00  0.00     0.083 H 
ATOM     18  H   LIG d   1       1.653  -0.937  -8.231  0.00  0.00     0.083 H 
ATOM     19  H   LIG d   1       5.102  -0.302  -7.843  0.00  0.00     0.034 H 
ATOM     20  H   LIG d   1       5.052   1.492  -7.887  0.00  0.00     0.034 H 
ATOM     21  H   LIG d   1       3.436  -1.370  -9.496  0.00  0.00     0.204 HD
ENDROOT
BRANCH   1  22
ATOM     22  C   LIG d   1       1.235  -1.220 -11.107  0.00  0.00     0.000 C 
ATOM     23  H   LIG d   1       0.419  -0.543 -11.361  0.00  0.00     0.033 H 
ATOM     24  H   LIG d   1       1.042  -1.673 -10.135  0.00  0.00     0.033 H 
BRANCH  22  25
ATOM     25  C   LIG d   1       1.338  -2.316 -12.169  0.00  0.00     0.029 C 
ATOM     26  H   LIG d   1       1.764  -3.215 -11.723  0.00  0.00     0.036 H 
ATOM     27  H   LIG d   1       1.979  -1.975 -12.982  0.00  0.00     0.036 H 
BRANCH  25  28
ATOM     28  C   LIG d   1      -0.036  -2.625 -12.707  0.00  0.00     0.216 C 
ATOM     29  N   LIG d   1      -0.679  -3.741 -12.312  0.00  0.00    -0.291 N 
ATOM     30  C   LIG d   1      -2.020  -4.062 -12.824  0.00  0.00     0.055 C 
ATOM     31  C   LIG d   1      -0.061  -4.671 -11.355  0.00  0.00     0.055 C 
ATOM     32  C   LIG d   1      -2.933  -4.374 -11.633  0.00  0.00    -0.016 C 
ATOM     33  H   LIG d   1      -1.964  -4.931 -13.479  0.00  0.00     0.052 H 
ATOM     34  H   LIG d   1      -2.416  -3.209 -13.375  0.00  0.00     0.052 H 
ATOM     35  N   LIG d   1      -2.327  -5.433 -10.817  0.00  0.00     0.235 N 
ATOM     36  H   LIG d   1      -3.905  -4.708 -11.998  0.00  0.00     0.083 H 
ATOM     37  H   LIG d   1      -3.061  -3.477 -11.028  0.00  0.00     0.083 H 
ATOM     38  C   LIG d   1      -1.067  -4.955 -10.234  0.00  0.00    -0.016 C 
ATOM     39  H   LIG d   1      -2.143  -6.239 -11.397  0.00  0.00     0.203 HD
ATOM     40  H   LIG d   1      -1.251  -4.041  -9.670  0.00  0.00     0.083 H 
ATOM     41  H   LIG d   1      -0.662  -5.717  -9.567  0.00  0.00     0.083 H 
ATOM     42  H   LIG d   1       0.193  -5.602 -11.862  0.00  0.00     0.052 H 
ATOM     43  H   LIG d   1       0.838  -4.222 -10.935  0.00  0.00     0.052 H 
ATOM     44  O   LIG d   1      -0.562  -1.869 -13.497  0.00  0.00    -0.276 OA
BRANCH  35  45
ATOM     45  C   LIG d   1      -3.251  -5.808  -9.739  0.00  0.00    -0.043 C 
ATOM     46  H   LIG d   1      -3.506  -4.924  -9.154  0.00  0.00     0.078 H 
ATOM     47  H   LIG d   1      -4.159  -6.232 -10.170  0.00  0.00     0.078 H 
ATOM     48  H   LIG d   1      -2.777  -6.547  -9.094  0.00  0.00     0.078 H 
ENDBRANCH  35  45
ENDBRANCH  25  28
ENDBRANCH  22  25
ENDBRANCH   1  22
BRANCH  11  49
ATOM     49  N   LIG d   1       3.069  -0.307  -6.313  0.00  0.00    -0.304 N 
ATOM     50  H   LIG d   1       2.586  -1.174  -6.490  0.00  0.00     0.123 HD
BRANCH  49  51
ATOM     51  C   LIG d   1       2.470   0.407  -5.178  0.00  0.00     0.022 C 
ATOM     52  H   LIG d   1       2.563   1.482  -5.333  0.00  0.00     0.047 H 
ATOM     53  H   LIG d   1       1.416   0.142  -5.097  0.00  0.00     0.047 H 
BRANCH  51  54
ATOM     54  C   LIG d   1       3.184   0.020  -3.908  0.00  0.00    -0.034 A 
ATOM     55  C   LIG d   1       3.310  -1.313  -3.565  0.00  0.00    -0.057 A 
ATOM     56  C   LIG d   1       3.968  -1.669  -2.402  0.00  0.00    -0.061 A 
ATOM     57  H   LIG d   1       2.897  -2.077  -4.207  0.00  0.00     0.062 H 
ATOM     58  C   LIG d   1       4.492  -0.690  -1.579  0.00  0.00    -0.062 A 
ATOM     59  H   LIG d   1       4.070  -2.710  -2.136  0.00  0.00     0.062 H 
ATOM     60  C   LIG d   1       4.362   0.643  -1.919  0.00  0.00    -0.061 A 
ATOM     61  H   LIG d   1       5.005  -0.967  -0.669  0.00  0.00     0.062 H 
ATOM     62  C   LIG d   1       3.707   0.998  -3.084  0.00  0.00    -0.057 A 
ATOM     63  H   LIG d   1       4.771   1.408  -1.275  0.00  0.00     0.062 H 
ATOM     64  H   LIG d   1       3.605   2.040  -3.350  0.00  0.00     0.062 H 
ENDBRANCH  51  54
ENDBRANCH  49  51
ENDBRANCH  11  49
TORSDOF 7
ENDMDL
MODEL 6
REMARK VINA RESULT:      -6.6      2.960      3.485
REMARK  7 active torsions:
REMARK  status: ('A' for Active; 'I' for Inactive)
REMARK    1  A    between atoms: C_1  and  N_2 
REMARK       I    between atoms: N_5  and  C_8 
REMARK    2  A    between atoms: C_8  and  C_10 
REMARK    3  A    between atoms: C_10  and  C_11 
REMARK    4  A    between atoms: C_11  and  C_12 
REMARK    5  A    between atoms: C_22  and  N_25 
REMARK    6  A    between atoms: N_25  and  C_26 
REMARK    7  A    between atoms: C_26  and  C_27 
ROOT
ATOM      1  C   LIG d   1       4.100  -1.726  -9.704  0.00  0.00    -0.004 C 
ATOM      2  H   LIG d   1       3.148  -1.968 -10.175  0.00  0.00     0.087 H 
ATOM      3  C   LIG d   1       5.102  -1.250 -10.766  0.00  0.00     0.055 C 
ATOM      4  N   LIG d   1       4.868   0.135 -11.158  0.00  0.00    -0.305 N 
ATOM      5  C   LIG d   1       4.015   0.970 -10.531  0.00  0.00     0.262 C 
ATOM      6  O   LIG d   1       3.951   2.139 -10.849  0.00  0.00    -0.270 OA
ATOM      7  C   LIG d   1       3.150   0.432  -9.438  0.00  0.00     0.059 C 
ATOM      8  H   LIG d   1       2.223   0.033  -9.850  0.00  0.00     0.095 H 
ATOM      9  N   LIG d   1       3.920  -0.641  -8.755  0.00  0.00     0.248 N 
ATOM     10  C   LIG d   1       3.177  -0.922  -7.531  0.00  0.00    -0.015 C 
ATOM     11  C   LIG d   1       2.519   0.422  -7.126  0.00  0.00     0.054 C 
ATOM     12  H   LIG d   1       1.438   0.305  -7.039  0.00  0.00     0.051 H 
ATOM     13  C   LIG d   1       2.850   1.411  -8.294  0.00  0.00     0.019 C 
ATOM     14  H   LIG d   1       6.112  -1.338 -10.365  0.00  0.00     0.052 H 
ATOM     15  H   LIG d   1       5.015  -1.887 -11.646  0.00  0.00     0.052 H 
ATOM     16  H   LIG d   1       5.359   0.479 -11.921  0.00  0.00     0.149 HD
ATOM     17  H   LIG d   1       2.411  -1.675  -7.719  0.00  0.00     0.083 H 
ATOM     18  H   LIG d   1       3.855  -1.260  -6.748  0.00  0.00     0.083 H 
ATOM     19  H   LIG d   1       3.726   2.014  -8.057  0.00  0.00     0.034 H 
ATOM     20  H   LIG d   1       1.996   2.044  -8.536  0.00  0.00     0.034 H 
ATOM     21  H   LIG d   1       4.824  -0.277  -8.497  0.00  0.00     0.204 HD
ENDROOT
BRANCH   1  22
ATOM     22  C   LIG d   1       4.652  -2.959  -8.985  0.00  0.00     0.000 C 
ATOM     23  H   LIG d   1       4.417  -3.853  -9.563  0.00  0.00     0.033 H 
ATOM     24  H   LIG d   1       4.199  -3.036  -7.997  0.00  0.00     0.033 H 
BRANCH  22  25
ATOM     25  C   LIG d   1       6.170  -2.829  -8.840  0.00  0.00     0.029 C 
ATOM     26  H   LIG d   1       6.541  -2.092  -9.553  0.00  0.00     0.036 H 
ATOM     27  H   LIG d   1       6.638  -3.794  -9.039  0.00  0.00     0.036 H 
BRANCH  25  28
ATOM     28  C   LIG d   1       6.505  -2.386  -7.439  0.00  0.00     0.216 C 
ATOM     29  N   LIG d   1       6.711  -3.303  -6.474  0.00  0.00    -0.291 N 
ATOM     30  C   LIG d   1       7.040  -2.894  -5.100  0.00  0.00     0.055 C 
ATOM     31  C   LIG d   1       6.615  -4.742  -6.765  0.00  0.00     0.055 C 
ATOM     32  C   LIG d   1       8.280  -3.670  -4.645  0.00  0.00    -0.016 C 
ATOM     33  H   LIG d   1       6.203  -3.122  -4.439  0.00  0.00     0.052 H 
ATOM     34  H   LIG d   1       7.248  -1.824  -5.076  0.00  0.00     0.052 H 
ATOM     35  N   LIG d   1       8.043  -5.109  -4.808  0.00  0.00     0.235 N 
ATOM     36  H   LIG d   1       8.481  -3.451  -3.596  0.00  0.00     0.083 H 
ATOM     37  H   LIG d   1       9.137  -3.372  -5.250  0.00  0.00     0.083 H 
ATOM     38  C   LIG d   1       7.876  -5.431  -6.231  0.00  0.00    -0.016 C 
ATOM     39  H   LIG d   1       7.207  -5.370  -4.305  0.00  0.00     0.203 HD
ATOM     40  H   LIG d   1       8.745  -5.080  -6.787  0.00  0.00     0.083 H 
ATOM     41  H   LIG d   1       7.778  -6.509  -6.351  0.00  0.00     0.083 H 
ATOM     42  H   LIG d   1       5.735  -5.157  -6.272  0.00  0.00     0.052 H 
ATOM     43  H   LIG d   1       6.542  -4.894  -7.841  0.00  0.00     0.052 H 
ATOM     44  O   LIG d   1       6.589  -1.204  -7.181  0.00  0.00    -0.276 OA
BRANCH  35  45
ATOM     45  C   LIG d   1       9.187  -5.857  -4.271  0.00  0.00    -0.043 C 
ATOM     46  H   LIG d   1       9.237  -6.836  -4.747  0.00  0.00     0.078 H 
ATOM     47  H   LIG d   1      10.108  -5.307  -4.473  0.00  0.00     0.078 H 
ATOM     48  H   LIG d   1       9.068  -5.981  -3.195  0.00  0.00     0.078 H 
ENDBRANCH  35  45
ENDBRANCH  25  28
ENDBRANCH  22  25
ENDBRANCH   1  22
BRANCH  11  49
ATOM     49  N   LIG d   1       3.083   0.907  -5.859  0.00  0.00    -0.304 N 
ATOM     50  H   LIG d   1       4.021   0.560  -5.725  0.00  0.00     0.123 HD
BRANCH  49  51
ATOM     51  C   LIG d   1       2.222   0.544  -4.726  0.00  0.00     0.022 C 
ATOM     52  H   LIG d   1       1.677   1.424  -4.385  0.00  0.00     0.047 H 
ATOM     53  H   LIG d   1       1.514  -0.223  -5.039  0.00  0.00     0.047 H 
BRANCH  51  54
ATOM     54  C   LIG d   1       3.071   0.013  -3.599  0.00  0.00    -0.034 A 
ATOM     55  C   LIG d   1       3.150  -1.349  -3.376  0.00  0.00    -0.057 A 
ATOM     56  C   LIG d   1       3.932  -1.837  -2.345  0.00  0.00    -0.061 A 
ATOM     57  H   LIG d   1       2.602  -2.032  -4.009  0.00  0.00     0.062 H 
ATOM     58  C   LIG d   1       4.628  -0.962  -1.533  0.00  0.00    -0.062 A 
ATOM     59  H   LIG d   1       3.996  -2.901  -2.173  0.00  0.00     0.062 H 
ATOM     60  C   LIG d   1       4.546   0.401  -1.753  0.00  0.00    -0.061 A 
ATOM     61  H   LIG d   1       5.238  -1.342  -0.726  0.00  0.00     0.062 H 
ATOM     62  C   LIG d   1       3.767   0.887  -2.786  0.00  0.00    -0.057 A 
ATOM     63  H   LIG d   1       5.089   1.084  -1.118  0.00  0.00     0.062 H 
ATOM     64  H   LIG d   1       3.702   1.952  -2.959  0.00  0.00     0.062 H 
ENDBRANCH  51  54
ENDBRANCH  49  51
ENDBRANCH  11  49
TORSDOF 7
ENDMDL
MODEL 7
REMARK VINA RESULT:      -6.5      5.394      7.030
REMARK  7 active torsions:
REMARK  status: ('A' for Active; 'I' for Inactive)
REMARK    1  A    between atoms: C_1  and  N_2 
REMARK       I    between atoms: N_5  and  C_8 
REMARK    2  A    between atoms: C_8  and  C_10 
REMARK    3  A    between atoms: C_10  and  C_11 
REMARK    4  A    between atoms: C_11  and  C_12 
REMARK    5  A    between atoms: C_22  and  N_25 
REMARK    6  A    between atoms: N_25  and  C_26 
REMARK    7  A    between atoms: C_26  and  C_27 
ROOT
ATOM      1  C   LIG d   1      10.249   4.748  -6.151  0.00  0.00    -0.004 C 
ATOM      2  H   LIG d   1      11.220   4.310  -6.380  0.00  0.00     0.087 H 
ATOM      3  C   LIG d   1       9.914   5.841  -7.176  0.00  0.00     0.055 C 
ATOM      4  N   LIG d   1       9.439   5.284  -8.437  0.00  0.00    -0.305 N 
ATOM      5  C   LIG d   1       9.132   3.985  -8.627  0.00  0.00     0.262 C 
ATOM      6  O   LIG d   1       8.643   3.615  -9.674  0.00  0.00    -0.270 OA
ATOM      7  C   LIG d   1       9.405   3.010  -7.529  0.00  0.00     0.059 C 
ATOM      8  H   LIG d   1      10.422   2.628  -7.605  0.00  0.00     0.095 H 
ATOM      9  N   LIG d   1       9.215   3.732  -6.242  0.00  0.00     0.248 N 
ATOM     10  C   LIG d   1       9.191   2.689  -5.222  0.00  0.00    -0.015 C 
ATOM     11  C   LIG d   1       8.580   1.443  -5.913  0.00  0.00     0.054 C 
ATOM     12  H   LIG d   1       9.261   0.596  -5.840  0.00  0.00     0.051 H 
ATOM     13  C   LIG d   1       8.404   1.851  -7.415  0.00  0.00     0.019 C 
ATOM     14  H   LIG d   1       9.141   6.490  -6.762  0.00  0.00     0.052 H 
ATOM     15  H   LIG d   1      10.808   6.435  -7.365  0.00  0.00     0.052 H 
ATOM     16  H   LIG d   1       9.337   5.888  -9.189  0.00  0.00     0.149 HD
ATOM     17  H   LIG d   1      10.203   2.472  -4.881  0.00  0.00     0.083 H 
ATOM     18  H   LIG d   1       8.567   2.998  -4.383  0.00  0.00     0.083 H 
ATOM     19  H   LIG d   1       7.388   2.193  -7.609  0.00  0.00     0.034 H 
ATOM     20  H   LIG d   1       8.675   1.035  -8.085  0.00  0.00     0.034 H 
ATOM     21  H   LIG d   1       8.312   4.181  -6.253  0.00  0.00     0.204 HD
ENDROOT
BRANCH   1  22
ATOM     22  C   LIG d   1      10.268   5.344  -4.742  0.00  0.00     0.000 C 
ATOM     23  H   LIG d   1      11.300   5.465  -4.412  0.00  0.00     0.033 H 
ATOM     24  H   LIG d   1       9.744   4.677  -4.058  0.00  0.00     0.033 H 
BRANCH  22  25
ATOM     25  C   LIG d   1       9.573   6.707  -4.755  0.00  0.00     0.029 C 
ATOM     26  H   LIG d   1       8.499   6.566  -4.878  0.00  0.00     0.036 H 
ATOM     27  H   LIG d   1       9.958   7.303  -5.583  0.00  0.00     0.036 H 
BRANCH  25  28
ATOM     28  C   LIG d   1       9.841   7.420  -3.455  0.00  0.00     0.216 C 
ATOM     29  N   LIG d   1      10.073   8.748  -3.449  0.00  0.00    -0.291 N 
ATOM     30  C   LIG d   1      10.336   9.465  -2.192  0.00  0.00     0.055 C 
ATOM     31  C   LIG d   1      10.069   9.521  -4.701  0.00  0.00     0.055 C 
ATOM     32  C   LIG d   1       9.413  10.685  -2.126  0.00  0.00    -0.016 C 
ATOM     33  H   LIG d   1      11.376   9.790  -2.167  0.00  0.00     0.052 H 
ATOM     34  H   LIG d   1      10.135   8.807  -1.347  0.00  0.00     0.052 H 
ATOM     35  N   LIG d   1       9.590  11.498  -3.336  0.00  0.00     0.235 N 
ATOM     36  H   LIG d   1       9.661  11.281  -1.248  0.00  0.00     0.083 H 
ATOM     37  H   LIG d   1       8.376  10.354  -2.060  0.00  0.00     0.083 H 
ATOM     38  C   LIG d   1       9.158  10.740  -4.516  0.00  0.00    -0.016 C 
ATOM     39  H   LIG d   1      10.565  11.744  -3.433  0.00  0.00     0.203 HD
ATOM     40  H   LIG d   1       8.130  10.407  -4.378  0.00  0.00     0.083 H 
ATOM     41  H   LIG d   1       9.219  11.375  -5.399  0.00  0.00     0.083 H 
ATOM     42  H   LIG d   1      11.082   9.853  -4.929  0.00  0.00     0.052 H 
ATOM     43  H   LIG d   1       9.691   8.901  -5.514  0.00  0.00     0.052 H 
ATOM     44  O   LIG d   1       9.847   6.799  -2.412  0.00  0.00    -0.276 OA
BRANCH  35  45
ATOM     45  C   LIG d   1       8.788  12.723  -3.223  0.00  0.00    -0.043 C 
ATOM     46  H   LIG d   1       7.847  12.496  -2.721  0.00  0.00     0.078 H 
ATOM     47  H   LIG d   1       9.338  13.466  -2.645  0.00  0.00     0.078 H 
ATOM     48  H   LIG d   1       8.583  13.116  -4.218  0.00  0.00     0.078 H 
ENDBRANCH  35  45
ENDBRANCH  25  28
ENDBRANCH  22  25
ENDBRANCH   1  22
BRANCH  11  49
ATOM     49  N   LIG d   1       7.282   1.109  -5.310  0.00  0.00    -0.304 N 
ATOM     50  H   LIG d   1       6.532   1.598  -5.774  0.00  0.00     0.123 HD
BRANCH  49  51
ATOM     51  C   LIG d   1       7.283   1.391  -3.869  0.00  0.00     0.022 C 
ATOM     52  H   LIG d   1       8.256   1.138  -3.448  0.00  0.00     0.047 H 
ATOM     53  H   LIG d   1       7.081   2.450  -3.706  0.00  0.00     0.047 H 
BRANCH  51  54
ATOM     54  C   LIG d   1       6.215   0.568  -3.195  0.00  0.00    -0.034 A 
ATOM     55  C   LIG d   1       6.223  -0.809  -3.319  0.00  0.00    -0.057 A 
ATOM     56  C   LIG d   1       5.246  -1.565  -2.698  0.00  0.00    -0.061 A 
ATOM     57  H   LIG d   1       6.994  -1.294  -3.900  0.00  0.00     0.062 H 
ATOM     58  C   LIG d   1       4.257  -0.943  -1.960  0.00  0.00    -0.062 A 
ATOM     59  H   LIG d   1       5.254  -2.641  -2.792  0.00  0.00     0.062 H 
ATOM     60  C   LIG d   1       4.246   0.434  -1.840  0.00  0.00    -0.061 A 
ATOM     61  H   LIG d   1       3.492  -1.533  -1.476  0.00  0.00     0.062 H 
ATOM     62  C   LIG d   1       5.225   1.189  -2.458  0.00  0.00    -0.057 A 
ATOM     63  H   LIG d   1       3.473   0.920  -1.263  0.00  0.00     0.062 H 
ATOM     64  H   LIG d   1       5.217   2.266  -2.363  0.00  0.00     0.062 H 
ENDBRANCH  51  54
ENDBRANCH  49  51
ENDBRANCH  11  49
TORSDOF 7
ENDMDL
MODEL 8
REMARK VINA RESULT:      -6.4      2.481      7.333
REMARK  7 active torsions:
REMARK  status: ('A' for Active; 'I' for Inactive)
REMARK    1  A    between atoms: C_1  and  N_2 
REMARK       I    between atoms: N_5  and  C_8 
REMARK    2  A    between atoms: C_8  and  C_10 
REMARK    3  A    between atoms: C_10  and  C_11 
REMARK    4  A    between atoms: C_11  and  C_12 
REMARK    5  A    between atoms: C_22  and  N_25 
REMARK    6  A    between atoms: N_25  and  C_26 
REMARK    7  A    between atoms: C_26  and  C_27 
ROOT
ATOM      1  C   LIG d   1       3.849  -0.433  -5.685  0.00  0.00    -0.004 C 
ATOM      2  H   LIG d   1       3.543  -1.397  -5.278  0.00  0.00     0.087 H 
ATOM      3  C   LIG d   1       2.719   0.591  -5.504  0.00  0.00     0.055 C 
ATOM      4  N   LIG d   1       2.663   1.109  -4.142  0.00  0.00    -0.305 N 
ATOM      5  C   LIG d   1       3.602   0.883  -3.201  0.00  0.00     0.262 C 
ATOM      6  O   LIG d   1       3.538   1.434  -2.123  0.00  0.00    -0.270 OA
ATOM      7  C   LIG d   1       4.720  -0.058  -3.510  0.00  0.00     0.059 C 
ATOM      8  H   LIG d   1       4.436  -1.080  -3.261  0.00  0.00     0.095 H 
ATOM      9  N   LIG d   1       5.008   0.062  -4.965  0.00  0.00     0.248 N 
ATOM     10  C   LIG d   1       6.279  -0.629  -5.158  0.00  0.00    -0.015 C 
ATOM     11  C   LIG d   1       7.065  -0.434  -3.836  0.00  0.00     0.054 C 
ATOM     12  H   LIG d   1       7.346  -1.400  -3.416  0.00  0.00     0.051 H 
ATOM     13  C   LIG d   1       6.070   0.294  -2.870  0.00  0.00     0.019 C 
ATOM     14  H   LIG d   1       2.881   1.422  -6.192  0.00  0.00     0.052 H 
ATOM     15  H   LIG d   1       1.768   0.116  -5.742  0.00  0.00     0.052 H 
ATOM     16  H   LIG d   1       1.898   1.654  -3.897  0.00  0.00     0.149 HD
ATOM     17  H   LIG d   1       6.107  -1.690  -5.342  0.00  0.00     0.083 H 
ATOM     18  H   LIG d   1       6.826  -0.185  -5.990  0.00  0.00     0.083 H 
ATOM     19  H   LIG d   1       6.238   1.370  -2.878  0.00  0.00     0.034 H 
ATOM     20  H   LIG d   1       6.136  -0.103  -1.856  0.00  0.00     0.034 H 
ATOM     21  H   LIG d   1       5.143   1.036  -5.188  0.00  0.00     0.204 HD
ENDROOT
BRANCH   1  22
ATOM     22  C   LIG d   1       4.185  -0.580  -7.171  0.00  0.00     0.000 C 
ATOM     23  H   LIG d   1       3.853  -1.557  -7.524  0.00  0.00     0.033 H 
ATOM     24  H   LIG d   1       5.261  -0.490  -7.310  0.00  0.00     0.033 H 
BRANCH  22  25
ATOM     25  C   LIG d   1       3.474   0.518  -7.965  0.00  0.00     0.029 C 
ATOM     26  H   LIG d   1       4.207   1.248  -8.311  0.00  0.00     0.036 H 
ATOM     27  H   LIG d   1       2.742   1.013  -7.326  0.00  0.00     0.036 H 
BRANCH  25  28
ATOM     28  C   LIG d   1       2.775  -0.092  -9.152  0.00  0.00     0.216 C 
ATOM     29  N   LIG d   1       3.269   0.088 -10.392  0.00  0.00    -0.291 N 
ATOM     30  C   LIG d   1       2.603  -0.499 -11.565  0.00  0.00     0.055 C 
ATOM     31  C   LIG d   1       4.492   0.876 -10.611  0.00  0.00     0.055 C 
ATOM     32  C   LIG d   1       3.649  -1.254 -12.391  0.00  0.00    -0.016 C 
ATOM     33  H   LIG d   1       2.161   0.293 -12.170  0.00  0.00     0.052 H 
ATOM     34  H   LIG d   1       1.827  -1.190 -11.237  0.00  0.00     0.052 H 
ATOM     35  N   LIG d   1       4.761  -0.351 -12.715  0.00  0.00     0.235 N 
ATOM     36  H   LIG d   1       3.194  -1.614 -13.314  0.00  0.00     0.083 H 
ATOM     37  H   LIG d   1       4.025  -2.101 -11.816  0.00  0.00     0.083 H 
ATOM     38  C   LIG d   1       5.449   0.056 -11.483  0.00  0.00    -0.016 C 
ATOM     39  H   LIG d   1       4.402   0.467 -13.184  0.00  0.00     0.203 HD
ATOM     40  H   LIG d   1       5.770  -0.830 -10.936  0.00  0.00     0.083 H 
ATOM     41  H   LIG d   1       6.319   0.662 -11.736  0.00  0.00     0.083 H 
ATOM     42  H   LIG d   1       4.241   1.807 -11.120  0.00  0.00     0.052 H 
ATOM     43  H   LIG d   1       4.964   1.094  -9.654  0.00  0.00     0.052 H 
ATOM     44  O   LIG d   1       1.765  -0.746  -8.991  0.00  0.00    -0.276 OA
BRANCH  35  45
ATOM     45  C   LIG d   1       5.710  -1.042 -13.597  0.00  0.00    -0.043 C 
ATOM     46  H   LIG d   1       5.181  -1.427 -14.470  0.00  0.00     0.078 H 
ATOM     47  H   LIG d   1       6.482  -0.342 -13.920  0.00  0.00     0.078 H 
ATOM     48  H   LIG d   1       6.173  -1.869 -13.059  0.00  0.00     0.078 H 
ENDBRANCH  35  45
ENDBRANCH  25  28
ENDBRANCH  22  25
ENDBRANCH   1  22
BRANCH  11  49
ATOM     49  N   LIG d   1       8.260   0.388  -4.068  0.00  0.00    -0.304 N 
ATOM     50  H   LIG d   1       9.029   0.076  -3.495  0.00  0.00     0.123 HD
BRANCH  49  51
ATOM     51  C   LIG d   1       7.974   1.810  -3.836  0.00  0.00     0.022 C 
ATOM     52  H   LIG d   1       6.896   1.972  -3.852  0.00  0.00     0.047 H 
ATOM     53  H   LIG d   1       8.372   2.108  -2.867  0.00  0.00     0.047 H 
BRANCH  51  54
ATOM     54  C   LIG d   1       8.620   2.635  -4.919  0.00  0.00    -0.034 A 
ATOM     55  C   LIG d   1       9.159   3.872  -4.617  0.00  0.00    -0.057 A 
ATOM     56  C   LIG d   1       9.756   4.627  -5.610  0.00  0.00    -0.061 A 
ATOM     57  H   LIG d   1       9.116   4.246  -3.605  0.00  0.00     0.062 H 
ATOM     58  C   LIG d   1       9.806   4.149  -6.905  0.00  0.00    -0.062 A 
ATOM     59  H   LIG d   1      10.180   5.592  -5.373  0.00  0.00     0.062 H 
ATOM     60  C   LIG d   1       9.263   2.915  -7.209  0.00  0.00    -0.061 A 
ATOM     61  H   LIG d   1      10.270   4.740  -7.682  0.00  0.00     0.062 H 
ATOM     62  C   LIG d   1       8.670   2.158  -6.216  0.00  0.00    -0.057 A 
ATOM     63  H   LIG d   1       9.301   2.542  -8.222  0.00  0.00     0.062 H 
ATOM     64  H   LIG d   1       8.245   1.193  -6.453  0.00  0.00     0.062 H 
ENDBRANCH  51  54
ENDBRANCH  49  51
ENDBRANCH  11  49
TORSDOF 7
ENDMDL
MODEL 9
REMARK VINA RESULT:      -6.3      5.119      8.028
REMARK  7 active torsions:
REMARK  status: ('A' for Active; 'I' for Inactive)
REMARK    1  A    between atoms: C_1  and  N_2 
REMARK       I    between atoms: N_5  and  C_8 
REMARK    2  A    between atoms: C_8  and  C_10 
REMARK    3  A    between atoms: C_10  and  C_11 
REMARK    4  A    between atoms: C_11  and  C_12 
REMARK    5  A    between atoms: C_22  and  N_25 
REMARK    6  A    between atoms: N_25  and  C_26 
REMARK    7  A    between atoms: C_26  and  C_27 
ROOT
ATOM      1  C   LIG d   1       5.095  -2.443  -5.021  0.00  0.00    -0.004 C 
ATOM      2  H   LIG d   1       5.932  -1.782  -4.791  0.00  0.00     0.087 H 
ATOM      3  C   LIG d   1       4.532  -3.043  -3.725  0.00  0.00     0.055 C 
ATOM      4  N   LIG d   1       3.678  -2.101  -3.011  0.00  0.00    -0.305 N 
ATOM      5  C   LIG d   1       3.260  -0.921  -3.511  0.00  0.00     0.262 C 
ATOM      6  O   LIG d   1       2.467  -0.239  -2.899  0.00  0.00    -0.270 OA
ATOM      7  C   LIG d   1       3.792  -0.468  -4.832  0.00  0.00     0.059 C 
ATOM      8  H   LIG d   1       4.720   0.086  -4.697  0.00  0.00     0.095 H 
ATOM      9  N   LIG d   1       4.028  -1.686  -5.653  0.00  0.00     0.248 N 
ATOM     10  C   LIG d   1       4.251  -1.193  -7.008  0.00  0.00    -0.015 C 
ATOM     11  C   LIG d   1       3.398   0.096  -7.128  0.00  0.00     0.054 C 
ATOM     12  H   LIG d   1       4.025   0.941  -7.413  0.00  0.00     0.051 H 
ATOM     13  C   LIG d   1       2.810   0.334  -5.696  0.00  0.00     0.019 C 
ATOM     14  H   LIG d   1       3.951  -3.933  -3.970  0.00  0.00     0.052 H 
ATOM     15  H   LIG d   1       5.361  -3.331  -3.079  0.00  0.00     0.052 H 
ATOM     16  H   LIG d   1       3.391  -2.340  -2.115  0.00  0.00     0.149 HD
ATOM     17  H   LIG d   1       5.305  -0.962  -7.157  0.00  0.00     0.083 H 
ATOM     18  H   LIG d   1       3.919  -1.933  -7.737  0.00  0.00     0.083 H 
ATOM     19  H   LIG d   1       1.801  -0.070  -5.618  0.00  0.00     0.034 H 
ATOM     20  H   LIG d   1       2.828   1.391  -5.428  0.00  0.00     0.034 H 
ATOM     21  H   LIG d   1       3.187  -2.243  -5.655  0.00  0.00     0.204 HD
ENDROOT
BRANCH   1  22
ATOM     22  C   LIG d   1       5.560  -3.563  -5.955  0.00  0.00     0.000 C 
ATOM     23  H   LIG d   1       6.500  -3.276  -6.426  0.00  0.00     0.033 H 
ATOM     24  H   LIG d   1       4.806  -3.733  -6.722  0.00  0.00     0.033 H 
BRANCH  22  25
ATOM     25  C   LIG d   1       5.764  -4.847  -5.148  0.00  0.00     0.029 C 
ATOM     26  H   LIG d   1       5.473  -4.675  -4.112  0.00  0.00     0.036 H 
ATOM     27  H   LIG d   1       6.815  -5.137  -5.186  0.00  0.00     0.036 H 
BRANCH  25  28
ATOM     28  C   LIG d   1       4.917  -5.948  -5.733  0.00  0.00     0.216 C 
ATOM     29  N   LIG d   1       5.437  -7.179  -5.903  0.00  0.00    -0.291 N 
ATOM     30  C   LIG d   1       4.629  -8.269  -6.472  0.00  0.00     0.055 C 
ATOM     31  C   LIG d   1       6.828  -7.472  -5.525  0.00  0.00     0.055 C 
ATOM     32  C   LIG d   1       4.743  -9.489  -5.553  0.00  0.00    -0.016 C 
ATOM     33  H   LIG d   1       5.002  -8.522  -7.465  0.00  0.00     0.052 H 
ATOM     34  H   LIG d   1       3.587  -7.956  -6.537  0.00  0.00     0.052 H 
ATOM     35  N   LIG d   1       6.160  -9.823  -5.359  0.00  0.00     0.235 N 
ATOM     36  H   LIG d   1       4.230 -10.336  -6.008  0.00  0.00     0.083 H 
ATOM     37  H   LIG d   1       4.288  -9.263  -4.589  0.00  0.00     0.083 H 
ATOM     38  C   LIG d   1       6.839  -8.731  -4.651  0.00  0.00    -0.016 C 
ATOM     39  H   LIG d   1       6.597  -9.963  -6.258  0.00  0.00     0.203 HD
ATOM     40  H   LIG d   1       6.320  -8.528  -3.714  0.00  0.00     0.083 H 
ATOM     41  H   LIG d   1       7.869  -9.018  -4.441  0.00  0.00     0.083 H 
ATOM     42  H   LIG d   1       7.423  -7.645  -6.422  0.00  0.00     0.052 H 
ATOM     43  H   LIG d   1       7.240  -6.633  -4.964  0.00  0.00     0.052 H 
ATOM     44  O   LIG d   1       3.768  -5.725  -6.050  0.00  0.00    -0.276 OA
BRANCH  35  45
ATOM     45  C   LIG d   1       6.267 -11.057  -4.569  0.00  0.00    -0.043 C 
ATOM     46  H   LIG d   1       5.911 -11.900  -5.161  0.00  0.00     0.078 H 
ATOM     47  H   LIG d   1       7.309 -11.222  -4.291  0.00  0.00     0.078 H 
ATOM     48  H   LIG d   1       5.662 -10.965  -3.667  0.00  0.00     0.078 H 
ENDBRANCH  35  45
ENDBRANCH  25  28
ENDBRANCH  22  25
ENDBRANCH   1  22
BRANCH  11  49
ATOM     49  N   LIG d   1       2.319  -0.093  -8.108  0.00  0.00    -0.304 N 
ATOM     50  H   LIG d   1       2.226  -1.066  -8.359  0.00  0.00     0.123 HD
BRANCH  49  51
ATOM     51  C   LIG d   1       2.538   0.740  -9.298  0.00  0.00     0.022 C 
ATOM     52  H   LIG d   1       1.770   1.512  -9.348  0.00  0.00     0.047 H 
ATOM     53  H   LIG d   1       3.520   1.208  -9.239  0.00  0.00     0.047 H 
BRANCH  51  54
ATOM     54  C   LIG d   1       2.466  -0.121 -10.533  0.00  0.00    -0.034 A 
ATOM     55  C   LIG d   1       3.519  -0.135 -11.428  0.00  0.00    -0.057 A 
ATOM     56  C   LIG d   1       3.455  -0.928 -12.559  0.00  0.00    -0.061 A 
ATOM     57  H   LIG d   1       4.394   0.471 -11.241  0.00  0.00     0.062 H 
ATOM     58  C   LIG d   1       2.334  -1.699 -12.799  0.00  0.00    -0.062 A 
ATOM     59  H   LIG d   1       4.280  -0.942 -13.256  0.00  0.00     0.062 H 
ATOM     60  C   LIG d   1       1.278  -1.681 -11.907  0.00  0.00    -0.061 A 
ATOM     61  H   LIG d   1       2.283  -2.317 -13.684  0.00  0.00     0.062 H 
ATOM     62  C   LIG d   1       1.344  -0.892 -10.774  0.00  0.00    -0.057 A 
ATOM     63  H   LIG d   1       0.402  -2.284 -12.095  0.00  0.00     0.062 H 
ATOM     64  H   LIG d   1       0.519  -0.878 -10.077  0.00  0.00     0.062 H 
ENDBRANCH  51  54
ENDBRANCH  49  51
ENDBRANCH  11  49
TORSDOF 7
ENDMDL
