MODEL 1
REMARK VINA RESULT:      -7.3      0.000      0.000
REMARK  9 active torsions:
REMARK  status: ('A' for Active; 'I' for Inactive)
REMARK    1  A    between atoms: C_1  and  O_2 
REMARK    2  A    between atoms: O_2  and  C_3 
REMARK    3  A    between atoms: C_7  and  C_11 
REMARK    4  A    between atoms: C_8  and  O_9 
REMARK    5  A    between atoms: O_9  and  C_10 
REMARK    6  A    between atoms: C_18  and  O_22 
REMARK    7  A    between atoms: O_22  and  C_23 
REMARK       I    between atoms: C_23  and  N_25 
REMARK    8  A    between atoms: N_25  and  C_26 
REMARK    9  A    between atoms: N_25  and  C_32 
ROOT
ATOM      1  C   LIG d   1       5.901  -9.643  -5.387  0.00  0.00    -0.005 C 
ATOM      2  C   LIG d   1       5.434  -8.499  -5.949  0.00  0.00     0.176 A 
ATOM      3  C   LIG d   1       4.692  -8.393  -7.213  0.00  0.00     0.232 A 
ATOM      4  O   LIG d   1       4.371  -9.295  -7.969  0.00  0.00    -0.283 OA
ATOM      5  C   LIG d   1       4.424  -6.951  -7.365  0.00  0.00     0.068 A 
ATOM      6  C   LIG d   1       3.769  -6.199  -8.341  0.00  0.00    -0.044 A 
ATOM      7  C   LIG d   1       3.675  -4.843  -8.207  0.00  0.00    -0.018 A 
ATOM      8  C   LIG d   1       4.233  -4.209  -7.100  0.00  0.00     0.137 A 
ATOM      9  C   LIG d   1       4.887  -4.942  -6.124  0.00  0.00     0.024 A 
ATOM     10  C   LIG d   1       4.991  -6.323  -6.244  0.00  0.00     0.143 A 
ATOM     11  O   LIG d   1       5.561  -7.249  -5.444  0.00  0.00    -0.451 OA
ATOM     12  H   LIG d   1       5.828 -10.577  -5.924  0.00  0.00     0.066 H 
ATOM     13  H   LIG d   1       3.335  -6.689  -9.201  0.00  0.00     0.063 H 
ATOM     14  H   LIG d   1       3.168  -4.260  -8.962  0.00  0.00     0.065 H 
ATOM     15  H   LIG d   1       5.316  -4.441  -5.269  0.00  0.00     0.069 H 
ENDROOT
BRANCH   8  16
ATOM     16  O   LIG d   1       4.136  -2.860  -6.976  0.00  0.00    -0.411 OA
BRANCH  16  17
ATOM     17  C   LIG d   1       5.288  -2.162  -6.959  0.00  0.00     0.417 C 
ATOM     18  O   LIG d   1       6.064  -2.247  -7.890  0.00  0.00    -0.225 OA
ATOM     19  N   LIG d   1       5.582  -1.372  -5.907  0.00  0.00    -0.206 N 
BRANCH  19  20
ATOM     20  C   LIG d   1       6.759  -0.615  -5.908  0.00  0.00     0.044 A 
ATOM     21  C   LIG d   1       6.827   0.566  -6.635  0.00  0.00    -0.040 A 
ATOM     22  C   LIG d   1       7.989   1.311  -6.633  0.00  0.00    -0.060 A 
ATOM     23  H   LIG d   1       5.971   0.902  -7.201  0.00  0.00     0.064 H 
ATOM     24  C   LIG d   1       9.086   0.882  -5.908  0.00  0.00    -0.062 A 
ATOM     25  H   LIG d   1       8.042   2.230  -7.199  0.00  0.00     0.062 H 
ATOM     26  C   LIG d   1       9.022  -0.293  -5.182  0.00  0.00    -0.060 A 
ATOM     27  H   LIG d   1       9.994   1.467  -5.908  0.00  0.00     0.062 H 
ATOM     28  C   LIG d   1       7.861  -1.040  -5.176  0.00  0.00    -0.040 A 
ATOM     29  H   LIG d   1       9.881  -0.625  -4.617  0.00  0.00     0.062 H 
ATOM     30  H   LIG d   1       7.810  -1.956  -4.605  0.00  0.00     0.064 H 
ENDBRANCH  19  20
BRANCH  19  31
ATOM     31  C   LIG d   1       4.709  -1.309  -4.814  0.00  0.00     0.044 A 
ATOM     32  C   LIG d   1       4.842  -2.207  -3.763  0.00  0.00    -0.040 A 
ATOM     33  C   LIG d   1       3.980  -2.142  -2.688  0.00  0.00    -0.060 A 
ATOM     34  H   LIG d   1       5.620  -2.957  -3.789  0.00  0.00     0.064 H 
ATOM     35  C   LIG d   1       2.984  -1.182  -2.653  0.00  0.00    -0.062 A 
ATOM     36  H   LIG d   1       4.083  -2.841  -1.870  0.00  0.00     0.062 H 
ATOM     37  C   LIG d   1       2.849  -0.286  -3.698  0.00  0.00    -0.060 A 
ATOM     38  H   LIG d   1       2.311  -1.133  -1.811  0.00  0.00     0.062 H 
ATOM     39  C   LIG d   1       3.712  -0.343  -4.775  0.00  0.00    -0.040 A 
ATOM     40  H   LIG d   1       2.072   0.463  -3.669  0.00  0.00     0.062 H 
ATOM     41  H   LIG d   1       3.609   0.360  -5.588  0.00  0.00     0.064 H 
ENDBRANCH  19  31
ENDBRANCH  16  17
ENDBRANCH   8  16
BRANCH   1  42
ATOM     42  C   LIG d   1       6.505  -9.610  -4.050  0.00  0.00     0.024 A 
ATOM     43  C   LIG d   1       7.691  -8.898  -3.830  0.00  0.00    -0.051 A 
ATOM     44  C   LIG d   1       8.254  -8.870  -2.573  0.00  0.00    -0.058 A 
ATOM     45  H   LIG d   1       8.164  -8.370  -4.646  0.00  0.00     0.062 H 
ATOM     46  C   LIG d   1       7.654  -9.543  -1.522  0.00  0.00    -0.016 A 
ATOM     47  H   LIG d   1       9.166  -8.316  -2.405  0.00  0.00     0.062 H 
ATOM     48  C   LIG d   1       6.481 -10.254  -1.722  0.00  0.00     0.162 A 
ATOM     49  H   LIG d   1       8.103  -9.516  -0.540  0.00  0.00     0.066 H 
ATOM     50  C   LIG d   1       5.898 -10.293  -2.984  0.00  0.00     0.169 A 
BRANCH  48  51
ATOM     51  O   LIG d   1       5.899 -10.912  -0.685  0.00  0.00    -0.491 OA
BRANCH  51  52
ATOM     52  C   LIG d   1       6.319 -12.258  -0.452  0.00  0.00     0.079 C 
ATOM     53  H   LIG d   1       5.668 -12.720   0.290  0.00  0.00     0.066 H 
ATOM     54  H   LIG d   1       6.266 -12.822  -1.383  0.00  0.00     0.066 H 
ATOM     55  H   LIG d   1       7.346 -12.260  -0.085  0.00  0.00     0.066 H 
ENDBRANCH  51  52
ENDBRANCH  48  51
BRANCH  50  56
ATOM     56  O   LIG d   1       4.750 -10.988  -3.185  0.00  0.00    -0.491 OA
BRANCH  56  57
ATOM     57  C   LIG d   1       3.525 -10.254  -3.108  0.00  0.00     0.079 C 
ATOM     58  H   LIG d   1       3.725  -9.253  -2.726  0.00  0.00     0.066 H 
ATOM     59  H   LIG d   1       3.083 -10.181  -4.102  0.00  0.00     0.066 H 
ATOM     60  H   LIG d   1       2.834 -10.767  -2.440  0.00  0.00     0.066 H 
ENDBRANCH  56  57
ENDBRANCH  50  56
ENDBRANCH   1  42
TORSDOF 9
ENDMDL
MODEL 2
REMARK VINA RESULT:      -7.3      5.708     11.555
REMARK  9 active torsions:
REMARK  status: ('A' for Active; 'I' for Inactive)
REMARK    1  A    between atoms: C_1  and  O_2 
REMARK    2  A    between atoms: O_2  and  C_3 
REMARK    3  A    between atoms: C_7  and  C_11 
REMARK    4  A    between atoms: C_8  and  O_9 
REMARK    5  A    between atoms: O_9  and  C_10 
REMARK    6  A    between atoms: C_18  and  O_22 
REMARK    7  A    between atoms: O_22  and  C_23 
REMARK       I    between atoms: C_23  and  N_25 
REMARK    8  A    between atoms: N_25  and  C_26 
REMARK    9  A    between atoms: N_25  and  C_32 
ROOT
ATOM      1  C   LIG d   1      11.765   5.117  -3.477  0.00  0.00    -0.005 C 
ATOM      2  C   LIG d   1      11.042   4.107  -4.027  0.00  0.00     0.176 A 
ATOM      3  C   LIG d   1      11.394   3.344  -5.233  0.00  0.00     0.232 A 
ATOM      4  O   LIG d   1      12.378   3.479  -5.941  0.00  0.00    -0.283 OA
ATOM      5  C   LIG d   1      10.291   2.380  -5.395  0.00  0.00     0.068 A 
ATOM      6  C   LIG d   1      10.025   1.382  -6.334  0.00  0.00    -0.044 A 
ATOM      7  C   LIG d   1       8.893   0.627  -6.223  0.00  0.00    -0.018 A 
ATOM      8  C   LIG d   1       8.002   0.851  -5.177  0.00  0.00     0.137 A 
ATOM      9  C   LIG d   1       8.252   1.837  -4.238  0.00  0.00     0.024 A 
ATOM     10  C   LIG d   1       9.400   2.615  -4.335  0.00  0.00     0.143 A 
ATOM     11  O   LIG d   1       9.870   3.617  -3.561  0.00  0.00    -0.451 OA
ATOM     12  H   LIG d   1      12.640   5.494  -3.986  0.00  0.00     0.066 H 
ATOM     13  H   LIG d   1      10.715   1.207  -7.147  0.00  0.00     0.063 H 
ATOM     14  H   LIG d   1       8.686  -0.145  -6.950  0.00  0.00     0.065 H 
ATOM     15  H   LIG d   1       7.556   2.003  -3.429  0.00  0.00     0.069 H 
ENDROOT
BRANCH   8  16
ATOM     16  O   LIG d   1       6.878   0.095  -5.076  0.00  0.00    -0.411 OA
BRANCH  16  17
ATOM     17  C   LIG d   1       6.053   0.081  -6.141  0.00  0.00     0.417 C 
ATOM     18  O   LIG d   1       6.416   0.560  -7.197  0.00  0.00    -0.225 OA
ATOM     19  N   LIG d   1       4.823  -0.461  -6.033  0.00  0.00    -0.206 N 
BRANCH  19  20
ATOM     20  C   LIG d   1       3.982  -0.514  -7.151  0.00  0.00     0.044 A 
ATOM     21  C   LIG d   1       3.243   0.602  -7.520  0.00  0.00    -0.040 A 
ATOM     22  C   LIG d   1       2.415   0.546  -8.624  0.00  0.00    -0.060 A 
ATOM     23  H   LIG d   1       3.317   1.513  -6.945  0.00  0.00     0.064 H 
ATOM     24  C   LIG d   1       2.321  -0.619  -9.362  0.00  0.00    -0.062 A 
ATOM     25  H   LIG d   1       1.840   1.414  -8.911  0.00  0.00     0.062 H 
ATOM     26  C   LIG d   1       3.056  -1.733  -8.997  0.00  0.00    -0.060 A 
ATOM     27  H   LIG d   1       1.673  -0.660 -10.224  0.00  0.00     0.062 H 
ATOM     28  C   LIG d   1       3.889  -1.683  -7.897  0.00  0.00    -0.040 A 
ATOM     29  H   LIG d   1       2.980  -2.642  -9.576  0.00  0.00     0.062 H 
ATOM     30  H   LIG d   1       4.467  -2.551  -7.616  0.00  0.00     0.064 H 
ENDBRANCH  19  20
BRANCH  19  31
ATOM     31  C   LIG d   1       4.389  -0.973  -4.804  0.00  0.00     0.044 A 
ATOM     32  C   LIG d   1       4.727  -2.267  -4.431  0.00  0.00    -0.040 A 
ATOM     33  C   LIG d   1       4.297  -2.768  -3.219  0.00  0.00    -0.060 A 
ATOM     34  H   LIG d   1       5.327  -2.880  -5.088  0.00  0.00     0.064 H 
ATOM     35  C   LIG d   1       3.530  -1.984  -2.376  0.00  0.00    -0.062 A 
ATOM     36  H   LIG d   1       4.560  -3.775  -2.927  0.00  0.00     0.062 H 
ATOM     37  C   LIG d   1       3.192  -0.695  -2.745  0.00  0.00    -0.060 A 
ATOM     38  H   LIG d   1       3.195  -2.378  -1.428  0.00  0.00     0.062 H 
ATOM     39  C   LIG d   1       3.623  -0.186  -3.954  0.00  0.00    -0.040 A 
ATOM     40  H   LIG d   1       2.594  -0.084  -2.086  0.00  0.00     0.062 H 
ATOM     41  H   LIG d   1       3.362   0.823  -4.240  0.00  0.00     0.064 H 
ENDBRANCH  19  31
ENDBRANCH  16  17
ENDBRANCH   8  16
BRANCH   1  42
ATOM     42  C   LIG d   1      11.358   5.695  -2.191  0.00  0.00     0.024 A 
ATOM     43  C   LIG d   1      12.021   5.329  -1.012  0.00  0.00    -0.051 A 
ATOM     44  C   LIG d   1      11.636   5.875   0.192  0.00  0.00    -0.058 A 
ATOM     45  H   LIG d   1      12.835   4.619  -1.048  0.00  0.00     0.062 H 
ATOM     46  C   LIG d   1      10.593   6.785   0.246  0.00  0.00    -0.016 A 
ATOM     47  H   LIG d   1      12.151   5.595   1.098  0.00  0.00     0.062 H 
ATOM     48  C   LIG d   1       9.925   7.157  -0.910  0.00  0.00     0.162 A 
ATOM     49  H   LIG d   1      10.298   7.208   1.195  0.00  0.00     0.066 H 
ATOM     50  C   LIG d   1      10.301   6.617  -2.134  0.00  0.00     0.169 A 
BRANCH  48  51
ATOM     51  O   LIG d   1       8.903   8.052  -0.847  0.00  0.00    -0.491 OA
BRANCH  51  52
ATOM     52  C   LIG d   1       9.252   9.425  -0.664  0.00  0.00     0.079 C 
ATOM     53  H   LIG d   1      10.221   9.619  -1.123  0.00  0.00     0.066 H 
ATOM     54  H   LIG d   1       8.497  10.057  -1.131  0.00  0.00     0.066 H 
ATOM     55  H   LIG d   1       9.304   9.648   0.402  0.00  0.00     0.066 H 
ENDBRANCH  51  52
ENDBRANCH  48  51
BRANCH  50  56
ATOM     56  O   LIG d   1       9.649   6.978  -3.269  0.00  0.00    -0.491 OA
BRANCH  56  57
ATOM     57  C   LIG d   1      10.172   8.097  -3.989  0.00  0.00     0.079 C 
ATOM     58  H   LIG d   1      11.022   8.512  -3.448  0.00  0.00     0.066 H 
ATOM     59  H   LIG d   1      10.495   7.772  -4.979  0.00  0.00     0.066 H 
ATOM     60  H   LIG d   1       9.399   8.858  -4.091  0.00  0.00     0.066 H 
ENDBRANCH  56  57
ENDBRANCH  50  56
ENDBRANCH   1  42
TORSDOF 9
ENDMDL
MODEL 3
REMARK VINA RESULT:      -7.3      5.770     11.554
REMARK  9 active torsions:
REMARK  status: ('A' for Active; 'I' for Inactive)
REMARK    1  A    between atoms: C_1  and  O_2 
REMARK    2  A    between atoms: O_2  and  C_3 
REMARK    3  A    between atoms: C_7  and  C_11 
REMARK    4  A    between atoms: C_8  and  O_9 
REMARK    5  A    between atoms: O_9  and  C_10 
REMARK    6  A    between atoms: C_18  and  O_22 
REMARK    7  A    between atoms: O_22  and  C_23 
REMARK       I    between atoms: C_23  and  N_25 
REMARK    8  A    between atoms: N_25  and  C_26 
REMARK    9  A    between atoms: N_25  and  C_32 
ROOT
ATOM      1  C   LIG d   1      11.506   5.575  -3.799  0.00  0.00    -0.005 C 
ATOM      2  C   LIG d   1      10.822   4.502  -4.272  0.00  0.00     0.176 A 
ATOM      3  C   LIG d   1      11.240   3.622  -5.372  0.00  0.00     0.232 A 
ATOM      4  O   LIG d   1      12.254   3.698  -6.045  0.00  0.00    -0.283 OA
ATOM      5  C   LIG d   1      10.156   2.629  -5.483  0.00  0.00     0.068 A 
ATOM      6  C   LIG d   1       9.947   1.534  -6.322  0.00  0.00    -0.044 A 
ATOM      7  C   LIG d   1       8.818   0.776  -6.185  0.00  0.00    -0.018 A 
ATOM      8  C   LIG d   1       7.877   1.095  -5.211  0.00  0.00     0.137 A 
ATOM      9  C   LIG d   1       8.070   2.179  -4.371  0.00  0.00     0.024 A 
ATOM     10  C   LIG d   1       9.213   2.960  -4.496  0.00  0.00     0.143 A 
ATOM     11  O   LIG d   1       9.634   4.045  -3.812  0.00  0.00    -0.451 OA
ATOM     12  H   LIG d   1      12.401   5.910  -4.303  0.00  0.00     0.066 H 
ATOM     13  H   LIG d   1      10.676   1.285  -7.079  0.00  0.00     0.063 H 
ATOM     14  H   LIG d   1       8.656  -0.071  -6.835  0.00  0.00     0.065 H 
ATOM     15  H   LIG d   1       7.334   2.418  -3.618  0.00  0.00     0.069 H 
ENDROOT
BRANCH   8  16
ATOM     16  O   LIG d   1       6.757   0.337  -5.083  0.00  0.00    -0.411 OA
BRANCH  16  17
ATOM     17  C   LIG d   1       5.963   0.230  -6.166  0.00  0.00     0.417 C 
ATOM     18  O   LIG d   1       6.316   0.706  -7.227  0.00  0.00    -0.225 OA
ATOM     19  N   LIG d   1       4.777  -0.404  -6.072  0.00  0.00    -0.206 N 
BRANCH  19  20
ATOM     20  C   LIG d   1       3.972  -0.553  -7.208  0.00  0.00     0.044 A 
ATOM     21  C   LIG d   1       3.971  -1.752  -7.909  0.00  0.00    -0.040 A 
ATOM     22  C   LIG d   1       3.175  -1.895  -9.028  0.00  0.00    -0.060 A 
ATOM     23  H   LIG d   1       4.590  -2.571  -7.578  0.00  0.00     0.064 H 
ATOM     24  C   LIG d   1       2.379  -0.846  -9.452  0.00  0.00    -0.062 A 
ATOM     25  H   LIG d   1       3.173  -2.827  -9.573  0.00  0.00     0.062 H 
ATOM     26  C   LIG d   1       2.378   0.349  -8.756  0.00  0.00    -0.060 A 
ATOM     27  H   LIG d   1       1.758  -0.960 -10.327  0.00  0.00     0.062 H 
ATOM     28  C   LIG d   1       3.168   0.497  -7.633  0.00  0.00    -0.040 A 
ATOM     29  H   LIG d   1       1.756   1.167  -9.089  0.00  0.00     0.062 H 
ATOM     30  H   LIG d   1       3.163   1.430  -7.087  0.00  0.00     0.064 H 
ENDBRANCH  19  20
BRANCH  19  31
ATOM     31  C   LIG d   1       4.351  -0.915  -4.840  0.00  0.00     0.044 A 
ATOM     32  C   LIG d   1       3.555  -0.142  -4.005  0.00  0.00    -0.040 A 
ATOM     33  C   LIG d   1       3.137  -0.648  -2.790  0.00  0.00    -0.060 A 
ATOM     34  H   LIG d   1       3.264   0.854  -4.305  0.00  0.00     0.064 H 
ATOM     35  C   LIG d   1       3.509  -1.924  -2.405  0.00  0.00    -0.062 A 
ATOM     36  H   LIG d   1       2.518  -0.048  -2.139  0.00  0.00     0.062 H 
ATOM     37  C   LIG d   1       4.301  -2.696  -3.235  0.00  0.00    -0.060 A 
ATOM     38  H   LIG d   1       3.181  -2.317  -1.455  0.00  0.00     0.062 H 
ATOM     39  C   LIG d   1       4.719  -2.197  -4.453  0.00  0.00    -0.040 A 
ATOM     40  H   LIG d   1       4.590  -3.691  -2.933  0.00  0.00     0.062 H 
ATOM     41  H   LIG d   1       5.334  -2.802  -5.103  0.00  0.00     0.064 H 
ENDBRANCH  19  31
ENDBRANCH  16  17
ENDBRANCH   8  16
BRANCH   1  42
ATOM     42  C   LIG d   1      11.032   6.279  -2.602  0.00  0.00     0.024 A 
ATOM     43  C   LIG d   1       9.985   7.206  -2.698  0.00  0.00    -0.051 A 
ATOM     44  C   LIG d   1       9.543   7.864  -1.572  0.00  0.00    -0.058 A 
ATOM     45  H   LIG d   1       9.525   7.404  -3.656  0.00  0.00     0.062 H 
ATOM     46  C   LIG d   1      10.128   7.615  -0.341  0.00  0.00    -0.016 A 
ATOM     47  H   LIG d   1       8.734   8.574  -1.648  0.00  0.00     0.062 H 
ATOM     48  C   LIG d   1      11.165   6.703  -0.228  0.00  0.00     0.162 A 
ATOM     49  H   LIG d   1       9.774   8.136   0.537  0.00  0.00     0.066 H 
ATOM     50  C   LIG d   1      11.624   6.029  -1.354  0.00  0.00     0.169 A 
BRANCH  48  51
ATOM     51  O   LIG d   1      11.732   6.465   0.984  0.00  0.00    -0.491 OA
BRANCH  51  52
ATOM     52  C   LIG d   1      10.973   5.693   1.917  0.00  0.00     0.079 C 
ATOM     53  H   LIG d   1      11.388   4.688   1.980  0.00  0.00     0.066 H 
ATOM     54  H   LIG d   1      11.014   6.166   2.898  0.00  0.00     0.066 H 
ATOM     55  H   LIG d   1       9.936   5.639   1.584  0.00  0.00     0.066 H 
ENDBRANCH  51  52
ENDBRANCH  48  51
BRANCH  50  56
ATOM     56  O   LIG d   1      12.639   5.134  -1.248  0.00  0.00    -0.491 OA
BRANCH  56  57
ATOM     57  C   LIG d   1      13.970   5.657  -1.271  0.00  0.00     0.079 C 
ATOM     58  H   LIG d   1      13.965   6.678  -0.888  0.00  0.00     0.066 H 
ATOM     59  H   LIG d   1      14.614   5.038  -0.645  0.00  0.00     0.066 H 
ATOM     60  H   LIG d   1      14.344   5.654  -2.294  0.00  0.00     0.066 H 
ENDBRANCH  56  57
ENDBRANCH  50  56
ENDBRANCH   1  42
TORSDOF 9
ENDMDL
MODEL 4
REMARK VINA RESULT:      -7.2      4.416      7.692
REMARK  9 active torsions:
REMARK  status: ('A' for Active; 'I' for Inactive)
REMARK    1  A    between atoms: C_1  and  O_2 
REMARK    2  A    between atoms: O_2  and  C_3 
REMARK    3  A    between atoms: C_7  and  C_11 
REMARK    4  A    between atoms: C_8  and  O_9 
REMARK    5  A    between atoms: O_9  and  C_10 
REMARK    6  A    between atoms: C_18  and  O_22 
REMARK    7  A    between atoms: O_22  and  C_23 
REMARK       I    between atoms: C_23  and  N_25 
REMARK    8  A    between atoms: N_25  and  C_26 
REMARK    9  A    between atoms: N_25  and  C_32 
ROOT
ATOM      1  C   LIG d   1      -0.312  -4.065 -11.539  0.00  0.00    -0.005 C 
ATOM      2  C   LIG d   1       0.704  -3.299 -11.068  0.00  0.00     0.176 A 
ATOM      3  C   LIG d   1       1.141  -2.006 -11.612  0.00  0.00     0.232 A 
ATOM      4  O   LIG d   1       0.679  -1.402 -12.566  0.00  0.00    -0.283 OA
ATOM      5  C   LIG d   1       2.265  -1.601 -10.748  0.00  0.00     0.068 A 
ATOM      6  C   LIG d   1       3.105  -0.487 -10.733  0.00  0.00    -0.044 A 
ATOM      7  C   LIG d   1       4.084  -0.385  -9.785  0.00  0.00    -0.018 A 
ATOM      8  C   LIG d   1       4.246  -1.390  -8.837  0.00  0.00     0.137 A 
ATOM      9  C   LIG d   1       3.421  -2.502  -8.839  0.00  0.00     0.024 A 
ATOM     10  C   LIG d   1       2.420  -2.622  -9.796  0.00  0.00     0.143 A 
ATOM     11  O   LIG d   1       1.497  -3.584 -10.008  0.00  0.00    -0.451 OA
ATOM     12  H   LIG d   1      -0.819  -3.788 -12.452  0.00  0.00     0.066 H 
ATOM     13  H   LIG d   1       2.981   0.294 -11.469  0.00  0.00     0.063 H 
ATOM     14  H   LIG d   1       4.735   0.477  -9.774  0.00  0.00     0.065 H 
ATOM     15  H   LIG d   1       3.554  -3.276  -8.099  0.00  0.00     0.069 H 
ENDROOT
BRANCH   8  16
ATOM     16  O   LIG d   1       5.223  -1.280  -7.899  0.00  0.00    -0.411 OA
BRANCH  16  17
ATOM     17  C   LIG d   1       4.911  -0.626  -6.764  0.00  0.00     0.417 C 
ATOM     18  O   LIG d   1       4.503   0.518  -6.815  0.00  0.00    -0.225 OA
ATOM     19  N   LIG d   1       5.052  -1.240  -5.572  0.00  0.00    -0.206 N 
BRANCH  19  20
ATOM     20  C   LIG d   1       4.687  -0.575  -4.395  0.00  0.00     0.044 A 
ATOM     21  C   LIG d   1       5.620   0.193  -3.711  0.00  0.00    -0.040 A 
ATOM     22  C   LIG d   1       5.255   0.848  -2.551  0.00  0.00    -0.060 A 
ATOM     23  H   LIG d   1       6.628   0.278  -4.085  0.00  0.00     0.064 H 
ATOM     24  C   LIG d   1       3.963   0.740  -2.071  0.00  0.00    -0.062 A 
ATOM     25  H   LIG d   1       5.980   1.445  -2.018  0.00  0.00     0.062 H 
ATOM     26  C   LIG d   1       3.031  -0.023  -2.751  0.00  0.00    -0.060 A 
ATOM     27  H   LIG d   1       3.680   1.254  -1.164  0.00  0.00     0.062 H 
ATOM     28  C   LIG d   1       3.387  -0.677  -3.913  0.00  0.00    -0.040 A 
ATOM     29  H   LIG d   1       2.022  -0.105  -2.373  0.00  0.00     0.062 H 
ATOM     30  H   LIG d   1       2.658  -1.269  -4.446  0.00  0.00     0.064 H 
ENDBRANCH  19  20
BRANCH  19  31
ATOM     31  C   LIG d   1       5.563  -2.542  -5.511  0.00  0.00     0.044 A 
ATOM     32  C   LIG d   1       6.932  -2.747  -5.398  0.00  0.00    -0.040 A 
ATOM     33  C   LIG d   1       7.432  -4.033  -5.339  0.00  0.00    -0.060 A 
ATOM     34  H   LIG d   1       7.604  -1.903  -5.357  0.00  0.00     0.064 H 
ATOM     35  C   LIG d   1       6.573  -5.115  -5.389  0.00  0.00    -0.062 A 
ATOM     36  H   LIG d   1       8.497  -4.194  -5.251  0.00  0.00     0.062 H 
ATOM     37  C   LIG d   1       5.209  -4.913  -5.501  0.00  0.00    -0.060 A 
ATOM     38  H   LIG d   1       6.967  -6.119  -5.343  0.00  0.00     0.062 H 
ATOM     39  C   LIG d   1       4.702  -3.630  -5.557  0.00  0.00    -0.040 A 
ATOM     40  H   LIG d   1       4.540  -5.760  -5.541  0.00  0.00     0.062 H 
ATOM     41  H   LIG d   1       3.637  -3.473  -5.640  0.00  0.00     0.064 H 
ENDBRANCH  19  31
ENDBRANCH  16  17
ENDBRANCH   8  16
BRANCH   1  42
ATOM     42  C   LIG d   1      -0.724  -5.269 -10.808  0.00  0.00     0.024 A 
ATOM     43  C   LIG d   1      -1.775  -5.207  -9.884  0.00  0.00    -0.051 A 
ATOM     44  C   LIG d   1      -2.159  -6.339  -9.200  0.00  0.00    -0.058 A 
ATOM     45  H   LIG d   1      -2.286  -4.271  -9.708  0.00  0.00     0.062 H 
ATOM     46  C   LIG d   1      -1.510  -7.543  -9.420  0.00  0.00    -0.016 A 
ATOM     47  H   LIG d   1      -2.972  -6.290  -8.492  0.00  0.00     0.062 H 
ATOM     48  C   LIG d   1      -0.467  -7.622 -10.330  0.00  0.00     0.162 A 
ATOM     49  H   LIG d   1      -1.817  -8.426  -8.879  0.00  0.00     0.066 H 
ATOM     50  C   LIG d   1      -0.067  -6.490 -11.029  0.00  0.00     0.169 A 
BRANCH  48  51
ATOM     51  O   LIG d   1       0.164  -8.808 -10.539  0.00  0.00    -0.491 OA
BRANCH  51  52
ATOM     52  C   LIG d   1      -0.608  -9.861 -11.120  0.00  0.00     0.079 C 
ATOM     53  H   LIG d   1      -0.116 -10.816 -10.939  0.00  0.00     0.066 H 
ATOM     54  H   LIG d   1      -1.601  -9.873 -10.673  0.00  0.00     0.066 H 
ATOM     55  H   LIG d   1      -0.695  -9.696 -12.195  0.00  0.00     0.066 H 
ENDBRANCH  51  52
ENDBRANCH  48  51
BRANCH  50  56
ATOM     56  O   LIG d   1       0.954  -6.562 -11.921  0.00  0.00    -0.491 OA
BRANCH  56  57
ATOM     57  C   LIG d   1       0.623  -6.953 -13.256  0.00  0.00     0.079 C 
ATOM     58  H   LIG d   1       1.235  -6.392 -13.961  0.00  0.00     0.066 H 
ATOM     59  H   LIG d   1       0.814  -8.020 -13.379  0.00  0.00     0.066 H 
ATOM     60  H   LIG d   1      -0.431  -6.749 -13.444  0.00  0.00     0.066 H 
ENDBRANCH  56  57
ENDBRANCH  50  56
ENDBRANCH   1  42
TORSDOF 9
ENDMDL
MODEL 5
REMARK VINA RESULT:      -7.0      5.425      7.145
REMARK  9 active torsions:
REMARK  status: ('A' for Active; 'I' for Inactive)
REMARK    1  A    between atoms: C_1  and  O_2 
REMARK    2  A    between atoms: O_2  and  C_3 
REMARK    3  A    between atoms: C_7  and  C_11 
REMARK    4  A    between atoms: C_8  and  O_9 
REMARK    5  A    between atoms: O_9  and  C_10 
REMARK    6  A    between atoms: C_18  and  O_22 
REMARK    7  A    between atoms: O_22  and  C_23 
REMARK       I    between atoms: C_23  and  N_25 
REMARK    8  A    between atoms: N_25  and  C_26 
REMARK    9  A    between atoms: N_25  and  C_32 
ROOT
ATOM      1  C   LIG d   1       1.081  -3.548 -11.444  0.00  0.00    -0.005 C 
ATOM      2  C   LIG d   1       1.615  -2.588 -10.647  0.00  0.00     0.176 A 
ATOM      3  C   LIG d   1       1.483  -1.135 -10.830  0.00  0.00     0.232 A 
ATOM      4  O   LIG d   1       0.884  -0.545 -11.712  0.00  0.00    -0.283 OA
ATOM      5  C   LIG d   1       2.240  -0.551  -9.707  0.00  0.00     0.068 A 
ATOM      6  C   LIG d   1       2.501   0.761  -9.312  0.00  0.00    -0.044 A 
ATOM      7  C   LIG d   1       3.253   1.000  -8.197  0.00  0.00    -0.018 A 
ATOM      8  C   LIG d   1       3.762  -0.063  -7.455  0.00  0.00     0.137 A 
ATOM      9  C   LIG d   1       3.511  -1.371  -7.835  0.00  0.00     0.024 A 
ATOM     10  C   LIG d   1       2.747  -1.632  -8.967  0.00  0.00     0.143 A 
ATOM     11  O   LIG d   1       2.362  -2.794  -9.536  0.00  0.00    -0.451 OA
ATOM     12  H   LIG d   1       0.582  -3.272 -12.361  0.00  0.00     0.066 H 
ATOM     13  H   LIG d   1       2.108   1.587  -9.886  0.00  0.00     0.063 H 
ATOM     14  H   LIG d   1       3.456   2.016  -7.891  0.00  0.00     0.065 H 
ATOM     15  H   LIG d   1       3.910  -2.189  -7.253  0.00  0.00     0.069 H 
ENDROOT
BRANCH   8  16
ATOM     16  O   LIG d   1       4.510   0.184  -6.349  0.00  0.00    -0.411 OA
BRANCH  16  17
ATOM     17  C   LIG d   1       5.802  -0.194  -6.387  0.00  0.00     0.417 C 
ATOM     18  O   LIG d   1       6.398  -0.212  -7.446  0.00  0.00    -0.225 OA
ATOM     19  N   LIG d   1       6.433  -0.553  -5.251  0.00  0.00    -0.206 N 
BRANCH  19  20
ATOM     20  C   LIG d   1       7.788  -0.905  -5.285  0.00  0.00     0.044 A 
ATOM     21  C   LIG d   1       8.159  -2.241  -5.352  0.00  0.00    -0.040 A 
ATOM     22  C   LIG d   1       9.496  -2.584  -5.386  0.00  0.00    -0.060 A 
ATOM     23  H   LIG d   1       7.403  -3.011  -5.378  0.00  0.00     0.064 H 
ATOM     24  C   LIG d   1      10.466  -1.598  -5.354  0.00  0.00    -0.062 A 
ATOM     25  H   LIG d   1       9.785  -3.624  -5.438  0.00  0.00     0.062 H 
ATOM     26  C   LIG d   1      10.100  -0.267  -5.288  0.00  0.00    -0.060 A 
ATOM     27  H   LIG d   1      11.510  -1.869  -5.380  0.00  0.00     0.062 H 
ATOM     28  C   LIG d   1       8.764   0.083  -5.258  0.00  0.00    -0.040 A 
ATOM     29  H   LIG d   1      10.859   0.501  -5.263  0.00  0.00     0.062 H 
ATOM     30  H   LIG d   1       8.479   1.124  -5.211  0.00  0.00     0.064 H 
ENDBRANCH  19  20
BRANCH  19  31
ATOM     31  C   LIG d   1       5.734  -0.574  -4.038  0.00  0.00     0.044 A 
ATOM     32  C   LIG d   1       5.115  -1.742  -3.612  0.00  0.00    -0.040 A 
ATOM     33  C   LIG d   1       4.426  -1.759  -2.416  0.00  0.00    -0.060 A 
ATOM     34  H   LIG d   1       5.173  -2.636  -4.216  0.00  0.00     0.064 H 
ATOM     35  C   LIG d   1       4.353  -0.616  -1.641  0.00  0.00    -0.062 A 
ATOM     36  H   LIG d   1       3.944  -2.667  -2.084  0.00  0.00     0.062 H 
ATOM     37  C   LIG d   1       4.968   0.548  -2.063  0.00  0.00    -0.060 A 
ATOM     38  H   LIG d   1       3.813  -0.632  -0.706  0.00  0.00     0.062 H 
ATOM     39  C   LIG d   1       5.663   0.571  -3.257  0.00  0.00    -0.040 A 
ATOM     40  H   LIG d   1       4.910   1.440  -1.457  0.00  0.00     0.062 H 
ATOM     41  H   LIG d   1       6.147   1.479  -3.583  0.00  0.00     0.064 H 
ENDBRANCH  19  31
ENDBRANCH  16  17
ENDBRANCH   8  16
BRANCH   1  42
ATOM     42  C   LIG d   1       1.181  -4.960 -11.059  0.00  0.00     0.024 A 
ATOM     43  C   LIG d   1       2.352  -5.682 -11.325  0.00  0.00    -0.051 A 
ATOM     44  C   LIG d   1       2.442  -7.008 -10.962  0.00  0.00    -0.058 A 
ATOM     45  H   LIG d   1       3.186  -5.199 -11.814  0.00  0.00     0.062 H 
ATOM     46  C   LIG d   1       1.378  -7.635 -10.334  0.00  0.00    -0.016 A 
ATOM     47  H   LIG d   1       3.347  -7.560 -11.163  0.00  0.00     0.062 H 
ATOM     48  C   LIG d   1       0.211  -6.936 -10.065  0.00  0.00     0.162 A 
ATOM     49  H   LIG d   1       1.457  -8.674 -10.053  0.00  0.00     0.066 H 
ATOM     50  C   LIG d   1       0.103  -5.598 -10.424  0.00  0.00     0.169 A 
BRANCH  48  51
ATOM     51  O   LIG d   1      -0.828  -7.560  -9.449  0.00  0.00    -0.491 OA
BRANCH  51  52
ATOM     52  C   LIG d   1      -1.616  -8.448 -10.244  0.00  0.00     0.079 C 
ATOM     53  H   LIG d   1      -1.062  -9.369 -10.419  0.00  0.00     0.066 H 
ATOM     54  H   LIG d   1      -2.545  -8.676  -9.721  0.00  0.00     0.066 H 
ATOM     55  H   LIG d   1      -1.845  -7.974 -11.199  0.00  0.00     0.066 H 
ENDBRANCH  51  52
ENDBRANCH  48  51
BRANCH  50  56
ATOM     56  O   LIG d   1      -1.037  -4.910 -10.163  0.00  0.00    -0.491 OA
BRANCH  56  57
ATOM     57  C   LIG d   1      -2.047  -4.920 -11.174  0.00  0.00     0.079 C 
ATOM     58  H   LIG d   1      -1.590  -5.123 -12.142  0.00  0.00     0.066 H 
ATOM     59  H   LIG d   1      -2.779  -5.697 -10.948  0.00  0.00     0.066 H 
ATOM     60  H   LIG d   1      -2.544  -3.950 -11.203  0.00  0.00     0.066 H 
ENDBRANCH  56  57
ENDBRANCH  50  56
ENDBRANCH   1  42
TORSDOF 9
ENDMDL
MODEL 6
REMARK VINA RESULT:      -7.0      2.626      4.769
REMARK  9 active torsions:
REMARK  status: ('A' for Active; 'I' for Inactive)
REMARK    1  A    between atoms: C_1  and  O_2 
REMARK    2  A    between atoms: O_2  and  C_3 
REMARK    3  A    between atoms: C_7  and  C_11 
REMARK    4  A    between atoms: C_8  and  O_9 
REMARK    5  A    between atoms: O_9  and  C_10 
REMARK    6  A    between atoms: C_18  and  O_22 
REMARK    7  A    between atoms: O_22  and  C_23 
REMARK       I    between atoms: C_23  and  N_25 
REMARK    8  A    between atoms: N_25  and  C_26 
REMARK    9  A    between atoms: N_25  and  C_32 
ROOT
ATOM      1  C   LIG d   1      10.080  -7.034  -3.741  0.00  0.00    -0.005 C 
ATOM      2  C   LIG d   1       9.898  -5.726  -4.058  0.00  0.00     0.176 A 
ATOM      3  C   LIG d   1      10.942  -4.781  -4.479  0.00  0.00     0.232 A 
ATOM      4  O   LIG d   1      12.134  -4.997  -4.615  0.00  0.00    -0.283 OA
ATOM      5  C   LIG d   1      10.224  -3.512  -4.698  0.00  0.00     0.068 A 
ATOM      6  C   LIG d   1      10.635  -2.240  -5.101  0.00  0.00    -0.044 A 
ATOM      7  C   LIG d   1       9.718  -1.234  -5.219  0.00  0.00    -0.018 A 
ATOM      8  C   LIG d   1       8.376  -1.474  -4.936  0.00  0.00     0.137 A 
ATOM      9  C   LIG d   1       7.954  -2.730  -4.534  0.00  0.00     0.024 A 
ATOM     10  C   LIG d   1       8.873  -3.765  -4.410  0.00  0.00     0.143 A 
ATOM     11  O   LIG d   1       8.721  -5.057  -4.049  0.00  0.00    -0.451 OA
ATOM     12  H   LIG d   1      11.079  -7.442  -3.689  0.00  0.00     0.066 H 
ATOM     13  H   LIG d   1      11.676  -2.052  -5.321  0.00  0.00     0.063 H 
ATOM     14  H   LIG d   1      10.035  -0.250  -5.530  0.00  0.00     0.065 H 
ATOM     15  H   LIG d   1       6.911  -2.906  -4.318  0.00  0.00     0.069 H 
ENDROOT
BRANCH   8  16
ATOM     16  O   LIG d   1       7.473  -0.467  -5.055  0.00  0.00    -0.411 OA
BRANCH  16  17
ATOM     17  C   LIG d   1       6.580  -0.561  -6.059  0.00  0.00     0.417 C 
ATOM     18  O   LIG d   1       6.948  -0.446  -7.211  0.00  0.00    -0.225 OA
ATOM     19  N   LIG d   1       5.278  -0.782  -5.785  0.00  0.00    -0.206 N 
BRANCH  19  20
ATOM     20  C   LIG d   1       4.358  -0.923  -6.831  0.00  0.00     0.044 A 
ATOM     21  C   LIG d   1       3.458   0.097  -7.108  0.00  0.00    -0.040 A 
ATOM     22  C   LIG d   1       2.552  -0.045  -8.141  0.00  0.00    -0.060 A 
ATOM     23  H   LIG d   1       3.467   1.001  -6.518  0.00  0.00     0.064 H 
ATOM     24  C   LIG d   1       2.540  -1.202  -8.898  0.00  0.00    -0.062 A 
ATOM     25  H   LIG d   1       1.852   0.749  -8.357  0.00  0.00     0.062 H 
ATOM     26  C   LIG d   1       3.436  -2.220  -8.625  0.00  0.00    -0.060 A 
ATOM     27  H   LIG d   1       1.831  -1.311  -9.705  0.00  0.00     0.062 H 
ATOM     28  C   LIG d   1       4.347  -2.082  -7.597  0.00  0.00    -0.040 A 
ATOM     29  H   LIG d   1       3.424  -3.122  -9.218  0.00  0.00     0.062 H 
ATOM     30  H   LIG d   1       5.049  -2.876  -7.386  0.00  0.00     0.064 H 
ENDBRANCH  19  20
BRANCH  19  31
ATOM     31  C   LIG d   1       4.848  -0.871  -4.456  0.00  0.00     0.044 A 
ATOM     32  C   LIG d   1       4.743   0.276  -3.680  0.00  0.00    -0.040 A 
ATOM     33  C   LIG d   1       4.319   0.184  -2.370  0.00  0.00    -0.060 A 
ATOM     34  H   LIG d   1       4.994   1.238  -4.102  0.00  0.00     0.064 H 
ATOM     35  C   LIG d   1       3.997  -1.048  -1.829  0.00  0.00    -0.062 A 
ATOM     36  H   LIG d   1       4.237   1.076  -1.765  0.00  0.00     0.062 H 
ATOM     37  C   LIG d   1       4.100  -2.191  -2.599  0.00  0.00    -0.060 A 
ATOM     38  H   LIG d   1       3.665  -1.116  -0.804  0.00  0.00     0.062 H 
ATOM     39  C   LIG d   1       4.519  -2.106  -3.912  0.00  0.00    -0.040 A 
ATOM     40  H   LIG d   1       3.848  -3.152  -2.175  0.00  0.00     0.062 H 
ATOM     41  H   LIG d   1       4.595  -2.999  -4.515  0.00  0.00     0.064 H 
ENDBRANCH  19  31
ENDBRANCH  16  17
ENDBRANCH   8  16
BRANCH   1  42
ATOM     42  C   LIG d   1       8.922  -7.892  -3.471  0.00  0.00     0.024 A 
ATOM     43  C   LIG d   1       7.949  -8.096  -4.459  0.00  0.00    -0.051 A 
ATOM     44  C   LIG d   1       6.863  -8.902  -4.201  0.00  0.00    -0.058 A 
ATOM     45  H   LIG d   1       8.052  -7.620  -5.424  0.00  0.00     0.062 H 
ATOM     46  C   LIG d   1       6.725  -9.516  -2.967  0.00  0.00    -0.016 A 
ATOM     47  H   LIG d   1       6.118  -9.061  -4.966  0.00  0.00     0.062 H 
ATOM     48  C   LIG d   1       7.677  -9.325  -1.977  0.00  0.00     0.162 A 
ATOM     49  H   LIG d   1       5.870 -10.147  -2.774  0.00  0.00     0.066 H 
ATOM     50  C   LIG d   1       8.779  -8.514  -2.221  0.00  0.00     0.169 A 
BRANCH  48  51
ATOM     51  O   LIG d   1       7.532  -9.931  -0.769  0.00  0.00    -0.491 OA
BRANCH  51  52
ATOM     52  C   LIG d   1       7.759 -11.341  -0.719  0.00  0.00     0.079 C 
ATOM     53  H   LIG d   1       8.777 -11.558  -1.040  0.00  0.00     0.066 H 
ATOM     54  H   LIG d   1       7.616 -11.696   0.302  0.00  0.00     0.066 H 
ATOM     55  H   LIG d   1       7.054 -11.846  -1.381  0.00  0.00     0.066 H 
ENDBRANCH  51  52
ENDBRANCH  48  51
BRANCH  50  56
ATOM     56  O   LIG d   1       9.714  -8.324  -1.254  0.00  0.00    -0.491 OA
BRANCH  56  57
ATOM     57  C   LIG d   1      10.813  -9.238  -1.226  0.00  0.00     0.079 C 
ATOM     58  H   LIG d   1      11.405  -9.122  -2.133  0.00  0.00     0.066 H 
ATOM     59  H   LIG d   1      11.436  -9.028  -0.356  0.00  0.00     0.066 H 
ATOM     60  H   LIG d   1      10.436 -10.258  -1.165  0.00  0.00     0.066 H 
ENDBRANCH  56  57
ENDBRANCH  50  56
ENDBRANCH   1  42
TORSDOF 9
ENDMDL
MODEL 7
REMARK VINA RESULT:      -6.9      6.455     12.855
REMARK  9 active torsions:
REMARK  status: ('A' for Active; 'I' for Inactive)
REMARK    1  A    between atoms: C_1  and  O_2 
REMARK    2  A    between atoms: O_2  and  C_3 
REMARK    3  A    between atoms: C_7  and  C_11 
REMARK    4  A    between atoms: C_8  and  O_9 
REMARK    5  A    between atoms: O_9  and  C_10 
REMARK    6  A    between atoms: C_18  and  O_22 
REMARK    7  A    between atoms: O_22  and  C_23 
REMARK       I    between atoms: C_23  and  N_25 
REMARK    8  A    between atoms: N_25  and  C_26 
REMARK    9  A    between atoms: N_25  and  C_32 
ROOT
ATOM      1  C   LIG d   1      10.692   7.593  -3.731  0.00  0.00    -0.005 C 
ATOM      2  C   LIG d   1      10.296   6.351  -4.114  0.00  0.00     0.176 A 
ATOM      3  C   LIG d   1      10.132   5.881  -5.497  0.00  0.00     0.232 A 
ATOM      4  O   LIG d   1      10.317   6.507  -6.526  0.00  0.00    -0.283 OA
ATOM      5  C   LIG d   1       9.691   4.480  -5.360  0.00  0.00     0.068 A 
ATOM      6  C   LIG d   1       9.367   3.487  -6.285  0.00  0.00    -0.044 A 
ATOM      7  C   LIG d   1       8.982   2.250  -5.850  0.00  0.00    -0.018 A 
ATOM      8  C   LIG d   1       8.912   1.980  -4.486  0.00  0.00     0.137 A 
ATOM      9  C   LIG d   1       9.230   2.955  -3.557  0.00  0.00     0.024 A 
ATOM     10  C   LIG d   1       9.624   4.218  -3.982  0.00  0.00     0.143 A 
ATOM     11  O   LIG d   1       9.986   5.322  -3.292  0.00  0.00    -0.451 OA
ATOM     12  H   LIG d   1      10.822   8.370  -4.470  0.00  0.00     0.066 H 
ATOM     13  H   LIG d   1       9.420   3.695  -7.344  0.00  0.00     0.063 H 
ATOM     14  H   LIG d   1       8.730   1.482  -6.565  0.00  0.00     0.065 H 
ATOM     15  H   LIG d   1       9.173   2.736  -2.501  0.00  0.00     0.069 H 
ENDROOT
BRANCH   8  16
ATOM     16  O   LIG d   1       8.527   0.748  -4.063  0.00  0.00    -0.411 OA
BRANCH  16  17
ATOM     17  C   LIG d   1       7.232   0.594  -3.723  0.00  0.00     0.417 C 
ATOM     18  O   LIG d   1       6.655   1.476  -3.118  0.00  0.00    -0.225 OA
ATOM     19  N   LIG d   1       6.579  -0.538  -4.052  0.00  0.00    -0.206 N 
BRANCH  19  20
ATOM     20  C   LIG d   1       5.222  -0.680  -3.736  0.00  0.00     0.044 A 
ATOM     21  C   LIG d   1       4.839  -1.429  -2.631  0.00  0.00    -0.040 A 
ATOM     22  C   LIG d   1       3.500  -1.565  -2.322  0.00  0.00    -0.060 A 
ATOM     23  H   LIG d   1       5.587  -1.903  -2.014  0.00  0.00     0.064 H 
ATOM     24  C   LIG d   1       2.541  -0.957  -3.111  0.00  0.00    -0.062 A 
ATOM     25  H   LIG d   1       3.202  -2.148  -1.463  0.00  0.00     0.062 H 
ATOM     26  C   LIG d   1       2.919  -0.210  -4.212  0.00  0.00    -0.060 A 
ATOM     27  H   LIG d   1       1.495  -1.065  -2.867  0.00  0.00     0.062 H 
ATOM     28  C   LIG d   1       4.257  -0.065  -4.524  0.00  0.00    -0.040 A 
ATOM     29  H   LIG d   1       2.168   0.264  -4.826  0.00  0.00     0.062 H 
ATOM     30  H   LIG d   1       4.552   0.522  -5.381  0.00  0.00     0.064 H 
ENDBRANCH  19  20
BRANCH  19  31
ATOM     31  C   LIG d   1       7.257  -1.572  -4.710  0.00  0.00     0.044 A 
ATOM     32  C   LIG d   1       7.350  -1.570  -6.095  0.00  0.00    -0.040 A 
ATOM     33  C   LIG d   1       8.018  -2.591  -6.742  0.00  0.00    -0.060 A 
ATOM     34  H   LIG d   1       6.899  -0.772  -6.667  0.00  0.00     0.064 H 
ATOM     35  C   LIG d   1       8.596  -3.614  -6.011  0.00  0.00    -0.062 A 
ATOM     36  H   LIG d   1       8.091  -2.591  -7.820  0.00  0.00     0.062 H 
ATOM     37  C   LIG d   1       8.505  -3.617  -4.631  0.00  0.00    -0.060 A 
ATOM     38  H   LIG d   1       9.118  -4.410  -6.519  0.00  0.00     0.062 H 
ATOM     39  C   LIG d   1       7.842  -2.597  -3.979  0.00  0.00    -0.040 A 
ATOM     40  H   LIG d   1       8.958  -4.416  -4.063  0.00  0.00     0.062 H 
ATOM     41  H   LIG d   1       7.775  -2.597  -2.901  0.00  0.00     0.064 H 
ENDBRANCH  19  31
ENDBRANCH  16  17
ENDBRANCH   8  16
BRANCH   1  42
ATOM     42  C   LIG d   1      10.944   7.878  -2.315  0.00  0.00     0.024 A 
ATOM     43  C   LIG d   1       9.911   8.355  -1.497  0.00  0.00    -0.051 A 
ATOM     44  C   LIG d   1      10.152   8.621  -0.167  0.00  0.00    -0.058 A 
ATOM     45  H   LIG d   1       8.924   8.513  -1.909  0.00  0.00     0.062 H 
ATOM     46  C   LIG d   1      11.414   8.420   0.369  0.00  0.00    -0.016 A 
ATOM     47  H   LIG d   1       9.353   8.984   0.462  0.00  0.00     0.062 H 
ATOM     48  C   LIG d   1      12.448   7.950  -0.426  0.00  0.00     0.162 A 
ATOM     49  H   LIG d   1      11.593   8.632   1.413  0.00  0.00     0.066 H 
ATOM     50  C   LIG d   1      12.222   7.676  -1.770  0.00  0.00     0.169 A 
BRANCH  48  51
ATOM     51  O   LIG d   1      13.682   7.757   0.109  0.00  0.00    -0.491 OA
BRANCH  51  52
ATOM     52  C   LIG d   1      14.548   8.892   0.173  0.00  0.00     0.079 C 
ATOM     53  H   LIG d   1      14.263   9.521   1.015  0.00  0.00     0.066 H 
ATOM     54  H   LIG d   1      15.577   8.557   0.301  0.00  0.00     0.066 H 
ATOM     55  H   LIG d   1      14.465   9.463  -0.753  0.00  0.00     0.066 H 
ENDBRANCH  51  52
ENDBRANCH  48  51
BRANCH  50  56
ATOM     56  O   LIG d   1      13.232   7.216  -2.552  0.00  0.00    -0.491 OA
BRANCH  56  57
ATOM     57  C   LIG d   1      13.540   5.823  -2.460  0.00  0.00     0.079 C 
ATOM     58  H   LIG d   1      14.558   5.652  -2.810  0.00  0.00     0.066 H 
ATOM     59  H   LIG d   1      13.453   5.499  -1.422  0.00  0.00     0.066 H 
ATOM     60  H   LIG d   1      12.844   5.255  -3.077  0.00  0.00     0.066 H 
ENDBRANCH  56  57
ENDBRANCH  50  56
ENDBRANCH   1  42
TORSDOF 9
ENDMDL
MODEL 8
REMARK VINA RESULT:      -6.9      5.059     11.124
REMARK  9 active torsions:
REMARK  status: ('A' for Active; 'I' for Inactive)
REMARK    1  A    between atoms: C_1  and  O_2 
REMARK    2  A    between atoms: O_2  and  C_3 
REMARK    3  A    between atoms: C_7  and  C_11 
REMARK    4  A    between atoms: C_8  and  O_9 
REMARK    5  A    between atoms: O_9  and  C_10 
REMARK    6  A    between atoms: C_18  and  O_22 
REMARK    7  A    between atoms: O_22  and  C_23 
REMARK       I    between atoms: C_23  and  N_25 
REMARK    8  A    between atoms: N_25  and  C_26 
REMARK    9  A    between atoms: N_25  and  C_32 
ROOT
ATOM      1  C   LIG d   1      10.514   5.739  -5.041  0.00  0.00    -0.005 C 
ATOM      2  C   LIG d   1       9.899   4.628  -5.523  0.00  0.00     0.176 A 
ATOM      3  C   LIG d   1       9.839   4.211  -6.931  0.00  0.00     0.232 A 
ATOM      4  O   LIG d   1      10.319   4.776  -7.898  0.00  0.00    -0.283 OA
ATOM      5  C   LIG d   1       9.065   2.956  -6.912  0.00  0.00     0.068 A 
ATOM      6  C   LIG d   1       8.659   2.069  -7.910  0.00  0.00    -0.044 A 
ATOM      7  C   LIG d   1       7.933   0.960  -7.581  0.00  0.00    -0.018 A 
ATOM      8  C   LIG d   1       7.596   0.713  -6.253  0.00  0.00     0.137 A 
ATOM      9  C   LIG d   1       7.992   1.584  -5.252  0.00  0.00     0.024 A 
ATOM     10  C   LIG d   1       8.731   2.717  -5.568  0.00  0.00     0.143 A 
ATOM     11  O   LIG d   1       9.235   3.702  -4.793  0.00  0.00    -0.451 OA
ATOM     12  H   LIG d   1      10.932   6.463  -5.724  0.00  0.00     0.066 H 
ATOM     13  H   LIG d   1       8.919   2.260  -8.941  0.00  0.00     0.063 H 
ATOM     14  H   LIG d   1       7.618   0.274  -8.353  0.00  0.00     0.065 H 
ATOM     15  H   LIG d   1       7.726   1.383  -4.224  0.00  0.00     0.069 H 
ENDROOT
BRANCH   8  16
ATOM     16  O   LIG d   1       6.873  -0.392  -5.936  0.00  0.00    -0.411 OA
BRANCH  16  17
ATOM     17  C   LIG d   1       7.563  -1.502  -5.610  0.00  0.00     0.417 C 
ATOM     18  O   LIG d   1       8.496  -1.862  -6.300  0.00  0.00    -0.225 OA
ATOM     19  N   LIG d   1       7.217  -2.215  -4.519  0.00  0.00    -0.206 N 
BRANCH  19  20
ATOM     20  C   LIG d   1       7.962  -3.344  -4.156  0.00  0.00     0.044 A 
ATOM     21  C   LIG d   1       7.814  -4.531  -4.861  0.00  0.00    -0.040 A 
ATOM     22  C   LIG d   1       8.551  -5.642  -4.501  0.00  0.00    -0.060 A 
ATOM     23  H   LIG d   1       7.126  -4.584  -5.691  0.00  0.00     0.064 H 
ATOM     24  C   LIG d   1       9.434  -5.574  -3.439  0.00  0.00    -0.062 A 
ATOM     25  H   LIG d   1       8.437  -6.566  -5.049  0.00  0.00     0.062 H 
ATOM     26  C   LIG d   1       9.583  -4.393  -2.735  0.00  0.00    -0.060 A 
ATOM     27  H   LIG d   1      10.009  -6.444  -3.159  0.00  0.00     0.062 H 
ATOM     28  C   LIG d   1       8.854  -3.277  -3.092  0.00  0.00    -0.040 A 
ATOM     29  H   LIG d   1      10.274  -4.343  -1.905  0.00  0.00     0.062 H 
ATOM     30  H   LIG d   1       8.974  -2.353  -2.545  0.00  0.00     0.064 H 
ENDBRANCH  19  20
BRANCH  19  31
ATOM     31  C   LIG d   1       6.115  -1.824  -3.748  0.00  0.00     0.044 A 
ATOM     32  C   LIG d   1       6.157  -0.640  -3.024  0.00  0.00    -0.040 A 
ATOM     33  C   LIG d   1       5.070  -0.258  -2.265  0.00  0.00    -0.060 A 
ATOM     34  H   LIG d   1       7.041  -0.018  -3.055  0.00  0.00     0.064 H 
ATOM     35  C   LIG d   1       3.937  -1.053  -2.226  0.00  0.00    -0.062 A 
ATOM     36  H   LIG d   1       5.101   0.663  -1.701  0.00  0.00     0.062 H 
ATOM     37  C   LIG d   1       3.893  -2.232  -2.946  0.00  0.00    -0.060 A 
ATOM     38  H   LIG d   1       3.088  -0.752  -1.631  0.00  0.00     0.062 H 
ATOM     39  C   LIG d   1       4.976  -2.618  -3.711  0.00  0.00    -0.040 A 
ATOM     40  H   LIG d   1       3.008  -2.851  -2.914  0.00  0.00     0.062 H 
ATOM     41  H   LIG d   1       4.939  -3.536  -4.277  0.00  0.00     0.064 H 
ENDBRANCH  19  31
ENDBRANCH  16  17
ENDBRANCH   8  16
BRANCH   1  42
ATOM     42  C   LIG d   1      10.610   5.955  -3.593  0.00  0.00     0.024 A 
ATOM     43  C   LIG d   1       9.575   6.606  -2.907  0.00  0.00    -0.051 A 
ATOM     44  C   LIG d   1       9.670   6.806  -1.548  0.00  0.00    -0.058 A 
ATOM     45  H   LIG d   1       8.703   6.950  -3.445  0.00  0.00     0.062 H 
ATOM     46  C   LIG d   1      10.784   6.367  -0.852  0.00  0.00    -0.016 A 
ATOM     47  H   LIG d   1       8.869   7.304  -1.021  0.00  0.00     0.062 H 
ATOM     48  C   LIG d   1      11.817   5.723  -1.514  0.00  0.00     0.162 A 
ATOM     49  H   LIG d   1      10.849   6.529   0.214  0.00  0.00     0.066 H 
ATOM     50  C   LIG d   1      11.738   5.512  -2.886  0.00  0.00     0.169 A 
BRANCH  48  51
ATOM     51  O   LIG d   1      12.907   5.296  -0.822  0.00  0.00    -0.491 OA
BRANCH  51  52
ATOM     52  C   LIG d   1      13.940   6.253  -0.583  0.00  0.00     0.079 C 
ATOM     53  H   LIG d   1      13.563   7.255  -0.787  0.00  0.00     0.066 H 
ATOM     54  H   LIG d   1      14.261   6.190   0.456  0.00  0.00     0.066 H 
ATOM     55  H   LIG d   1      14.787   6.044  -1.238  0.00  0.00     0.066 H 
ENDBRANCH  51  52
ENDBRANCH  48  51
BRANCH  50  56
ATOM     56  O   LIG d   1      12.748   4.881  -3.539  0.00  0.00    -0.491 OA
BRANCH  56  57
ATOM     57  C   LIG d   1      12.726   3.452  -3.541  0.00  0.00     0.079 C 
ATOM     58  H   LIG d   1      13.044   3.085  -4.517  0.00  0.00     0.066 H 
ATOM     59  H   LIG d   1      13.405   3.078  -2.773  0.00  0.00     0.066 H 
ATOM     60  H   LIG d   1      11.715   3.103  -3.333  0.00  0.00     0.066 H 
ENDBRANCH  56  57
ENDBRANCH  50  56
ENDBRANCH   1  42
TORSDOF 9
ENDMDL
MODEL 9
REMARK VINA RESULT:      -6.8      5.375     11.679
REMARK  9 active torsions:
REMARK  status: ('A' for Active; 'I' for Inactive)
REMARK    1  A    between atoms: C_1  and  O_2 
REMARK    2  A    between atoms: O_2  and  C_3 
REMARK    3  A    between atoms: C_7  and  C_11 
REMARK    4  A    between atoms: C_8  and  O_9 
REMARK    5  A    between atoms: O_9  and  C_10 
REMARK    6  A    between atoms: C_18  and  O_22 
REMARK    7  A    between atoms: O_22  and  C_23 
REMARK       I    between atoms: C_23  and  N_25 
REMARK    8  A    between atoms: N_25  and  C_26 
REMARK    9  A    between atoms: N_25  and  C_32 
ROOT
ATOM      1  C   LIG d   1      10.217   5.532  -4.363  0.00  0.00    -0.005 C 
ATOM      2  C   LIG d   1       9.630   4.326  -4.568  0.00  0.00     0.176 A 
ATOM      3  C   LIG d   1       9.562   3.599  -5.844  0.00  0.00     0.232 A 
ATOM      4  O   LIG d   1      10.011   3.942  -6.924  0.00  0.00    -0.283 OA
ATOM      5  C   LIG d   1       8.827   2.361  -5.525  0.00  0.00     0.068 A 
ATOM      6  C   LIG d   1       8.434   1.260  -6.288  0.00  0.00    -0.044 A 
ATOM      7  C   LIG d   1       7.747   0.235  -5.702  0.00  0.00    -0.018 A 
ATOM      8  C   LIG d   1       7.437   0.287  -4.345  0.00  0.00     0.137 A 
ATOM      9  C   LIG d   1       7.820   1.372  -3.576  0.00  0.00     0.024 A 
ATOM     10  C   LIG d   1       8.521   2.423  -4.156  0.00  0.00     0.143 A 
ATOM     11  O   LIG d   1       9.005   3.571  -3.635  0.00  0.00    -0.451 OA
ATOM     12  H   LIG d   1      10.604   6.094  -5.201  0.00  0.00     0.066 H 
ATOM     13  H   LIG d   1       8.673   1.219  -7.341  0.00  0.00     0.063 H 
ATOM     14  H   LIG d   1       7.442  -0.616  -6.292  0.00  0.00     0.065 H 
ATOM     15  H   LIG d   1       7.576   1.403  -2.524  0.00  0.00     0.069 H 
ENDROOT
BRANCH   8  16
ATOM     16  O   LIG d   1       6.752  -0.736  -3.772  0.00  0.00    -0.411 OA
BRANCH  16  17
ATOM     17  C   LIG d   1       6.651  -1.877  -4.480  0.00  0.00     0.417 C 
ATOM     18  O   LIG d   1       7.626  -2.586  -4.633  0.00  0.00    -0.225 OA
ATOM     19  N   LIG d   1       5.468  -2.232  -5.021  0.00  0.00    -0.206 N 
BRANCH  19  20
ATOM     20  C   LIG d   1       5.353  -3.439  -5.721  0.00  0.00     0.044 A 
ATOM     21  C   LIG d   1       5.734  -3.510  -7.055  0.00  0.00    -0.040 A 
ATOM     22  C   LIG d   1       5.619  -4.703  -7.742  0.00  0.00    -0.060 A 
ATOM     23  H   LIG d   1       6.120  -2.634  -7.553  0.00  0.00     0.064 H 
ATOM     24  C   LIG d   1       5.126  -5.825  -7.103  0.00  0.00    -0.062 A 
ATOM     25  H   LIG d   1       5.916  -4.758  -8.778  0.00  0.00     0.062 H 
ATOM     26  C   LIG d   1       4.746  -5.758  -5.775  0.00  0.00    -0.060 A 
ATOM     27  H   LIG d   1       5.038  -6.757  -7.642  0.00  0.00     0.062 H 
ATOM     28  C   LIG d   1       4.862  -4.570  -5.081  0.00  0.00    -0.040 A 
ATOM     29  H   LIG d   1       4.361  -6.637  -5.279  0.00  0.00     0.062 H 
ATOM     30  H   LIG d   1       4.569  -4.519  -4.042  0.00  0.00     0.064 H 
ENDBRANCH  19  20
BRANCH  19  31
ATOM     31  C   LIG d   1       4.355  -1.393  -4.882  0.00  0.00     0.044 A 
ATOM     32  C   LIG d   1       3.988  -0.548  -5.921  0.00  0.00    -0.040 A 
ATOM     33  C   LIG d   1       2.890   0.278  -5.781  0.00  0.00    -0.060 A 
ATOM     34  H   LIG d   1       4.560  -0.536  -6.837  0.00  0.00     0.064 H 
ATOM     35  C   LIG d   1       2.156   0.263  -4.608  0.00  0.00    -0.062 A 
ATOM     36  H   LIG d   1       2.603   0.937  -6.587  0.00  0.00     0.062 H 
ATOM     37  C   LIG d   1       2.519  -0.579  -3.573  0.00  0.00    -0.060 A 
ATOM     38  H   LIG d   1       1.298   0.910  -4.501  0.00  0.00     0.062 H 
ATOM     39  C   LIG d   1       3.614  -1.410  -3.709  0.00  0.00    -0.040 A 
ATOM     40  H   LIG d   1       1.945  -0.589  -2.659  0.00  0.00     0.062 H 
ATOM     41  H   LIG d   1       3.894  -2.070  -2.902  0.00  0.00     0.064 H 
ENDBRANCH  19  31
ENDBRANCH  16  17
ENDBRANCH   8  16
BRANCH   1  42
ATOM     42  C   LIG d   1      10.327   6.074  -3.004  0.00  0.00     0.024 A 
ATOM     43  C   LIG d   1      10.633   5.226  -1.931  0.00  0.00    -0.051 A 
ATOM     44  C   LIG d   1      10.735   5.738  -0.656  0.00  0.00    -0.058 A 
ATOM     45  H   LIG d   1      10.787   4.170  -2.103  0.00  0.00     0.062 H 
ATOM     46  C   LIG d   1      10.538   7.090  -0.428  0.00  0.00    -0.016 A 
ATOM     47  H   LIG d   1      10.975   5.084   0.168  0.00  0.00     0.062 H 
ATOM     48  C   LIG d   1      10.235   7.943  -1.478  0.00  0.00     0.162 A 
ATOM     49  H   LIG d   1      10.621   7.483   0.575  0.00  0.00     0.066 H 
ATOM     50  C   LIG d   1      10.128   7.443  -2.770  0.00  0.00     0.169 A 
BRANCH  48  51
ATOM     51  O   LIG d   1      10.043   9.268  -1.243  0.00  0.00    -0.491 OA
BRANCH  51  52
ATOM     52  C   LIG d   1       8.767   9.660  -0.733  0.00  0.00     0.079 C 
ATOM     53  H   LIG d   1       8.817  10.688  -0.377  0.00  0.00     0.066 H 
ATOM     54  H   LIG d   1       8.021   9.585  -1.524  0.00  0.00     0.066 H 
ATOM     55  H   LIG d   1       8.489   9.002   0.092  0.00  0.00     0.066 H 
ENDBRANCH  51  52
ENDBRANCH  48  51
BRANCH  50  56
ATOM     56  O   LIG d   1       9.830   8.274  -3.801  0.00  0.00    -0.491 OA
BRANCH  56  57
ATOM     57  C   LIG d   1      10.918   8.990  -4.393  0.00  0.00     0.079 C 
ATOM     58  H   LIG d   1      11.819   8.380  -4.351  0.00  0.00     0.066 H 
ATOM     59  H   LIG d   1      10.680   9.216  -5.433  0.00  0.00     0.066 H 
ATOM     60  H   LIG d   1      11.081   9.919  -3.847  0.00  0.00     0.066 H 
ENDBRANCH  56  57
ENDBRANCH  50  56
ENDBRANCH   1  42
TORSDOF 9
ENDMDL
