MODEL 1
REMARK VINA RESULT:      -6.6      0.000      0.000
REMARK  9 active torsions:
REMARK  status: ('A' for Active; 'I' for Inactive)
REMARK    1  A    between atoms: C_1  and  C_2 
REMARK    2  A    between atoms: C_5  and  N_23 
REMARK    3  A    between atoms: C_10  and  C_11 
REMARK    4  A    between atoms: C_11  and  C_13 
REMARK    5  A    between atoms: C_15  and  O_21 
REMARK    6  A    between atoms: C_18  and  O_19 
REMARK    7  A    between atoms: O_19  and  C_20 
REMARK    8  A    between atoms: O_21  and  C_22 
REMARK       I    between atoms: N_23  and  C_24 
REMARK    9  A    between atoms: C_24  and  C_26 
ROOT
ATOM      1  C   LIG d   1       2.170  -2.392 -10.278  0.00  0.00     0.006 A 
ATOM      2  C   LIG d   1       2.541  -1.295  -9.387  0.00  0.00     0.025 A 
ATOM      3  C   LIG d   1       3.079  -1.228  -8.099  0.00  0.00    -0.029 A 
ATOM      4  C   LIG d   1       3.312   0.006  -7.522  0.00  0.00     0.035 A 
ATOM      5  C   LIG d   1       3.009   1.175  -8.220  0.00  0.00    -0.037 A 
ATOM      6  C   LIG d   1       2.478   1.117  -9.489  0.00  0.00    -0.017 A 
ATOM      7  C   LIG d   1       2.238  -0.113 -10.089  0.00  0.00     0.136 A 
ATOM      8  O   LIG d   1       1.738  -0.471 -11.290  0.00  0.00    -0.451 OA
ATOM      9  C   LIG d   1       1.696  -1.812 -11.413  0.00  0.00     0.179 A 
ATOM     10  H   LIG d   1       3.313  -2.133  -7.559  0.00  0.00     0.064 H 
ATOM     11  H   LIG d   1       3.195   2.135  -7.762  0.00  0.00     0.064 H 
ATOM     12  H   LIG d   1       2.250   2.030 -10.020  0.00  0.00     0.066 H 
ENDROOT
BRANCH   9  13
ATOM     13  C   LIG d   1       1.209  -2.538 -12.592  0.00  0.00     0.232 C 
ATOM     14  O   LIG d   1       2.000  -3.042 -13.368  0.00  0.00    -0.283 OA
BRANCH  13  15
ATOM     15  C   LIG d   1      -0.241  -2.663 -12.835  0.00  0.00     0.070 A 
ATOM     16  C   LIG d   1      -0.914  -3.845 -12.494  0.00  0.00     0.131 A 
ATOM     17  C   LIG d   1      -2.277  -3.954 -12.725  0.00  0.00    -0.016 A 
ATOM     18  C   LIG d   1      -2.971  -2.901 -13.289  0.00  0.00    -0.017 A 
ATOM     19  H   LIG d   1      -2.797  -4.863 -12.464  0.00  0.00     0.066 H 
ATOM     20  C   LIG d   1      -2.310  -1.727 -13.628  0.00  0.00     0.121 A 
ATOM     21  H   LIG d   1      -4.032  -2.992 -13.466  0.00  0.00     0.066 H 
ATOM     22  C   LIG d   1      -0.953  -1.601 -13.400  0.00  0.00    -0.005 A 
ATOM     23  H   LIG d   1      -0.443  -0.686 -13.661  0.00  0.00     0.066 H 
BRANCH  16  24
ATOM     24  O   LIG d   1      -0.233  -4.880 -11.939  0.00  0.00    -0.494 OA
BRANCH  24  25
ATOM     25  C   LIG d   1      -0.885  -5.597 -10.890  0.00  0.00     0.079 C 
ATOM     26  H   LIG d   1      -1.665  -6.231 -11.312  0.00  0.00     0.066 H 
ATOM     27  H   LIG d   1      -0.157  -6.217 -10.366  0.00  0.00     0.066 H 
ATOM     28  H   LIG d   1      -1.331  -4.891 -10.190  0.00  0.00     0.066 H 
ENDBRANCH  24  25
ENDBRANCH  16  24
BRANCH  20  29
ATOM     29  O   LIG d   1      -3.003  -0.696 -14.182  0.00  0.00    -0.495 OA
BRANCH  29  30
ATOM     30  C   LIG d   1      -3.338   0.397 -13.323  0.00  0.00     0.079 C 
ATOM     31  H   LIG d   1      -4.024   1.068 -13.840  0.00  0.00     0.066 H 
ATOM     32  H   LIG d   1      -3.814   0.015 -12.420  0.00  0.00     0.066 H 
ATOM     33  H   LIG d   1      -2.432   0.939 -13.055  0.00  0.00     0.066 H 
ENDBRANCH  29  30
ENDBRANCH  20  29
ENDBRANCH  13  15
ENDBRANCH   9  13
BRANCH   1  34
ATOM     34  C   LIG d   1       2.291  -3.868  -9.996  0.00  0.00    -0.035 C 
ATOM     35  H   LIG d   1       3.302  -4.092  -9.658  0.00  0.00     0.028 H 
ATOM     36  H   LIG d   1       1.578  -4.150  -9.222  0.00  0.00     0.028 H 
ATOM     37  H   LIG d   1       2.080  -4.430 -10.906  0.00  0.00     0.028 H 
ENDBRANCH   1  34
BRANCH   4  38
ATOM     38  N   LIG d   1       3.850   0.084  -6.231  0.00  0.00    -0.281 N 
ATOM     39  C   LIG d   1       3.032   0.170  -5.164  0.00  0.00     0.248 C 
ATOM     40  O   LIG d   1       1.830   0.260  -5.325  0.00  0.00    -0.270 OA
ATOM     41  H   LIG d   1       4.812   0.077  -6.106  0.00  0.00     0.155 HD
BRANCH  39  42
ATOM     42  C   LIG d   1       3.595   0.152  -3.797  0.00  0.00     0.037 A 
ATOM     43  C   LIG d   1       3.805   1.349  -3.110  0.00  0.00    -0.050 A 
ATOM     44  C   LIG d   1       4.331   1.325  -1.836  0.00  0.00    -0.061 A 
ATOM     45  H   LIG d   1       3.556   2.291  -3.576  0.00  0.00     0.062 H 
ATOM     46  C   LIG d   1       4.650   0.119  -1.237  0.00  0.00    -0.062 A 
ATOM     47  H   LIG d   1       4.494   2.251  -1.303  0.00  0.00     0.062 H 
ATOM     48  C   LIG d   1       4.445  -1.070  -1.912  0.00  0.00    -0.061 A 
ATOM     49  H   LIG d   1       5.062   0.107  -0.238  0.00  0.00     0.062 H 
ATOM     50  C   LIG d   1       3.914  -1.062  -3.186  0.00  0.00    -0.050 A 
ATOM     51  H   LIG d   1       4.696  -2.009  -1.440  0.00  0.00     0.062 H 
ATOM     52  H   LIG d   1       3.751  -1.991  -3.711  0.00  0.00     0.062 H 
ENDBRANCH  39  42
ENDBRANCH   4  38
TORSDOF 9
ENDMDL
MODEL 2
REMARK VINA RESULT:      -6.6      8.361     13.287
REMARK  9 active torsions:
REMARK  status: ('A' for Active; 'I' for Inactive)
REMARK    1  A    between atoms: C_1  and  C_2 
REMARK    2  A    between atoms: C_5  and  N_23 
REMARK    3  A    between atoms: C_10  and  C_11 
REMARK    4  A    between atoms: C_11  and  C_13 
REMARK    5  A    between atoms: C_15  and  O_21 
REMARK    6  A    between atoms: C_18  and  O_19 
REMARK    7  A    between atoms: O_19  and  C_20 
REMARK    8  A    between atoms: O_21  and  C_22 
REMARK       I    between atoms: N_23  and  C_24 
REMARK    9  A    between atoms: C_24  and  C_26 
ROOT
ATOM      1  C   LIG d   1      10.274   4.850  -3.527  0.00  0.00     0.006 A 
ATOM      2  C   LIG d   1       9.595   3.759  -4.223  0.00  0.00     0.025 A 
ATOM      3  C   LIG d   1       8.866   2.643  -3.804  0.00  0.00    -0.029 A 
ATOM      4  C   LIG d   1       8.346   1.775  -4.747  0.00  0.00     0.035 A 
ATOM      5  C   LIG d   1       8.550   2.013  -6.105  0.00  0.00    -0.037 A 
ATOM      6  C   LIG d   1       9.267   3.110  -6.526  0.00  0.00    -0.017 A 
ATOM      7  C   LIG d   1       9.798   3.996  -5.596  0.00  0.00     0.136 A 
ATOM      8  O   LIG d   1      10.525   5.126  -5.710  0.00  0.00    -0.451 OA
ATOM      9  C   LIG d   1      10.808   5.640  -4.496  0.00  0.00     0.179 A 
ATOM     10  H   LIG d   1       8.709   2.459  -2.751  0.00  0.00     0.064 H 
ATOM     11  H   LIG d   1       8.140   1.331  -6.835  0.00  0.00     0.064 H 
ATOM     12  H   LIG d   1       9.417   3.284  -7.582  0.00  0.00     0.066 H 
ENDROOT
BRANCH   9  13
ATOM     13  C   LIG d   1      11.582   6.865  -4.257  0.00  0.00     0.232 C 
ATOM     14  O   LIG d   1      12.794   6.811  -4.167  0.00  0.00    -0.283 OA
BRANCH  13  15
ATOM     15  C   LIG d   1      10.890   8.162  -4.131  0.00  0.00     0.070 A 
ATOM     16  C   LIG d   1      10.517   8.876  -5.278  0.00  0.00     0.131 A 
ATOM     17  C   LIG d   1       9.866  10.094  -5.150  0.00  0.00    -0.016 A 
ATOM     18  C   LIG d   1       9.587  10.604  -3.897  0.00  0.00    -0.017 A 
ATOM     19  H   LIG d   1       9.578  10.646  -6.032  0.00  0.00     0.066 H 
ATOM     20  C   LIG d   1       9.954   9.900  -2.756  0.00  0.00     0.121 A 
ATOM     21  H   LIG d   1       9.081  11.552  -3.804  0.00  0.00     0.066 H 
ATOM     22  C   LIG d   1      10.598   8.682  -2.867  0.00  0.00    -0.005 A 
ATOM     23  H   LIG d   1      10.878   8.136  -1.979  0.00  0.00     0.066 H 
BRANCH  16  24
ATOM     24  O   LIG d   1      10.790   8.377  -6.510  0.00  0.00    -0.494 OA
BRANCH  24  25
ATOM     25  C   LIG d   1       9.684   8.194  -7.396  0.00  0.00     0.079 C 
ATOM     26  H   LIG d   1       8.843   8.801  -7.058  0.00  0.00     0.066 H 
ATOM     27  H   LIG d   1       9.970   8.498  -8.403  0.00  0.00     0.066 H 
ATOM     28  H   LIG d   1       9.394   7.144  -7.403  0.00  0.00     0.066 H 
ENDBRANCH  24  25
ENDBRANCH  16  24
BRANCH  20  29
ATOM     29  O   LIG d   1       9.673  10.410  -1.527  0.00  0.00    -0.495 OA
BRANCH  29  30
ATOM     30  C   LIG d   1       8.777   9.660  -0.703  0.00  0.00     0.079 C 
ATOM     31  H   LIG d   1       8.703  10.133   0.276  0.00  0.00     0.066 H 
ATOM     32  H   LIG d   1       7.792   9.634  -1.169  0.00  0.00     0.066 H 
ATOM     33  H   LIG d   1       9.153   8.644  -0.589  0.00  0.00     0.066 H 
ENDBRANCH  29  30
ENDBRANCH  20  29
ENDBRANCH  13  15
ENDBRANCH   9  13
BRANCH   1  34
ATOM     34  C   LIG d   1      10.360   5.058  -2.037  0.00  0.00    -0.035 C 
ATOM     35  H   LIG d   1       9.418   5.466  -1.672  0.00  0.00     0.028 H 
ATOM     36  H   LIG d   1      10.558   4.105  -1.548  0.00  0.00     0.028 H 
ATOM     37  H   LIG d   1      11.168   5.755  -1.814  0.00  0.00     0.028 H 
ENDBRANCH   1  34
BRANCH   4  38
ATOM     38  N   LIG d   1       7.614   0.654  -4.336  0.00  0.00    -0.281 N 
ATOM     39  C   LIG d   1       6.460   0.814  -3.659  0.00  0.00     0.248 C 
ATOM     40  O   LIG d   1       6.094   1.927  -3.335  0.00  0.00    -0.270 OA
ATOM     41  H   LIG d   1       7.939  -0.238  -4.538  0.00  0.00     0.155 HD
BRANCH  39  42
ATOM     42  C   LIG d   1       5.637  -0.364  -3.312  0.00  0.00     0.037 A 
ATOM     43  C   LIG d   1       4.839  -0.350  -2.167  0.00  0.00    -0.050 A 
ATOM     44  C   LIG d   1       4.074  -1.452  -1.849  0.00  0.00    -0.061 A 
ATOM     45  H   LIG d   1       4.821   0.524  -1.532  0.00  0.00     0.062 H 
ATOM     46  C   LIG d   1       4.096  -2.571  -2.663  0.00  0.00    -0.062 A 
ATOM     47  H   LIG d   1       3.456  -1.442  -0.963  0.00  0.00     0.062 H 
ATOM     48  C   LIG d   1       4.884  -2.593  -3.799  0.00  0.00    -0.061 A 
ATOM     49  H   LIG d   1       3.495  -3.433  -2.409  0.00  0.00     0.062 H 
ATOM     50  C   LIG d   1       5.651  -1.494  -4.132  0.00  0.00    -0.050 A 
ATOM     51  H   LIG d   1       4.898  -3.470  -4.430  0.00  0.00     0.062 H 
ATOM     52  H   LIG d   1       6.263  -1.511  -5.021  0.00  0.00     0.062 H 
ENDBRANCH  39  42
ENDBRANCH   4  38
TORSDOF 9
ENDMDL
MODEL 3
REMARK VINA RESULT:      -6.5      8.475     13.863
REMARK  9 active torsions:
REMARK  status: ('A' for Active; 'I' for Inactive)
REMARK    1  A    between atoms: C_1  and  C_2 
REMARK    2  A    between atoms: C_5  and  N_23 
REMARK    3  A    between atoms: C_10  and  C_11 
REMARK    4  A    between atoms: C_11  and  C_13 
REMARK    5  A    between atoms: C_15  and  O_21 
REMARK    6  A    between atoms: C_18  and  O_19 
REMARK    7  A    between atoms: O_19  and  C_20 
REMARK    8  A    between atoms: O_21  and  C_22 
REMARK       I    between atoms: N_23  and  C_24 
REMARK    9  A    between atoms: C_24  and  C_26 
ROOT
ATOM      1  C   LIG d   1      10.613   4.884  -2.975  0.00  0.00     0.006 A 
ATOM      2  C   LIG d   1       9.897   3.852  -3.722  0.00  0.00     0.025 A 
ATOM      3  C   LIG d   1       9.152   2.728  -3.357  0.00  0.00    -0.029 A 
ATOM      4  C   LIG d   1       8.595   1.931  -4.339  0.00  0.00     0.035 A 
ATOM      5  C   LIG d   1       8.777   2.248  -5.685  0.00  0.00    -0.037 A 
ATOM      6  C   LIG d   1       9.510   3.353  -6.053  0.00  0.00    -0.017 A 
ATOM      7  C   LIG d   1      10.078   4.169  -5.082  0.00  0.00     0.136 A 
ATOM      8  O   LIG d   1      10.828   5.289  -5.142  0.00  0.00    -0.451 OA
ATOM      9  C   LIG d   1      11.146   5.721  -3.905  0.00  0.00     0.179 A 
ATOM     10  H   LIG d   1       9.011   2.483  -2.314  0.00  0.00     0.064 H 
ATOM     11  H   LIG d   1       8.338   1.620  -6.447  0.00  0.00     0.064 H 
ATOM     12  H   LIG d   1       9.643   3.588  -7.099  0.00  0.00     0.066 H 
ENDROOT
BRANCH   9  13
ATOM     13  C   LIG d   1      11.951   6.912  -3.607  0.00  0.00     0.232 C 
ATOM     14  O   LIG d   1      13.166   6.840  -3.597  0.00  0.00    -0.283 OA
BRANCH  13  15
ATOM     15  C   LIG d   1      11.287   8.200  -3.326  0.00  0.00     0.070 A 
ATOM     16  C   LIG d   1      11.398   8.788  -2.058  0.00  0.00     0.131 A 
ATOM     17  C   LIG d   1      10.771   9.998  -1.802  0.00  0.00    -0.016 A 
ATOM     18  C   LIG d   1      10.039  10.623  -2.793  0.00  0.00    -0.017 A 
ATOM     19  H   LIG d   1      10.855  10.452  -0.827  0.00  0.00     0.066 H 
ATOM     20  C   LIG d   1       9.926  10.045  -4.052  0.00  0.00     0.121 A 
ATOM     21  H   LIG d   1       9.554  11.565  -2.588  0.00  0.00     0.066 H 
ATOM     22  C   LIG d   1      10.549   8.842  -4.324  0.00  0.00    -0.005 A 
ATOM     23  H   LIG d   1      10.462   8.398  -5.304  0.00  0.00     0.066 H 
BRANCH  16  24
ATOM     24  O   LIG d   1      12.117   8.175  -1.084  0.00  0.00    -0.494 OA
BRANCH  24  25
ATOM     25  C   LIG d   1      11.679   8.364   0.263  0.00  0.00     0.079 C 
ATOM     26  H   LIG d   1      11.061   9.261   0.321  0.00  0.00     0.066 H 
ATOM     27  H   LIG d   1      11.097   7.500   0.581  0.00  0.00     0.066 H 
ATOM     28  H   LIG d   1      12.546   8.478   0.914  0.00  0.00     0.066 H 
ENDBRANCH  24  25
ENDBRANCH  16  24
BRANCH  20  29
ATOM     29  O   LIG d   1       9.204  10.670  -5.021  0.00  0.00    -0.495 OA
BRANCH  29  30
ATOM     30  C   LIG d   1       9.541  12.029  -5.307  0.00  0.00     0.079 C 
ATOM     31  H   LIG d   1       9.693  12.147  -6.380  0.00  0.00     0.066 H 
ATOM     32  H   LIG d   1       8.730  12.680  -4.981  0.00  0.00     0.066 H 
ATOM     33  H   LIG d   1      10.457  12.295  -4.779  0.00  0.00     0.066 H 
ENDBRANCH  29  30
ENDBRANCH  20  29
ENDBRANCH  13  15
ENDBRANCH   9  13
BRANCH   1  34
ATOM     34  C   LIG d   1      10.734   4.998  -1.477  0.00  0.00    -0.035 C 
ATOM     35  H   LIG d   1      10.744   6.051  -1.193  0.00  0.00     0.028 H 
ATOM     36  H   LIG d   1       9.885   4.503  -1.005  0.00  0.00     0.028 H 
ATOM     37  H   LIG d   1      11.659   4.524  -1.150  0.00  0.00     0.028 H 
ENDBRANCH   1  34
BRANCH   4  38
ATOM     38  N   LIG d   1       7.847   0.801  -3.983  0.00  0.00    -0.281 N 
ATOM     39  C   LIG d   1       6.590   0.946  -3.519  0.00  0.00     0.248 C 
ATOM     40  O   LIG d   1       6.134   2.057  -3.334  0.00  0.00    -0.270 OA
ATOM     41  H   LIG d   1       8.234  -0.084  -4.070  0.00  0.00     0.155 HD
BRANCH  39  42
ATOM     42  C   LIG d   1       5.765  -0.248  -3.237  0.00  0.00     0.037 A 
ATOM     43  C   LIG d   1       4.863  -0.241  -2.172  0.00  0.00    -0.050 A 
ATOM     44  C   LIG d   1       4.097  -1.358  -1.913  0.00  0.00    -0.061 A 
ATOM     45  H   LIG d   1       4.766   0.638  -1.551  0.00  0.00     0.062 H 
ATOM     46  C   LIG d   1       4.220  -2.484  -2.708  0.00  0.00    -0.062 A 
ATOM     47  H   LIG d   1       3.399  -1.354  -1.089  0.00  0.00     0.062 H 
ATOM     48  C   LIG d   1       5.111  -2.499  -3.765  0.00  0.00    -0.061 A 
ATOM     49  H   LIG d   1       3.617  -3.357  -2.501  0.00  0.00     0.062 H 
ATOM     50  C   LIG d   1       5.881  -1.385  -4.038  0.00  0.00    -0.050 A 
ATOM     51  H   LIG d   1       5.204  -3.381  -4.382  0.00  0.00     0.062 H 
ATOM     52  H   LIG d   1       6.574  -1.396  -4.866  0.00  0.00     0.062 H 
ENDBRANCH  39  42
ENDBRANCH   4  38
TORSDOF 9
ENDMDL
MODEL 4
REMARK VINA RESULT:      -6.4      6.128     12.493
REMARK  9 active torsions:
REMARK  status: ('A' for Active; 'I' for Inactive)
REMARK    1  A    between atoms: C_1  and  C_2 
REMARK    2  A    between atoms: C_5  and  N_23 
REMARK    3  A    between atoms: C_10  and  C_11 
REMARK    4  A    between atoms: C_11  and  C_13 
REMARK    5  A    between atoms: C_15  and  O_21 
REMARK    6  A    between atoms: C_18  and  O_19 
REMARK    7  A    between atoms: O_19  and  C_20 
REMARK    8  A    between atoms: O_21  and  C_22 
REMARK       I    between atoms: N_23  and  C_24 
REMARK    9  A    between atoms: C_24  and  C_26 
ROOT
ATOM      1  C   LIG d   1       9.208   2.187  -5.472  0.00  0.00     0.006 A 
ATOM      2  C   LIG d   1       8.029   1.332  -5.348  0.00  0.00     0.025 A 
ATOM      3  C   LIG d   1       7.240   0.624  -6.259  0.00  0.00    -0.029 A 
ATOM      4  C   LIG d   1       6.160  -0.106  -5.802  0.00  0.00     0.035 A 
ATOM      5  C   LIG d   1       5.859  -0.134  -4.441  0.00  0.00    -0.037 A 
ATOM      6  C   LIG d   1       6.631   0.560  -3.536  0.00  0.00    -0.017 A 
ATOM      7  C   LIG d   1       7.723   1.299  -3.974  0.00  0.00     0.136 A 
ATOM      8  O   LIG d   1       8.636   2.060  -3.337  0.00  0.00    -0.451 OA
ATOM      9  C   LIG d   1       9.518   2.585  -4.210  0.00  0.00     0.179 A 
ATOM     10  H   LIG d   1       7.474   0.647  -7.314  0.00  0.00     0.064 H 
ATOM     11  H   LIG d   1       5.013  -0.708  -4.091  0.00  0.00     0.064 H 
ATOM     12  H   LIG d   1       6.388   0.529  -2.484  0.00  0.00     0.066 H 
ENDROOT
BRANCH   9  13
ATOM     13  C   LIG d   1      10.642   3.460  -3.853  0.00  0.00     0.232 C 
ATOM     14  O   LIG d   1      11.787   3.087  -4.034  0.00  0.00    -0.283 OA
BRANCH  13  15
ATOM     15  C   LIG d   1      10.385   4.796  -3.281  0.00  0.00     0.070 A 
ATOM     16  C   LIG d   1      10.122   5.885  -4.123  0.00  0.00     0.131 A 
ATOM     17  C   LIG d   1       9.881   7.137  -3.576  0.00  0.00    -0.016 A 
ATOM     18  C   LIG d   1       9.900   7.311  -2.206  0.00  0.00    -0.017 A 
ATOM     19  H   LIG d   1       9.678   7.977  -4.223  0.00  0.00     0.066 H 
ATOM     20  C   LIG d   1      10.160   6.234  -1.366  0.00  0.00     0.121 A 
ATOM     21  H   LIG d   1       9.711   8.287  -1.787  0.00  0.00     0.066 H 
ATOM     22  C   LIG d   1      10.397   4.980  -1.895  0.00  0.00    -0.005 A 
ATOM     23  H   LIG d   1      10.594   4.145  -1.240  0.00  0.00     0.066 H 
BRANCH  16  24
ATOM     24  O   LIG d   1      10.103   5.716  -5.469  0.00  0.00    -0.494 OA
BRANCH  24  25
ATOM     25  C   LIG d   1       9.679   6.829  -6.257  0.00  0.00     0.079 C 
ATOM     26  H   LIG d   1       8.779   7.263  -5.820  0.00  0.00     0.066 H 
ATOM     27  H   LIG d   1      10.469   7.580  -6.281  0.00  0.00     0.066 H 
ATOM     28  H   LIG d   1       9.465   6.495  -7.272  0.00  0.00     0.066 H 
ENDBRANCH  24  25
ENDBRANCH  16  24
BRANCH  20  29
ATOM     29  O   LIG d   1      10.175   6.416  -0.018  0.00  0.00    -0.495 OA
BRANCH  29  30
ATOM     30  C   LIG d   1      11.255   5.823   0.705  0.00  0.00     0.079 C 
ATOM     31  H   LIG d   1      11.714   6.571   1.351  0.00  0.00     0.066 H 
ATOM     32  H   LIG d   1      10.877   5.000   1.312  0.00  0.00     0.066 H 
ATOM     33  H   LIG d   1      11.998   5.445   0.002  0.00  0.00     0.066 H 
ENDBRANCH  29  30
ENDBRANCH  20  29
ENDBRANCH  13  15
ENDBRANCH   9  13
BRANCH   1  34
ATOM     34  C   LIG d   1       9.933   2.551  -6.743  0.00  0.00    -0.035 C 
ATOM     35  H   LIG d   1       9.457   2.052  -7.588  0.00  0.00     0.028 H 
ATOM     36  H   LIG d   1       9.893   3.630  -6.888  0.00  0.00     0.028 H 
ATOM     37  H   LIG d   1      10.973   2.232  -6.672  0.00  0.00     0.028 H 
ENDBRANCH   1  34
BRANCH   4  38
ATOM     38  N   LIG d   1       5.363  -0.817  -6.708  0.00  0.00    -0.281 N 
ATOM     39  C   LIG d   1       4.165  -0.325  -7.082  0.00  0.00     0.248 C 
ATOM     40  O   LIG d   1       3.741   0.694  -6.573  0.00  0.00    -0.270 OA
ATOM     41  H   LIG d   1       5.673  -1.664  -7.065  0.00  0.00     0.155 HD
BRANCH  39  42
ATOM     42  C   LIG d   1       3.368  -1.025  -8.111  0.00  0.00     0.037 A 
ATOM     43  C   LIG d   1       3.653  -2.352  -8.437  0.00  0.00    -0.050 A 
ATOM     44  C   LIG d   1       2.906  -2.998  -9.399  0.00  0.00    -0.061 A 
ATOM     45  H   LIG d   1       4.458  -2.870  -7.937  0.00  0.00     0.062 H 
ATOM     46  C   LIG d   1       1.874  -2.336 -10.039  0.00  0.00    -0.062 A 
ATOM     47  H   LIG d   1       3.126  -4.026  -9.652  0.00  0.00     0.062 H 
ATOM     48  C   LIG d   1       1.585  -1.022  -9.721  0.00  0.00    -0.061 A 
ATOM     49  H   LIG d   1       1.291  -2.848 -10.792  0.00  0.00     0.062 H 
ATOM     50  C   LIG d   1       2.322  -0.363  -8.757  0.00  0.00    -0.050 A 
ATOM     51  H   LIG d   1       0.778  -0.509 -10.225  0.00  0.00     0.062 H 
ATOM     52  H   LIG d   1       2.093   0.662  -8.507  0.00  0.00     0.062 H 
ENDBRANCH  39  42
ENDBRANCH   4  38
TORSDOF 9
ENDMDL
MODEL 5
REMARK VINA RESULT:      -6.1      3.295      4.559
REMARK  9 active torsions:
REMARK  status: ('A' for Active; 'I' for Inactive)
REMARK    1  A    between atoms: C_1  and  C_2 
REMARK    2  A    between atoms: C_5  and  N_23 
REMARK    3  A    between atoms: C_10  and  C_11 
REMARK    4  A    between atoms: C_11  and  C_13 
REMARK    5  A    between atoms: C_15  and  O_21 
REMARK    6  A    between atoms: C_18  and  O_19 
REMARK    7  A    between atoms: O_19  and  C_20 
REMARK    8  A    between atoms: O_21  and  C_22 
REMARK       I    between atoms: N_23  and  C_24 
REMARK    9  A    between atoms: C_24  and  C_26 
ROOT
ATOM      1  C   LIG d   1       3.030  -1.977 -11.206  0.00  0.00     0.006 A 
ATOM      2  C   LIG d   1       3.098  -1.094 -10.043  0.00  0.00     0.025 A 
ATOM      3  C   LIG d   1       3.108  -1.305  -8.662  0.00  0.00    -0.029 A 
ATOM      4  C   LIG d   1       3.175  -0.221  -7.807  0.00  0.00     0.035 A 
ATOM      5  C   LIG d   1       3.231   1.074  -8.322  0.00  0.00    -0.037 A 
ATOM      6  C   LIG d   1       3.220   1.290  -9.681  0.00  0.00    -0.017 A 
ATOM      7  C   LIG d   1       3.155   0.215 -10.559  0.00  0.00     0.136 A 
ATOM      8  O   LIG d   1       3.129   0.123 -11.904  0.00  0.00    -0.451 OA
ATOM      9  C   LIG d   1       3.060  -1.165 -12.296  0.00  0.00     0.179 A 
ATOM     10  H   LIG d   1       3.065  -2.309  -8.264  0.00  0.00     0.064 H 
ATOM     11  H   LIG d   1       3.283   1.916  -7.647  0.00  0.00     0.064 H 
ATOM     12  H   LIG d   1       3.265   2.298 -10.067  0.00  0.00     0.066 H 
ENDROOT
BRANCH   9  13
ATOM     13  C   LIG d   1       3.016  -1.623 -13.691  0.00  0.00     0.232 C 
ATOM     14  O   LIG d   1       2.026  -2.189 -14.116  0.00  0.00    -0.283 OA
BRANCH  13  15
ATOM     15  C   LIG d   1       4.170  -1.390 -14.580  0.00  0.00     0.070 A 
ATOM     16  C   LIG d   1       5.194  -2.344 -14.670  0.00  0.00     0.131 A 
ATOM     17  C   LIG d   1       6.275  -2.118 -15.509  0.00  0.00    -0.016 A 
ATOM     18  C   LIG d   1       6.345  -0.956 -16.253  0.00  0.00    -0.017 A 
ATOM     19  H   LIG d   1       7.065  -2.851 -15.580  0.00  0.00     0.066 H 
ATOM     20  C   LIG d   1       5.333  -0.007 -16.168  0.00  0.00     0.121 A 
ATOM     21  H   LIG d   1       7.189  -0.786 -16.904  0.00  0.00     0.066 H 
ATOM     22  C   LIG d   1       4.246  -0.220 -15.341  0.00  0.00    -0.005 A 
ATOM     23  H   LIG d   1       3.460   0.517 -15.280  0.00  0.00     0.066 H 
BRANCH  16  24
ATOM     24  O   LIG d   1       5.127  -3.486 -13.940  0.00  0.00    -0.494 OA
BRANCH  24  25
ATOM     25  C   LIG d   1       6.155  -3.698 -12.971  0.00  0.00     0.079 C 
ATOM     26  H   LIG d   1       7.068  -4.016 -13.473  0.00  0.00     0.066 H 
ATOM     27  H   LIG d   1       6.342  -2.770 -12.430  0.00  0.00     0.066 H 
ATOM     28  H   LIG d   1       5.839  -4.470 -12.269  0.00  0.00     0.066 H 
ENDBRANCH  24  25
ENDBRANCH  16  24
BRANCH  20  29
ATOM     29  O   LIG d   1       5.410   1.133 -16.906  0.00  0.00    -0.495 OA
BRANCH  29  30
ATOM     30  C   LIG d   1       4.218   1.912 -17.023  0.00  0.00     0.079 C 
ATOM     31  H   LIG d   1       4.262   2.508 -17.935  0.00  0.00     0.066 H 
ATOM     32  H   LIG d   1       3.354   1.249 -17.063  0.00  0.00     0.066 H 
ATOM     33  H   LIG d   1       4.130   2.573 -16.161  0.00  0.00     0.066 H 
ENDBRANCH  29  30
ENDBRANCH  20  29
ENDBRANCH  13  15
ENDBRANCH   9  13
BRANCH   1  34
ATOM     34  C   LIG d   1       2.948  -3.482 -11.197  0.00  0.00    -0.035 C 
ATOM     35  H   LIG d   1       2.805  -3.844 -12.215  0.00  0.00     0.028 H 
ATOM     36  H   LIG d   1       3.872  -3.894 -10.792  0.00  0.00     0.028 H 
ATOM     37  H   LIG d   1       2.108  -3.796 -10.578  0.00  0.00     0.028 H 
ENDBRANCH   1  34
BRANCH   4  38
ATOM     38  N   LIG d   1       3.186  -0.422  -6.421  0.00  0.00    -0.281 N 
ATOM     39  C   LIG d   1       4.358  -0.546  -5.768  0.00  0.00     0.248 C 
ATOM     40  O   LIG d   1       5.402  -0.564  -6.390  0.00  0.00    -0.270 OA
ATOM     41  H   LIG d   1       2.350  -0.473  -5.932  0.00  0.00     0.155 HD
BRANCH  39  42
ATOM     42  C   LIG d   1       4.374  -0.660  -4.294  0.00  0.00     0.037 A 
ATOM     43  C   LIG d   1       4.733   0.438  -3.510  0.00  0.00    -0.050 A 
ATOM     44  C   LIG d   1       4.746   0.325  -2.136  0.00  0.00    -0.061 A 
ATOM     45  H   LIG d   1       5.000   1.374  -3.979  0.00  0.00     0.062 H 
ATOM     46  C   LIG d   1       4.403  -0.872  -1.533  0.00  0.00    -0.062 A 
ATOM     47  H   LIG d   1       5.023   1.175  -1.528  0.00  0.00     0.062 H 
ATOM     48  C   LIG d   1       4.046  -1.964  -2.303  0.00  0.00    -0.061 A 
ATOM     49  H   LIG d   1       4.415  -0.955  -0.456  0.00  0.00     0.062 H 
ATOM     50  C   LIG d   1       4.025  -1.863  -3.680  0.00  0.00    -0.050 A 
ATOM     51  H   LIG d   1       3.780  -2.896  -1.827  0.00  0.00     0.062 H 
ATOM     52  H   LIG d   1       3.743  -2.716  -4.280  0.00  0.00     0.062 H 
ENDBRANCH  39  42
ENDBRANCH   4  38
TORSDOF 9
ENDMDL
MODEL 6
REMARK VINA RESULT:      -6.1      8.058     12.214
REMARK  9 active torsions:
REMARK  status: ('A' for Active; 'I' for Inactive)
REMARK    1  A    between atoms: C_1  and  C_2 
REMARK    2  A    between atoms: C_5  and  N_23 
REMARK    3  A    between atoms: C_10  and  C_11 
REMARK    4  A    between atoms: C_11  and  C_13 
REMARK    5  A    between atoms: C_15  and  O_21 
REMARK    6  A    between atoms: C_18  and  O_19 
REMARK    7  A    between atoms: O_19  and  C_20 
REMARK    8  A    between atoms: O_21  and  C_22 
REMARK       I    between atoms: N_23  and  C_24 
REMARK    9  A    between atoms: C_24  and  C_26 
ROOT
ATOM      1  C   LIG d   1      10.015   5.026  -5.012  0.00  0.00     0.006 A 
ATOM      2  C   LIG d   1       9.765   3.594  -4.860  0.00  0.00     0.025 A 
ATOM      3  C   LIG d   1       8.781   2.843  -4.212  0.00  0.00    -0.029 A 
ATOM      4  C   LIG d   1       8.838   1.462  -4.257  0.00  0.00     0.035 A 
ATOM      5  C   LIG d   1       9.872   0.826  -4.943  0.00  0.00    -0.037 A 
ATOM      6  C   LIG d   1      10.845   1.559  -5.584  0.00  0.00    -0.017 A 
ATOM      7  C   LIG d   1      10.806   2.948  -5.553  0.00  0.00     0.136 A 
ATOM      8  O   LIG d   1      11.602   3.904  -6.074  0.00  0.00    -0.451 OA
ATOM      9  C   LIG d   1      11.142   5.133  -5.765  0.00  0.00     0.179 A 
ATOM     10  H   LIG d   1       7.980   3.336  -3.681  0.00  0.00     0.064 H 
ATOM     11  H   LIG d   1       9.909  -0.253  -4.974  0.00  0.00     0.064 H 
ATOM     12  H   LIG d   1      11.640   1.054  -6.113  0.00  0.00     0.066 H 
ENDROOT
BRANCH   9  13
ATOM     13  C   LIG d   1      11.768   6.397  -6.174  0.00  0.00     0.232 C 
ATOM     14  O   LIG d   1      12.720   6.834  -5.554  0.00  0.00    -0.283 OA
BRANCH  13  15
ATOM     15  C   LIG d   1      11.247   7.135  -7.340  0.00  0.00     0.070 A 
ATOM     16  C   LIG d   1      10.640   8.387  -7.169  0.00  0.00     0.131 A 
ATOM     17  C   LIG d   1      10.154   9.074  -8.270  0.00  0.00    -0.016 A 
ATOM     18  C   LIG d   1      10.266   8.527  -9.534  0.00  0.00    -0.017 A 
ATOM     19  H   LIG d   1       9.686  10.038  -8.141  0.00  0.00     0.066 H 
ATOM     20  C   LIG d   1      10.866   7.286  -9.710  0.00  0.00     0.121 A 
ATOM     21  H   LIG d   1       9.885   9.066 -10.388  0.00  0.00     0.066 H 
ATOM     22  C   LIG d   1      11.361   6.591  -8.623  0.00  0.00    -0.005 A 
ATOM     23  H   LIG d   1      11.831   5.629  -8.763  0.00  0.00     0.066 H 
BRANCH  16  24
ATOM     24  O   LIG d   1      10.531   8.926  -5.928  0.00  0.00    -0.494 OA
BRANCH  24  25
ATOM     25  C   LIG d   1       9.547   9.947  -5.749  0.00  0.00     0.079 C 
ATOM     26  H   LIG d   1       9.687  10.419  -4.776  0.00  0.00     0.066 H 
ATOM     27  H   LIG d   1       9.653  10.696  -6.534  0.00  0.00     0.066 H 
ATOM     28  H   LIG d   1       8.552   9.506  -5.799  0.00  0.00     0.066 H 
ENDBRANCH  24  25
ENDBRANCH  16  24
BRANCH  20  29
ATOM     29  O   LIG d   1      10.973   6.757 -10.959  0.00  0.00    -0.495 OA
BRANCH  29  30
ATOM     30  C   LIG d   1      10.155   5.622 -11.254  0.00  0.00     0.079 C 
ATOM     31  H   LIG d   1      10.467   4.779 -10.637  0.00  0.00     0.066 H 
ATOM     32  H   LIG d   1       9.113   5.861 -11.044  0.00  0.00     0.066 H 
ATOM     33  H   LIG d   1      10.263   5.361 -12.307  0.00  0.00     0.066 H 
ENDBRANCH  29  30
ENDBRANCH  20  29
ENDBRANCH  13  15
ENDBRANCH   9  13
BRANCH   1  34
ATOM     34  C   LIG d   1       9.189   6.154  -4.451  0.00  0.00    -0.035 C 
ATOM     35  H   LIG d   1       9.817   6.789  -3.826  0.00  0.00     0.028 H 
ATOM     36  H   LIG d   1       8.775   6.744  -5.268  0.00  0.00     0.028 H 
ATOM     37  H   LIG d   1       8.375   5.746  -3.851  0.00  0.00     0.028 H 
ENDBRANCH   1  34
BRANCH   4  38
ATOM     38  N   LIG d   1       7.856   0.700  -3.610  0.00  0.00    -0.281 N 
ATOM     39  C   LIG d   1       6.744   0.331  -4.276  0.00  0.00     0.248 C 
ATOM     40  O   LIG d   1       6.555   0.725  -5.410  0.00  0.00    -0.270 OA
ATOM     41  H   LIG d   1       7.977   0.440  -2.684  0.00  0.00     0.155 HD
BRANCH  39  42
ATOM     42  C   LIG d   1       5.755  -0.555  -3.626  0.00  0.00     0.037 A 
ATOM     43  C   LIG d   1       5.090  -0.137  -2.473  0.00  0.00    -0.050 A 
ATOM     44  C   LIG d   1       4.168  -0.968  -1.872  0.00  0.00    -0.061 A 
ATOM     45  H   LIG d   1       5.297   0.836  -2.052  0.00  0.00     0.062 H 
ATOM     46  C   LIG d   1       3.901  -2.214  -2.410  0.00  0.00    -0.062 A 
ATOM     47  H   LIG d   1       3.653  -0.645  -0.979  0.00  0.00     0.062 H 
ATOM     48  C   LIG d   1       4.556  -2.636  -3.553  0.00  0.00    -0.061 A 
ATOM     49  H   LIG d   1       3.178  -2.862  -1.935  0.00  0.00     0.062 H 
ATOM     50  C   LIG d   1       5.478  -1.812  -4.167  0.00  0.00    -0.050 A 
ATOM     51  H   LIG d   1       4.344  -3.610  -3.968  0.00  0.00     0.062 H 
ATOM     52  H   LIG d   1       5.986  -2.140  -5.062  0.00  0.00     0.062 H 
ENDBRANCH  39  42
ENDBRANCH   4  38
TORSDOF 9
ENDMDL
MODEL 7
REMARK VINA RESULT:      -6.1      1.546      2.174
REMARK  9 active torsions:
REMARK  status: ('A' for Active; 'I' for Inactive)
REMARK    1  A    between atoms: C_1  and  C_2 
REMARK    2  A    between atoms: C_5  and  N_23 
REMARK    3  A    between atoms: C_10  and  C_11 
REMARK    4  A    between atoms: C_11  and  C_13 
REMARK    5  A    between atoms: C_15  and  O_21 
REMARK    6  A    between atoms: C_18  and  O_19 
REMARK    7  A    between atoms: O_19  and  C_20 
REMARK    8  A    between atoms: O_21  and  C_22 
REMARK       I    between atoms: N_23  and  C_24 
REMARK    9  A    between atoms: C_24  and  C_26 
ROOT
ATOM      1  C   LIG d   1       2.095  -2.148 -10.667  0.00  0.00     0.006 A 
ATOM      2  C   LIG d   1       2.522  -1.054  -9.797  0.00  0.00     0.025 A 
ATOM      3  C   LIG d   1       2.588  -0.883  -8.412  0.00  0.00    -0.029 A 
ATOM      4  C   LIG d   1       3.048   0.313  -7.894  0.00  0.00     0.035 A 
ATOM      5  C   LIG d   1       3.442   1.341  -8.750  0.00  0.00    -0.037 A 
ATOM      6  C   LIG d   1       3.379   1.181 -10.116  0.00  0.00    -0.017 A 
ATOM      7  C   LIG d   1       2.921  -0.014 -10.658  0.00  0.00     0.136 A 
ATOM      8  O   LIG d   1       2.753  -0.447 -11.923  0.00  0.00    -0.451 OA
ATOM      9  C   LIG d   1       2.270  -1.706 -11.941  0.00  0.00     0.179 A 
ATOM     10  H   LIG d   1       2.283  -1.680  -7.749  0.00  0.00     0.064 H 
ATOM     11  H   LIG d   1       3.801   2.272  -8.337  0.00  0.00     0.064 H 
ATOM     12  H   LIG d   1       3.688   1.985 -10.767  0.00  0.00     0.066 H 
ENDROOT
BRANCH   9  13
ATOM     13  C   LIG d   1       1.972  -2.480 -13.152  0.00  0.00     0.232 C 
ATOM     14  O   LIG d   1       2.779  -3.289 -13.572  0.00  0.00    -0.283 OA
BRANCH  13  15
ATOM     15  C   LIG d   1       0.692  -2.283 -13.858  0.00  0.00     0.070 A 
ATOM     16  C   LIG d   1       0.670  -2.139 -15.253  0.00  0.00     0.131 A 
ATOM     17  C   LIG d   1      -0.537  -1.954 -15.908  0.00  0.00    -0.016 A 
ATOM     18  C   LIG d   1      -1.717  -1.911 -15.191  0.00  0.00    -0.017 A 
ATOM     19  H   LIG d   1      -0.556  -1.843 -16.982  0.00  0.00     0.066 H 
ATOM     20  C   LIG d   1      -1.702  -2.053 -13.808  0.00  0.00     0.121 A 
ATOM     21  H   LIG d   1      -2.654  -1.767 -15.707  0.00  0.00     0.066 H 
ATOM     22  C   LIG d   1      -0.507  -2.244 -13.141  0.00  0.00    -0.005 A 
ATOM     23  H   LIG d   1      -0.499  -2.358 -12.067  0.00  0.00     0.066 H 
BRANCH  16  24
ATOM     24  O   LIG d   1       1.828  -2.181 -15.959  0.00  0.00    -0.494 OA
BRANCH  24  25
ATOM     25  C   LIG d   1       1.914  -3.148 -17.008  0.00  0.00     0.079 C 
ATOM     26  H   LIG d   1       1.437  -2.753 -17.906  0.00  0.00     0.066 H 
ATOM     27  H   LIG d   1       2.961  -3.365 -17.218  0.00  0.00     0.066 H 
ATOM     28  H   LIG d   1       1.407  -4.063 -16.701  0.00  0.00     0.066 H 
ENDBRANCH  24  25
ENDBRANCH  16  24
BRANCH  20  29
ATOM     29  O   LIG d   1      -2.869  -2.011 -13.111  0.00  0.00    -0.495 OA
BRANCH  29  30
ATOM     30  C   LIG d   1      -3.625  -0.800 -13.183  0.00  0.00     0.079 C 
ATOM     31  H   LIG d   1      -4.175  -0.771 -14.124  0.00  0.00     0.066 H 
ATOM     32  H   LIG d   1      -4.327  -0.761 -12.350  0.00  0.00     0.066 H 
ATOM     33  H   LIG d   1      -2.949   0.054 -13.130  0.00  0.00     0.066 H 
ENDBRANCH  29  30
ENDBRANCH  20  29
ENDBRANCH  13  15
ENDBRANCH   9  13
BRANCH   1  34
ATOM     34  C   LIG d   1       1.570  -3.494 -10.238  0.00  0.00    -0.035 C 
ATOM     35  H   LIG d   1       2.226  -4.278 -10.617  0.00  0.00     0.028 H 
ATOM     36  H   LIG d   1       1.537  -3.542  -9.150  0.00  0.00     0.028 H 
ATOM     37  H   LIG d   1       0.566  -3.637 -10.638  0.00  0.00     0.028 H 
ENDBRANCH   1  34
BRANCH   4  38
ATOM     38  N   LIG d   1       3.118   0.494  -6.507  0.00  0.00    -0.281 N 
ATOM     39  C   LIG d   1       3.885  -0.324  -5.759  0.00  0.00     0.248 C 
ATOM     40  O   LIG d   1       4.452  -1.267  -6.276  0.00  0.00    -0.270 OA
ATOM     41  H   LIG d   1       2.613   1.207  -6.085  0.00  0.00     0.155 HD
BRANCH  39  42
ATOM     42  C   LIG d   1       4.037  -0.074  -4.310  0.00  0.00     0.037 A 
ATOM     43  C   LIG d   1       3.507   1.084  -3.739  0.00  0.00    -0.050 A 
ATOM     44  C   LIG d   1       3.652   1.311  -2.387  0.00  0.00    -0.061 A 
ATOM     45  H   LIG d   1       2.984   1.800  -4.356  0.00  0.00     0.062 H 
ATOM     46  C   LIG d   1       4.321   0.395  -1.596  0.00  0.00    -0.062 A 
ATOM     47  H   LIG d   1       3.242   2.208  -1.944  0.00  0.00     0.062 H 
ATOM     48  C   LIG d   1       4.849  -0.755  -2.154  0.00  0.00    -0.061 A 
ATOM     49  H   LIG d   1       4.432   0.578  -0.536  0.00  0.00     0.062 H 
ATOM     50  C   LIG d   1       4.707  -0.998  -3.506  0.00  0.00    -0.050 A 
ATOM     51  H   LIG d   1       5.371  -1.467  -1.532  0.00  0.00     0.062 H 
ATOM     52  H   LIG d   1       5.116  -1.897  -3.940  0.00  0.00     0.062 H 
ENDBRANCH  39  42
ENDBRANCH   4  38
TORSDOF 9
ENDMDL
MODEL 8
REMARK VINA RESULT:      -6.0      8.470     12.543
REMARK  9 active torsions:
REMARK  status: ('A' for Active; 'I' for Inactive)
REMARK    1  A    between atoms: C_1  and  C_2 
REMARK    2  A    between atoms: C_5  and  N_23 
REMARK    3  A    between atoms: C_10  and  C_11 
REMARK    4  A    between atoms: C_11  and  C_13 
REMARK    5  A    between atoms: C_15  and  O_21 
REMARK    6  A    between atoms: C_18  and  O_19 
REMARK    7  A    between atoms: O_19  and  C_20 
REMARK    8  A    between atoms: O_21  and  C_22 
REMARK       I    between atoms: N_23  and  C_24 
REMARK    9  A    between atoms: C_24  and  C_26 
ROOT
ATOM      1  C   LIG d   1       9.948   4.257  -6.876  0.00  0.00     0.006 A 
ATOM      2  C   LIG d   1       9.688   3.444  -5.690  0.00  0.00     0.025 A 
ATOM      3  C   LIG d   1       8.866   2.345  -5.426  0.00  0.00    -0.029 A 
ATOM      4  C   LIG d   1       8.848   1.798  -4.157  0.00  0.00     0.035 A 
ATOM      5  C   LIG d   1       9.643   2.341  -3.148  0.00  0.00    -0.037 A 
ATOM      6  C   LIG d   1      10.455   3.424  -3.401  0.00  0.00    -0.017 A 
ATOM      7  C   LIG d   1      10.490   3.988  -4.670  0.00  0.00     0.136 A 
ATOM      8  O   LIG d   1      11.170   5.026  -5.198  0.00  0.00    -0.451 OA
ATOM      9  C   LIG d   1      10.861   5.191  -6.500  0.00  0.00     0.179 A 
ATOM     10  H   LIG d   1       8.250   1.925  -6.208  0.00  0.00     0.064 H 
ATOM     11  H   LIG d   1       9.623   1.907  -2.159  0.00  0.00     0.064 H 
ATOM     12  H   LIG d   1      11.067   3.834  -2.611  0.00  0.00     0.066 H 
ENDROOT
BRANCH   9  13
ATOM     13  C   LIG d   1      11.420   6.227  -7.377  0.00  0.00     0.232 C 
ATOM     14  O   LIG d   1      12.256   5.933  -8.211  0.00  0.00    -0.283 OA
BRANCH  13  15
ATOM     15  C   LIG d   1      10.965   7.625  -7.251  0.00  0.00     0.070 A 
ATOM     16  C   LIG d   1      10.054   8.156  -8.175  0.00  0.00     0.131 A 
ATOM     17  C   LIG d   1       9.631   9.470  -8.049  0.00  0.00    -0.016 A 
ATOM     18  C   LIG d   1      10.106  10.256  -7.018  0.00  0.00    -0.017 A 
ATOM     19  H   LIG d   1       8.929   9.880  -8.760  0.00  0.00     0.066 H 
ATOM     20  C   LIG d   1      11.010   9.736  -6.099  0.00  0.00     0.121 A 
ATOM     21  H   LIG d   1       9.773  11.279  -6.926  0.00  0.00     0.066 H 
ATOM     22  C   LIG d   1      11.437   8.426  -6.207  0.00  0.00    -0.005 A 
ATOM     23  H   LIG d   1      12.136   8.024  -5.490  0.00  0.00     0.066 H 
BRANCH  16  24
ATOM     24  O   LIG d   1       9.585   7.384  -9.188  0.00  0.00    -0.494 OA
BRANCH  24  25
ATOM     25  C   LIG d   1      10.063   7.679 -10.502  0.00  0.00     0.079 C 
ATOM     26  H   LIG d   1       9.223   7.695 -11.199  0.00  0.00     0.066 H 
ATOM     27  H   LIG d   1      10.553   8.652 -10.502  0.00  0.00     0.066 H 
ATOM     28  H   LIG d   1      10.775   6.914 -10.810  0.00  0.00     0.066 H 
ENDBRANCH  24  25
ENDBRANCH  16  24
BRANCH  20  29
ATOM     29  O   LIG d   1      11.471  10.518  -5.086  0.00  0.00    -0.495 OA
BRANCH  29  30
ATOM     30  C   LIG d   1      11.490   9.942  -3.778  0.00  0.00     0.079 C 
ATOM     31  H   LIG d   1      12.313   9.231  -3.706  0.00  0.00     0.066 H 
ATOM     32  H   LIG d   1      11.624  10.730  -3.037  0.00  0.00     0.066 H 
ATOM     33  H   LIG d   1      10.546   9.428  -3.595  0.00  0.00     0.066 H 
ENDBRANCH  29  30
ENDBRANCH  20  29
ENDBRANCH  13  15
ENDBRANCH   9  13
BRANCH   1  34
ATOM     34  C   LIG d   1       9.331   4.090  -8.242  0.00  0.00    -0.035 C 
ATOM     35  H   LIG d   1       8.502   3.385  -8.182  0.00  0.00     0.028 H 
ATOM     36  H   LIG d   1       8.965   5.053  -8.595  0.00  0.00     0.028 H 
ATOM     37  H   LIG d   1      10.081   3.710  -8.935  0.00  0.00     0.028 H 
ENDBRANCH   1  34
BRANCH   4  38
ATOM     38  N   LIG d   1       8.027   0.696  -3.882  0.00  0.00    -0.281 N 
ATOM     39  C   LIG d   1       6.759   0.889  -3.466  0.00  0.00     0.248 C 
ATOM     40  O   LIG d   1       6.354   2.015  -3.252  0.00  0.00    -0.270 OA
ATOM     41  H   LIG d   1       8.371  -0.204  -3.990  0.00  0.00     0.155 HD
BRANCH  39  42
ATOM     42  C   LIG d   1       5.862  -0.270  -3.270  0.00  0.00     0.037 A 
ATOM     43  C   LIG d   1       5.988  -1.398  -4.082  0.00  0.00    -0.050 A 
ATOM     44  C   LIG d   1       5.148  -2.476  -3.894  0.00  0.00    -0.061 A 
ATOM     45  H   LIG d   1       6.742  -1.427  -4.855  0.00  0.00     0.062 H 
ATOM     46  C   LIG d   1       4.183  -2.441  -2.904  0.00  0.00    -0.062 A 
ATOM     47  H   LIG d   1       5.244  -3.350  -4.522  0.00  0.00     0.062 H 
ATOM     48  C   LIG d   1       4.053  -1.326  -2.095  0.00  0.00    -0.061 A 
ATOM     49  H   LIG d   1       3.527  -3.288  -2.761  0.00  0.00     0.062 H 
ATOM     50  C   LIG d   1       4.890  -0.242  -2.269  0.00  0.00    -0.050 A 
ATOM     51  H   LIG d   1       3.297  -1.304  -1.324  0.00  0.00     0.062 H 
ATOM     52  H   LIG d   1       4.790   0.626  -1.635  0.00  0.00     0.062 H 
ENDBRANCH  39  42
ENDBRANCH   4  38
TORSDOF 9
ENDMDL
MODEL 9
REMARK VINA RESULT:      -6.0      8.107     12.123
REMARK  9 active torsions:
REMARK  status: ('A' for Active; 'I' for Inactive)
REMARK    1  A    between atoms: C_1  and  C_2 
REMARK    2  A    between atoms: C_5  and  N_23 
REMARK    3  A    between atoms: C_10  and  C_11 
REMARK    4  A    between atoms: C_11  and  C_13 
REMARK    5  A    between atoms: C_15  and  O_21 
REMARK    6  A    between atoms: C_18  and  O_19 
REMARK    7  A    between atoms: O_19  and  C_20 
REMARK    8  A    between atoms: O_21  and  C_22 
REMARK       I    between atoms: N_23  and  C_24 
REMARK    9  A    between atoms: C_24  and  C_26 
ROOT
ATOM      1  C   LIG d   1      10.037   4.983  -5.128  0.00  0.00     0.006 A 
ATOM      2  C   LIG d   1       9.792   3.556  -4.928  0.00  0.00     0.025 A 
ATOM      3  C   LIG d   1       8.793   2.822  -4.283  0.00  0.00    -0.029 A 
ATOM      4  C   LIG d   1       8.862   1.441  -4.272  0.00  0.00     0.035 A 
ATOM      5  C   LIG d   1       9.922   0.788  -4.899  0.00  0.00    -0.037 A 
ATOM      6  C   LIG d   1      10.911   1.504  -5.536  0.00  0.00    -0.017 A 
ATOM      7  C   LIG d   1      10.861   2.892  -5.561  0.00  0.00     0.136 A 
ATOM      8  O   LIG d   1      11.666   3.834  -6.093  0.00  0.00    -0.451 OA
ATOM      9  C   LIG d   1      11.187   5.070  -5.847  0.00  0.00     0.179 A 
ATOM     10  H   LIG d   1       7.972   3.329  -3.798  0.00  0.00     0.064 H 
ATOM     11  H   LIG d   1       9.968  -0.291  -4.886  0.00  0.00     0.064 H 
ATOM     12  H   LIG d   1      11.726   0.985  -6.018  0.00  0.00     0.066 H 
ENDROOT
BRANCH   9  13
ATOM     13  C   LIG d   1      11.817   6.323  -6.285  0.00  0.00     0.232 C 
ATOM     14  O   LIG d   1      12.807   6.739  -5.712  0.00  0.00    -0.283 OA
BRANCH  13  15
ATOM     15  C   LIG d   1      11.253   7.074  -7.423  0.00  0.00     0.070 A 
ATOM     16  C   LIG d   1      11.186   6.484  -8.693  0.00  0.00     0.131 A 
ATOM     17  C   LIG d   1      10.654   7.196  -9.757  0.00  0.00    -0.016 A 
ATOM     18  C   LIG d   1      10.192   8.484  -9.567  0.00  0.00    -0.017 A 
ATOM     19  H   LIG d   1      10.602   6.745 -10.736  0.00  0.00     0.066 H 
ATOM     20  C   LIG d   1      10.256   9.074  -8.311  0.00  0.00     0.121 A 
ATOM     21  H   LIG d   1       9.779   9.034 -10.399  0.00  0.00     0.066 H 
ATOM     22  C   LIG d   1      10.778   8.375  -7.239  0.00  0.00    -0.005 A 
ATOM     23  H   LIG d   1      10.822   8.835  -6.263  0.00  0.00     0.066 H 
BRANCH  16  24
ATOM     24  O   LIG d   1      11.639   5.219  -8.880  0.00  0.00    -0.494 OA
BRANCH  24  25
ATOM     25  C   LIG d   1      10.886   4.383  -9.761  0.00  0.00     0.079 C 
ATOM     26  H   LIG d   1      11.297   4.452 -10.768  0.00  0.00     0.066 H 
ATOM     27  H   LIG d   1      10.939   3.350  -9.417  0.00  0.00     0.066 H 
ATOM     28  H   LIG d   1       9.846   4.710  -9.770  0.00  0.00     0.066 H 
ENDBRANCH  24  25
ENDBRANCH  16  24
BRANCH  20  29
ATOM     29  O   LIG d   1       9.796  10.343  -8.134  0.00  0.00    -0.495 OA
BRANCH  29  30
ATOM     30  C   LIG d   1       9.940  10.909  -6.830  0.00  0.00     0.079 C 
ATOM     31  H   LIG d   1      10.819  11.553  -6.808  0.00  0.00     0.066 H 
ATOM     32  H   LIG d   1       9.053  11.496  -6.590  0.00  0.00     0.066 H 
ATOM     33  H   LIG d   1      10.056  10.110  -6.097  0.00  0.00     0.066 H 
ENDBRANCH  29  30
ENDBRANCH  20  29
ENDBRANCH  13  15
ENDBRANCH   9  13
BRANCH   1  34
ATOM     34  C   LIG d   1       9.184   6.125  -4.638  0.00  0.00    -0.035 C 
ATOM     35  H   LIG d   1       9.283   6.215  -3.556  0.00  0.00     0.028 H 
ATOM     36  H   LIG d   1       9.510   7.051  -5.111  0.00  0.00     0.028 H 
ATOM     37  H   LIG d   1       8.141   5.935  -4.892  0.00  0.00     0.028 H 
ENDBRANCH   1  34
BRANCH   4  38
ATOM     38  N   LIG d   1       7.866   0.697  -3.628  0.00  0.00    -0.281 N 
ATOM     39  C   LIG d   1       6.753   0.338  -4.300  0.00  0.00     0.248 C 
ATOM     40  O   LIG d   1       6.578   0.727  -5.438  0.00  0.00    -0.270 OA
ATOM     41  H   LIG d   1       7.976   0.441  -2.699  0.00  0.00     0.155 HD
BRANCH  39  42
ATOM     42  C   LIG d   1       5.748  -0.531  -3.652  0.00  0.00     0.037 A 
ATOM     43  C   LIG d   1       5.468  -1.793  -4.179  0.00  0.00    -0.050 A 
ATOM     44  C   LIG d   1       4.528  -2.598  -3.570  0.00  0.00    -0.061 A 
ATOM     45  H   LIG d   1       5.986  -2.137  -5.061  0.00  0.00     0.062 H 
ATOM     46  C   LIG d   1       3.864  -2.158  -2.439  0.00  0.00    -0.062 A 
ATOM     47  H   LIG d   1       4.311  -3.575  -3.977  0.00  0.00     0.062 H 
ATOM     48  C   LIG d   1       4.136  -0.909  -1.911  0.00  0.00    -0.061 A 
ATOM     49  H   LIG d   1       3.129  -2.793  -1.966  0.00  0.00     0.062 H 
ATOM     50  C   LIG d   1       5.078  -0.094  -2.508  0.00  0.00    -0.050 A 
ATOM     51  H   LIG d   1       3.614  -0.570  -1.028  0.00  0.00     0.062 H 
ATOM     52  H   LIG d   1       5.292   0.879  -2.093  0.00  0.00     0.062 H 
ENDBRANCH  39  42
ENDBRANCH   4  38
TORSDOF 9
ENDMDL
