MODEL 1
REMARK VINA RESULT:      -4.1      0.000      0.000
REMARK  11 active torsions:
REMARK  status: ('A' for Active; 'I' for Inactive)
REMARK    1  A    between atoms: C_1  and  C_2 
REMARK    2  A    between atoms: C_1  and  O_16 
REMARK    3  A    between atoms: C_2  and  C_4 
REMARK    4  A    between atoms: C_2  and  O_15 
REMARK    5  A    between atoms: C_4  and  C_6 
REMARK    6  A    between atoms: C_4  and  O_14 
REMARK    7  A    between atoms: C_6  and  C_8 
REMARK    8  A    between atoms: C_6  and  O_13 
REMARK    9  A    between atoms: C_8  and  C_10 
REMARK   10  A    between atoms: C_8  and  O_12 
REMARK   11  A    between atoms: C_10  and  O_11 
ROOT
ATOM      1  C   LIG d   1      10.051   9.124  -1.900  0.00  0.00     0.111 C 
ATOM      2  H   LIG d   1      11.136   8.997  -2.025  0.00  0.00     0.065 H 
ENDROOT
BRANCH   1   3
ATOM      3  C   LIG d   1       9.698  10.567  -1.536  0.00  0.00     0.106 C 
ATOM      4  H   LIG d   1      10.591  11.130  -1.224  0.00  0.00     0.064 H 
BRANCH   3   5
ATOM      5  C   LIG d   1       9.007  11.239  -2.724  0.00  0.00     0.073 C 
ATOM      6  H   LIG d   1       9.318  12.293  -2.781  0.00  0.00     0.058 H 
ATOM      7  H   LIG d   1       9.293  10.723  -3.653  0.00  0.00     0.058 H 
BRANCH   5   8
ATOM      8  O   LIG d   1       7.591  11.167  -2.555  0.00  0.00    -0.392 OA
ATOM      9  H   LIG d   1       6.983  12.083  -2.609  0.00  0.00     0.209 HD
ENDBRANCH   5   8
ENDBRANCH   3   5
BRANCH   3  10
ATOM     10  O   LIG d   1       8.820  10.574  -0.409  0.00  0.00    -0.387 OA
ATOM     11  H   LIG d   1       9.204  10.314   0.589  0.00  0.00     0.210 HD
ENDBRANCH   3  10
ENDBRANCH   1   3
BRANCH   1  12
ATOM     12  C   LIG d   1       9.502   8.179  -0.829  0.00  0.00     0.111 C 
ATOM     13  H   LIG d   1       9.506   8.654   0.163  0.00  0.00     0.065 H 
BRANCH  12  14
ATOM     14  C   LIG d   1      10.315   6.883  -0.826  0.00  0.00     0.106 C 
ATOM     15  H   LIG d   1       9.685   6.016  -1.074  0.00  0.00     0.064 H 
BRANCH  14  16
ATOM     16  C   LIG d   1      10.990   6.708   0.535  0.00  0.00     0.073 C 
ATOM     17  H   LIG d   1      12.082   6.688   0.403  0.00  0.00     0.058 H 
ATOM     18  H   LIG d   1      10.715   7.546   1.192  0.00  0.00     0.058 H 
BRANCH  16  19
ATOM     19  O   LIG d   1      10.560   5.480   1.127  0.00  0.00    -0.392 OA
ATOM     20  H   LIG d   1      10.316   5.441   2.198  0.00  0.00     0.209 HD
ENDBRANCH  16  19
ENDBRANCH  14  16
BRANCH  14  21
ATOM     21  O   LIG d   1      11.312   6.944  -1.848  0.00  0.00    -0.387 OA
ATOM     22  H   LIG d   1      12.185   7.600  -1.726  0.00  0.00     0.210 HD
ENDBRANCH  14  21
ENDBRANCH  12  14
BRANCH  12  23
ATOM     23  O   LIG d   1       8.133   7.881  -1.113  0.00  0.00    -0.387 OA
ATOM     24  H   LIG d   1       7.881   7.088  -1.832  0.00  0.00     0.210 HD
ENDBRANCH  12  23
ENDBRANCH   1  12
BRANCH   1  25
ATOM     25  O   LIG d   1       9.472   8.797  -3.165  0.00  0.00    -0.387 OA
ATOM     26  H   LIG d   1      10.043   8.203  -3.894  0.00  0.00     0.210 HD
ENDBRANCH   1  25
TORSDOF 11
ENDMDL
MODEL 2
REMARK VINA RESULT:      -3.9      9.486     10.657
REMARK  11 active torsions:
REMARK  status: ('A' for Active; 'I' for Inactive)
REMARK    1  A    between atoms: C_1  and  C_2 
REMARK    2  A    between atoms: C_1  and  O_16 
REMARK    3  A    between atoms: C_2  and  C_4 
REMARK    4  A    between atoms: C_2  and  O_15 
REMARK    5  A    between atoms: C_4  and  C_6 
REMARK    6  A    between atoms: C_4  and  O_14 
REMARK    7  A    between atoms: C_6  and  C_8 
REMARK    8  A    between atoms: C_6  and  O_13 
REMARK    9  A    between atoms: C_8  and  C_10 
REMARK   10  A    between atoms: C_8  and  O_12 
REMARK   11  A    between atoms: C_10  and  O_11 
ROOT
ATOM      1  C   LIG d   1       3.470   0.072  -4.198  0.00  0.00     0.111 C 
ATOM      2  H   LIG d   1       3.880   0.598  -5.072  0.00  0.00     0.065 H 
ENDROOT
BRANCH   1   3
ATOM      3  C   LIG d   1       3.366   1.001  -2.988  0.00  0.00     0.106 C 
ATOM      4  H   LIG d   1       2.373   0.934  -2.518  0.00  0.00     0.064 H 
BRANCH   3   5
ATOM      5  C   LIG d   1       4.475   0.665  -1.989  0.00  0.00     0.073 C 
ATOM      6  H   LIG d   1       4.137   0.907  -0.970  0.00  0.00     0.058 H 
ATOM      7  H   LIG d   1       4.711  -0.408  -2.052  0.00  0.00     0.058 H 
BRANCH   5   8
ATOM      8  O   LIG d   1       5.642   1.427  -2.298  0.00  0.00    -0.392 OA
ATOM      9  H   LIG d   1       5.778   1.842  -3.309  0.00  0.00     0.209 HD
ENDBRANCH   5   8
ENDBRANCH   3   5
BRANCH   3  10
ATOM     10  O   LIG d   1       3.505   2.357  -3.414  0.00  0.00    -0.387 OA
ATOM     11  H   LIG d   1       4.220   3.023  -2.907  0.00  0.00     0.210 HD
ENDBRANCH   3  10
ENDBRANCH   1   3
BRANCH   1  12
ATOM     12  C   LIG d   1       4.322  -1.146  -3.834  0.00  0.00     0.111 C 
ATOM     13  H   LIG d   1       4.590  -1.141  -2.767  0.00  0.00     0.065 H 
BRANCH  12  14
ATOM     14  C   LIG d   1       5.569  -1.180  -4.719  0.00  0.00     0.106 C 
ATOM     15  H   LIG d   1       5.389  -1.753  -5.640  0.00  0.00     0.064 H 
BRANCH  14  16
ATOM     16  C   LIG d   1       6.742  -1.759  -3.926  0.00  0.00     0.073 C 
ATOM     17  H   LIG d   1       6.361  -2.442  -3.153  0.00  0.00     0.058 H 
ATOM     18  H   LIG d   1       7.409  -2.308  -4.606  0.00  0.00     0.058 H 
BRANCH  16  19
ATOM     19  O   LIG d   1       7.468  -0.696  -3.305  0.00  0.00    -0.392 OA
ATOM     20  H   LIG d   1       7.426  -0.563  -2.214  0.00  0.00     0.209 HD
ENDBRANCH  16  19
ENDBRANCH  14  16
BRANCH  14  21
ATOM     21  O   LIG d   1       5.889   0.147  -5.142  0.00  0.00    -0.387 OA
ATOM     22  H   LIG d   1       6.586   0.759  -4.553  0.00  0.00     0.210 HD
ENDBRANCH  14  21
ENDBRANCH  12  14
BRANCH  12  23
ATOM     23  O   LIG d   1       3.560  -2.338  -4.039  0.00  0.00    -0.387 OA
ATOM     24  H   LIG d   1       2.947  -2.746  -3.223  0.00  0.00     0.210 HD
ENDBRANCH  12  23
ENDBRANCH   1  12
BRANCH   1  25
ATOM     25  O   LIG d   1       2.163  -0.359  -4.582  0.00  0.00    -0.387 OA
ATOM     26  H   LIG d   1       2.034  -1.019  -5.452  0.00  0.00     0.210 HD
ENDBRANCH   1  25
TORSDOF 11
ENDMDL
MODEL 3
REMARK VINA RESULT:      -3.9      1.289      2.088
REMARK  11 active torsions:
REMARK  status: ('A' for Active; 'I' for Inactive)
REMARK    1  A    between atoms: C_1  and  C_2 
REMARK    2  A    between atoms: C_1  and  O_16 
REMARK    3  A    between atoms: C_2  and  C_4 
REMARK    4  A    between atoms: C_2  and  O_15 
REMARK    5  A    between atoms: C_4  and  C_6 
REMARK    6  A    between atoms: C_4  and  O_14 
REMARK    7  A    between atoms: C_6  and  C_8 
REMARK    8  A    between atoms: C_6  and  O_13 
REMARK    9  A    between atoms: C_8  and  C_10 
REMARK   10  A    between atoms: C_8  and  O_12 
REMARK   11  A    between atoms: C_10  and  O_11 
ROOT
ATOM      1  C   LIG d   1       9.114  10.161  -1.631  0.00  0.00     0.111 C 
ATOM      2  H   LIG d   1       8.293   9.852  -2.294  0.00  0.00     0.065 H 
ENDROOT
BRANCH   1   3
ATOM      3  C   LIG d   1       9.761  11.459  -2.116  0.00  0.00     0.106 C 
ATOM      4  H   LIG d   1      10.775  11.278  -2.506  0.00  0.00     0.064 H 
BRANCH   3   5
ATOM      5  C   LIG d   1       8.869  12.109  -3.175  0.00  0.00     0.073 C 
ATOM      6  H   LIG d   1       8.882  13.202  -3.046  0.00  0.00     0.058 H 
ATOM      7  H   LIG d   1       9.245  11.855  -4.177  0.00  0.00     0.058 H 
BRANCH   5   8
ATOM      8  O   LIG d   1       7.532  11.628  -3.032  0.00  0.00    -0.392 OA
ATOM      9  H   LIG d   1       7.293  10.886  -2.255  0.00  0.00     0.209 HD
ENDBRANCH   5   8
ENDBRANCH   3   5
BRANCH   3  10
ATOM     10  O   LIG d   1       9.921  12.353  -1.014  0.00  0.00    -0.387 OA
ATOM     11  H   LIG d   1      10.926  12.563  -0.617  0.00  0.00     0.210 HD
ENDBRANCH   3  10
ENDBRANCH   1   3
BRANCH   1  12
ATOM     12  C   LIG d   1      10.181   9.068  -1.523  0.00  0.00     0.111 C 
ATOM     13  H   LIG d   1      10.546   8.768  -2.516  0.00  0.00     0.065 H 
BRANCH  12  14
ATOM     14  C   LIG d   1       9.611   7.872  -0.758  0.00  0.00     0.106 C 
ATOM     15  H   LIG d   1       9.646   8.041   0.329  0.00  0.00     0.064 H 
BRANCH  14  16
ATOM     16  C   LIG d   1      10.375   6.606  -1.148  0.00  0.00     0.073 C 
ATOM     17  H   LIG d   1       9.878   6.127  -2.004  0.00  0.00     0.058 H 
ATOM     18  H   LIG d   1      11.407   6.870  -1.423  0.00  0.00     0.058 H 
BRANCH  16  19
ATOM     19  O   LIG d   1      10.395   5.702  -0.042  0.00  0.00    -0.392 OA
ATOM     20  H   LIG d   1      10.414   4.616  -0.218  0.00  0.00     0.209 HD
ENDBRANCH  16  19
ENDBRANCH  14  16
BRANCH  14  21
ATOM     21  O   LIG d   1       8.229   7.714  -1.083  0.00  0.00    -0.387 OA
ATOM     22  H   LIG d   1       7.482   7.627  -0.281  0.00  0.00     0.210 HD
ENDBRANCH  14  21
ENDBRANCH  12  14
BRANCH  12  23
ATOM     23  O   LIG d   1      11.319   9.581  -0.827  0.00  0.00    -0.387 OA
ATOM     24  H   LIG d   1      11.831   8.960  -0.078  0.00  0.00     0.210 HD
ENDBRANCH  12  23
ENDBRANCH   1  12
BRANCH   1  25
ATOM     25  O   LIG d   1       8.521  10.374  -0.349  0.00  0.00    -0.387 OA
ATOM     26  H   LIG d   1       7.492  10.038  -0.156  0.00  0.00     0.210 HD
ENDBRANCH   1  25
TORSDOF 11
ENDMDL
MODEL 4
REMARK VINA RESULT:      -3.9      1.214      4.784
REMARK  11 active torsions:
REMARK  status: ('A' for Active; 'I' for Inactive)
REMARK    1  A    between atoms: C_1  and  C_2 
REMARK    2  A    between atoms: C_1  and  O_16 
REMARK    3  A    between atoms: C_2  and  C_4 
REMARK    4  A    between atoms: C_2  and  O_15 
REMARK    5  A    between atoms: C_4  and  C_6 
REMARK    6  A    between atoms: C_4  and  O_14 
REMARK    7  A    between atoms: C_6  and  C_8 
REMARK    8  A    between atoms: C_6  and  O_13 
REMARK    9  A    between atoms: C_8  and  C_10 
REMARK   10  A    between atoms: C_8  and  O_12 
REMARK   11  A    between atoms: C_10  and  O_11 
ROOT
ATOM      1  C   LIG d   1       9.710   7.925  -1.288  0.00  0.00     0.111 C 
ATOM      2  H   LIG d   1      10.206   7.742  -0.324  0.00  0.00     0.065 H 
ENDROOT
BRANCH   1   3
ATOM      3  C   LIG d   1      10.086   6.858  -2.318  0.00  0.00     0.106 C 
ATOM      4  H   LIG d   1      10.945   7.177  -2.928  0.00  0.00     0.064 H 
BRANCH   3   5
ATOM      5  C   LIG d   1      10.375   5.537  -1.603  0.00  0.00     0.073 C 
ATOM      6  H   LIG d   1       9.637   4.782  -1.913  0.00  0.00     0.058 H 
ATOM      7  H   LIG d   1      11.385   5.191  -1.867  0.00  0.00     0.058 H 
BRANCH   5   8
ATOM      8  O   LIG d   1      10.293   5.732  -0.190  0.00  0.00    -0.392 OA
ATOM      9  H   LIG d   1       9.375   6.144   0.256  0.00  0.00     0.209 HD
ENDBRANCH   5   8
ENDBRANCH   3   5
BRANCH   3  10
ATOM     10  O   LIG d   1       9.005   6.677  -3.233  0.00  0.00    -0.387 OA
ATOM     11  H   LIG d   1       7.978   6.556  -2.855  0.00  0.00     0.210 HD
ENDBRANCH   3  10
ENDBRANCH   1   3
BRANCH   1  12
ATOM     12  C   LIG d   1      10.060   9.310  -1.838  0.00  0.00     0.111 C 
ATOM     13  H   LIG d   1      11.012   9.674  -1.424  0.00  0.00     0.065 H 
BRANCH  12  14
ATOM     14  C   LIG d   1       8.917  10.281  -1.538  0.00  0.00     0.106 C 
ATOM     15  H   LIG d   1       7.947   9.762  -1.517  0.00  0.00     0.064 H 
BRANCH  14  16
ATOM     16  C   LIG d   1       8.921  11.409  -2.570  0.00  0.00     0.073 C 
ATOM     17  H   LIG d   1       9.269  12.339  -2.096  0.00  0.00     0.058 H 
ATOM     18  H   LIG d   1       9.595  11.146  -3.399  0.00  0.00     0.058 H 
BRANCH  16  19
ATOM     19  O   LIG d   1       7.598  11.598  -3.076  0.00  0.00    -0.392 OA
ATOM     20  H   LIG d   1       7.389  11.439  -4.145  0.00  0.00     0.209 HD
ENDBRANCH  16  19
ENDBRANCH  14  16
BRANCH  14  21
ATOM     21  O   LIG d   1       9.090  10.832  -0.230  0.00  0.00    -0.387 OA
ATOM     22  H   LIG d   1       9.240  11.914  -0.104  0.00  0.00     0.210 HD
ENDBRANCH  14  21
ENDBRANCH  12  14
BRANCH  12  23
ATOM     23  O   LIG d   1      10.254   9.226  -3.251  0.00  0.00    -0.387 OA
ATOM     24  H   LIG d   1       9.753   9.942  -3.919  0.00  0.00     0.210 HD
ENDBRANCH  12  23
ENDBRANCH   1  12
BRANCH   1  25
ATOM     25  O   LIG d   1       8.308   7.858  -1.023  0.00  0.00    -0.387 OA
ATOM     26  H   LIG d   1       7.873   8.454  -0.208  0.00  0.00     0.210 HD
ENDBRANCH   1  25
TORSDOF 11
ENDMDL
MODEL 5
REMARK VINA RESULT:      -3.8      1.331      4.591
REMARK  11 active torsions:
REMARK  status: ('A' for Active; 'I' for Inactive)
REMARK    1  A    between atoms: C_1  and  C_2 
REMARK    2  A    between atoms: C_1  and  O_16 
REMARK    3  A    between atoms: C_2  and  C_4 
REMARK    4  A    between atoms: C_2  and  O_15 
REMARK    5  A    between atoms: C_4  and  C_6 
REMARK    6  A    between atoms: C_4  and  O_14 
REMARK    7  A    between atoms: C_6  and  C_8 
REMARK    8  A    between atoms: C_6  and  O_13 
REMARK    9  A    between atoms: C_8  and  C_10 
REMARK   10  A    between atoms: C_8  and  O_12 
REMARK   11  A    between atoms: C_10  and  O_11 
ROOT
ATOM      1  C   LIG d   1      10.240   9.042  -1.635  0.00  0.00     0.111 C 
ATOM      2  H   LIG d   1      10.865   9.224  -2.521  0.00  0.00     0.065 H 
ENDROOT
BRANCH   1   3
ATOM      3  C   LIG d   1       9.522   7.695  -1.728  0.00  0.00     0.106 C 
ATOM      4  H   LIG d   1       9.253   7.457  -2.768  0.00  0.00     0.064 H 
BRANCH   3   5
ATOM      5  C   LIG d   1      10.405   6.603  -1.121  0.00  0.00     0.073 C 
ATOM      6  H   LIG d   1      10.149   5.632  -1.570  0.00  0.00     0.058 H 
ATOM      7  H   LIG d   1      11.461   6.833  -1.323  0.00  0.00     0.058 H 
BRANCH   5   8
ATOM      8  O   LIG d   1      10.191   6.547   0.290  0.00  0.00    -0.392 OA
ATOM      9  H   LIG d   1      10.342   7.446   0.907  0.00  0.00     0.209 HD
ENDBRANCH   5   8
ENDBRANCH   3   5
BRANCH   3  10
ATOM     10  O   LIG d   1       8.288   7.762  -1.012  0.00  0.00    -0.387 OA
ATOM     11  H   LIG d   1       8.272   7.589   0.075  0.00  0.00     0.210 HD
ENDBRANCH   3  10
ENDBRANCH   1   3
BRANCH   1  12
ATOM     12  C   LIG d   1       9.209  10.157  -1.444  0.00  0.00     0.111 C 
ATOM     13  H   LIG d   1       8.217   9.850  -1.808  0.00  0.00     0.065 H 
BRANCH  12  14
ATOM     14  C   LIG d   1       9.691  11.425  -2.152  0.00  0.00     0.106 C 
ATOM     15  H   LIG d   1       9.678  12.291  -1.474  0.00  0.00     0.064 H 
BRANCH  14  16
ATOM     16  C   LIG d   1       8.830  11.676  -3.391  0.00  0.00     0.073 C 
ATOM     17  H   LIG d   1       9.046  12.678  -3.791  0.00  0.00     0.058 H 
ATOM     18  H   LIG d   1       9.058  10.919  -4.156  0.00  0.00     0.058 H 
BRANCH  16  19
ATOM     19  O   LIG d   1       7.449  11.591  -3.036  0.00  0.00    -0.392 OA
ATOM     20  H   LIG d   1       6.688  12.082  -3.661  0.00  0.00     0.209 HD
ENDBRANCH  16  19
ENDBRANCH  14  16
BRANCH  14  21
ATOM     21  O   LIG d   1      11.055  11.261  -2.546  0.00  0.00    -0.387 OA
ATOM     22  H   LIG d   1      11.616  10.369  -2.231  0.00  0.00     0.210 HD
ENDBRANCH  14  21
ENDBRANCH  12  14
BRANCH  12  23
ATOM     23  O   LIG d   1       9.048  10.424  -0.049  0.00  0.00    -0.387 OA
ATOM     24  H   LIG d   1       8.623  11.382   0.282  0.00  0.00     0.210 HD
ENDBRANCH  12  23
ENDBRANCH   1  12
BRANCH   1  25
ATOM     25  O   LIG d   1      11.137   9.029  -0.522  0.00  0.00    -0.387 OA
ATOM     26  H   LIG d   1      11.525   8.074  -0.140  0.00  0.00     0.210 HD
ENDBRANCH   1  25
TORSDOF 11
ENDMDL
MODEL 6
REMARK VINA RESULT:      -3.7      1.766      2.374
REMARK  11 active torsions:
REMARK  status: ('A' for Active; 'I' for Inactive)
REMARK    1  A    between atoms: C_1  and  C_2 
REMARK    2  A    between atoms: C_1  and  O_16 
REMARK    3  A    between atoms: C_2  and  C_4 
REMARK    4  A    between atoms: C_2  and  O_15 
REMARK    5  A    between atoms: C_4  and  C_6 
REMARK    6  A    between atoms: C_4  and  O_14 
REMARK    7  A    between atoms: C_6  and  C_8 
REMARK    8  A    between atoms: C_6  and  O_13 
REMARK    9  A    between atoms: C_8  and  C_10 
REMARK   10  A    between atoms: C_8  and  O_12 
REMARK   11  A    between atoms: C_10  and  O_11 
ROOT
ATOM      1  C   LIG d   1       9.585   7.777  -1.734  0.00  0.00     0.111 C 
ATOM      2  H   LIG d   1       9.482   7.655  -2.822  0.00  0.00     0.065 H 
ENDROOT
BRANCH   1   3
ATOM      3  C   LIG d   1      10.119   9.166  -1.379  0.00  0.00     0.106 C 
ATOM      4  H   LIG d   1      10.445   9.710  -2.278  0.00  0.00     0.064 H 
BRANCH   3   5
ATOM      5  C   LIG d   1       9.045   9.945  -0.618  0.00  0.00     0.073 C 
ATOM      6  H   LIG d   1       8.601   9.300   0.155  0.00  0.00     0.058 H 
ATOM      7  H   LIG d   1       9.501  10.825  -0.141  0.00  0.00     0.058 H 
BRANCH   5   8
ATOM      8  O   LIG d   1       8.029  10.369  -1.527  0.00  0.00    -0.392 OA
ATOM      9  H   LIG d   1       7.651  11.402  -1.488  0.00  0.00     0.209 HD
ENDBRANCH   5   8
ENDBRANCH   3   5
BRANCH   3  10
ATOM     10  O   LIG d   1      11.282   9.034  -0.560  0.00  0.00    -0.387 OA
ATOM     11  H   LIG d   1      11.628   8.035  -0.252  0.00  0.00     0.210 HD
ENDBRANCH   3  10
ENDBRANCH   1   3
BRANCH   1  12
ATOM     12  C   LIG d   1      10.507   6.709  -1.141  0.00  0.00     0.111 C 
ATOM     13  H   LIG d   1      11.561   7.020  -1.188  0.00  0.00     0.065 H 
BRANCH  12  14
ATOM     14  C   LIG d   1      10.287   5.382  -1.871  0.00  0.00     0.106 C 
ATOM     15  H   LIG d   1       9.599   4.730  -1.314  0.00  0.00     0.064 H 
BRANCH  14  16
ATOM     16  C   LIG d   1      11.636   4.698  -2.102  0.00  0.00     0.073 C 
ATOM     17  H   LIG d   1      11.472   3.638  -2.346  0.00  0.00     0.058 H 
ATOM     18  H   LIG d   1      12.158   5.190  -2.936  0.00  0.00     0.058 H 
BRANCH  16  19
ATOM     19  O   LIG d   1      12.430   4.798  -0.919  0.00  0.00    -0.392 OA
ATOM     20  H   LIG d   1      13.449   5.209  -0.972  0.00  0.00     0.209 HD
ENDBRANCH  16  19
ENDBRANCH  14  16
BRANCH  14  21
ATOM     21  O   LIG d   1       9.657   5.630  -3.129  0.00  0.00    -0.387 OA
ATOM     22  H   LIG d   1       8.560   5.640  -3.202  0.00  0.00     0.210 HD
ENDBRANCH  14  21
ENDBRANCH  12  14
BRANCH  12  23
ATOM     23  O   LIG d   1      10.211   6.543   0.248  0.00  0.00    -0.387 OA
ATOM     24  H   LIG d   1      10.394   7.368   0.952  0.00  0.00     0.210 HD
ENDBRANCH  12  23
ENDBRANCH   1  12
BRANCH   1  25
ATOM     25  O   LIG d   1       8.270   7.620  -1.199  0.00  0.00    -0.387 OA
ATOM     26  H   LIG d   1       7.444   7.300  -1.851  0.00  0.00     0.210 HD
ENDBRANCH   1  25
TORSDOF 11
ENDMDL
MODEL 7
REMARK VINA RESULT:      -3.7      9.325     10.578
REMARK  11 active torsions:
REMARK  status: ('A' for Active; 'I' for Inactive)
REMARK    1  A    between atoms: C_1  and  C_2 
REMARK    2  A    between atoms: C_1  and  O_16 
REMARK    3  A    between atoms: C_2  and  C_4 
REMARK    4  A    between atoms: C_2  and  O_15 
REMARK    5  A    between atoms: C_4  and  C_6 
REMARK    6  A    between atoms: C_4  and  O_14 
REMARK    7  A    between atoms: C_6  and  C_8 
REMARK    8  A    between atoms: C_6  and  O_13 
REMARK    9  A    between atoms: C_8  and  C_10 
REMARK   10  A    between atoms: C_8  and  O_12 
REMARK   11  A    between atoms: C_10  and  O_11 
ROOT
ATOM      1  C   LIG d   1       6.159  -0.243  -4.478  0.00  0.00     0.111 C 
ATOM      2  H   LIG d   1       7.039  -0.507  -5.083  0.00  0.00     0.065 H 
ENDROOT
BRANCH   1   3
ATOM      3  C   LIG d   1       6.511   0.790  -3.407  0.00  0.00     0.106 C 
ATOM      4  H   LIG d   1       6.726   0.306  -2.442  0.00  0.00     0.064 H 
BRANCH   3   5
ATOM      5  C   LIG d   1       7.697   1.632  -3.880  0.00  0.00     0.073 C 
ATOM      6  H   LIG d   1       7.711   2.587  -3.333  0.00  0.00     0.058 H 
ATOM      7  H   LIG d   1       8.633   1.088  -3.688  0.00  0.00     0.058 H 
BRANCH   5   8
ATOM      8  O   LIG d   1       7.573   1.887  -5.280  0.00  0.00    -0.392 OA
ATOM      9  H   LIG d   1       6.634   1.646  -5.802  0.00  0.00     0.209 HD
ENDBRANCH   5   8
ENDBRANCH   3   5
BRANCH   3  10
ATOM     10  O   LIG d   1       5.386   1.639  -3.175  0.00  0.00    -0.387 OA
ATOM     11  H   LIG d   1       5.500   2.732  -3.239  0.00  0.00     0.210 HD
ENDBRANCH   3  10
ENDBRANCH   1   3
BRANCH   1  12
ATOM     12  C   LIG d   1       5.551  -1.481  -3.814  0.00  0.00     0.111 C 
ATOM     13  H   LIG d   1       6.158  -2.377  -4.010  0.00  0.00     0.065 H 
BRANCH  12  14
ATOM     14  C   LIG d   1       4.113  -1.667  -4.302  0.00  0.00     0.106 C 
ATOM     15  H   LIG d   1       3.915  -1.063  -5.200  0.00  0.00     0.064 H 
BRANCH  14  16
ATOM     16  C   LIG d   1       3.142  -1.320  -3.174  0.00  0.00     0.073 C 
ATOM     17  H   LIG d   1       2.172  -1.803  -3.362  0.00  0.00     0.058 H 
ATOM     18  H   LIG d   1       3.549  -1.676  -2.216  0.00  0.00     0.058 H 
BRANCH  16  19
ATOM     19  O   LIG d   1       2.965   0.097  -3.116  0.00  0.00    -0.392 OA
ATOM     20  H   LIG d   1       3.842   0.760  -3.069  0.00  0.00     0.209 HD
ENDBRANCH  16  19
ENDBRANCH  14  16
BRANCH  14  21
ATOM     21  O   LIG d   1       3.917  -3.027  -4.698  0.00  0.00    -0.387 OA
ATOM     22  H   LIG d   1       4.611  -3.499  -5.408  0.00  0.00     0.210 HD
ENDBRANCH  14  21
ENDBRANCH  12  14
BRANCH  12  23
ATOM     23  O   LIG d   1       5.553  -1.309  -2.395  0.00  0.00    -0.387 OA
ATOM     24  H   LIG d   1       6.232  -1.908  -1.770  0.00  0.00     0.210 HD
ENDBRANCH  12  23
ENDBRANCH   1  12
BRANCH   1  25
ATOM     25  O   LIG d   1       5.215   0.319  -5.391  0.00  0.00    -0.387 OA
ATOM     26  H   LIG d   1       4.543  -0.337  -5.963  0.00  0.00     0.210 HD
ENDBRANCH   1  25
TORSDOF 11
ENDMDL
MODEL 8
REMARK VINA RESULT:      -3.7      1.677      2.073
REMARK  11 active torsions:
REMARK  status: ('A' for Active; 'I' for Inactive)
REMARK    1  A    between atoms: C_1  and  C_2 
REMARK    2  A    between atoms: C_1  and  O_16 
REMARK    3  A    between atoms: C_2  and  C_4 
REMARK    4  A    between atoms: C_2  and  O_15 
REMARK    5  A    between atoms: C_4  and  C_6 
REMARK    6  A    between atoms: C_4  and  O_14 
REMARK    7  A    between atoms: C_6  and  C_8 
REMARK    8  A    between atoms: C_6  and  O_13 
REMARK    9  A    between atoms: C_8  and  C_10 
REMARK   10  A    between atoms: C_8  and  O_12 
REMARK   11  A    between atoms: C_10  and  O_11 
ROOT
ATOM      1  C   LIG d   1      10.139  10.154  -3.172  0.00  0.00     0.111 C 
ATOM      2  H   LIG d   1      10.850  10.706  -3.804  0.00  0.00     0.065 H 
ENDROOT
BRANCH   1   3
ATOM      3  C   LIG d   1       9.464  11.077  -2.157  0.00  0.00     0.106 C 
ATOM      4  H   LIG d   1      10.144  11.319  -1.325  0.00  0.00     0.064 H 
BRANCH   3   5
ATOM      5  C   LIG d   1       8.979  12.344  -2.863  0.00  0.00     0.073 C 
ATOM      6  H   LIG d   1       9.118  13.211  -2.199  0.00  0.00     0.058 H 
ATOM      7  H   LIG d   1       9.558  12.494  -3.785  0.00  0.00     0.058 H 
BRANCH   5   8
ATOM      8  O   LIG d   1       7.594  12.209  -3.186  0.00  0.00    -0.392 OA
ATOM      9  H   LIG d   1       7.115  12.929  -3.867  0.00  0.00     0.209 HD
ENDBRANCH   5   8
ENDBRANCH   3   5
BRANCH   3  10
ATOM     10  O   LIG d   1       8.351  10.404  -1.567  0.00  0.00    -0.387 OA
ATOM     11  H   LIG d   1       8.177   9.338  -1.779  0.00  0.00     0.210 HD
ENDBRANCH   3  10
ENDBRANCH   1   3
BRANCH   1  12
ATOM     12  C   LIG d   1      10.830   9.003  -2.436  0.00  0.00     0.111 C 
ATOM     13  H   LIG d   1      11.903   8.964  -2.676  0.00  0.00     0.065 H 
BRANCH  12  14
ATOM     14  C   LIG d   1      10.136   7.685  -2.784  0.00  0.00     0.106 C 
ATOM     15  H   LIG d   1       9.356   7.834  -3.545  0.00  0.00     0.064 H 
BRANCH  14  16
ATOM     16  C   LIG d   1       9.559   7.061  -1.512  0.00  0.00     0.073 C 
ATOM     17  H   LIG d   1       9.401   5.984  -1.671  0.00  0.00     0.058 H 
ATOM     18  H   LIG d   1      10.263   7.209  -0.679  0.00  0.00     0.058 H 
BRANCH  16  19
ATOM     19  O   LIG d   1       8.313   7.686  -1.197  0.00  0.00    -0.392 OA
ATOM     20  H   LIG d   1       8.275   8.765  -0.989  0.00  0.00     0.209 HD
ENDBRANCH  16  19
ENDBRANCH  14  16
BRANCH  14  21
ATOM     21  O   LIG d   1      11.082   6.787  -3.367  0.00  0.00    -0.387 OA
ATOM     22  H   LIG d   1      12.085   7.146  -3.639  0.00  0.00     0.210 HD
ENDBRANCH  14  21
ENDBRANCH  12  14
BRANCH  12  23
ATOM     23  O   LIG d   1      10.752   9.225  -1.027  0.00  0.00    -0.387 OA
ATOM     24  H   LIG d   1      11.030  10.204  -0.608  0.00  0.00     0.210 HD
ENDBRANCH  12  23
ENDBRANCH   1  12
BRANCH   1  25
ATOM     25  O   LIG d   1       9.155   9.625  -4.064  0.00  0.00    -0.387 OA
ATOM     26  H   LIG d   1       9.186   8.564  -4.351  0.00  0.00     0.210 HD
ENDBRANCH   1  25
TORSDOF 11
ENDMDL
MODEL 9
REMARK VINA RESULT:      -3.7     10.940     12.186
REMARK  11 active torsions:
REMARK  status: ('A' for Active; 'I' for Inactive)
REMARK    1  A    between atoms: C_1  and  C_2 
REMARK    2  A    between atoms: C_1  and  O_16 
REMARK    3  A    between atoms: C_2  and  C_4 
REMARK    4  A    between atoms: C_2  and  O_15 
REMARK    5  A    between atoms: C_4  and  C_6 
REMARK    6  A    between atoms: C_4  and  O_14 
REMARK    7  A    between atoms: C_6  and  C_8 
REMARK    8  A    between atoms: C_6  and  O_13 
REMARK    9  A    between atoms: C_8  and  C_10 
REMARK   10  A    between atoms: C_8  and  O_12 
REMARK   11  A    between atoms: C_10  and  O_11 
ROOT
ATOM      1  C   LIG d   1       3.516  -0.273  -5.615  0.00  0.00     0.111 C 
ATOM      2  H   LIG d   1       3.564  -1.370  -5.556  0.00  0.00     0.065 H 
ENDROOT
BRANCH   1   3
ATOM      3  C   LIG d   1       2.670   0.308  -4.480  0.00  0.00     0.106 C 
ATOM      4  H   LIG d   1       1.658   0.564  -4.828  0.00  0.00     0.064 H 
BRANCH   3   5
ATOM      5  C   LIG d   1       2.622  -0.686  -3.319  0.00  0.00     0.073 C 
ATOM      6  H   LIG d   1       3.124  -0.251  -2.441  0.00  0.00     0.058 H 
ATOM      7  H   LIG d   1       1.574  -0.906  -3.068  0.00  0.00     0.058 H 
BRANCH   5   8
ATOM      8  O   LIG d   1       3.286  -1.893  -3.697  0.00  0.00    -0.392 OA
ATOM      9  H   LIG d   1       4.382  -1.915  -3.782  0.00  0.00     0.209 HD
ENDBRANCH   5   8
ENDBRANCH   3   5
BRANCH   3  10
ATOM     10  O   LIG d   1       3.250   1.535  -4.033  0.00  0.00    -0.387 OA
ATOM     11  H   LIG d   1       4.331   1.590  -3.829  0.00  0.00     0.210 HD
ENDBRANCH   3  10
ENDBRANCH   1   3
BRANCH   1  12
ATOM     12  C   LIG d   1       2.948   0.186  -6.960  0.00  0.00     0.111 C 
ATOM     13  H   LIG d   1       1.901  -0.128  -7.079  0.00  0.00     0.065 H 
BRANCH  12  14
ATOM     14  C   LIG d   1       3.821  -0.355  -8.094  0.00  0.00     0.106 C 
ATOM     15  H   LIG d   1       4.611  -1.017  -7.708  0.00  0.00     0.064 H 
BRANCH  14  16
ATOM     16  C   LIG d   1       4.412   0.812  -8.885  0.00  0.00     0.073 C 
ATOM     17  H   LIG d   1       4.752   0.455  -9.868  0.00  0.00     0.058 H 
ATOM     18  H   LIG d   1       3.644   1.588  -9.023  0.00  0.00     0.058 H 
BRANCH  16  19
ATOM     19  O   LIG d   1       5.519   1.362  -8.169  0.00  0.00    -0.392 OA
ATOM     20  H   LIG d   1       5.459   2.381  -7.758  0.00  0.00     0.209 HD
ENDBRANCH  16  19
ENDBRANCH  14  16
BRANCH  14  21
ATOM     21  O   LIG d   1       3.026  -1.165  -8.962  0.00  0.00    -0.387 OA
ATOM     22  H   LIG d   1       3.501  -1.724  -9.782  0.00  0.00     0.210 HD
ENDBRANCH  14  21
ENDBRANCH  12  14
BRANCH  12  23
ATOM     23  O   LIG d   1       2.936   1.614  -7.009  0.00  0.00    -0.387 OA
ATOM     24  H   LIG d   1       3.823   2.183  -6.695  0.00  0.00     0.210 HD
ENDBRANCH  12  23
ENDBRANCH   1  12
BRANCH   1  25
ATOM     25  O   LIG d   1       4.864   0.184  -5.487  0.00  0.00    -0.387 OA
ATOM     26  H   LIG d   1       5.277   0.408  -4.493  0.00  0.00     0.210 HD
ENDBRANCH   1  25
TORSDOF 11
ENDMDL
MODEL 10
REMARK VINA RESULT:      -3.7     10.355     11.803
REMARK  11 active torsions:
REMARK  status: ('A' for Active; 'I' for Inactive)
REMARK    1  A    between atoms: C_1  and  C_2 
REMARK    2  A    between atoms: C_1  and  O_16 
REMARK    3  A    between atoms: C_2  and  C_4 
REMARK    4  A    between atoms: C_2  and  O_15 
REMARK    5  A    between atoms: C_4  and  C_6 
REMARK    6  A    between atoms: C_4  and  O_14 
REMARK    7  A    between atoms: C_6  and  C_8 
REMARK    8  A    between atoms: C_6  and  O_13 
REMARK    9  A    between atoms: C_8  and  C_10 
REMARK   10  A    between atoms: C_8  and  O_12 
REMARK   11  A    between atoms: C_10  and  O_11 
ROOT
ATOM      1  C   LIG d   1       3.552  -0.223  -4.009  0.00  0.00     0.111 C 
ATOM      2  H   LIG d   1       3.466   0.873  -3.962  0.00  0.00     0.065 H 
ENDROOT
BRANCH   1   3
ATOM      3  C   LIG d   1       4.412  -0.763  -2.865  0.00  0.00     0.106 C 
ATOM      4  H   LIG d   1       5.423  -1.021  -3.215  0.00  0.00     0.064 H 
BRANCH   3   5
ATOM      5  C   LIG d   1       4.461   0.265  -1.734  0.00  0.00     0.073 C 
ATOM      6  H   LIG d   1       4.245  -0.232  -0.776  0.00  0.00     0.058 H 
ATOM      7  H   LIG d   1       5.463   0.717  -1.693  0.00  0.00     0.058 H 
BRANCH   5   8
ATOM      8  O   LIG d   1       3.489   1.284  -1.973  0.00  0.00    -0.392 OA
ATOM      9  H   LIG d   1       3.784   2.221  -2.469  0.00  0.00     0.209 HD
ENDBRANCH   5   8
ENDBRANCH   3   5
BRANCH   3  10
ATOM     10  O   LIG d   1       3.846  -1.981  -2.377  0.00  0.00    -0.387 OA
ATOM     11  H   LIG d   1       4.488  -2.727  -1.885  0.00  0.00     0.210 HD
ENDBRANCH   3  10
ENDBRANCH   1   3
BRANCH   1  12
ATOM     12  C   LIG d   1       4.139  -0.677  -5.347  0.00  0.00     0.111 C 
ATOM     13  H   LIG d   1       5.206  -0.420  -5.422  0.00  0.00     0.065 H 
BRANCH  12  14
ATOM     14  C   LIG d   1       3.338  -0.055  -6.493  0.00  0.00     0.106 C 
ATOM     15  H   LIG d   1       2.475  -0.682  -6.762  0.00  0.00     0.064 H 
BRANCH  14  16
ATOM     16  C   LIG d   1       4.257   0.170  -7.695  0.00  0.00     0.073 C 
ATOM     17  H   LIG d   1       4.147  -0.665  -8.402  0.00  0.00     0.058 H 
ATOM     18  H   LIG d   1       3.984   1.112  -8.194  0.00  0.00     0.058 H 
BRANCH  16  19
ATOM     19  O   LIG d   1       5.613   0.244  -7.250  0.00  0.00    -0.392 OA
ATOM     20  H   LIG d   1       6.424  -0.129  -7.892  0.00  0.00     0.209 HD
ENDBRANCH  16  19
ENDBRANCH  14  16
BRANCH  14  21
ATOM     21  O   LIG d   1       2.793   1.196  -6.070  0.00  0.00    -0.387 OA
ATOM     22  H   LIG d   1       3.125   2.130  -6.544  0.00  0.00     0.210 HD
ENDBRANCH  14  21
ENDBRANCH  12  14
BRANCH  12  23
ATOM     23  O   LIG d   1       4.072  -2.101  -5.438  0.00  0.00    -0.387 OA
ATOM     24  H   LIG d   1       4.558  -2.724  -4.672  0.00  0.00     0.210 HD
ENDBRANCH  12  23
ENDBRANCH   1  12
BRANCH   1  25
ATOM     25  O   LIG d   1       2.219  -0.723  -3.880  0.00  0.00    -0.387 OA
ATOM     26  H   LIG d   1       1.367  -0.027  -3.885  0.00  0.00     0.210 HD
ENDBRANCH   1  25
TORSDOF 11
ENDMDL
