MODEL 1
REMARK VINA RESULT:      -6.4      0.000      0.000
REMARK  4 active torsions:
REMARK  status: ('A' for Active; 'I' for Inactive)
REMARK    1  A    between atoms: C_1  and  C_2 
REMARK    2  A    between atoms: C_10  and  C_11 
REMARK    3  A    between atoms: C_15  and  O_17 
REMARK    4  A    between atoms: O_17  and  C_18 
ROOT
ATOM      1  C   LIG d   1       3.119  -0.794  -8.672  0.00  0.00    -0.015 A 
ATOM      2  C   LIG d   1       2.775  -1.270  -9.927  0.00  0.00    -0.102 A 
ATOM      3  C   LIG d   1       3.058  -2.583 -10.289  0.00  0.00    -0.068 A 
ATOM      4  C   LIG d   1       3.683  -3.419  -9.406  0.00  0.00    -0.048 A 
ATOM      5  C   LIG d   1       4.036  -2.954  -8.140  0.00  0.00     0.068 A 
ATOM      6  C   LIG d   1       3.755  -1.630  -7.763  0.00  0.00     0.142 A 
ATOM      7  O   LIG d   1       4.186  -1.414  -6.501  0.00  0.00    -0.451 OA
ATOM      8  C   LIG d   1       4.759  -2.519  -5.968  0.00  0.00     0.176 A 
ATOM      9  C   LIG d   1       5.289  -2.625  -4.725  0.00  0.00    -0.008 C 
ATOM     10  C   LIG d   1       4.707  -3.581  -6.986  0.00  0.00     0.232 A 
ATOM     11  O   LIG d   1       5.123  -4.723  -6.895  0.00  0.00    -0.283 OA
ATOM     12  O   LIG d   1       2.155  -0.447 -10.811  0.00  0.00    -0.873 OA
ATOM     13  H   LIG d   1       2.784  -2.943 -11.270  0.00  0.00     0.061 H 
ATOM     14  H   LIG d   1       3.903  -4.438  -9.689  0.00  0.00     0.063 H 
ATOM     15  H   LIG d   1       5.808  -3.548  -4.426  0.00  0.00     0.066 H 
ENDROOT
BRANCH   9  16
ATOM     16  C   LIG d   1       5.172  -1.509  -3.777  0.00  0.00    -0.018 A 
ATOM     17  C   LIG d   1       5.944  -0.355  -3.951  0.00  0.00    -0.013 A 
ATOM     18  C   LIG d   1       5.827   0.692  -3.053  0.00  0.00     0.121 A 
ATOM     19  H   LIG d   1       6.629  -0.282  -4.784  0.00  0.00     0.066 H 
ATOM     20  C   LIG d   1       4.947   0.596  -1.984  0.00  0.00    -0.020 A 
ATOM     21  C   LIG d   1       4.182  -0.544  -1.809  0.00  0.00    -0.058 A 
ATOM     22  H   LIG d   1       4.859   1.415  -1.286  0.00  0.00     0.065 H 
ATOM     23  C   LIG d   1       4.288  -1.594  -2.694  0.00  0.00    -0.054 A 
ATOM     24  H   LIG d   1       3.502  -0.612  -0.972  0.00  0.00     0.062 H 
ATOM     25  H   LIG d   1       3.689  -2.481  -2.555  0.00  0.00     0.062 H 
BRANCH  18  26
ATOM     26  O   LIG d   1       6.575   1.814  -3.219  0.00  0.00    -0.495 OA
BRANCH  26  27
ATOM     27  C   LIG d   1       7.823   1.668  -3.899  0.00  0.00     0.079 C 
ATOM     28  H   LIG d   1       7.646   1.618  -4.984  0.00  0.00     0.066 H 
ATOM     29  H   LIG d   1       8.316   0.743  -3.565  0.00  0.00     0.066 H 
ATOM     30  H   LIG d   1       8.467   2.529  -3.672  0.00  0.00     0.066 H 
ENDBRANCH  26  27
ENDBRANCH  18  26
ENDBRANCH   9  16
BRANCH   1  31
ATOM     31  C   LIG d   1       2.806   0.630  -8.294  0.00  0.00    -0.037 C 
ATOM     32  H   LIG d   1       1.716   0.774  -8.278  0.00  0.00     0.028 H 
ATOM     33  H   LIG d   1       3.255   1.313  -9.031  0.00  0.00     0.028 H 
ATOM     34  H   LIG d   1       3.219   0.844  -7.297  0.00  0.00     0.028 H 
ENDBRANCH   1  31
TORSDOF 4
ENDMDL
MODEL 2
REMARK VINA RESULT:      -6.3      2.026      3.295
REMARK  4 active torsions:
REMARK  status: ('A' for Active; 'I' for Inactive)
REMARK    1  A    between atoms: C_1  and  C_2 
REMARK    2  A    between atoms: C_10  and  C_11 
REMARK    3  A    between atoms: C_15  and  O_17 
REMARK    4  A    between atoms: O_17  and  C_18 
ROOT
ATOM      1  C   LIG d   1       3.261  -2.269  -9.333  0.00  0.00    -0.015 A 
ATOM      2  C   LIG d   1       3.069  -2.136 -10.698  0.00  0.00    -0.102 A 
ATOM      3  C   LIG d   1       2.822  -0.887 -11.260  0.00  0.00    -0.068 A 
ATOM      4  C   LIG d   1       2.765   0.224 -10.466  0.00  0.00    -0.048 A 
ATOM      5  C   LIG d   1       2.956   0.105  -9.089  0.00  0.00     0.068 A 
ATOM      6  C   LIG d   1       3.207  -1.151  -8.511  0.00  0.00     0.142 A 
ATOM      7  O   LIG d   1       3.357  -1.015  -7.175  0.00  0.00    -0.451 OA
ATOM      8  C   LIG d   1       3.224   0.273  -6.781  0.00  0.00     0.176 A 
ATOM      9  C   LIG d   1       3.320   0.736  -5.510  0.00  0.00    -0.008 C 
ATOM     10  C   LIG d   1       2.952   1.079  -7.982  0.00  0.00     0.232 A 
ATOM     11  O   LIG d   1       2.766   2.282  -8.048  0.00  0.00    -0.283 OA
ATOM     12  O   LIG d   1       3.123  -3.233 -11.495  0.00  0.00    -0.873 OA
ATOM     13  H   LIG d   1       2.674  -0.795 -12.326  0.00  0.00     0.061 H 
ATOM     14  H   LIG d   1       2.571   1.192 -10.902  0.00  0.00     0.063 H 
ATOM     15  H   LIG d   1       3.109   1.793  -5.293  0.00  0.00     0.066 H 
ENDROOT
BRANCH   9  16
ATOM     16  C   LIG d   1       3.705  -0.175  -4.423  0.00  0.00    -0.018 A 
ATOM     17  C   LIG d   1       5.043  -0.549  -4.260  0.00  0.00    -0.013 A 
ATOM     18  C   LIG d   1       5.397  -1.407  -3.234  0.00  0.00     0.121 A 
ATOM     19  H   LIG d   1       5.798  -0.169  -4.934  0.00  0.00     0.066 H 
ATOM     20  C   LIG d   1       4.426  -1.895  -2.370  0.00  0.00    -0.020 A 
ATOM     21  C   LIG d   1       3.102  -1.527  -2.528  0.00  0.00    -0.058 A 
ATOM     22  H   LIG d   1       4.706  -2.565  -1.570  0.00  0.00     0.065 H 
ATOM     23  C   LIG d   1       2.735  -0.674  -3.545  0.00  0.00    -0.054 A 
ATOM     24  H   LIG d   1       2.352  -1.914  -1.853  0.00  0.00     0.062 H 
ATOM     25  H   LIG d   1       1.701  -0.388  -3.665  0.00  0.00     0.062 H 
BRANCH  18  26
ATOM     26  O   LIG d   1       6.696  -1.773  -3.073  0.00  0.00    -0.495 OA
BRANCH  26  27
ATOM     27  C   LIG d   1       7.266  -2.606  -4.083  0.00  0.00     0.079 C 
ATOM     28  H   LIG d   1       8.363  -2.565  -4.019  0.00  0.00     0.066 H 
ATOM     29  H   LIG d   1       6.943  -2.253  -5.074  0.00  0.00     0.066 H 
ATOM     30  H   LIG d   1       6.929  -3.642  -3.936  0.00  0.00     0.066 H 
ENDBRANCH  26  27
ENDBRANCH  18  26
ENDBRANCH   9  16
BRANCH   1  31
ATOM     31  C   LIG d   1       3.529  -3.628  -8.739  0.00  0.00    -0.037 C 
ATOM     32  H   LIG d   1       2.712  -3.896  -8.053  0.00  0.00     0.028 H 
ATOM     33  H   LIG d   1       4.480  -3.606  -8.186  0.00  0.00     0.028 H 
ATOM     34  H   LIG d   1       3.591  -4.374  -9.544  0.00  0.00     0.028 H 
ENDBRANCH   1  31
TORSDOF 4
ENDMDL
MODEL 3
REMARK VINA RESULT:      -6.0      4.395      6.482
REMARK  4 active torsions:
REMARK  status: ('A' for Active; 'I' for Inactive)
REMARK    1  A    between atoms: C_1  and  C_2 
REMARK    2  A    between atoms: C_10  and  C_11 
REMARK    3  A    between atoms: C_15  and  O_17 
REMARK    4  A    between atoms: O_17  and  C_18 
ROOT
ATOM      1  C   LIG d   1       5.453   0.185  -2.932  0.00  0.00    -0.015 A 
ATOM      2  C   LIG d   1       4.789  -1.030  -2.902  0.00  0.00    -0.102 A 
ATOM      3  C   LIG d   1       5.339  -2.154  -3.509  0.00  0.00    -0.068 A 
ATOM      4  C   LIG d   1       6.546  -2.069  -4.146  0.00  0.00    -0.048 A 
ATOM      5  C   LIG d   1       7.226  -0.852  -4.185  0.00  0.00     0.068 A 
ATOM      6  C   LIG d   1       6.680   0.289  -3.574  0.00  0.00     0.142 A 
ATOM      7  O   LIG d   1       7.514   1.340  -3.742  0.00  0.00    -0.451 OA
ATOM      8  C   LIG d   1       8.622   0.997  -4.442  0.00  0.00     0.176 A 
ATOM      9  C   LIG d   1       9.645   1.821  -4.776  0.00  0.00    -0.008 C 
ATOM     10  C   LIG d   1       8.509  -0.432  -4.779  0.00  0.00     0.232 A 
ATOM     11  O   LIG d   1       9.300  -1.115  -5.406  0.00  0.00    -0.283 OA
ATOM     12  O   LIG d   1       3.590  -1.125  -2.273  0.00  0.00    -0.873 OA
ATOM     13  H   LIG d   1       4.812  -3.097  -3.479  0.00  0.00     0.061 H 
ATOM     14  H   LIG d   1       6.972  -2.941  -4.618  0.00  0.00     0.063 H 
ATOM     15  H   LIG d   1      10.457   1.455  -5.422  0.00  0.00     0.066 H 
ENDROOT
BRANCH   9  16
ATOM     16  C   LIG d   1       9.670   3.202  -4.275  0.00  0.00    -0.018 A 
ATOM     17  C   LIG d   1      10.156   3.476  -2.992  0.00  0.00    -0.013 A 
ATOM     18  C   LIG d   1      10.176   4.780  -2.529  0.00  0.00     0.121 A 
ATOM     19  H   LIG d   1      10.515   2.672  -2.366  0.00  0.00     0.066 H 
ATOM     20  C   LIG d   1       9.713   5.812  -3.335  0.00  0.00    -0.020 A 
ATOM     21  C   LIG d   1       9.231   5.544  -4.604  0.00  0.00    -0.058 A 
ATOM     22  H   LIG d   1       9.730   6.828  -2.969  0.00  0.00     0.065 H 
ATOM     23  C   LIG d   1       9.205   4.251  -5.078  0.00  0.00    -0.054 A 
ATOM     24  H   LIG d   1       8.870   6.352  -5.223  0.00  0.00     0.062 H 
ATOM     25  H   LIG d   1       8.829   4.046  -6.069  0.00  0.00     0.062 H 
BRANCH  18  26
ATOM     26  O   LIG d   1      10.648   5.051  -1.283  0.00  0.00    -0.495 OA
BRANCH  26  27
ATOM     27  C   LIG d   1      10.414   6.364  -0.772  0.00  0.00     0.079 C 
ATOM     28  H   LIG d   1      11.373   6.888  -0.654  0.00  0.00     0.066 H 
ATOM     29  H   LIG d   1       9.912   6.293   0.204  0.00  0.00     0.066 H 
ATOM     30  H   LIG d   1       9.775   6.921  -1.472  0.00  0.00     0.066 H 
ENDBRANCH  26  27
ENDBRANCH  18  26
ENDBRANCH   9  16
BRANCH   1  31
ATOM     31  C   LIG d   1       4.845   1.393  -2.269  0.00  0.00    -0.037 C 
ATOM     32  H   LIG d   1       4.662   1.176  -1.207  0.00  0.00     0.028 H 
ATOM     33  H   LIG d   1       3.893   1.642  -2.761  0.00  0.00     0.028 H 
ATOM     34  H   LIG d   1       5.535   2.246  -2.356  0.00  0.00     0.028 H 
ENDBRANCH   1  31
TORSDOF 4
ENDMDL
MODEL 4
REMARK VINA RESULT:      -6.0      2.417      6.766
REMARK  4 active torsions:
REMARK  status: ('A' for Active; 'I' for Inactive)
REMARK    1  A    between atoms: C_1  and  C_2 
REMARK    2  A    between atoms: C_10  and  C_11 
REMARK    3  A    between atoms: C_15  and  O_17 
REMARK    4  A    between atoms: O_17  and  C_18 
ROOT
ATOM      1  C   LIG d   1       7.001  -1.528  -5.411  0.00  0.00    -0.015 A 
ATOM      2  C   LIG d   1       7.496  -2.089  -4.245  0.00  0.00    -0.102 A 
ATOM      3  C   LIG d   1       6.700  -2.179  -3.108  0.00  0.00    -0.068 A 
ATOM      4  C   LIG d   1       5.416  -1.710  -3.130  0.00  0.00    -0.048 A 
ATOM      5  C   LIG d   1       4.904  -1.142  -4.296  0.00  0.00     0.068 A 
ATOM      6  C   LIG d   1       5.699  -1.047  -5.451  0.00  0.00     0.142 A 
ATOM      7  O   LIG d   1       4.991  -0.466  -6.445  0.00  0.00    -0.451 OA
ATOM      8  C   LIG d   1       3.736  -0.145  -6.049  0.00  0.00     0.176 A 
ATOM      9  C   LIG d   1       2.784   0.447  -6.810  0.00  0.00    -0.008 C 
ATOM     10  C   LIG d   1       3.597  -0.552  -4.641  0.00  0.00     0.232 A 
ATOM     11  O   LIG d   1       2.621  -0.431  -3.922  0.00  0.00    -0.283 OA
ATOM     12  O   LIG d   1       8.770  -2.557  -4.213  0.00  0.00    -0.873 OA
ATOM     13  H   LIG d   1       7.097  -2.619  -2.204  0.00  0.00     0.061 H 
ATOM     14  H   LIG d   1       4.799  -1.778  -2.246  0.00  0.00     0.063 H 
ATOM     15  H   LIG d   1       1.824   0.741  -6.359  0.00  0.00     0.066 H 
ENDROOT
BRANCH   9  16
ATOM     16  C   LIG d   1       3.033   0.698  -8.236  0.00  0.00    -0.018 A 
ATOM     17  C   LIG d   1       2.765  -0.297  -9.182  0.00  0.00    -0.013 A 
ATOM     18  C   LIG d   1       3.003  -0.053 -10.524  0.00  0.00     0.121 A 
ATOM     19  H   LIG d   1       2.374  -1.254  -8.866  0.00  0.00     0.066 H 
ATOM     20  C   LIG d   1       3.506   1.177 -10.928  0.00  0.00    -0.020 A 
ATOM     21  C   LIG d   1       3.771   2.163  -9.995  0.00  0.00    -0.058 A 
ATOM     22  H   LIG d   1       3.690   1.364 -11.975  0.00  0.00     0.065 H 
ATOM     23  C   LIG d   1       3.540   1.934  -8.656  0.00  0.00    -0.054 A 
ATOM     24  H   LIG d   1       4.166   3.116 -10.317  0.00  0.00     0.062 H 
ATOM     25  H   LIG d   1       3.748   2.706  -7.931  0.00  0.00     0.062 H 
BRANCH  18  26
ATOM     26  O   LIG d   1       2.744  -1.017 -11.445  0.00  0.00    -0.495 OA
BRANCH  26  27
ATOM     27  C   LIG d   1       1.373  -1.256 -11.767  0.00  0.00     0.079 C 
ATOM     28  H   LIG d   1       1.263  -2.270 -12.179  0.00  0.00     0.066 H 
ATOM     29  H   LIG d   1       1.037  -0.519 -12.512  0.00  0.00     0.066 H 
ATOM     30  H   LIG d   1       0.762  -1.162 -10.858  0.00  0.00     0.066 H 
ENDBRANCH  26  27
ENDBRANCH  18  26
ENDBRANCH   9  16
BRANCH   1  31
ATOM     31  C   LIG d   1       7.875  -1.439  -6.635  0.00  0.00    -0.037 C 
ATOM     32  H   LIG d   1       7.264  -1.145  -7.501  0.00  0.00     0.028 H 
ATOM     33  H   LIG d   1       8.338  -2.418  -6.828  0.00  0.00     0.028 H 
ATOM     34  H   LIG d   1       8.662  -0.688  -6.469  0.00  0.00     0.028 H 
ENDBRANCH   1  31
TORSDOF 4
ENDMDL
MODEL 5
REMARK VINA RESULT:      -5.8      3.465      4.889
REMARK  4 active torsions:
REMARK  status: ('A' for Active; 'I' for Inactive)
REMARK    1  A    between atoms: C_1  and  C_2 
REMARK    2  A    between atoms: C_10  and  C_11 
REMARK    3  A    between atoms: C_15  and  O_17 
REMARK    4  A    between atoms: O_17  and  C_18 
ROOT
ATOM      1  C   LIG d   1       8.600  -4.632  -5.062  0.00  0.00    -0.015 A 
ATOM      2  C   LIG d   1       9.064  -5.770  -5.700  0.00  0.00    -0.102 A 
ATOM      3  C   LIG d   1       8.175  -6.680  -6.264  0.00  0.00    -0.068 A 
ATOM      4  C   LIG d   1       6.828  -6.457  -6.191  0.00  0.00    -0.048 A 
ATOM      5  C   LIG d   1       6.345  -5.315  -5.552  0.00  0.00     0.068 A 
ATOM      6  C   LIG d   1       7.235  -4.390  -4.979  0.00  0.00     0.142 A 
ATOM      7  O   LIG d   1       6.539  -3.374  -4.422  0.00  0.00    -0.451 OA
ATOM      8  C   LIG d   1       5.203  -3.537  -4.572  0.00  0.00     0.176 A 
ATOM      9  C   LIG d   1       4.239  -2.694  -4.126  0.00  0.00    -0.008 C 
ATOM     10  C   LIG d   1       4.988  -4.797  -5.302  0.00  0.00     0.232 A 
ATOM     11  O   LIG d   1       3.926  -5.298  -5.629  0.00  0.00    -0.283 OA
ATOM     12  O   LIG d   1      10.400  -6.000  -5.776  0.00  0.00    -0.873 OA
ATOM     13  H   LIG d   1       8.549  -7.564  -6.759  0.00  0.00     0.061 H 
ATOM     14  H   LIG d   1       6.138  -7.164  -6.628  0.00  0.00     0.063 H 
ATOM     15  H   LIG d   1       3.179  -2.969  -4.228  0.00  0.00     0.066 H 
ENDROOT
BRANCH   9  16
ATOM     16  C   LIG d   1       4.610  -1.415  -3.505  0.00  0.00    -0.018 A 
ATOM     17  C   LIG d   1       5.453  -0.525  -4.179  0.00  0.00    -0.013 A 
ATOM     18  C   LIG d   1       5.798   0.677  -3.587  0.00  0.00     0.121 A 
ATOM     19  H   LIG d   1       5.834  -0.777  -5.159  0.00  0.00     0.066 H 
ATOM     20  C   LIG d   1       5.308   0.998  -2.328  0.00  0.00    -0.020 A 
ATOM     21  C   LIG d   1       4.474   0.121  -1.659  0.00  0.00    -0.058 A 
ATOM     22  H   LIG d   1       5.579   1.938  -1.870  0.00  0.00     0.065 H 
ATOM     23  C   LIG d   1       4.123  -1.080  -2.236  0.00  0.00    -0.054 A 
ATOM     24  H   LIG d   1       4.099   0.376  -0.678  0.00  0.00     0.062 H 
ATOM     25  H   LIG d   1       3.471  -1.763  -1.711  0.00  0.00     0.062 H 
BRANCH  18  26
ATOM     26  O   LIG d   1       6.617   1.544  -4.239  0.00  0.00    -0.495 OA
BRANCH  26  27
ATOM     27  C   LIG d   1       7.983   1.585  -3.821  0.00  0.00     0.079 C 
ATOM     28  H   LIG d   1       8.448   2.516  -4.175  0.00  0.00     0.066 H 
ATOM     29  H   LIG d   1       8.521   0.723  -4.244  0.00  0.00     0.066 H 
ATOM     30  H   LIG d   1       8.031   1.544  -2.724  0.00  0.00     0.066 H 
ENDBRANCH  26  27
ENDBRANCH  18  26
ENDBRANCH   9  16
BRANCH   1  31
ATOM     31  C   LIG d   1       9.575  -3.656  -4.456  0.00  0.00    -0.037 C 
ATOM     32  H   LIG d   1       9.048  -3.004  -3.745  0.00  0.00     0.028 H 
ATOM     33  H   LIG d   1      10.024  -3.044  -5.253  0.00  0.00     0.028 H 
ATOM     34  H   LIG d   1      10.367  -4.209  -3.930  0.00  0.00     0.028 H 
ENDBRANCH   1  31
TORSDOF 4
ENDMDL
MODEL 6
REMARK VINA RESULT:      -5.7      2.259      6.816
REMARK  4 active torsions:
REMARK  status: ('A' for Active; 'I' for Inactive)
REMARK    1  A    between atoms: C_1  and  C_2 
REMARK    2  A    between atoms: C_10  and  C_11 
REMARK    3  A    between atoms: C_15  and  O_17 
REMARK    4  A    between atoms: O_17  and  C_18 
ROOT
ATOM      1  C   LIG d   1       5.639  -2.464  -5.852  0.00  0.00    -0.015 A 
ATOM      2  C   LIG d   1       6.111  -2.651  -4.563  0.00  0.00    -0.102 A 
ATOM      3  C   LIG d   1       5.657  -1.851  -3.519  0.00  0.00    -0.068 A 
ATOM      4  C   LIG d   1       4.738  -0.868  -3.759  0.00  0.00    -0.048 A 
ATOM      5  C   LIG d   1       4.254  -0.668  -5.051  0.00  0.00     0.068 A 
ATOM      6  C   LIG d   1       4.705  -1.470  -6.112  0.00  0.00     0.142 A 
ATOM      7  O   LIG d   1       4.099  -1.092  -7.259  0.00  0.00    -0.451 OA
ATOM      8  C   LIG d   1       3.243  -0.062  -7.061  0.00  0.00     0.176 A 
ATOM      9  C   LIG d   1       2.486   0.544  -8.008  0.00  0.00    -0.008 C 
ATOM     10  C   LIG d   1       3.289   0.285  -5.631  0.00  0.00     0.232 A 
ATOM     11  O   LIG d   1       2.668   1.160  -5.055  0.00  0.00    -0.283 OA
ATOM     12  O   LIG d   1       7.024  -3.624  -4.316  0.00  0.00    -0.873 OA
ATOM     13  H   LIG d   1       6.032  -2.006  -2.518  0.00  0.00     0.061 H 
ATOM     14  H   LIG d   1       4.387  -0.246  -2.948  0.00  0.00     0.063 H 
ATOM     15  H   LIG d   1       1.888   1.430  -7.750  0.00  0.00     0.066 H 
ENDROOT
BRANCH   9  16
ATOM     16  C   LIG d   1       2.463   0.017  -9.380  0.00  0.00    -0.018 A 
ATOM     17  C   LIG d   1       3.531   0.270 -10.248  0.00  0.00    -0.013 A 
ATOM     18  C   LIG d   1       3.502  -0.230 -11.538  0.00  0.00     0.121 A 
ATOM     19  H   LIG d   1       4.375   0.854  -9.911  0.00  0.00     0.066 H 
ATOM     20  C   LIG d   1       2.415  -0.980 -11.968  0.00  0.00    -0.020 A 
ATOM     21  C   LIG d   1       1.357  -1.232 -11.113  0.00  0.00    -0.058 A 
ATOM     22  H   LIG d   1       2.396  -1.368 -12.976  0.00  0.00     0.065 H 
ATOM     23  C   LIG d   1       1.373  -0.741  -9.826  0.00  0.00    -0.054 A 
ATOM     24  H   LIG d   1       0.514  -1.814 -11.456  0.00  0.00     0.062 H 
ATOM     25  H   LIG d   1       0.547  -0.940  -9.160  0.00  0.00     0.062 H 
BRANCH  18  26
ATOM     26  O   LIG d   1       4.537   0.014 -12.384  0.00  0.00    -0.495 OA
BRANCH  26  27
ATOM     27  C   LIG d   1       5.727  -0.752 -12.190  0.00  0.00     0.079 C 
ATOM     28  H   LIG d   1       6.090  -0.613 -11.161  0.00  0.00     0.066 H 
ATOM     29  H   LIG d   1       6.498  -0.416 -12.900  0.00  0.00     0.066 H 
ATOM     30  H   LIG d   1       5.510  -1.816 -12.362  0.00  0.00     0.066 H 
ENDBRANCH  26  27
ENDBRANCH  18  26
ENDBRANCH   9  16
BRANCH   1  31
ATOM     31  C   LIG d   1       6.140  -3.339  -6.972  0.00  0.00    -0.037 C 
ATOM     32  H   LIG d   1       7.101  -3.790  -6.684  0.00  0.00     0.028 H 
ATOM     33  H   LIG d   1       6.277  -2.732  -7.879  0.00  0.00     0.028 H 
ATOM     34  H   LIG d   1       5.406  -4.135  -7.172  0.00  0.00     0.028 H 
ENDBRANCH   1  31
TORSDOF 4
ENDMDL
MODEL 7
REMARK VINA RESULT:      -5.5      3.717      5.671
REMARK  4 active torsions:
REMARK  status: ('A' for Active; 'I' for Inactive)
REMARK    1  A    between atoms: C_1  and  C_2 
REMARK    2  A    between atoms: C_10  and  C_11 
REMARK    3  A    between atoms: C_15  and  O_17 
REMARK    4  A    between atoms: O_17  and  C_18 
ROOT
ATOM      1  C   LIG d   1       5.359   0.352  -3.513  0.00  0.00    -0.015 A 
ATOM      2  C   LIG d   1       4.076   0.856  -3.371  0.00  0.00    -0.102 A 
ATOM      3  C   LIG d   1       2.969   0.031  -3.543  0.00  0.00    -0.068 A 
ATOM      4  C   LIG d   1       3.138  -1.289  -3.855  0.00  0.00    -0.048 A 
ATOM      5  C   LIG d   1       4.423  -1.810  -4.001  0.00  0.00     0.068 A 
ATOM      6  C   LIG d   1       5.549  -0.987  -3.830  0.00  0.00     0.142 A 
ATOM      7  O   LIG d   1       6.675  -1.709  -4.019  0.00  0.00    -0.451 OA
ATOM      8  C   LIG d   1       6.401  -3.001  -4.317  0.00  0.00     0.176 A 
ATOM      9  C   LIG d   1       7.309  -3.977  -4.562  0.00  0.00    -0.008 C 
ATOM     10  C   LIG d   1       4.936  -3.152  -4.331  0.00  0.00     0.232 A 
ATOM     11  O   LIG d   1       4.292  -4.161  -4.562  0.00  0.00    -0.283 OA
ATOM     12  O   LIG d   1       3.898   2.165  -3.062  0.00  0.00    -0.873 OA
ATOM     13  H   LIG d   1       1.973   0.435  -3.429  0.00  0.00     0.061 H 
ATOM     14  H   LIG d   1       2.278  -1.928  -3.989  0.00  0.00     0.063 H 
ATOM     15  H   LIG d   1       6.972  -4.975  -4.879  0.00  0.00     0.066 H 
ENDROOT
BRANCH   9  16
ATOM     16  C   LIG d   1       8.744  -3.701  -4.405  0.00  0.00    -0.018 A 
ATOM     17  C   LIG d   1       9.440  -3.009  -5.401  0.00  0.00    -0.013 A 
ATOM     18  C   LIG d   1      10.792  -2.754  -5.245  0.00  0.00     0.121 A 
ATOM     19  H   LIG d   1       8.924  -2.674  -6.289  0.00  0.00     0.066 H 
ATOM     20  C   LIG d   1      11.453  -3.186  -4.103  0.00  0.00    -0.020 A 
ATOM     21  C   LIG d   1      10.768  -3.871  -3.116  0.00  0.00    -0.058 A 
ATOM     22  H   LIG d   1      12.508  -2.985  -3.985  0.00  0.00     0.065 H 
ATOM     23  C   LIG d   1       9.423  -4.132  -3.258  0.00  0.00    -0.054 A 
ATOM     24  H   LIG d   1      11.291  -4.207  -2.232  0.00  0.00     0.062 H 
ATOM     25  H   LIG d   1       8.891  -4.667  -2.485  0.00  0.00     0.062 H 
BRANCH  18  26
ATOM     26  O   LIG d   1      11.471  -2.081  -6.210  0.00  0.00    -0.495 OA
BRANCH  26  27
ATOM     27  C   LIG d   1      12.851  -1.809  -5.962  0.00  0.00     0.079 C 
ATOM     28  H   LIG d   1      13.407  -1.829  -6.911  0.00  0.00     0.066 H 
ATOM     29  H   LIG d   1      13.259  -2.572  -5.283  0.00  0.00     0.066 H 
ATOM     30  H   LIG d   1      12.952  -0.816  -5.500  0.00  0.00     0.066 H 
ENDBRANCH  26  27
ENDBRANCH  18  26
ENDBRANCH   9  16
BRANCH   1  31
ATOM     31  C   LIG d   1       6.549   1.257  -3.323  0.00  0.00    -0.037 C 
ATOM     32  H   LIG d   1       6.369   2.212  -3.837  0.00  0.00     0.028 H 
ATOM     33  H   LIG d   1       7.445   0.778  -3.744  0.00  0.00     0.028 H 
ATOM     34  H   LIG d   1       6.702   1.441  -2.250  0.00  0.00     0.028 H 
ENDBRANCH   1  31
TORSDOF 4
ENDMDL
MODEL 8
REMARK VINA RESULT:      -5.4     12.146     15.765
REMARK  4 active torsions:
REMARK  status: ('A' for Active; 'I' for Inactive)
REMARK    1  A    between atoms: C_1  and  C_2 
REMARK    2  A    between atoms: C_10  and  C_11 
REMARK    3  A    between atoms: C_15  and  O_17 
REMARK    4  A    between atoms: O_17  and  C_18 
ROOT
ATOM      1  C   LIG d   1      10.935   7.343   0.603  0.00  0.00    -0.015 A 
ATOM      2  C   LIG d   1      10.314   7.510  -0.623  0.00  0.00    -0.102 A 
ATOM      3  C   LIG d   1      10.087   8.784  -1.135  0.00  0.00    -0.068 A 
ATOM      4  C   LIG d   1      10.476   9.887  -0.427  0.00  0.00    -0.048 A 
ATOM      5  C   LIG d   1      11.103   9.734   0.810  0.00  0.00     0.068 A 
ATOM      6  C   LIG d   1      11.337   8.453   1.336  0.00  0.00     0.142 A 
ATOM      7  O   LIG d   1      11.951   8.558   2.535  0.00  0.00    -0.451 OA
ATOM      8  C   LIG d   1      12.161   9.849   2.882  0.00  0.00     0.176 A 
ATOM      9  C   LIG d   1      12.753  10.286   4.021  0.00  0.00    -0.008 C 
ATOM     10  C   LIG d   1      11.625  10.693   1.801  0.00  0.00     0.232 A 
ATOM     11  O   LIG d   1      11.617  11.909   1.738  0.00  0.00    -0.283 OA
ATOM     12  O   LIG d   1       9.924   6.421  -1.333  0.00  0.00    -0.873 OA
ATOM     13  H   LIG d   1       9.602   8.902  -2.093  0.00  0.00     0.061 H 
ATOM     14  H   LIG d   1      10.299  10.875  -0.824  0.00  0.00     0.063 H 
ATOM     15  H   LIG d   1      12.795  11.363   4.241  0.00  0.00     0.066 H 
ENDROOT
BRANCH   9  16
ATOM     16  C   LIG d   1      13.338   9.321   4.962  0.00  0.00    -0.018 A 
ATOM     17  C   LIG d   1      12.510   8.472   5.704  0.00  0.00    -0.013 A 
ATOM     18  C   LIG d   1      13.070   7.566   6.589  0.00  0.00     0.121 A 
ATOM     19  H   LIG d   1      11.438   8.523   5.586  0.00  0.00     0.066 H 
ATOM     20  C   LIG d   1      14.449   7.503   6.739  0.00  0.00    -0.020 A 
ATOM     21  C   LIG d   1      15.271   8.342   6.007  0.00  0.00    -0.058 A 
ATOM     22  H   LIG d   1      14.882   6.795   7.430  0.00  0.00     0.065 H 
ATOM     23  C   LIG d   1      14.727   9.248   5.123  0.00  0.00    -0.054 A 
ATOM     24  H   LIG d   1      16.343   8.288   6.132  0.00  0.00     0.062 H 
ATOM     25  H   LIG d   1      15.372   9.900   4.553  0.00  0.00     0.062 H 
BRANCH  18  26
ATOM     26  O   LIG d   1      12.269   6.740   7.311  0.00  0.00    -0.495 OA
BRANCH  26  27
ATOM     27  C   LIG d   1      10.879   6.734   6.983  0.00  0.00     0.079 C 
ATOM     28  H   LIG d   1      10.496   5.704   7.025  0.00  0.00     0.066 H 
ATOM     29  H   LIG d   1      10.740   7.137   5.969  0.00  0.00     0.066 H 
ATOM     30  H   LIG d   1      10.331   7.359   7.703  0.00  0.00     0.066 H 
ENDBRANCH  26  27
ENDBRANCH  18  26
ENDBRANCH   9  16
BRANCH   1  31
ATOM     31  C   LIG d   1      11.175   5.957   1.144  0.00  0.00    -0.037 C 
ATOM     32  H   LIG d   1      11.896   5.432   0.501  0.00  0.00     0.028 H 
ATOM     33  H   LIG d   1      10.226   5.401   1.162  0.00  0.00     0.028 H 
ATOM     34  H   LIG d   1      11.577   6.026   2.166  0.00  0.00     0.028 H 
ENDBRANCH   1  31
TORSDOF 4
ENDMDL
MODEL 9
REMARK VINA RESULT:      -5.4      3.057      5.687
REMARK  4 active torsions:
REMARK  status: ('A' for Active; 'I' for Inactive)
REMARK    1  A    between atoms: C_1  and  C_2 
REMARK    2  A    between atoms: C_10  and  C_11 
REMARK    3  A    between atoms: C_15  and  O_17 
REMARK    4  A    between atoms: O_17  and  C_18 
ROOT
ATOM      1  C   LIG d   1       9.438   0.111  -5.191  0.00  0.00    -0.015 A 
ATOM      2  C   LIG d   1      10.784  -0.070  -5.460  0.00  0.00    -0.102 A 
ATOM      3  C   LIG d   1      11.341  -1.345  -5.463  0.00  0.00    -0.068 A 
ATOM      4  C   LIG d   1      10.561  -2.436  -5.197  0.00  0.00    -0.048 A 
ATOM      5  C   LIG d   1       9.203  -2.269  -4.924  0.00  0.00     0.068 A 
ATOM      6  C   LIG d   1       8.630  -0.986  -4.919  0.00  0.00     0.142 A 
ATOM      7  O   LIG d   1       7.313  -1.077  -4.631  0.00  0.00    -0.451 OA
ATOM      8  C   LIG d   1       6.928  -2.359  -4.432  0.00  0.00     0.176 A 
ATOM      9  C   LIG d   1       5.676  -2.781  -4.127  0.00  0.00    -0.008 C 
ATOM     10  C   LIG d   1       8.116  -3.211  -4.601  0.00  0.00     0.232 A 
ATOM     11  O   LIG d   1       8.186  -4.423  -4.498  0.00  0.00    -0.283 OA
ATOM     12  O   LIG d   1      11.567   1.006  -5.725  0.00  0.00    -0.873 OA
ATOM     13  H   LIG d   1      12.393  -1.474  -5.675  0.00  0.00     0.061 H 
ATOM     14  H   LIG d   1      10.994  -3.424  -5.198  0.00  0.00     0.063 H 
ATOM     15  H   LIG d   1       5.493  -3.842  -3.902  0.00  0.00     0.066 H 
ENDROOT
BRANCH   9  16
ATOM     16  C   LIG d   1       4.563  -1.821  -4.098  0.00  0.00    -0.018 A 
ATOM     17  C   LIG d   1       4.318  -0.996  -5.200  0.00  0.00    -0.013 A 
ATOM     18  C   LIG d   1       3.268  -0.094  -5.164  0.00  0.00     0.121 A 
ATOM     19  H   LIG d   1       4.946  -1.062  -6.077  0.00  0.00     0.066 H 
ATOM     20  C   LIG d   1       2.462  -0.011  -4.036  0.00  0.00    -0.020 A 
ATOM     21  C   LIG d   1       2.702  -0.826  -2.944  0.00  0.00    -0.058 A 
ATOM     22  H   LIG d   1       1.644   0.694  -4.012  0.00  0.00     0.065 H 
ATOM     23  C   LIG d   1       3.744  -1.727  -2.966  0.00  0.00    -0.054 A 
ATOM     24  H   LIG d   1       2.073  -0.752  -2.069  0.00  0.00     0.062 H 
ATOM     25  H   LIG d   1       3.928  -2.362  -2.112  0.00  0.00     0.062 H 
BRANCH  18  26
ATOM     26  O   LIG d   1       3.026   0.709  -6.233  0.00  0.00    -0.495 OA
BRANCH  26  27
ATOM     27  C   LIG d   1       2.868   0.071  -7.501  0.00  0.00     0.079 C 
ATOM     28  H   LIG d   1       3.746  -0.559  -7.707  0.00  0.00     0.066 H 
ATOM     29  H   LIG d   1       2.773   0.836  -8.286  0.00  0.00     0.066 H 
ATOM     30  H   LIG d   1       1.964  -0.553  -7.487  0.00  0.00     0.066 H 
ENDBRANCH  26  27
ENDBRANCH  18  26
ENDBRANCH   9  16
BRANCH   1  31
ATOM     31  C   LIG d   1       8.849   1.498  -5.192  0.00  0.00    -0.037 C 
ATOM     32  H   LIG d   1       9.264   2.072  -6.033  0.00  0.00     0.028 H 
ATOM     33  H   LIG d   1       9.095   2.002  -4.246  0.00  0.00     0.028 H 
ATOM     34  H   LIG d   1       7.755   1.432  -5.297  0.00  0.00     0.028 H 
ENDBRANCH   1  31
TORSDOF 4
ENDMDL
