MODEL 1
REMARK VINA RESULT:      -7.0      0.000      0.000
REMARK  8 active torsions:
REMARK  status: ('A' for Active; 'I' for Inactive)
REMARK    1  A    between atoms: C_1  and  O_2 
REMARK    2  A    between atoms: O_2  and  C_3 
REMARK    3  A    between atoms: C_6  and  C_11 
REMARK    4  A    between atoms: C_8  and  O_9 
REMARK    5  A    between atoms: O_9  and  C_10 
REMARK    6  A    between atoms: C_18  and  N_20 
REMARK    7  A    between atoms: N_20  and  C_21 
REMARK    8  A    between atoms: C_21  and  C_22 
ROOT
ATOM      1  C   LIG d   1       9.799   6.319  -2.770  0.00  0.00    -0.003 C 
ATOM      2  H   LIG d   1       8.759   6.570  -2.983  0.00  0.00     0.036 H 
ATOM      3  C   LIG d   1       9.892   4.860  -2.333  0.00  0.00    -0.002 C 
ATOM      4  C   LIG d   1       9.517   3.933  -3.455  0.00  0.00     0.057 A 
ATOM      5  C   LIG d   1       9.590   4.335  -4.794  0.00  0.00     0.057 A 
ATOM      6  C   LIG d   1       9.235   3.425  -5.797  0.00  0.00     0.043 A 
ATOM      7  N   LIG d   1       8.840   2.215  -5.443  0.00  0.00    -0.222 NA
ATOM      8  C   LIG d   1       8.780   1.869  -4.163  0.00  0.00     0.216 A 
ATOM      9  N   LIG d   1       9.111   2.704  -3.186  0.00  0.00    -0.219 NA
ATOM     10  C   LIG d   1      10.029   5.695  -5.138  0.00  0.00     0.167 C 
ATOM     11  O   LIG d   1       9.906   6.131  -6.262  0.00  0.00    -0.292 OA
ATOM     12  C   LIG d   1      10.644   6.532  -4.033  0.00  0.00     0.018 C 
ATOM     13  H   LIG d   1       9.218   4.695  -1.493  0.00  0.00     0.033 H 
ATOM     14  H   LIG d   1      10.914   4.646  -2.019  0.00  0.00     0.033 H 
ATOM     15  H   LIG d   1       9.284   3.706  -6.839  0.00  0.00     0.084 H 
ATOM     16  H   LIG d   1      10.637   7.500  -4.280  0.00  0.00     0.035 H 
ATOM     17  H   LIG d   1      11.669   6.211  -3.850  0.00  0.00     0.035 H 
ENDROOT
BRANCH   1  18
ATOM     18  C   LIG d   1      10.313   7.208  -1.667  0.00  0.00    -0.040 A 
ATOM     19  C   LIG d   1      10.514   8.556  -1.904  0.00  0.00    -0.055 A 
ATOM     20  C   LIG d   1      10.980   9.376  -0.894  0.00  0.00    -0.016 A 
ATOM     21  H   LIG d   1      10.302   8.968  -2.880  0.00  0.00     0.062 H 
ATOM     22  C   LIG d   1      11.258   8.847   0.357  0.00  0.00     0.162 A 
ATOM     23  H   LIG d   1      11.133  10.429  -1.081  0.00  0.00     0.066 H 
ATOM     24  C   LIG d   1      11.061   7.490   0.593  0.00  0.00     0.162 A 
ATOM     25  C   LIG d   1      10.587   6.674  -0.422  0.00  0.00    -0.013 A 
ATOM     26  H   LIG d   1      10.433   5.621  -0.240  0.00  0.00     0.066 H 
BRANCH  22  27
ATOM     27  O   LIG d   1      11.722   9.652   1.349  0.00  0.00    -0.491 OA
BRANCH  27  28
ATOM     28  C   LIG d   1      11.479  11.053   1.215  0.00  0.00     0.079 C 
ATOM     29  H   LIG d   1      10.973  11.421   2.107  0.00  0.00     0.066 H 
ATOM     30  H   LIG d   1      12.427  11.576   1.092  0.00  0.00     0.066 H 
ATOM     31  H   LIG d   1      10.850  11.231   0.341  0.00  0.00     0.066 H 
ENDBRANCH  27  28
ENDBRANCH  22  27
BRANCH  24  32
ATOM     32  O   LIG d   1      11.332   6.965   1.818  0.00  0.00    -0.491 OA
BRANCH  32  33
ATOM     33  C   LIG d   1      10.926   5.615   2.051  0.00  0.00     0.079 C 
ATOM     34  H   LIG d   1      10.317   5.271   1.214  0.00  0.00     0.066 H 
ATOM     35  H   LIG d   1      11.809   4.982   2.142  0.00  0.00     0.066 H 
ATOM     36  H   LIG d   1      10.344   5.563   2.970  0.00  0.00     0.066 H 
ENDBRANCH  32  33
ENDBRANCH  24  32
ENDBRANCH   1  18
BRANCH   8  37
ATOM     37  N   LIG d   1       8.359   0.598  -3.836  0.00  0.00    -0.306 N 
ATOM     38  H   LIG d   1       8.905   0.039  -3.262  0.00  0.00     0.149 HD
BRANCH  37  39
ATOM     39  C   LIG d   1       7.087   0.091  -4.359  0.00  0.00     0.070 C 
ATOM     40  H   LIG d   1       6.778   0.697  -5.210  0.00  0.00     0.054 H 
ATOM     41  H   LIG d   1       7.211  -0.945  -4.676  0.00  0.00     0.054 H 
BRANCH  39  42
ATOM     42  C   LIG d   1       6.037   0.165  -3.281  0.00  0.00     0.122 A 
ATOM     43  O   LIG d   1       5.663   1.276  -2.625  0.00  0.00    -0.466 OA
ATOM     44  C   LIG d   1       4.704   0.969  -1.736  0.00  0.00     0.092 A 
ATOM     45  C   LIG d   1       4.456  -0.350  -1.817  0.00  0.00    -0.024 A 
ATOM     46  H   LIG d   1       4.215   1.664  -1.068  0.00  0.00     0.103 H 
ATOM     47  C   LIG d   1       5.312  -0.867  -2.817  0.00  0.00    -0.019 A 
ATOM     48  H   LIG d   1       3.737  -0.907  -1.234  0.00  0.00     0.065 H 
ATOM     49  H   LIG d   1       5.371  -1.895  -3.144  0.00  0.00     0.065 H 
ENDBRANCH  39  42
ENDBRANCH  37  39
ENDBRANCH   8  37
TORSDOF 8
ENDMDL
MODEL 2
REMARK VINA RESULT:      -6.6      1.941      2.717
REMARK  8 active torsions:
REMARK  status: ('A' for Active; 'I' for Inactive)
REMARK    1  A    between atoms: C_1  and  O_2 
REMARK    2  A    between atoms: O_2  and  C_3 
REMARK    3  A    between atoms: C_6  and  C_11 
REMARK    4  A    between atoms: C_8  and  O_9 
REMARK    5  A    between atoms: O_9  and  C_10 
REMARK    6  A    between atoms: C_18  and  N_20 
REMARK    7  A    between atoms: N_20  and  C_21 
REMARK    8  A    between atoms: C_21  and  C_22 
ROOT
ATOM      1  C   LIG d   1      10.090   4.070  -3.898  0.00  0.00    -0.003 C 
ATOM      2  H   LIG d   1      10.387   4.222  -4.936  0.00  0.00     0.036 H 
ATOM      3  C   LIG d   1       8.664   3.529  -3.850  0.00  0.00    -0.002 C 
ATOM      4  C   LIG d   1       8.585   2.155  -4.454  0.00  0.00     0.057 A 
ATOM      5  C   LIG d   1       9.712   1.330  -4.551  0.00  0.00     0.057 A 
ATOM      6  C   LIG d   1       9.575   0.057  -5.117  0.00  0.00     0.043 A 
ATOM      7  N   LIG d   1       8.384  -0.321  -5.544  0.00  0.00    -0.222 NA
ATOM      8  C   LIG d   1       7.338   0.488  -5.440  0.00  0.00     0.216 A 
ATOM      9  N   LIG d   1       7.429   1.700  -4.906  0.00  0.00    -0.219 NA
ATOM     10  C   LIG d   1      11.018   1.799  -4.067  0.00  0.00     0.167 C 
ATOM     11  O   LIG d   1      12.038   1.195  -4.323  0.00  0.00    -0.292 OA
ATOM     12  C   LIG d   1      11.043   3.066  -3.235  0.00  0.00     0.018 C 
ATOM     13  H   LIG d   1       8.008   4.201  -4.402  0.00  0.00     0.033 H 
ATOM     14  H   LIG d   1       8.334   3.482  -2.811  0.00  0.00     0.033 H 
ATOM     15  H   LIG d   1      10.426  -0.602  -5.202  0.00  0.00     0.084 H 
ATOM     16  H   LIG d   1      11.965   3.451  -3.207  0.00  0.00     0.035 H 
ATOM     17  H   LIG d   1      10.707   2.851  -2.221  0.00  0.00     0.035 H 
ENDROOT
BRANCH   1  18
ATOM     18  C   LIG d   1      10.154   5.384  -3.161  0.00  0.00    -0.040 A 
ATOM     19  C   LIG d   1      10.185   6.571  -3.870  0.00  0.00    -0.055 A 
ATOM     20  C   LIG d   1      10.238   7.778  -3.200  0.00  0.00    -0.016 A 
ATOM     21  H   LIG d   1      10.163   6.554  -4.950  0.00  0.00     0.062 H 
ATOM     22  C   LIG d   1      10.272   7.801  -1.814  0.00  0.00     0.162 A 
ATOM     23  H   LIG d   1      10.258   8.704  -3.755  0.00  0.00     0.066 H 
ATOM     24  C   LIG d   1      10.247   6.606  -1.102  0.00  0.00     0.162 A 
ATOM     25  C   LIG d   1      10.187   5.399  -1.780  0.00  0.00    -0.013 A 
ATOM     26  H   LIG d   1      10.167   4.471  -1.229  0.00  0.00     0.066 H 
BRANCH  22  27
ATOM     27  O   LIG d   1      10.331   8.987  -1.153  0.00  0.00    -0.491 OA
BRANCH  27  28
ATOM     28  C   LIG d   1       9.106   9.707  -1.003  0.00  0.00     0.079 C 
ATOM     29  H   LIG d   1       8.689   9.924  -1.986  0.00  0.00     0.066 H 
ATOM     30  H   LIG d   1       8.398   9.105  -0.433  0.00  0.00     0.066 H 
ATOM     31  H   LIG d   1       9.296  10.642  -0.475  0.00  0.00     0.066 H 
ENDBRANCH  27  28
ENDBRANCH  22  27
BRANCH  24  32
ATOM     32  O   LIG d   1      10.281   6.622   0.258  0.00  0.00    -0.491 OA
BRANCH  32  33
ATOM     33  C   LIG d   1      11.282   5.825   0.892  0.00  0.00     0.079 C 
ATOM     34  H   LIG d   1      10.913   5.480   1.859  0.00  0.00     0.066 H 
ATOM     35  H   LIG d   1      11.512   4.964   0.264  0.00  0.00     0.066 H 
ATOM     36  H   LIG d   1      12.183   6.420   1.039  0.00  0.00     0.066 H 
ENDBRANCH  32  33
ENDBRANCH  24  32
ENDBRANCH   1  18
BRANCH   8  37
ATOM     37  N   LIG d   1       6.113   0.056  -5.901  0.00  0.00    -0.306 N 
ATOM     38  H   LIG d   1       5.799   0.333  -6.776  0.00  0.00     0.149 HD
BRANCH  37  39
ATOM     39  C   LIG d   1       5.284  -0.819  -5.068  0.00  0.00     0.070 C 
ATOM     40  H   LIG d   1       4.427  -1.164  -5.645  0.00  0.00     0.054 H 
ATOM     41  H   LIG d   1       5.873  -1.678  -4.744  0.00  0.00     0.054 H 
BRANCH  39  42
ATOM     42  C   LIG d   1       4.803  -0.056  -3.862  0.00  0.00     0.122 A 
ATOM     43  O   LIG d   1       3.959   0.989  -3.880  0.00  0.00    -0.466 OA
ATOM     44  C   LIG d   1       3.751   1.419  -2.625  0.00  0.00     0.092 A 
ATOM     45  C   LIG d   1       4.467   0.647  -1.788  0.00  0.00    -0.024 A 
ATOM     46  H   LIG d   1       3.118   2.245  -2.335  0.00  0.00     0.103 H 
ATOM     47  C   LIG d   1       5.141  -0.306  -2.585  0.00  0.00    -0.019 A 
ATOM     48  H   LIG d   1       4.515   0.736  -0.712  0.00  0.00     0.065 H 
ATOM     49  H   LIG d   1       5.801  -1.086  -2.235  0.00  0.00     0.065 H 
ENDBRANCH  39  42
ENDBRANCH  37  39
ENDBRANCH   8  37
TORSDOF 8
ENDMDL
MODEL 3
REMARK VINA RESULT:      -6.5      0.798      1.864
REMARK  8 active torsions:
REMARK  status: ('A' for Active; 'I' for Inactive)
REMARK    1  A    between atoms: C_1  and  O_2 
REMARK    2  A    between atoms: O_2  and  C_3 
REMARK    3  A    between atoms: C_6  and  C_11 
REMARK    4  A    between atoms: C_8  and  O_9 
REMARK    5  A    between atoms: O_9  and  C_10 
REMARK    6  A    between atoms: C_18  and  N_20 
REMARK    7  A    between atoms: N_20  and  C_21 
REMARK    8  A    between atoms: C_21  and  C_22 
ROOT
ATOM      1  C   LIG d   1       9.769   6.388  -2.691  0.00  0.00    -0.003 C 
ATOM      2  H   LIG d   1       8.734   6.632  -2.931  0.00  0.00     0.036 H 
ATOM      3  C   LIG d   1       9.862   4.926  -2.262  0.00  0.00    -0.002 C 
ATOM      4  C   LIG d   1       9.526   4.005  -3.401  0.00  0.00     0.057 A 
ATOM      5  C   LIG d   1       9.634   4.417  -4.735  0.00  0.00     0.057 A 
ATOM      6  C   LIG d   1       9.314   3.512  -5.754  0.00  0.00     0.043 A 
ATOM      7  N   LIG d   1       8.919   2.297  -5.420  0.00  0.00    -0.222 NA
ATOM      8  C   LIG d   1       8.826   1.940  -4.145  0.00  0.00     0.216 A 
ATOM      9  N   LIG d   1       9.122   2.771  -3.153  0.00  0.00    -0.219 NA
ATOM     10  C   LIG d   1      10.072   5.783  -5.056  0.00  0.00     0.167 C 
ATOM     11  O   LIG d   1       9.977   6.226  -6.180  0.00  0.00    -0.292 OA
ATOM     12  C   LIG d   1      10.649   6.616  -3.928  0.00  0.00     0.018 C 
ATOM     13  H   LIG d   1       9.165   4.749  -1.443  0.00  0.00     0.033 H 
ATOM     14  H   LIG d   1      10.876   4.717  -1.921  0.00  0.00     0.033 H 
ATOM     15  H   LIG d   1       9.391   3.801  -6.792  0.00  0.00     0.084 H 
ATOM     16  H   LIG d   1      10.641   7.587  -4.168  0.00  0.00     0.035 H 
ATOM     17  H   LIG d   1      11.671   6.302  -3.719  0.00  0.00     0.035 H 
ENDROOT
BRANCH   1  18
ATOM     18  C   LIG d   1      10.245   7.272  -1.567  0.00  0.00    -0.040 A 
ATOM     19  C   LIG d   1      10.711   6.707  -0.395  0.00  0.00    -0.055 A 
ATOM     20  C   LIG d   1      11.153   7.513   0.637  0.00  0.00    -0.016 A 
ATOM     21  H   LIG d   1      10.732   5.632  -0.287  0.00  0.00     0.062 H 
ATOM     22  C   LIG d   1      11.120   8.893   0.502  0.00  0.00     0.162 A 
ATOM     23  H   LIG d   1      11.520   7.069   1.551  0.00  0.00     0.066 H 
ATOM     24  C   LIG d   1      10.645   9.461  -0.676  0.00  0.00     0.162 A 
ATOM     25  C   LIG d   1      10.209   8.647  -1.709  0.00  0.00    -0.013 A 
ATOM     26  H   LIG d   1       9.841   9.086  -2.624  0.00  0.00     0.066 H 
BRANCH  22  27
ATOM     27  O   LIG d   1      11.549   9.687   1.518  0.00  0.00    -0.491 OA
BRANCH  27  28
ATOM     28  C   LIG d   1      12.961   9.800   1.701  0.00  0.00     0.079 C 
ATOM     29  H   LIG d   1      13.439   8.858   1.434  0.00  0.00     0.066 H 
ATOM     30  H   LIG d   1      13.347  10.596   1.064  0.00  0.00     0.066 H 
ATOM     31  H   LIG d   1      13.175  10.033   2.745  0.00  0.00     0.066 H 
ENDBRANCH  27  28
ENDBRANCH  22  27
BRANCH  24  32
ATOM     32  O   LIG d   1      10.610  10.814  -0.814  0.00  0.00    -0.491 OA
BRANCH  32  33
ATOM     33  C   LIG d   1      11.588  11.405  -1.672  0.00  0.00     0.079 C 
ATOM     34  H   LIG d   1      11.311  11.229  -2.712  0.00  0.00     0.066 H 
ATOM     35  H   LIG d   1      11.634  12.477  -1.484  0.00  0.00     0.066 H 
ATOM     36  H   LIG d   1      12.563  10.958  -1.475  0.00  0.00     0.066 H 
ENDBRANCH  32  33
ENDBRANCH  24  32
ENDBRANCH   1  18
BRANCH   8  37
ATOM     37  N   LIG d   1       8.406   0.664  -3.840  0.00  0.00    -0.306 N 
ATOM     38  H   LIG d   1       8.950   0.097  -3.270  0.00  0.00     0.149 HD
BRANCH  37  39
ATOM     39  C   LIG d   1       7.138   0.162  -4.377  0.00  0.00     0.070 C 
ATOM     40  H   LIG d   1       6.833   0.779  -5.222  0.00  0.00     0.054 H 
ATOM     41  H   LIG d   1       7.266  -0.870  -4.707  0.00  0.00     0.054 H 
BRANCH  39  42
ATOM     42  C   LIG d   1       6.081   0.220  -3.306  0.00  0.00     0.122 A 
ATOM     43  O   LIG d   1       5.693   1.323  -2.644  0.00  0.00    -0.466 OA
ATOM     44  C   LIG d   1       4.732   1.002  -1.763  0.00  0.00     0.092 A 
ATOM     45  C   LIG d   1       4.495  -0.318  -1.855  0.00  0.00    -0.024 A 
ATOM     46  H   LIG d   1       4.233   1.688  -1.095  0.00  0.00     0.103 H 
ATOM     47  C   LIG d   1       5.362  -0.822  -2.852  0.00  0.00    -0.019 A 
ATOM     48  H   LIG d   1       3.778  -0.886  -1.279  0.00  0.00     0.065 H 
ATOM     49  H   LIG d   1       5.432  -1.846  -3.185  0.00  0.00     0.065 H 
ENDBRANCH  39  42
ENDBRANCH  37  39
ENDBRANCH   8  37
TORSDOF 8
ENDMDL
MODEL 4
REMARK VINA RESULT:      -6.4      1.454      2.559
REMARK  8 active torsions:
REMARK  status: ('A' for Active; 'I' for Inactive)
REMARK    1  A    between atoms: C_1  and  O_2 
REMARK    2  A    between atoms: O_2  and  C_3 
REMARK    3  A    between atoms: C_6  and  C_11 
REMARK    4  A    between atoms: C_8  and  O_9 
REMARK    5  A    between atoms: O_9  and  C_10 
REMARK    6  A    between atoms: C_18  and  N_20 
REMARK    7  A    between atoms: N_20  and  C_21 
REMARK    8  A    between atoms: C_21  and  C_22 
ROOT
ATOM      1  C   LIG d   1       9.871   7.685  -1.765  0.00  0.00    -0.003 C 
ATOM      2  H   LIG d   1       8.784   7.748  -1.792  0.00  0.00     0.036 H 
ATOM      3  C   LIG d   1      10.293   6.233  -1.562  0.00  0.00    -0.002 C 
ATOM      4  C   LIG d   1       9.908   5.386  -2.742  0.00  0.00     0.057 A 
ATOM      5  C   LIG d   1       9.686   5.946  -4.006  0.00  0.00     0.057 A 
ATOM      6  C   LIG d   1       9.337   5.105  -5.070  0.00  0.00     0.043 A 
ATOM      7  N   LIG d   1       9.227   3.809  -4.842  0.00  0.00    -0.222 NA
ATOM      8  C   LIG d   1       9.442   3.313  -3.631  0.00  0.00     0.216 A 
ATOM      9  N   LIG d   1       9.776   4.078  -2.600  0.00  0.00    -0.219 NA
ATOM     10  C   LIG d   1       9.815   7.396  -4.207  0.00  0.00     0.167 C 
ATOM     11  O   LIG d   1       9.432   7.926  -5.228  0.00  0.00    -0.292 OA
ATOM     12  C   LIG d   1      10.445   8.204  -3.090  0.00  0.00     0.018 C 
ATOM     13  H   LIG d   1       9.807   5.841  -0.668  0.00  0.00     0.033 H 
ATOM     14  H   LIG d   1      11.374   6.189  -1.428  0.00  0.00     0.033 H 
ATOM     15  H   LIG d   1       9.163   5.509  -6.056  0.00  0.00     0.084 H 
ATOM     16  H   LIG d   1      10.226   9.175  -3.191  0.00  0.00     0.035 H 
ATOM     17  H   LIG d   1      11.527   8.073  -3.102  0.00  0.00     0.035 H 
ENDROOT
BRANCH   1  18
ATOM     18  C   LIG d   1      10.395   8.524  -0.628  0.00  0.00    -0.040 A 
ATOM     19  C   LIG d   1      11.217   7.956   0.327  0.00  0.00    -0.055 A 
ATOM     20  C   LIG d   1      11.704   8.722   1.369  0.00  0.00    -0.016 A 
ATOM     21  H   LIG d   1      11.481   6.910   0.257  0.00  0.00     0.062 H 
ATOM     22  C   LIG d   1      11.360  10.062   1.464  0.00  0.00     0.162 A 
ATOM     23  H   LIG d   1      12.348   8.277   2.112  0.00  0.00     0.066 H 
ATOM     24  C   LIG d   1      10.529  10.632   0.505  0.00  0.00     0.162 A 
ATOM     25  C   LIG d   1      10.049   9.860  -0.540  0.00  0.00    -0.013 A 
ATOM     26  H   LIG d   1       9.403  10.301  -1.285  0.00  0.00     0.066 H 
BRANCH  22  27
ATOM     27  O   LIG d   1      11.833  10.816   2.491  0.00  0.00    -0.491 OA
BRANCH  27  28
ATOM     28  C   LIG d   1      12.557  10.133   3.516  0.00  0.00     0.079 C 
ATOM     29  H   LIG d   1      13.610  10.407   3.462  0.00  0.00     0.066 H 
ATOM     30  H   LIG d   1      12.159  10.414   4.491  0.00  0.00     0.066 H 
ATOM     31  H   LIG d   1      12.455   9.056   3.378  0.00  0.00     0.066 H 
ENDBRANCH  27  28
ENDBRANCH  22  27
BRANCH  24  32
ATOM     32  O   LIG d   1      10.187  11.946   0.593  0.00  0.00    -0.491 OA
BRANCH  32  33
ATOM     33  C   LIG d   1      10.690  12.817  -0.421  0.00  0.00     0.079 C 
ATOM     34  H   LIG d   1      10.022  12.793  -1.283  0.00  0.00     0.066 H 
ATOM     35  H   LIG d   1      10.745  13.834  -0.032  0.00  0.00     0.066 H 
ATOM     36  H   LIG d   1      11.685  12.489  -0.723  0.00  0.00     0.066 H 
ENDBRANCH  32  33
ENDBRANCH  24  32
ENDBRANCH   1  18
BRANCH   8  37
ATOM     37  N   LIG d   1       9.312   1.954  -3.435  0.00  0.00    -0.306 N 
ATOM     38  H   LIG d   1       9.783   1.522  -2.706  0.00  0.00     0.149 HD
BRANCH  37  39
ATOM     39  C   LIG d   1       8.466   1.163  -4.332  0.00  0.00     0.070 C 
ATOM     40  H   LIG d   1       8.274   1.729  -5.243  0.00  0.00     0.054 H 
ATOM     41  H   LIG d   1       8.972   0.231  -4.584  0.00  0.00     0.054 H 
BRANCH  39  42
ATOM     42  C   LIG d   1       7.159   0.856  -3.648  0.00  0.00     0.122 A 
ATOM     43  O   LIG d   1       6.257   1.762  -3.236  0.00  0.00    -0.466 OA
ATOM     44  C   LIG d   1       5.215   1.132  -2.670  0.00  0.00     0.092 A 
ATOM     45  C   LIG d   1       5.445  -0.192  -2.714  0.00  0.00    -0.024 A 
ATOM     46  H   LIG d   1       4.341   1.607  -2.249  0.00  0.00     0.103 H 
ATOM     47  C   LIG d   1       6.696  -0.370  -3.349  0.00  0.00    -0.019 A 
ATOM     48  H   LIG d   1       4.797  -0.972  -2.340  0.00  0.00     0.065 H 
ATOM     49  H   LIG d   1       7.185  -1.311  -3.553  0.00  0.00     0.065 H 
ENDBRANCH  39  42
ENDBRANCH  37  39
ENDBRANCH   8  37
TORSDOF 8
ENDMDL
MODEL 5
REMARK VINA RESULT:      -6.3      8.694     14.362
REMARK  8 active torsions:
REMARK  status: ('A' for Active; 'I' for Inactive)
REMARK    1  A    between atoms: C_1  and  O_2 
REMARK    2  A    between atoms: O_2  and  C_3 
REMARK    3  A    between atoms: C_6  and  C_11 
REMARK    4  A    between atoms: C_8  and  O_9 
REMARK    5  A    between atoms: O_9  and  C_10 
REMARK    6  A    between atoms: C_18  and  N_20 
REMARK    7  A    between atoms: N_20  and  C_21 
REMARK    8  A    between atoms: C_21  and  C_22 
ROOT
ATOM      1  C   LIG d   1       1.964  -2.009 -10.965  0.00  0.00    -0.003 C 
ATOM      2  H   LIG d   1       2.832  -2.621 -10.718  0.00  0.00     0.036 H 
ATOM      3  C   LIG d   1       1.398  -1.390  -9.690  0.00  0.00    -0.002 C 
ATOM      4  C   LIG d   1       2.369  -0.417  -9.082  0.00  0.00     0.057 A 
ATOM      5  C   LIG d   1       3.373   0.192  -9.845  0.00  0.00     0.057 A 
ATOM      6  C   LIG d   1       4.243   1.096  -9.225  0.00  0.00     0.043 A 
ATOM      7  N   LIG d   1       4.088   1.343  -7.937  0.00  0.00    -0.222 NA
ATOM      8  C   LIG d   1       3.127   0.746  -7.244  0.00  0.00     0.216 A 
ATOM      9  N   LIG d   1       2.282  -0.115  -7.798  0.00  0.00    -0.219 NA
ATOM     10  C   LIG d   1       3.509  -0.121 -11.275  0.00  0.00     0.167 C 
ATOM     11  O   LIG d   1       4.484   0.229 -11.905  0.00  0.00    -0.292 OA
ATOM     12  C   LIG d   1       2.384  -0.895 -11.933  0.00  0.00     0.018 C 
ATOM     13  H   LIG d   1       1.189  -2.182  -8.971  0.00  0.00     0.033 H 
ATOM     14  H   LIG d   1       0.470  -0.868  -9.927  0.00  0.00     0.033 H 
ATOM     15  H   LIG d   1       5.025   1.583  -9.790  0.00  0.00     0.084 H 
ATOM     16  H   LIG d   1       2.692  -1.300 -12.794  0.00  0.00     0.035 H 
ATOM     17  H   LIG d   1       1.540  -0.233 -12.124  0.00  0.00     0.035 H 
ENDROOT
BRANCH   1  18
ATOM     18  C   LIG d   1       0.912  -2.870 -11.616  0.00  0.00    -0.040 A 
ATOM     19  C   LIG d   1       0.451  -2.556 -12.881  0.00  0.00    -0.055 A 
ATOM     20  C   LIG d   1      -0.510  -3.345 -13.485  0.00  0.00    -0.016 A 
ATOM     21  H   LIG d   1       0.845  -1.694 -13.400  0.00  0.00     0.062 H 
ATOM     22  C   LIG d   1      -1.021  -4.447 -12.818  0.00  0.00     0.162 A 
ATOM     23  H   LIG d   1      -0.866  -3.100 -14.475  0.00  0.00     0.066 H 
ATOM     24  C   LIG d   1      -0.561  -4.759 -11.543  0.00  0.00     0.162 A 
ATOM     25  C   LIG d   1       0.407  -3.968 -10.945  0.00  0.00    -0.013 A 
ATOM     26  H   LIG d   1       0.766  -4.208  -9.956  0.00  0.00     0.066 H 
BRANCH  22  27
ATOM     27  O   LIG d   1      -1.970  -5.221 -13.408  0.00  0.00    -0.491 OA
BRANCH  27  28
ATOM     28  C   LIG d   1      -3.312  -4.731 -13.385  0.00  0.00     0.079 C 
ATOM     29  H   LIG d   1      -3.852  -5.109 -14.252  0.00  0.00     0.066 H 
ATOM     30  H   LIG d   1      -3.807  -5.067 -12.473  0.00  0.00     0.066 H 
ATOM     31  H   LIG d   1      -3.302  -3.640 -13.411  0.00  0.00     0.066 H 
ENDBRANCH  27  28
ENDBRANCH  22  27
BRANCH  24  32
ATOM     32  O   LIG d   1      -1.059  -5.839 -10.883  0.00  0.00    -0.491 OA
BRANCH  32  33
ATOM     33  C   LIG d   1      -1.857  -5.583  -9.727  0.00  0.00     0.079 C 
ATOM     34  H   LIG d   1      -1.215  -5.530  -8.847  0.00  0.00     0.066 H 
ATOM     35  H   LIG d   1      -2.382  -4.636  -9.850  0.00  0.00     0.066 H 
ATOM     36  H   LIG d   1      -2.582  -6.387  -9.599  0.00  0.00     0.066 H 
ENDBRANCH  32  33
ENDBRANCH  24  32
ENDBRANCH   1  18
BRANCH   8  37
ATOM     37  N   LIG d   1       3.001   1.028  -5.900  0.00  0.00    -0.306 N 
ATOM     38  H   LIG d   1       3.237   1.908  -5.566  0.00  0.00     0.149 HD
BRANCH  37  39
ATOM     39  C   LIG d   1       2.515  -0.001  -4.978  0.00  0.00     0.070 C 
ATOM     40  H   LIG d   1       1.453   0.153  -4.790  0.00  0.00     0.054 H 
ATOM     41  H   LIG d   1       2.666  -0.986  -5.420  0.00  0.00     0.054 H 
BRANCH  39  42
ATOM     42  C   LIG d   1       3.273   0.090  -3.680  0.00  0.00     0.122 A 
ATOM     43  O   LIG d   1       3.766  -0.948  -2.984  0.00  0.00    -0.466 OA
ATOM     44  C   LIG d   1       4.382  -0.495  -1.880  0.00  0.00     0.092 A 
ATOM     45  C   LIG d   1       4.287   0.847  -1.860  0.00  0.00    -0.024 A 
ATOM     46  H   LIG d   1       4.871  -1.103  -1.133  0.00  0.00     0.103 H 
ATOM     47  C   LIG d   1       3.576   1.224  -3.023  0.00  0.00    -0.019 A 
ATOM     48  H   LIG d   1       4.681   1.510  -1.103  0.00  0.00     0.065 H 
ATOM     49  H   LIG d   1       3.324   2.229  -3.325  0.00  0.00     0.065 H 
ENDBRANCH  39  42
ENDBRANCH  37  39
ENDBRANCH   8  37
TORSDOF 8
ENDMDL
MODEL 6
REMARK VINA RESULT:      -6.3      1.907      3.105
REMARK  8 active torsions:
REMARK  status: ('A' for Active; 'I' for Inactive)
REMARK    1  A    between atoms: C_1  and  O_2 
REMARK    2  A    between atoms: O_2  and  C_3 
REMARK    3  A    between atoms: C_6  and  C_11 
REMARK    4  A    between atoms: C_8  and  O_9 
REMARK    5  A    between atoms: O_9  and  C_10 
REMARK    6  A    between atoms: C_18  and  N_20 
REMARK    7  A    between atoms: N_20  and  C_21 
REMARK    8  A    between atoms: C_21  and  C_22 
ROOT
ATOM      1  C   LIG d   1       9.174   5.174  -4.624  0.00  0.00    -0.003 C 
ATOM      2  H   LIG d   1       8.176   5.324  -5.037  0.00  0.00     0.036 H 
ATOM      3  C   LIG d   1       9.161   3.972  -3.685  0.00  0.00    -0.002 C 
ATOM      4  C   LIG d   1       8.885   2.700  -4.437  0.00  0.00     0.057 A 
ATOM      5  C   LIG d   1       9.128   2.592  -5.812  0.00  0.00     0.057 A 
ATOM      6  C   LIG d   1       8.858   1.380  -6.456  0.00  0.00     0.043 A 
ATOM      7  N   LIG d   1       8.379   0.376  -5.743  0.00  0.00    -0.222 NA
ATOM      8  C   LIG d   1       8.158   0.514  -4.442  0.00  0.00     0.216 A 
ATOM      9  N   LIG d   1       8.404   1.647  -3.797  0.00  0.00    -0.219 NA
ATOM     10  C   LIG d   1       9.654   3.741  -6.563  0.00  0.00     0.167 C 
ATOM     11  O   LIG d   1       9.679   3.741  -7.775  0.00  0.00    -0.292 OA
ATOM     12  C   LIG d   1      10.168   4.923  -5.766  0.00  0.00     0.018 C 
ATOM     13  H   LIG d   1       8.388   4.115  -2.930  0.00  0.00     0.033 H 
ATOM     14  H   LIG d   1      10.131   3.892  -3.193  0.00  0.00     0.033 H 
ATOM     15  H   LIG d   1       9.038   1.267  -7.515  0.00  0.00     0.084 H 
ATOM     16  H   LIG d   1      10.225   5.738  -6.343  0.00  0.00     0.035 H 
ATOM     17  H   LIG d   1      11.152   4.697  -5.357  0.00  0.00     0.035 H 
ENDROOT
BRANCH   1  18
ATOM     18  C   LIG d   1       9.589   6.405  -3.859  0.00  0.00    -0.040 A 
ATOM     19  C   LIG d   1       9.677   6.362  -2.480  0.00  0.00    -0.055 A 
ATOM     20  C   LIG d   1      10.062   7.486  -1.774  0.00  0.00    -0.016 A 
ATOM     21  H   LIG d   1       9.447   5.447  -1.953  0.00  0.00     0.062 H 
ATOM     22  C   LIG d   1      10.351   8.663  -2.447  0.00  0.00     0.162 A 
ATOM     23  H   LIG d   1      10.133   7.450  -0.697  0.00  0.00     0.066 H 
ATOM     24  C   LIG d   1      10.258   8.707  -3.834  0.00  0.00     0.162 A 
ATOM     25  C   LIG d   1       9.877   7.575  -4.537  0.00  0.00    -0.013 A 
ATOM     26  H   LIG d   1       9.804   7.606  -5.614  0.00  0.00     0.066 H 
BRANCH  22  27
ATOM     27  O   LIG d   1      10.725   9.771  -1.754  0.00  0.00    -0.491 OA
BRANCH  27  28
ATOM     28  C   LIG d   1       9.874  10.182  -0.682  0.00  0.00     0.079 C 
ATOM     29  H   LIG d   1       8.839   9.951  -0.930  0.00  0.00     0.066 H 
ATOM     30  H   LIG d   1      10.156   9.654   0.229  0.00  0.00     0.066 H 
ATOM     31  H   LIG d   1       9.979  11.257  -0.527  0.00  0.00     0.066 H 
ENDBRANCH  27  28
ENDBRANCH  22  27
BRANCH  24  32
ATOM     32  O   LIG d   1      10.540   9.858  -4.501  0.00  0.00    -0.491 OA
BRANCH  32  33
ATOM     33  C   LIG d   1       9.431  10.618  -4.984  0.00  0.00     0.079 C 
ATOM     34  H   LIG d   1       9.200  11.414  -4.275  0.00  0.00     0.066 H 
ATOM     35  H   LIG d   1       9.682  11.054  -5.950  0.00  0.00     0.066 H 
ATOM     36  H   LIG d   1       8.563   9.967  -5.093  0.00  0.00     0.066 H 
ENDBRANCH  32  33
ENDBRANCH  24  32
ENDBRANCH   1  18
BRANCH   8  37
ATOM     37  N   LIG d   1       7.654  -0.557  -3.735  0.00  0.00    -0.306 N 
ATOM     38  H   LIG d   1       8.205  -1.003  -3.073  0.00  0.00     0.149 HD
BRANCH  37  39
ATOM     39  C   LIG d   1       6.288  -1.023  -3.986  0.00  0.00     0.070 C 
ATOM     40  H   LIG d   1       6.106  -1.050  -5.061  0.00  0.00     0.054 H 
ATOM     41  H   LIG d   1       6.162  -2.023  -3.571  0.00  0.00     0.054 H 
BRANCH  39  42
ATOM     42  C   LIG d   1       5.309  -0.080  -3.335  0.00  0.00     0.122 A 
ATOM     43  O   LIG d   1       4.712   0.966  -3.929  0.00  0.00    -0.466 OA
ATOM     44  C   LIG d   1       3.905   1.580  -3.050  0.00  0.00     0.092 A 
ATOM     45  C   LIG d   1       3.980   0.927  -1.876  0.00  0.00    -0.024 A 
ATOM     46  H   LIG d   1       3.297   2.450  -3.249  0.00  0.00     0.103 H 
ATOM     47  C   LIG d   1       4.882  -0.146  -2.062  0.00  0.00    -0.019 A 
ATOM     48  H   LIG d   1       3.450   1.172  -0.967  0.00  0.00     0.065 H 
ATOM     49  H   LIG d   1       5.172  -0.877  -1.322  0.00  0.00     0.065 H 
ENDBRANCH  39  42
ENDBRANCH  37  39
ENDBRANCH   8  37
TORSDOF 8
ENDMDL
MODEL 7
REMARK VINA RESULT:      -6.1      6.763     10.188
REMARK  8 active torsions:
REMARK  status: ('A' for Active; 'I' for Inactive)
REMARK    1  A    between atoms: C_1  and  O_2 
REMARK    2  A    between atoms: O_2  and  C_3 
REMARK    3  A    between atoms: C_6  and  C_11 
REMARK    4  A    between atoms: C_8  and  O_9 
REMARK    5  A    between atoms: O_9  and  C_10 
REMARK    6  A    between atoms: C_18  and  N_20 
REMARK    7  A    between atoms: N_20  and  C_21 
REMARK    8  A    between atoms: C_21  and  C_22 
ROOT
ATOM      1  C   LIG d   1       8.056  -2.953  -3.810  0.00  0.00    -0.003 C 
ATOM      2  H   LIG d   1       7.473  -3.733  -4.298  0.00  0.00     0.036 H 
ATOM      3  C   LIG d   1       8.522  -3.445  -2.442  0.00  0.00    -0.002 C 
ATOM      4  C   LIG d   1       9.487  -4.589  -2.578  0.00  0.00     0.057 A 
ATOM      5  C   LIG d   1      10.218  -4.798  -3.754  0.00  0.00     0.057 A 
ATOM      6  C   LIG d   1      11.108  -5.877  -3.819  0.00  0.00     0.043 A 
ATOM      7  N   LIG d   1      11.224  -6.665  -2.766  0.00  0.00    -0.222 NA
ATOM      8  C   LIG d   1      10.513  -6.440  -1.668  0.00  0.00     0.216 A 
ATOM      9  N   LIG d   1       9.663  -5.426  -1.569  0.00  0.00    -0.219 NA
ATOM     10  C   LIG d   1      10.047  -3.896  -4.902  0.00  0.00     0.167 C 
ATOM     11  O   LIG d   1      10.507  -4.169  -5.990  0.00  0.00    -0.292 OA
ATOM     12  C   LIG d   1       9.277  -2.611  -4.674  0.00  0.00     0.018 C 
ATOM     13  H   LIG d   1       7.657  -3.774  -1.867  0.00  0.00     0.033 H 
ATOM     14  H   LIG d   1       9.011  -2.626  -1.915  0.00  0.00     0.033 H 
ATOM     15  H   LIG d   1      11.687  -6.060  -4.712  0.00  0.00     0.084 H 
ATOM     16  H   LIG d   1       8.971  -2.225  -5.545  0.00  0.00     0.035 H 
ATOM     17  H   LIG d   1       9.906  -1.887  -4.157  0.00  0.00     0.035 H 
ENDROOT
BRANCH   1  18
ATOM     18  C   LIG d   1       7.203  -1.722  -3.637  0.00  0.00    -0.040 A 
ATOM     19  C   LIG d   1       5.948  -1.829  -3.067  0.00  0.00    -0.055 A 
ATOM     20  C   LIG d   1       5.163  -0.703  -2.901  0.00  0.00    -0.016 A 
ATOM     21  H   LIG d   1       5.581  -2.793  -2.747  0.00  0.00     0.062 H 
ATOM     22  C   LIG d   1       5.630   0.535  -3.317  0.00  0.00     0.162 A 
ATOM     23  H   LIG d   1       4.185  -0.787  -2.452  0.00  0.00     0.066 H 
ATOM     24  C   LIG d   1       6.891   0.640  -3.895  0.00  0.00     0.162 A 
ATOM     25  C   LIG d   1       7.675  -0.492  -4.053  0.00  0.00    -0.013 A 
ATOM     26  H   LIG d   1       8.654  -0.412  -4.501  0.00  0.00     0.066 H 
BRANCH  22  27
ATOM     27  O   LIG d   1       4.857   1.642  -3.160  0.00  0.00    -0.491 OA
BRANCH  27  28
ATOM     28  C   LIG d   1       3.628   1.480  -2.451  0.00  0.00     0.079 C 
ATOM     29  H   LIG d   1       3.708   1.951  -1.472  0.00  0.00     0.066 H 
ATOM     30  H   LIG d   1       2.819   1.946  -3.014  0.00  0.00     0.066 H 
ATOM     31  H   LIG d   1       3.418   0.417  -2.326  0.00  0.00     0.066 H 
ENDBRANCH  27  28
ENDBRANCH  22  27
BRANCH  24  32
ATOM     32  O   LIG d   1       7.354   1.851  -4.305  0.00  0.00    -0.491 OA
BRANCH  32  33
ATOM     33  C   LIG d   1       8.685   2.202  -3.922  0.00  0.00     0.079 C 
ATOM     34  H   LIG d   1       9.339   1.338  -4.052  0.00  0.00     0.066 H 
ATOM     35  H   LIG d   1       9.038   3.022  -4.546  0.00  0.00     0.066 H 
ATOM     36  H   LIG d   1       8.694   2.509  -2.876  0.00  0.00     0.066 H 
ENDBRANCH  32  33
ENDBRANCH  24  32
ENDBRANCH   1  18
BRANCH   8  37
ATOM     37  N   LIG d   1      10.663  -7.289  -0.592  0.00  0.00    -0.306 N 
ATOM     38  H   LIG d   1       9.924  -7.429   0.021  0.00  0.00     0.149 HD
BRANCH  37  39
ATOM     39  C   LIG d   1      11.938  -7.976  -0.374  0.00  0.00     0.070 C 
ATOM     40  H   LIG d   1      11.871  -8.995  -0.754  0.00  0.00     0.054 H 
ATOM     41  H   LIG d   1      12.733  -7.444  -0.898  0.00  0.00     0.054 H 
BRANCH  39  42
ATOM     42  C   LIG d   1      12.244  -8.010   1.101  0.00  0.00     0.122 A 
ATOM     43  O   LIG d   1      13.438  -7.758   1.662  0.00  0.00    -0.466 OA
ATOM     44  C   LIG d   1      13.341  -7.880   2.996  0.00  0.00     0.092 A 
ATOM     45  C   LIG d   1      12.075  -8.215   3.301  0.00  0.00    -0.024 A 
ATOM     46  H   LIG d   1      14.144  -7.735   3.704  0.00  0.00     0.103 H 
ATOM     47  C   LIG d   1      11.366  -8.294   2.080  0.00  0.00    -0.019 A 
ATOM     48  H   LIG d   1      11.674  -8.386   4.290  0.00  0.00     0.065 H 
ATOM     49  H   LIG d   1      10.321  -8.536   1.958  0.00  0.00     0.065 H 
ENDBRANCH  39  42
ENDBRANCH  37  39
ENDBRANCH   8  37
TORSDOF 8
ENDMDL
MODEL 8
REMARK VINA RESULT:      -5.9      2.513      4.461
REMARK  8 active torsions:
REMARK  status: ('A' for Active; 'I' for Inactive)
REMARK    1  A    between atoms: C_1  and  O_2 
REMARK    2  A    between atoms: O_2  and  C_3 
REMARK    3  A    between atoms: C_6  and  C_11 
REMARK    4  A    between atoms: C_8  and  O_9 
REMARK    5  A    between atoms: O_9  and  C_10 
REMARK    6  A    between atoms: C_18  and  N_20 
REMARK    7  A    between atoms: N_20  and  C_21 
REMARK    8  A    between atoms: C_21  and  C_22 
ROOT
ATOM      1  C   LIG d   1       9.564   3.020  -4.818  0.00  0.00    -0.003 C 
ATOM      2  H   LIG d   1       9.824   3.105  -5.874  0.00  0.00     0.036 H 
ATOM      3  C   LIG d   1       8.138   2.494  -4.685  0.00  0.00    -0.002 C 
ATOM      4  C   LIG d   1       8.030   1.086  -5.200  0.00  0.00     0.057 A 
ATOM      5  C   LIG d   1       9.147   0.247  -5.286  0.00  0.00     0.057 A 
ATOM      6  C   LIG d   1       8.983  -1.057  -5.767  0.00  0.00     0.043 A 
ATOM      7  N   LIG d   1       7.775  -1.452  -6.127  0.00  0.00    -0.222 NA
ATOM      8  C   LIG d   1       6.738  -0.629  -6.035  0.00  0.00     0.216 A 
ATOM      9  N   LIG d   1       6.855   0.613  -5.581  0.00  0.00    -0.219 NA
ATOM     10  C   LIG d   1      10.473   0.736  -4.880  0.00  0.00     0.167 C 
ATOM     11  O   LIG d   1      11.479   0.109  -5.134  0.00  0.00    -0.292 OA
ATOM     12  C   LIG d   1      10.535   2.051  -4.129  0.00  0.00     0.018 C 
ATOM     13  H   LIG d   1       7.465   3.135  -5.254  0.00  0.00     0.033 H 
ATOM     14  H   LIG d   1       7.846   2.513  -3.635  0.00  0.00     0.033 H 
ATOM     15  H   LIG d   1       9.827  -1.727  -5.842  0.00  0.00     0.084 H 
ATOM     16  H   LIG d   1      11.460   2.430  -4.158  0.00  0.00     0.035 H 
ATOM     17  H   LIG d   1      10.235   1.902  -3.092  0.00  0.00     0.035 H 
ENDROOT
BRANCH   1  18
ATOM     18  C   LIG d   1       9.662   4.376  -4.167  0.00  0.00    -0.040 A 
ATOM     19  C   LIG d   1       9.975   4.475  -2.824  0.00  0.00    -0.055 A 
ATOM     20  C   LIG d   1      10.071   5.716  -2.224  0.00  0.00    -0.016 A 
ATOM     21  H   LIG d   1      10.148   3.580  -2.244  0.00  0.00     0.062 H 
ATOM     22  C   LIG d   1       9.843   6.865  -2.966  0.00  0.00     0.162 A 
ATOM     23  H   LIG d   1      10.319   5.791  -1.175  0.00  0.00     0.066 H 
ATOM     24  C   LIG d   1       9.523   6.764  -4.316  0.00  0.00     0.162 A 
ATOM     25  C   LIG d   1       9.434   5.517  -4.913  0.00  0.00    -0.013 A 
ATOM     26  H   LIG d   1       9.186   5.437  -5.961  0.00  0.00     0.066 H 
BRANCH  22  27
ATOM     27  O   LIG d   1       9.932   8.086  -2.375  0.00  0.00    -0.491 OA
BRANCH  27  28
ATOM     28  C   LIG d   1      11.243   8.617  -2.178  0.00  0.00     0.079 C 
ATOM     29  H   LIG d   1      11.581   8.385  -1.168  0.00  0.00     0.066 H 
ATOM     30  H   LIG d   1      11.928   8.174  -2.901  0.00  0.00     0.066 H 
ATOM     31  H   LIG d   1      11.221   9.699  -2.313  0.00  0.00     0.066 H 
ENDBRANCH  27  28
ENDBRANCH  22  27
BRANCH  24  32
ATOM     32  O   LIG d   1       9.298   7.888  -5.049  0.00  0.00    -0.491 OA
BRANCH  32  33
ATOM     33  C   LIG d   1       9.682   7.854  -6.424  0.00  0.00     0.079 C 
ATOM     34  H   LIG d   1      10.469   8.588  -6.600  0.00  0.00     0.066 H 
ATOM     35  H   LIG d   1      10.051   6.859  -6.674  0.00  0.00     0.066 H 
ATOM     36  H   LIG d   1       8.820   8.089  -7.049  0.00  0.00     0.066 H 
ENDBRANCH  32  33
ENDBRANCH  24  32
ENDBRANCH   1  18
BRANCH   8  37
ATOM     37  N   LIG d   1       5.495  -1.080  -6.424  0.00  0.00    -0.306 N 
ATOM     38  H   LIG d   1       4.994  -0.598  -7.101  0.00  0.00     0.149 HD
BRANCH  37  39
ATOM     39  C   LIG d   1       4.929  -2.285  -5.813  0.00  0.00     0.070 C 
ATOM     40  H   LIG d   1       4.159  -2.696  -6.467  0.00  0.00     0.054 H 
ATOM     41  H   LIG d   1       5.717  -3.025  -5.669  0.00  0.00     0.054 H 
BRANCH  39  42
ATOM     42  C   LIG d   1       4.320  -1.933  -4.481  0.00  0.00     0.122 A 
ATOM     43  O   LIG d   1       3.520  -0.882  -4.236  0.00  0.00    -0.466 OA
ATOM     44  C   LIG d   1       3.165  -0.881  -2.941  0.00  0.00     0.092 A 
ATOM     45  C   LIG d   1       3.740  -1.939  -2.342  0.00  0.00    -0.024 A 
ATOM     46  H   LIG d   1       2.526  -0.154  -2.461  0.00  0.00     0.103 H 
ATOM     47  C   LIG d   1       4.480  -2.620  -3.336  0.00  0.00    -0.019 A 
ATOM     48  H   LIG d   1       3.650  -2.218  -1.302  0.00  0.00     0.065 H 
ATOM     49  H   LIG d   1       5.064  -3.518  -3.200  0.00  0.00     0.065 H 
ENDBRANCH  39  42
ENDBRANCH  37  39
ENDBRANCH   8  37
TORSDOF 8
ENDMDL
MODEL 9
REMARK VINA RESULT:      -5.8      6.437     10.553
REMARK  8 active torsions:
REMARK  status: ('A' for Active; 'I' for Inactive)
REMARK    1  A    between atoms: C_1  and  O_2 
REMARK    2  A    between atoms: O_2  and  C_3 
REMARK    3  A    between atoms: C_6  and  C_11 
REMARK    4  A    between atoms: C_8  and  O_9 
REMARK    5  A    between atoms: O_9  and  C_10 
REMARK    6  A    between atoms: C_18  and  N_20 
REMARK    7  A    between atoms: N_20  and  C_21 
REMARK    8  A    between atoms: C_21  and  C_22 
ROOT
ATOM      1  C   LIG d   1       5.948  -3.349  -4.690  0.00  0.00    -0.003 C 
ATOM      2  H   LIG d   1       5.470  -3.690  -3.771  0.00  0.00     0.036 H 
ATOM      3  C   LIG d   1       7.184  -4.201  -4.967  0.00  0.00    -0.002 C 
ATOM      4  C   LIG d   1       6.806  -5.626  -5.260  0.00  0.00     0.057 A 
ATOM      5  C   LIG d   1       5.526  -5.967  -5.715  0.00  0.00     0.057 A 
ATOM      6  C   LIG d   1       5.235  -7.311  -5.978  0.00  0.00     0.043 A 
ATOM      7  N   LIG d   1       6.179  -8.213  -5.785  0.00  0.00    -0.222 NA
ATOM      8  C   LIG d   1       7.381  -7.854  -5.350  0.00  0.00     0.216 A 
ATOM      9  N   LIG d   1       7.694  -6.591  -5.093  0.00  0.00    -0.219 NA
ATOM     10  C   LIG d   1       4.506  -4.926  -5.907  0.00  0.00     0.167 C 
ATOM     11  O   LIG d   1       3.344  -5.213  -6.100  0.00  0.00    -0.292 OA
ATOM     12  C   LIG d   1       4.962  -3.481  -5.858  0.00  0.00     0.018 C 
ATOM     13  H   LIG d   1       7.838  -4.177  -4.095  0.00  0.00     0.033 H 
ATOM     14  H   LIG d   1       7.717  -3.789  -5.824  0.00  0.00     0.033 H 
ATOM     15  H   LIG d   1       4.257  -7.603  -6.333  0.00  0.00     0.084 H 
ATOM     16  H   LIG d   1       4.184  -2.872  -5.708  0.00  0.00     0.035 H 
ATOM     17  H   LIG d   1       5.457  -3.216  -6.792  0.00  0.00     0.035 H 
ENDROOT
BRANCH   1  18
ATOM     18  C   LIG d   1       6.356  -1.906  -4.538  0.00  0.00    -0.040 A 
ATOM     19  C   LIG d   1       7.280  -1.356  -5.407  0.00  0.00    -0.055 A 
ATOM     20  C   LIG d   1       7.654  -0.032  -5.276  0.00  0.00    -0.016 A 
ATOM     21  H   LIG d   1       7.708  -1.962  -6.193  0.00  0.00     0.062 H 
ATOM     22  C   LIG d   1       7.110   0.745  -4.265  0.00  0.00     0.162 A 
ATOM     23  H   LIG d   1       8.373   0.397  -5.958  0.00  0.00     0.066 H 
ATOM     24  C   LIG d   1       6.185   0.189  -3.387  0.00  0.00     0.162 A 
ATOM     25  C   LIG d   1       5.810  -1.137  -3.528  0.00  0.00    -0.013 A 
ATOM     26  H   LIG d   1       5.091  -1.571  -2.848  0.00  0.00     0.066 H 
BRANCH  22  27
ATOM     27  O   LIG d   1       7.481   2.046  -4.130  0.00  0.00    -0.491 OA
BRANCH  27  28
ATOM     28  C   LIG d   1       8.858   2.301  -3.848  0.00  0.00     0.079 C 
ATOM     29  H   LIG d   1       8.981   3.342  -3.548  0.00  0.00     0.066 H 
ATOM     30  H   LIG d   1       9.191   1.649  -3.041  0.00  0.00     0.066 H 
ATOM     31  H   LIG d   1       9.454   2.109  -4.741  0.00  0.00     0.066 H 
ENDBRANCH  27  28
ENDBRANCH  22  27
BRANCH  24  32
ATOM     32  O   LIG d   1       5.648   0.946  -2.393  0.00  0.00    -0.491 OA
BRANCH  32  33
ATOM     33  C   LIG d   1       4.441   0.471  -1.794  0.00  0.00     0.079 C 
ATOM     34  H   LIG d   1       4.307  -0.584  -2.036  0.00  0.00     0.066 H 
ATOM     35  H   LIG d   1       4.501   0.591  -0.712  0.00  0.00     0.066 H 
ATOM     36  H   LIG d   1       3.595   1.042  -2.177  0.00  0.00     0.066 H 
ENDBRANCH  32  33
ENDBRANCH  24  32
ENDBRANCH   1  18
BRANCH   8  37
ATOM     37  N   LIG d   1       8.337  -8.828  -5.159  0.00  0.00    -0.306 N 
ATOM     38  H   LIG d   1       8.700  -9.309  -5.920  0.00  0.00     0.149 HD
BRANCH  37  39
ATOM     39  C   LIG d   1       8.805  -9.139  -3.805  0.00  0.00     0.070 C 
ATOM     40  H   LIG d   1       9.690  -9.773  -3.864  0.00  0.00     0.054 H 
ATOM     41  H   LIG d   1       9.054  -8.214  -3.285  0.00  0.00     0.054 H 
BRANCH  39  42
ATOM     42  C   LIG d   1       7.718  -9.863  -3.053  0.00  0.00     0.122 A 
ATOM     43  O   LIG d   1       6.992 -10.892  -3.520  0.00  0.00    -0.466 OA
ATOM     44  C   LIG d   1       6.118 -11.286  -2.580  0.00  0.00     0.092 A 
ATOM     45  C   LIG d   1       6.279 -10.506  -1.496  0.00  0.00    -0.024 A 
ATOM     46  H   LIG d   1       5.406 -12.093  -2.677  0.00  0.00     0.103 H 
ATOM     47  C   LIG d   1       7.314  -9.592  -1.800  0.00  0.00    -0.019 A 
ATOM     48  H   LIG d   1       5.727 -10.568  -0.570  0.00  0.00     0.065 H 
ATOM     49  H   LIG d   1       7.704  -8.823  -1.150  0.00  0.00     0.065 H 
ENDBRANCH  39  42
ENDBRANCH  37  39
ENDBRANCH   8  37
TORSDOF 8
ENDMDL
MODEL 10
REMARK VINA RESULT:      -5.7      7.805     11.182
REMARK  8 active torsions:
REMARK  status: ('A' for Active; 'I' for Inactive)
REMARK    1  A    between atoms: C_1  and  O_2 
REMARK    2  A    between atoms: O_2  and  C_3 
REMARK    3  A    between atoms: C_6  and  C_11 
REMARK    4  A    between atoms: C_8  and  O_9 
REMARK    5  A    between atoms: O_9  and  C_10 
REMARK    6  A    between atoms: C_18  and  N_20 
REMARK    7  A    between atoms: N_20  and  C_21 
REMARK    8  A    between atoms: C_21  and  C_22 
ROOT
ATOM      1  C   LIG d   1       3.082  -0.043  -7.798  0.00  0.00    -0.003 C 
ATOM      2  H   LIG d   1       2.125   0.458  -7.945  0.00  0.00     0.036 H 
ATOM      3  C   LIG d   1       3.000  -1.467  -8.340  0.00  0.00    -0.002 C 
ATOM      4  C   LIG d   1       2.814  -1.469  -9.831  0.00  0.00     0.057 A 
ATOM      5  C   LIG d   1       3.186  -0.373 -10.619  0.00  0.00     0.057 A 
ATOM      6  C   LIG d   1       2.996  -0.435 -12.005  0.00  0.00     0.043 A 
ATOM      7  N   LIG d   1       2.468  -1.530 -12.522  0.00  0.00    -0.222 NA
ATOM      8  C   LIG d   1       2.124  -2.549 -11.745  0.00  0.00     0.216 A 
ATOM      9  N   LIG d   1       2.292  -2.526 -10.429  0.00  0.00    -0.219 NA
ATOM     10  C   LIG d   1       3.764   0.827  -9.995  0.00  0.00     0.167 C 
ATOM     11  O   LIG d   1       3.902   1.856 -10.620  0.00  0.00    -0.292 OA
ATOM     12  C   LIG d   1       4.182   0.727  -8.541  0.00  0.00     0.018 C 
ATOM     13  H   LIG d   1       2.158  -1.979  -7.875  0.00  0.00     0.033 H 
ATOM     14  H   LIG d   1       3.920  -1.997  -8.094  0.00  0.00     0.033 H 
ATOM     15  H   LIG d   1       3.276   0.394 -12.637  0.00  0.00     0.084 H 
ATOM     16  H   LIG d   1       4.281   1.637  -8.140  0.00  0.00     0.035 H 
ATOM     17  H   LIG d   1       5.127   0.190  -8.463  0.00  0.00     0.035 H 
ENDROOT
BRANCH   1  18
ATOM     18  C   LIG d   1       3.405  -0.084  -6.326  0.00  0.00    -0.040 A 
ATOM     19  C   LIG d   1       2.479   0.367  -5.404  0.00  0.00    -0.055 A 
ATOM     20  C   LIG d   1       2.768   0.327  -4.053  0.00  0.00    -0.016 A 
ATOM     21  H   LIG d   1       1.526   0.748  -5.740  0.00  0.00     0.062 H 
ATOM     22  C   LIG d   1       3.994  -0.155  -3.620  0.00  0.00     0.162 A 
ATOM     23  H   LIG d   1       2.042   0.677  -3.334  0.00  0.00     0.066 H 
ATOM     24  C   LIG d   1       4.928  -0.604  -4.549  0.00  0.00     0.162 A 
ATOM     25  C   LIG d   1       4.629  -0.567  -5.902  0.00  0.00    -0.013 A 
ATOM     26  H   LIG d   1       5.352  -0.915  -6.624  0.00  0.00     0.066 H 
BRANCH  22  27
ATOM     27  O   LIG d   1       4.282  -0.190  -2.293  0.00  0.00    -0.491 OA
BRANCH  27  28
ATOM     28  C   LIG d   1       4.591   1.055  -1.664  0.00  0.00     0.079 C 
ATOM     29  H   LIG d   1       3.744   1.733  -1.764  0.00  0.00     0.066 H 
ATOM     30  H   LIG d   1       4.798   0.887  -0.607  0.00  0.00     0.066 H 
ATOM     31  H   LIG d   1       5.467   1.496  -2.140  0.00  0.00     0.066 H 
ENDBRANCH  27  28
ENDBRANCH  22  27
BRANCH  24  32
ATOM     32  O   LIG d   1       6.132  -1.078  -4.131  0.00  0.00    -0.491 OA
BRANCH  32  33
ATOM     33  C   LIG d   1       7.257  -0.209  -4.272  0.00  0.00     0.079 C 
ATOM     34  H   LIG d   1       6.957   0.813  -4.038  0.00  0.00     0.066 H 
ATOM     35  H   LIG d   1       8.045  -0.522  -3.587  0.00  0.00     0.066 H 
ATOM     36  H   LIG d   1       7.626  -0.254  -5.297  0.00  0.00     0.066 H 
ENDBRANCH  32  33
ENDBRANCH  24  32
ENDBRANCH   1  18
BRANCH   8  37
ATOM     37  N   LIG d   1       1.573  -3.672 -12.325  0.00  0.00    -0.306 N 
ATOM     38  H   LIG d   1       2.092  -4.489 -12.390  0.00  0.00     0.149 HD
BRANCH  37  39
ATOM     39  C   LIG d   1       0.205  -3.629 -12.847  0.00  0.00     0.070 C 
ATOM     40  H   LIG d   1      -0.083  -2.593 -13.025  0.00  0.00     0.054 H 
ATOM     41  H   LIG d   1       0.155  -4.187 -13.783  0.00  0.00     0.054 H 
BRANCH  39  42
ATOM     42  C   LIG d   1      -0.734  -4.246 -11.843  0.00  0.00     0.122 A 
ATOM     43  O   LIG d   1      -2.074  -4.277 -11.937  0.00  0.00    -0.466 OA
ATOM     44  C   LIG d   1      -2.584  -4.905 -10.866  0.00  0.00     0.092 A 
ATOM     45  C   LIG d   1      -1.567  -5.283 -10.071  0.00  0.00    -0.024 A 
ATOM     46  H   LIG d   1      -3.632  -5.078 -10.673  0.00  0.00     0.103 H 
ATOM     47  C   LIG d   1      -0.374  -4.862 -10.704  0.00  0.00    -0.019 A 
ATOM     48  H   LIG d   1      -1.645  -5.811  -9.131  0.00  0.00     0.065 H 
ATOM     49  H   LIG d   1       0.632  -5.008 -10.341  0.00  0.00     0.065 H 
ENDBRANCH  39  42
ENDBRANCH  37  39
ENDBRANCH   8  37
TORSDOF 8
ENDMDL
