MODEL 1
REMARK VINA RESULT:      -7.6      0.000      0.000
REMARK  4 active torsions:
REMARK  status: ('A' for Active; 'I' for Inactive)
REMARK    1  A    between atoms: C_1  and  O_2 
REMARK    2  A    between atoms: O_2  and  C_3 
REMARK    3  A    between atoms: C_6  and  C_9 
REMARK    4  A    between atoms: N_10  and  C_11 
ROOT
ATOM      1  C   LIG d   1       8.950   2.545  -3.916  0.00  0.00     0.064 A 
ATOM      2  C   LIG d   1       9.143   2.871  -5.258  0.00  0.00    -0.035 A 
ATOM      3  C   LIG d   1       8.562   2.141  -6.275  0.00  0.00    -0.038 A 
ATOM      4  C   LIG d   1       7.761   1.047  -5.917  0.00  0.00     0.041 A 
ATOM      5  C   LIG d   1       7.538   0.750  -4.564  0.00  0.00    -0.011 A 
ATOM      6  C   LIG d   1       8.137   1.461  -3.547  0.00  0.00    -0.031 A 
ATOM      7  C   LIG d   1       6.545  -0.375  -4.486  0.00  0.00     0.064 C 
ATOM      8  C   LIG d   1       5.205   0.243  -3.989  0.00  0.00     0.004 C 
ATOM      9  C   LIG d   1       4.932  -0.462  -2.640  0.00  0.00    -0.030 C 
ATOM     10  C   LIG d   1       6.878  -1.426  -3.455  0.00  0.00    -0.008 C 
ATOM     11  H   LIG d   1       7.519  -0.971  -2.701  0.00  0.00     0.086 H 
ATOM     12  C   LIG d   1       7.568  -2.683  -3.943  0.00  0.00    -0.002 C 
ATOM     13  C   LIG d   1       6.804  -3.185  -5.183  0.00  0.00    -0.003 C 
ATOM     14  H   LIG d   1       7.158  -4.170  -5.485  0.00  0.00     0.035 H 
ATOM     15  C   LIG d   1       7.071  -2.150  -6.254  0.00  0.00     0.013 C 
ATOM     16  H   LIG d   1       8.139  -1.933  -6.215  0.00  0.00     0.035 H 
ATOM     17  C   LIG d   1       6.373  -0.833  -5.922  0.00  0.00     0.052 C 
ATOM     18  H   LIG d   1       5.323  -0.837  -6.215  0.00  0.00     0.052 H 
ATOM     19  N   LIG d   1       7.176   0.118  -6.745  0.00  0.00    -0.267 N 
ATOM     20  C   LIG d   1       7.275  -0.096  -8.071  0.00  0.00     0.223 C 
ATOM     21  O   LIG d   1       7.497   0.846  -8.803  0.00  0.00    -0.275 OA
ATOM     22  C   LIG d   1       7.120  -1.461  -8.672  0.00  0.00     0.051 C 
ATOM     23  C   LIG d   1       6.771  -2.557  -7.674  0.00  0.00     0.072 C 
ATOM     24  H   LIG d   1       7.407  -3.413  -7.899  0.00  0.00     0.060 H 
ATOM     25  O   LIG d   1       5.420  -2.979  -7.840  0.00  0.00    -0.372 OA
ATOM     26  C   LIG d   1       5.071  -4.158  -7.105  0.00  0.00     0.067 C 
ATOM     27  C   LIG d   1       4.531  -3.740  -5.766  0.00  0.00    -0.054 C 
ATOM     28  C   LIG d   1       5.334  -3.219  -4.861  0.00  0.00    -0.023 C 
ATOM     29  C   LIG d   1       4.727  -2.595  -3.655  0.00  0.00    -0.009 C 
ATOM     30  H   LIG d   1       9.764   3.718  -5.509  0.00  0.00     0.064 H 
ATOM     31  H   LIG d   1       8.718   2.403  -7.311  0.00  0.00     0.064 H 
ATOM     32  H   LIG d   1       7.986   1.200  -2.511  0.00  0.00     0.064 H 
ATOM     33  H   LIG d   1       5.313   1.318  -3.841  0.00  0.00     0.033 H 
ATOM     34  H   LIG d   1       4.403   0.036  -4.698  0.00  0.00     0.033 H 
ATOM     35  H   LIG d   1       5.383   0.094  -1.818  0.00  0.00     0.082 H 
ATOM     36  H   LIG d   1       3.860  -0.584  -2.481  0.00  0.00     0.082 H 
ATOM     37  H   LIG d   1       8.600  -2.457  -4.211  0.00  0.00     0.033 H 
ATOM     38  H   LIG d   1       7.546  -3.443  -3.162  0.00  0.00     0.033 H 
ATOM     39  H   LIG d   1       8.054  -1.728  -9.165  0.00  0.00     0.038 H 
ATOM     40  H   LIG d   1       6.334  -1.417  -9.425  0.00  0.00     0.038 H 
ATOM     41  H   LIG d   1       5.955  -4.780  -6.968  0.00  0.00     0.060 H 
ATOM     42  H   LIG d   1       4.310  -4.717  -7.650  0.00  0.00     0.060 H 
ATOM     43  H   LIG d   1       3.482  -3.868  -5.545  0.00  0.00     0.060 H 
ATOM     44  H   LIG d   1       4.301  -3.391  -3.044  0.00  0.00     0.086 H 
ATOM     45  H   LIG d   1       3.906  -1.958  -3.986  0.00  0.00     0.086 H 
ATOM     46  N   LIG d   1       5.590  -1.724  -2.808  0.00  0.00     0.241 N 
ATOM     47  H   LIG d   1       5.749  -2.177  -1.900  0.00  0.00     0.204 HD
ENDROOT
BRANCH   1  48
ATOM     48  N   LIG d   1       9.564   3.289  -2.946  0.00  0.00    -0.255 NA
ATOM     49  C   LIG d   1       9.665   4.581  -3.083  0.00  0.00     0.035 C 
ATOM     50  H   LIG d   1       9.265   5.065  -3.962  0.00  0.00     0.084 H 
BRANCH  49  51
ATOM     51  C   LIG d   1      10.326   5.382  -2.040  0.00  0.00    -0.007 A 
ATOM     52  C   LIG d   1       9.847   6.658  -1.726  0.00  0.00    -0.050 A 
ATOM     53  C   LIG d   1      10.465   7.402  -0.746  0.00  0.00    -0.019 A 
ATOM     54  H   LIG d   1       8.991   7.059  -2.249  0.00  0.00     0.062 H 
ATOM     55  C   LIG d   1      11.571   6.890  -0.075  0.00  0.00     0.120 A 
ATOM     56  H   LIG d   1      10.095   8.386  -0.500  0.00  0.00     0.065 H 
ATOM     57  C   LIG d   1      12.051   5.623  -0.384  0.00  0.00    -0.019 A 
ATOM     58  C   LIG d   1      11.436   4.869  -1.359  0.00  0.00    -0.050 A 
ATOM     59  H   LIG d   1      12.907   5.228   0.143  0.00  0.00     0.065 H 
ATOM     60  H   LIG d   1      11.809   3.884  -1.598  0.00  0.00     0.062 H 
BRANCH  55  61
ATOM     61  O   LIG d   1      12.180   7.628   0.886  0.00  0.00    -0.495 OA
BRANCH  61  62
ATOM     62  C   LIG d   1      11.437   8.718   1.437  0.00  0.00     0.079 C 
ATOM     63  H   LIG d   1      10.375   8.568   1.243  0.00  0.00     0.066 H 
ATOM     64  H   LIG d   1      11.607   8.769   2.512  0.00  0.00     0.066 H 
ATOM     65  H   LIG d   1      11.762   9.650   0.973  0.00  0.00     0.066 H 
ENDBRANCH  61  62
ENDBRANCH  55  61
ENDBRANCH  49  51
ENDBRANCH   1  48
TORSDOF 4
ENDMDL
MODEL 2
REMARK VINA RESULT:      -7.3      2.781     10.220
REMARK  4 active torsions:
REMARK  status: ('A' for Active; 'I' for Inactive)
REMARK    1  A    between atoms: C_1  and  O_2 
REMARK    2  A    between atoms: O_2  and  C_3 
REMARK    3  A    between atoms: C_6  and  C_9 
REMARK    4  A    between atoms: N_10  and  C_11 
ROOT
ATOM      1  C   LIG d   1       9.303   3.506  -4.709  0.00  0.00     0.064 A 
ATOM      2  C   LIG d   1       9.683   4.041  -5.938  0.00  0.00    -0.035 A 
ATOM      3  C   LIG d   1      10.363   5.240  -6.030  0.00  0.00    -0.038 A 
ATOM      4  C   LIG d   1      10.665   5.911  -4.837  0.00  0.00     0.041 A 
ATOM      5  C   LIG d   1      10.315   5.346  -3.602  0.00  0.00    -0.011 A 
ATOM      6  C   LIG d   1       9.614   4.163  -3.508  0.00  0.00    -0.031 A 
ATOM      7  C   LIG d   1      10.879   6.211  -2.511  0.00  0.00     0.064 C 
ATOM      8  C   LIG d   1      12.076   5.430  -1.892  0.00  0.00     0.004 C 
ATOM      9  C   LIG d   1      11.664   5.195  -0.421  0.00  0.00    -0.030 C 
ATOM     10  C   LIG d   1       9.940   6.437  -1.351  0.00  0.00    -0.008 C 
ATOM     11  H   LIG d   1       9.224   5.616  -1.329  0.00  0.00     0.086 H 
ATOM     12  C   LIG d   1       9.152   7.731  -1.338  0.00  0.00    -0.002 C 
ATOM     13  C   LIG d   1      10.136   8.880  -1.633  0.00  0.00    -0.003 C 
ATOM     14  H   LIG d   1       9.658   9.848  -1.481  0.00  0.00     0.035 H 
ATOM     15  C   LIG d   1      10.545   8.685  -3.076  0.00  0.00     0.013 C 
ATOM     16  H   LIG d   1       9.630   8.478  -3.632  0.00  0.00     0.035 H 
ATOM     17  C   LIG d   1      11.410   7.436  -3.230  0.00  0.00     0.052 C 
ATOM     18  H   LIG d   1      12.454   7.623  -2.980  0.00  0.00     0.052 H 
ATOM     19  N   LIG d   1      11.230   7.156  -4.685  0.00  0.00    -0.267 N 
ATOM     20  C   LIG d   1      11.544   8.117  -5.575  0.00  0.00     0.223 C 
ATOM     21  O   LIG d   1      11.851   7.796  -6.703  0.00  0.00    -0.275 OA
ATOM     22  C   LIG d   1      11.526   9.573  -5.214  0.00  0.00     0.051 C 
ATOM     23  C   LIG d   1      11.199   9.862  -3.755  0.00  0.00     0.072 C 
ATOM     24  H   LIG d   1      10.476  10.677  -3.741  0.00  0.00     0.060 H 
ATOM     25  O   LIG d   1      12.358  10.311  -3.058  0.00  0.00    -0.372 OA
ATOM     26  C   LIG d   1      12.100  10.823  -1.745  0.00  0.00     0.067 C 
ATOM     27  C   LIG d   1      12.231   9.693  -0.762  0.00  0.00    -0.054 C 
ATOM     28  C   LIG d   1      11.335   8.729  -0.736  0.00  0.00    -0.023 C 
ATOM     29  C   LIG d   1      11.629   7.514   0.070  0.00  0.00    -0.009 C 
ATOM     30  H   LIG d   1       9.439   3.506  -6.844  0.00  0.00     0.064 H 
ATOM     31  H   LIG d   1      10.653   5.646  -6.988  0.00  0.00     0.064 H 
ATOM     32  H   LIG d   1       9.320   3.756  -2.552  0.00  0.00     0.064 H 
ATOM     33  H   LIG d   1      12.216   4.478  -2.405  0.00  0.00     0.033 H 
ATOM     34  H   LIG d   1      12.987   6.026  -1.943  0.00  0.00     0.033 H 
ATOM     35  H   LIG d   1      11.122   4.254  -0.320  0.00  0.00     0.082 H 
ATOM     36  H   LIG d   1      12.539   5.208   0.230  0.00  0.00     0.082 H 
ATOM     37  H   LIG d   1       8.379   7.700  -2.105  0.00  0.00     0.033 H 
ATOM     38  H   LIG d   1       8.697   7.876  -0.358  0.00  0.00     0.033 H 
ATOM     39  H   LIG d   1      10.787  10.074  -5.839  0.00  0.00     0.038 H 
ATOM     40  H   LIG d   1      12.506   9.994  -5.438  0.00  0.00     0.038 H 
ATOM     41  H   LIG d   1      11.091  11.232  -1.702  0.00  0.00     0.060 H 
ATOM     42  H   LIG d   1      12.823  11.603  -1.507  0.00  0.00     0.060 H 
ATOM     43  H   LIG d   1      13.063   9.673  -0.073  0.00  0.00     0.060 H 
ATOM     44  H   LIG d   1      11.586   7.793   1.123  0.00  0.00     0.086 H 
ATOM     45  H   LIG d   1      12.652   7.207  -0.148  0.00  0.00     0.086 H 
ATOM     46  N   LIG d   1      10.792   6.303  -0.159  0.00  0.00     0.241 N 
ATOM     47  H   LIG d   1      10.213   6.123   0.669  0.00  0.00     0.204 HD
ENDROOT
BRANCH   1  48
ATOM     48  N   LIG d   1       8.614   2.324  -4.672  0.00  0.00    -0.255 NA
ATOM     49  C   LIG d   1       7.739   2.110  -3.730  0.00  0.00     0.035 C 
ATOM     50  H   LIG d   1       7.558   2.864  -2.978  0.00  0.00     0.084 H 
BRANCH  49  51
ATOM     51  C   LIG d   1       6.997   0.840  -3.689  0.00  0.00    -0.007 A 
ATOM     52  C   LIG d   1       7.459  -0.266  -4.411  0.00  0.00    -0.050 A 
ATOM     53  C   LIG d   1       6.764  -1.453  -4.367  0.00  0.00    -0.019 A 
ATOM     54  H   LIG d   1       8.362  -0.188  -5.000  0.00  0.00     0.062 H 
ATOM     55  C   LIG d   1       5.600  -1.553  -3.613  0.00  0.00     0.120 A 
ATOM     56  H   LIG d   1       7.122  -2.309  -4.921  0.00  0.00     0.065 H 
ATOM     57  C   LIG d   1       5.137  -0.457  -2.895  0.00  0.00    -0.019 A 
ATOM     58  C   LIG d   1       5.827   0.734  -2.929  0.00  0.00    -0.050 A 
ATOM     59  H   LIG d   1       4.234  -0.540  -2.308  0.00  0.00     0.065 H 
ATOM     60  H   LIG d   1       5.467   1.584  -2.369  0.00  0.00     0.062 H 
BRANCH  55  61
ATOM     61  O   LIG d   1       4.916  -2.724  -3.577  0.00  0.00    -0.495 OA
BRANCH  61  62
ATOM     62  C   LIG d   1       4.977  -3.548  -4.743  0.00  0.00     0.079 C 
ATOM     63  H   LIG d   1       5.067  -2.919  -5.629  0.00  0.00     0.066 H 
ATOM     64  H   LIG d   1       5.841  -4.209  -4.677  0.00  0.00     0.066 H 
ATOM     65  H   LIG d   1       4.067  -4.146  -4.813  0.00  0.00     0.066 H 
ENDBRANCH  61  62
ENDBRANCH  55  61
ENDBRANCH  49  51
ENDBRANCH   1  48
TORSDOF 4
ENDMDL
MODEL 3
REMARK VINA RESULT:      -7.2      3.052     10.697
REMARK  4 active torsions:
REMARK  status: ('A' for Active; 'I' for Inactive)
REMARK    1  A    between atoms: C_1  and  O_2 
REMARK    2  A    between atoms: O_2  and  C_3 
REMARK    3  A    between atoms: C_6  and  C_9 
REMARK    4  A    between atoms: N_10  and  C_11 
ROOT
ATOM      1  C   LIG d   1       9.621   4.190  -3.927  0.00  0.00     0.064 A 
ATOM      2  C   LIG d   1       9.824   4.684  -5.215  0.00  0.00    -0.035 A 
ATOM      3  C   LIG d   1      10.267   5.972  -5.438  0.00  0.00    -0.038 A 
ATOM      4  C   LIG d   1      10.511   6.781  -4.319  0.00  0.00     0.041 A 
ATOM      5  C   LIG d   1      10.344   6.264  -3.026  0.00  0.00    -0.011 A 
ATOM      6  C   LIG d   1       9.877   4.987  -2.800  0.00  0.00    -0.031 A 
ATOM      7  C   LIG d   1      10.804   7.300  -2.041  0.00  0.00     0.064 C 
ATOM      8  C   LIG d   1      12.158   6.797  -1.458  0.00  0.00     0.004 C 
ATOM      9  C   LIG d   1      11.882   6.612   0.052  0.00  0.00    -0.030 C 
ATOM     10  C   LIG d   1       9.909   7.449  -0.834  0.00  0.00    -0.008 C 
ATOM     11  H   LIG d   1       9.357   6.519  -0.703  0.00  0.00     0.086 H 
ATOM     12  C   LIG d   1       8.901   8.580  -0.852  0.00  0.00    -0.002 C 
ATOM     13  C   LIG d   1       9.639   9.858  -1.297  0.00  0.00    -0.003 C 
ATOM     14  H   LIG d   1       9.003  10.734  -1.178  0.00  0.00     0.035 H 
ATOM     15  C   LIG d   1       9.991   9.622  -2.749  0.00  0.00     0.013 C 
ATOM     16  H   LIG d   1       9.099   9.213  -3.221  0.00  0.00     0.035 H 
ATOM     17  C   LIG d   1      11.059   8.539  -2.879  0.00  0.00     0.052 C 
ATOM     18  H   LIG d   1      12.064   8.927  -2.719  0.00  0.00     0.052 H 
ATOM     19  N   LIG d   1      10.847   8.114  -4.295  0.00  0.00    -0.267 N 
ATOM     20  C   LIG d   1      10.928   9.041  -5.269  0.00  0.00     0.223 C 
ATOM     21  O   LIG d   1      11.222   8.690  -6.392  0.00  0.00    -0.275 OA
ATOM     22  C   LIG d   1      10.666  10.495  -5.009  0.00  0.00     0.051 C 
ATOM     23  C   LIG d   1      10.379  10.837  -3.553  0.00  0.00     0.072 C 
ATOM     24  H   LIG d   1       9.521  11.510  -3.542  0.00  0.00     0.060 H 
ATOM     25  O   LIG d   1      11.475  11.540  -2.974  0.00  0.00    -0.372 OA
ATOM     26  C   LIG d   1      11.205  12.103  -1.685  0.00  0.00     0.067 C 
ATOM     27  C   LIG d   1      11.599  11.097  -0.638  0.00  0.00    -0.054 C 
ATOM     28  C   LIG d   1      10.897   9.994  -0.481  0.00  0.00    -0.023 C 
ATOM     29  C   LIG d   1      11.454   8.920   0.384  0.00  0.00    -0.009 C 
ATOM     30  H   LIG d   1       9.629   4.042  -6.061  0.00  0.00     0.064 H 
ATOM     31  H   LIG d   1      10.421   6.345  -6.440  0.00  0.00     0.064 H 
ATOM     32  H   LIG d   1       9.719   4.613  -1.799  0.00  0.00     0.064 H 
ATOM     33  H   LIG d   1      12.438   5.847  -1.913  0.00  0.00     0.033 H 
ATOM     34  H   LIG d   1      12.940   7.539  -1.616  0.00  0.00     0.033 H 
ATOM     35  H   LIG d   1      11.528   5.602   0.257  0.00  0.00     0.082 H 
ATOM     36  H   LIG d   1      12.777   6.832   0.636  0.00  0.00     0.082 H 
ATOM     37  H   LIG d   1       8.102   8.350  -1.558  0.00  0.00     0.033 H 
ATOM     38  H   LIG d   1       8.485   8.720   0.145  0.00  0.00     0.033 H 
ATOM     39  H   LIG d   1       9.813  10.804  -5.611  0.00  0.00     0.038 H 
ATOM     40  H   LIG d   1      11.538  11.063  -5.331  0.00  0.00     0.038 H 
ATOM     41  H   LIG d   1      10.143  12.328  -1.597  0.00  0.00     0.060 H 
ATOM     42  H   LIG d   1      11.787  13.015  -1.554  0.00  0.00     0.060 H 
ATOM     43  H   LIG d   1      12.459  11.281  -0.012  0.00  0.00     0.060 H 
ATOM     44  H   LIG d   1      11.423   9.271   1.415  0.00  0.00     0.086 H 
ATOM     45  H   LIG d   1      12.501   8.783   0.114  0.00  0.00     0.086 H 
ATOM     46  N   LIG d   1      10.840   7.565   0.300  0.00  0.00     0.241 N 
ATOM     47  H   LIG d   1      10.353   7.354   1.178  0.00  0.00     0.204 HD
ENDROOT
BRANCH   1  48
ATOM     48  N   LIG d   1       9.162   2.912  -3.759  0.00  0.00    -0.255 NA
ATOM     49  C   LIG d   1       8.046   2.542  -4.322  0.00  0.00     0.035 C 
ATOM     50  H   LIG d   1       7.483   3.244  -4.920  0.00  0.00     0.084 H 
BRANCH  49  51
ATOM     51  C   LIG d   1       7.551   1.169  -4.142  0.00  0.00    -0.007 A 
ATOM     52  C   LIG d   1       8.186   0.103  -4.788  0.00  0.00    -0.050 A 
ATOM     53  C   LIG d   1       7.723  -1.181  -4.613  0.00  0.00    -0.019 A 
ATOM     54  H   LIG d   1       9.041   0.288  -5.423  0.00  0.00     0.062 H 
ATOM     55  C   LIG d   1       6.619  -1.420  -3.802  0.00  0.00     0.120 A 
ATOM     56  H   LIG d   1       8.214  -2.005  -5.110  0.00  0.00     0.065 H 
ATOM     57  C   LIG d   1       5.985  -0.365  -3.157  0.00  0.00    -0.019 A 
ATOM     58  C   LIG d   1       6.444   0.923  -3.322  0.00  0.00    -0.050 A 
ATOM     59  H   LIG d   1       5.130  -0.556  -2.524  0.00  0.00     0.065 H 
ATOM     60  H   LIG d   1       5.950   1.741  -2.820  0.00  0.00     0.062 H 
BRANCH  55  61
ATOM     61  O   LIG d   1       6.163  -2.687  -3.636  0.00  0.00    -0.495 OA
BRANCH  61  62
ATOM     62  C   LIG d   1       5.042  -3.083  -4.429  0.00  0.00     0.079 C 
ATOM     63  H   LIG d   1       4.873  -4.154  -4.312  0.00  0.00     0.066 H 
ATOM     64  H   LIG d   1       4.156  -2.538  -4.106  0.00  0.00     0.066 H 
ATOM     65  H   LIG d   1       5.243  -2.860  -5.478  0.00  0.00     0.066 H 
ENDBRANCH  61  62
ENDBRANCH  55  61
ENDBRANCH  49  51
ENDBRANCH   1  48
TORSDOF 4
ENDMDL
MODEL 4
REMARK VINA RESULT:      -7.0      5.062     11.016
REMARK  4 active torsions:
REMARK  status: ('A' for Active; 'I' for Inactive)
REMARK    1  A    between atoms: C_1  and  O_2 
REMARK    2  A    between atoms: O_2  and  C_3 
REMARK    3  A    between atoms: C_6  and  C_9 
REMARK    4  A    between atoms: N_10  and  C_11 
ROOT
ATOM      1  C   LIG d   1       4.564  -4.210  -8.487  0.00  0.00     0.064 A 
ATOM      2  C   LIG d   1       3.723  -3.320  -9.154  0.00  0.00    -0.035 A 
ATOM      3  C   LIG d   1       3.403  -2.086  -8.623  0.00  0.00    -0.038 A 
ATOM      4  C   LIG d   1       3.953  -1.749  -7.379  0.00  0.00     0.041 A 
ATOM      5  C   LIG d   1       4.830  -2.632  -6.733  0.00  0.00    -0.011 A 
ATOM      6  C   LIG d   1       5.132  -3.875  -7.247  0.00  0.00    -0.031 A 
ATOM      7  C   LIG d   1       5.361  -1.954  -5.502  0.00  0.00     0.064 C 
ATOM      8  C   LIG d   1       6.846  -1.586  -5.796  0.00  0.00     0.004 C 
ATOM      9  C   LIG d   1       7.655  -2.390  -4.753  0.00  0.00    -0.030 C 
ATOM     10  C   LIG d   1       5.430  -2.844  -4.285  0.00  0.00    -0.008 C 
ATOM     11  H   LIG d   1       5.483  -3.878  -4.622  0.00  0.00     0.086 H 
ATOM     12  C   LIG d   1       4.293  -2.747  -3.288  0.00  0.00    -0.002 C 
ATOM     13  C   LIG d   1       4.044  -1.252  -3.008  0.00  0.00    -0.003 C 
ATOM     14  H   LIG d   1       3.345  -1.123  -2.181  0.00  0.00     0.035 H 
ATOM     15  C   LIG d   1       3.482  -0.699  -4.299  0.00  0.00     0.013 C 
ATOM     16  H   LIG d   1       2.730  -1.411  -4.639  0.00  0.00     0.035 H 
ATOM     17  C   LIG d   1       4.550  -0.677  -5.389  0.00  0.00     0.052 C 
ATOM     18  H   LIG d   1       5.196   0.199  -5.318  0.00  0.00     0.052 H 
ATOM     19  N   LIG d   1       3.694  -0.637  -6.611  0.00  0.00    -0.267 N 
ATOM     20  C   LIG d   1       2.798   0.360  -6.743  0.00  0.00     0.223 C 
ATOM     21  O   LIG d   1       2.443   0.688  -7.856  0.00  0.00    -0.275 OA
ATOM     22  C   LIG d   1       2.225   1.079  -5.558  0.00  0.00     0.051 C 
ATOM     23  C   LIG d   1       2.793   0.640  -4.214  0.00  0.00     0.072 C 
ATOM     24  H   LIG d   1       1.952   0.520  -3.532  0.00  0.00     0.060 H 
ATOM     25  O   LIG d   1       3.639   1.649  -3.670  0.00  0.00    -0.372 OA
ATOM     26  C   LIG d   1       4.034   1.424  -2.312  0.00  0.00     0.067 C 
ATOM     27  C   LIG d   1       5.332   0.665  -2.315  0.00  0.00    -0.054 C 
ATOM     28  C   LIG d   1       5.363  -0.594  -2.700  0.00  0.00    -0.023 C 
ATOM     29  C   LIG d   1       6.688  -1.231  -2.925  0.00  0.00    -0.009 C 
ATOM     30  H   LIG d   1       3.311  -3.603 -10.111  0.00  0.00     0.064 H 
ATOM     31  H   LIG d   1       2.750  -1.404  -9.149  0.00  0.00     0.064 H 
ATOM     32  H   LIG d   1       5.781  -4.560  -6.723  0.00  0.00     0.064 H 
ATOM     33  H   LIG d   1       7.120  -1.890  -6.807  0.00  0.00     0.033 H 
ATOM     34  H   LIG d   1       7.006  -0.516  -5.664  0.00  0.00     0.033 H 
ATOM     35  H   LIG d   1       7.921  -3.371  -5.146  0.00  0.00     0.082 H 
ATOM     36  H   LIG d   1       8.549  -1.840  -4.454  0.00  0.00     0.082 H 
ATOM     37  H   LIG d   1       3.395  -3.199  -3.708  0.00  0.00     0.033 H 
ATOM     38  H   LIG d   1       4.567  -3.256  -2.364  0.00  0.00     0.033 H 
ATOM     39  H   LIG d   1       1.147   0.918  -5.546  0.00  0.00     0.038 H 
ATOM     40  H   LIG d   1       2.412   2.145  -5.680  0.00  0.00     0.038 H 
ATOM     41  H   LIG d   1       3.269   0.843  -1.799  0.00  0.00     0.060 H 
ATOM     42  H   LIG d   1       4.169   2.381  -1.807  0.00  0.00     0.060 H 
ATOM     43  H   LIG d   1       6.241   1.153  -1.999  0.00  0.00     0.060 H 
ATOM     44  H   LIG d   1       7.168  -1.355  -1.954  0.00  0.00     0.086 H 
ATOM     45  H   LIG d   1       7.296  -0.540  -3.508  0.00  0.00     0.086 H 
ATOM     46  N   LIG d   1       6.727  -2.521  -3.668  0.00  0.00     0.241 N 
ATOM     47  H   LIG d   1       7.012  -3.276  -3.033  0.00  0.00     0.204 HD
ENDROOT
BRANCH   1  48
ATOM     48  N   LIG d   1       4.835  -5.429  -9.046  0.00  0.00    -0.255 NA
ATOM     49  C   LIG d   1       4.520  -6.522  -8.408  0.00  0.00     0.035 C 
ATOM     50  H   LIG d   1       4.045  -6.466  -7.440  0.00  0.00     0.084 H 
BRANCH  49  51
ATOM     51  C   LIG d   1       4.813  -7.833  -9.009  0.00  0.00    -0.007 A 
ATOM     52  C   LIG d   1       4.293  -8.999  -8.437  0.00  0.00    -0.050 A 
ATOM     53  C   LIG d   1       4.565 -10.223  -9.004  0.00  0.00    -0.019 A 
ATOM     54  H   LIG d   1       3.676  -8.938  -7.551  0.00  0.00     0.062 H 
ATOM     55  C   LIG d   1       5.363 -10.303 -10.140  0.00  0.00     0.120 A 
ATOM     56  H   LIG d   1       4.162 -11.123  -8.565  0.00  0.00     0.065 H 
ATOM     57  C   LIG d   1       5.882  -9.148 -10.713  0.00  0.00    -0.019 A 
ATOM     58  C   LIG d   1       5.611  -7.918 -10.155  0.00  0.00    -0.050 A 
ATOM     59  H   LIG d   1       6.498  -9.215 -11.597  0.00  0.00     0.065 H 
ATOM     60  H   LIG d   1       6.015  -7.021 -10.601  0.00  0.00     0.062 H 
BRANCH  55  61
ATOM     61  O   LIG d   1       5.633 -11.512 -10.693  0.00  0.00    -0.495 OA
BRANCH  61  62
ATOM     62  C   LIG d   1       4.740 -12.583 -10.381  0.00  0.00     0.079 C 
ATOM     63  H   LIG d   1       4.255 -12.931 -11.293  0.00  0.00     0.066 H 
ATOM     64  H   LIG d   1       5.298 -13.403  -9.930  0.00  0.00     0.066 H 
ATOM     65  H   LIG d   1       3.982 -12.231  -9.679  0.00  0.00     0.066 H 
ENDBRANCH  61  62
ENDBRANCH  55  61
ENDBRANCH  49  51
ENDBRANCH   1  48
TORSDOF 4
ENDMDL
MODEL 5
REMARK VINA RESULT:      -6.9      6.740     10.891
REMARK  4 active torsions:
REMARK  status: ('A' for Active; 'I' for Inactive)
REMARK    1  A    between atoms: C_1  and  O_2 
REMARK    2  A    between atoms: O_2  and  C_3 
REMARK    3  A    between atoms: C_6  and  C_9 
REMARK    4  A    between atoms: N_10  and  C_11 
ROOT
ATOM      1  C   LIG d   1       9.994   8.878  -7.316  0.00  0.00     0.064 A 
ATOM      2  C   LIG d   1       9.592  10.045  -6.669  0.00  0.00    -0.035 A 
ATOM      3  C   LIG d   1       9.694  10.189  -5.299  0.00  0.00    -0.038 A 
ATOM      4  C   LIG d   1      10.219   9.115  -4.568  0.00  0.00     0.041 A 
ATOM      5  C   LIG d   1      10.659   7.959  -5.230  0.00  0.00    -0.011 A 
ATOM      6  C   LIG d   1      10.535   7.802  -6.594  0.00  0.00    -0.031 A 
ATOM      7  C   LIG d   1      11.290   7.047  -4.217  0.00  0.00     0.064 C 
ATOM      8  C   LIG d   1      12.827   7.093  -4.466  0.00  0.00     0.004 C 
ATOM      9  C   LIG d   1      13.198   5.643  -4.851  0.00  0.00    -0.030 C 
ATOM     10  C   LIG d   1      10.927   5.591  -4.383  0.00  0.00    -0.008 C 
ATOM     11  H   LIG d   1      10.632   5.430  -5.420  0.00  0.00     0.086 H 
ATOM     12  C   LIG d   1       9.821   5.046  -3.504  0.00  0.00    -0.002 C 
ATOM     13  C   LIG d   1      10.105   5.502  -2.059  0.00  0.00    -0.003 C 
ATOM     14  H   LIG d   1       9.431   5.010  -1.358  0.00  0.00     0.035 H 
ATOM     15  C   LIG d   1       9.894   7.000  -2.072  0.00  0.00     0.013 C 
ATOM     16  H   LIG d   1       8.969   7.177  -2.619  0.00  0.00     0.035 H 
ATOM     17  C   LIG d   1      10.989   7.694  -2.879  0.00  0.00     0.052 C 
ATOM     18  H   LIG d   1      11.898   7.846  -2.297  0.00  0.00     0.052 H 
ATOM     19  N   LIG d   1      10.313   8.985  -3.201  0.00  0.00    -0.267 N 
ATOM     20  C   LIG d   1       9.852   9.747  -2.191  0.00  0.00     0.223 C 
ATOM     21  O   LIG d   1       9.737  10.942  -2.360  0.00  0.00    -0.275 OA
ATOM     22  C   LIG d   1       9.477   9.163  -0.861  0.00  0.00     0.051 C 
ATOM     23  C   LIG d   1       9.730   7.667  -0.730  0.00  0.00     0.072 C 
ATOM     24  H   LIG d   1       8.847   7.230  -0.265  0.00  0.00     0.060 H 
ATOM     25  O   LIG d   1      10.833   7.416   0.136  0.00  0.00    -0.372 OA
ATOM     26  C   LIG d   1      11.001   6.041   0.500  0.00  0.00     0.067 C 
ATOM     27  C   LIG d   1      11.932   5.399  -0.491  0.00  0.00    -0.054 C 
ATOM     28  C   LIG d   1      11.540   5.189  -1.730  0.00  0.00    -0.023 C 
ATOM     29  C   LIG d   1      12.560   4.786  -2.734  0.00  0.00    -0.009 C 
ATOM     30  H   LIG d   1       9.190  10.859  -7.254  0.00  0.00     0.064 H 
ATOM     31  H   LIG d   1       9.380  11.099  -4.808  0.00  0.00     0.064 H 
ATOM     32  H   LIG d   1      10.845   6.893  -7.087  0.00  0.00     0.064 H 
ATOM     33  H   LIG d   1      13.059   7.775  -5.285  0.00  0.00     0.033 H 
ATOM     34  H   LIG d   1      13.351   7.394  -3.560  0.00  0.00     0.033 H 
ATOM     35  H   LIG d   1      13.125   5.500  -5.929  0.00  0.00     0.082 H 
ATOM     36  H   LIG d   1      14.200   5.396  -4.497  0.00  0.00     0.082 H 
ATOM     37  H   LIG d   1       8.860   5.440  -3.834  0.00  0.00     0.033 H 
ATOM     38  H   LIG d   1       9.812   3.957  -3.554  0.00  0.00     0.033 H 
ATOM     39  H   LIG d   1       8.418   9.351  -0.689  0.00  0.00     0.038 H 
ATOM     40  H   LIG d   1      10.047   9.678  -0.088  0.00  0.00     0.038 H 
ATOM     41  H   LIG d   1      10.036   5.535   0.479  0.00  0.00     0.060 H 
ATOM     42  H   LIG d   1      11.429   5.976   1.501  0.00  0.00     0.060 H 
ATOM     43  H   LIG d   1      12.926   5.107  -0.184  0.00  0.00     0.060 H 
ATOM     44  H   LIG d   1      12.877   3.770  -2.499  0.00  0.00     0.086 H 
ATOM     45  H   LIG d   1      13.425   5.438  -2.613  0.00  0.00     0.086 H 
ATOM     46  N   LIG d   1      12.195   4.872  -4.176  0.00  0.00     0.241 N 
ATOM     47  H   LIG d   1      12.132   3.927  -4.572  0.00  0.00     0.204 HD
ENDROOT
BRANCH   1  48
ATOM     48  N   LIG d   1       9.854   8.777  -8.673  0.00  0.00    -0.255 NA
ATOM     49  C   LIG d   1      10.059   7.633  -9.265  0.00  0.00     0.035 C 
ATOM     50  H   LIG d   1      10.338   6.766  -8.685  0.00  0.00     0.084 H 
BRANCH  49  51
ATOM     51  C   LIG d   1       9.910   7.524 -10.725  0.00  0.00    -0.007 A 
ATOM     52  C   LIG d   1      10.480   8.488 -11.563  0.00  0.00    -0.050 A 
ATOM     53  C   LIG d   1      10.342   8.380 -12.928  0.00  0.00    -0.019 A 
ATOM     54  H   LIG d   1      11.032   9.315 -11.139  0.00  0.00     0.062 H 
ATOM     55  C   LIG d   1       9.628   7.319 -13.475  0.00  0.00     0.120 A 
ATOM     56  H   LIG d   1      10.785   9.121 -13.577  0.00  0.00     0.065 H 
ATOM     57  C   LIG d   1       9.059   6.359 -12.647  0.00  0.00    -0.019 A 
ATOM     58  C   LIG d   1       9.196   6.456 -11.280  0.00  0.00    -0.050 A 
ATOM     59  H   LIG d   1       8.509   5.534 -13.076  0.00  0.00     0.065 H 
ATOM     60  H   LIG d   1       8.754   5.709 -10.637  0.00  0.00     0.062 H 
BRANCH  55  61
ATOM     61  O   LIG d   1       9.490   7.219 -14.821  0.00  0.00    -0.495 OA
BRANCH  61  62
ATOM     62  C   LIG d   1       9.721   8.402 -15.587  0.00  0.00     0.079 C 
ATOM     63  H   LIG d   1      10.107   9.188 -14.936  0.00  0.00     0.066 H 
ATOM     64  H   LIG d   1      10.447   8.193 -16.372  0.00  0.00     0.066 H 
ATOM     65  H   LIG d   1       8.784   8.733 -16.038  0.00  0.00     0.066 H 
ENDBRANCH  61  62
ENDBRANCH  55  61
ENDBRANCH  49  51
ENDBRANCH   1  48
TORSDOF 4
ENDMDL
MODEL 6
REMARK VINA RESULT:      -6.7      3.318      4.986
REMARK  4 active torsions:
REMARK  status: ('A' for Active; 'I' for Inactive)
REMARK    1  A    between atoms: C_1  and  O_2 
REMARK    2  A    between atoms: O_2  and  C_3 
REMARK    3  A    between atoms: C_6  and  C_9 
REMARK    4  A    between atoms: N_10  and  C_11 
ROOT
ATOM      1  C   LIG d   1       9.905   6.120  -3.013  0.00  0.00     0.064 A 
ATOM      2  C   LIG d   1       9.797   7.046  -4.050  0.00  0.00    -0.035 A 
ATOM      3  C   LIG d   1       9.666   6.651  -5.367  0.00  0.00    -0.038 A 
ATOM      4  C   LIG d   1       9.645   5.276  -5.636  0.00  0.00     0.041 A 
ATOM      5  C   LIG d   1       9.713   4.351  -4.584  0.00  0.00    -0.011 A 
ATOM      6  C   LIG d   1       9.869   4.741  -3.271  0.00  0.00    -0.031 A 
ATOM      7  C   LIG d   1       9.533   2.973  -5.155  0.00  0.00     0.064 C 
ATOM      8  C   LIG d   1       8.111   2.495  -4.736  0.00  0.00     0.004 C 
ATOM      9  C   LIG d   1       8.367   1.249  -3.857  0.00  0.00    -0.030 C 
ATOM     10  C   LIG d   1      10.463   1.935  -4.576  0.00  0.00    -0.008 C 
ATOM     11  H   LIG d   1      10.781   2.275  -3.592  0.00  0.00     0.086 H 
ATOM     12  C   LIG d   1      11.709   1.600  -5.369  0.00  0.00    -0.002 C 
ATOM     13  C   LIG d   1      11.285   1.372  -6.833  0.00  0.00    -0.003 C 
ATOM     14  H   LIG d   1      12.113   0.975  -7.419  0.00  0.00     0.035 H 
ATOM     15  C   LIG d   1      10.856   2.734  -7.333  0.00  0.00     0.013 C 
ATOM     16  H   LIG d   1      11.616   3.440  -6.999  0.00  0.00     0.035 H 
ATOM     17  C   LIG d   1       9.560   3.175  -6.658  0.00  0.00     0.052 C 
ATOM     18  H   LIG d   1       8.679   2.745  -7.134  0.00  0.00     0.052 H 
ATOM     19  N   LIG d   1       9.635   4.652  -6.862  0.00  0.00    -0.267 N 
ATOM     20  C   LIG d   1       9.754   5.129  -8.116  0.00  0.00     0.223 C 
ATOM     21  O   LIG d   1       9.362   6.251  -8.359  0.00  0.00    -0.275 OA
ATOM     22  C   LIG d   1      10.358   4.317  -9.223  0.00  0.00     0.051 C 
ATOM     23  C   LIG d   1      10.750   2.899  -8.828  0.00  0.00     0.072 C 
ATOM     24  H   LIG d   1      11.742   2.712  -9.238  0.00  0.00     0.060 H 
ATOM     25  O   LIG d   1       9.864   1.949  -9.414  0.00  0.00    -0.372 OA
ATOM     26  C   LIG d   1      10.287   0.586  -9.288  0.00  0.00     0.067 C 
ATOM     27  C   LIG d   1       9.689   0.019  -8.030  0.00  0.00    -0.054 C 
ATOM     28  C   LIG d   1      10.113   0.427  -6.853  0.00  0.00    -0.023 C 
ATOM     29  C   LIG d   1       9.336   0.033  -5.647  0.00  0.00    -0.009 C 
ATOM     30  H   LIG d   1       9.816   8.101  -3.818  0.00  0.00     0.064 H 
ATOM     31  H   LIG d   1       9.583   7.377  -6.162  0.00  0.00     0.064 H 
ATOM     32  H   LIG d   1       9.955   4.017  -2.474  0.00  0.00     0.064 H 
ATOM     33  H   LIG d   1       7.604   3.269  -4.159  0.00  0.00     0.033 H 
ATOM     34  H   LIG d   1       7.523   2.229  -5.614  0.00  0.00     0.033 H 
ATOM     35  H   LIG d   1       8.476   1.532  -2.810  0.00  0.00     0.082 H 
ATOM     36  H   LIG d   1       7.563   0.522  -3.978  0.00  0.00     0.082 H 
ATOM     37  H   LIG d   1      12.416   2.428  -5.313  0.00  0.00     0.033 H 
ATOM     38  H   LIG d   1      12.168   0.694  -4.971  0.00  0.00     0.033 H 
ATOM     39  H   LIG d   1      11.248   4.833  -9.582  0.00  0.00     0.038 H 
ATOM     40  H   LIG d   1       9.639   4.261 -10.039  0.00  0.00     0.038 H 
ATOM     41  H   LIG d   1      11.374   0.543  -9.231  0.00  0.00     0.060 H 
ATOM     42  H   LIG d   1       9.940   0.014 -10.149  0.00  0.00     0.060 H 
ATOM     43  H   LIG d   1       8.911  -0.726  -8.093  0.00  0.00     0.060 H 
ATOM     44  H   LIG d   1       9.472  -1.038  -5.497  0.00  0.00     0.086 H 
ATOM     45  H   LIG d   1       8.281   0.205  -5.859  0.00  0.00     0.086 H 
ATOM     46  N   LIG d   1       9.610   0.753  -4.372  0.00  0.00     0.241 N 
ATOM     47  H   LIG d   1      10.052   0.111  -3.703  0.00  0.00     0.204 HD
ENDROOT
BRANCH   1  48
ATOM     48  N   LIG d   1      10.052   6.562  -1.727  0.00  0.00    -0.255 NA
ATOM     49  C   LIG d   1      10.884   5.962  -0.923  0.00  0.00     0.035 C 
ATOM     50  H   LIG d   1      11.458   5.116  -1.272  0.00  0.00     0.084 H 
BRANCH  49  51
ATOM     51  C   LIG d   1      11.043   6.436   0.460  0.00  0.00    -0.007 A 
ATOM     52  C   LIG d   1      11.350   7.778   0.712  0.00  0.00    -0.050 A 
ATOM     53  C   LIG d   1      11.493   8.219   2.008  0.00  0.00    -0.019 A 
ATOM     54  H   LIG d   1      11.472   8.468  -0.111  0.00  0.00     0.062 H 
ATOM     55  C   LIG d   1      11.341   7.330   3.067  0.00  0.00     0.120 A 
ATOM     56  H   LIG d   1      11.726   9.255   2.203  0.00  0.00     0.065 H 
ATOM     57  C   LIG d   1      11.036   5.997   2.823  0.00  0.00    -0.019 A 
ATOM     58  C   LIG d   1      10.886   5.547   1.530  0.00  0.00    -0.050 A 
ATOM     59  H   LIG d   1      10.915   5.312   3.649  0.00  0.00     0.065 H 
ATOM     60  H   LIG d   1      10.649   4.511   1.341  0.00  0.00     0.062 H 
BRANCH  55  61
ATOM     61  O   LIG d   1      11.488   7.769   4.343  0.00  0.00    -0.495 OA
BRANCH  61  62
ATOM     62  C   LIG d   1      11.180   6.843   5.387  0.00  0.00     0.079 C 
ATOM     63  H   LIG d   1      11.795   5.950   5.275  0.00  0.00     0.066 H 
ATOM     64  H   LIG d   1      11.381   7.303   6.354  0.00  0.00     0.066 H 
ATOM     65  H   LIG d   1      10.126   6.566   5.329  0.00  0.00     0.066 H 
ENDBRANCH  61  62
ENDBRANCH  55  61
ENDBRANCH  49  51
ENDBRANCH   1  48
TORSDOF 4
ENDMDL
MODEL 7
REMARK VINA RESULT:      -6.7      1.301      1.553
REMARK  4 active torsions:
REMARK  status: ('A' for Active; 'I' for Inactive)
REMARK    1  A    between atoms: C_1  and  O_2 
REMARK    2  A    between atoms: O_2  and  C_3 
REMARK    3  A    between atoms: C_6  and  C_9 
REMARK    4  A    between atoms: N_10  and  C_11 
ROOT
ATOM      1  C   LIG d   1       9.061   2.486  -3.992  0.00  0.00     0.064 A 
ATOM      2  C   LIG d   1       9.844   2.471  -5.145  0.00  0.00    -0.035 A 
ATOM      3  C   LIG d   1       9.750   1.455  -6.076  0.00  0.00    -0.038 A 
ATOM      4  C   LIG d   1       8.832   0.425  -5.825  0.00  0.00     0.041 A 
ATOM      5  C   LIG d   1       8.019   0.468  -4.683  0.00  0.00    -0.011 A 
ATOM      6  C   LIG d   1       8.129   1.467  -3.740  0.00  0.00    -0.031 A 
ATOM      7  C   LIG d   1       7.053  -0.681  -4.749  0.00  0.00     0.064 C 
ATOM      8  C   LIG d   1       5.656  -0.075  -5.077  0.00  0.00     0.004 C 
ATOM      9  C   LIG d   1       4.785  -0.431  -3.851  0.00  0.00    -0.030 C 
ATOM     10  C   LIG d   1       6.851  -1.398  -3.436  0.00  0.00    -0.008 C 
ATOM     11  H   LIG d   1       7.106  -0.710  -2.631  0.00  0.00     0.086 H 
ATOM     12  C   LIG d   1       7.639  -2.673  -3.213  0.00  0.00    -0.002 C 
ATOM     13  C   LIG d   1       7.489  -3.542  -4.477  0.00  0.00    -0.003 C 
ATOM     14  H   LIG d   1       7.902  -4.537  -4.315  0.00  0.00     0.035 H 
ATOM     15  C   LIG d   1       8.244  -2.798  -5.556  0.00  0.00     0.013 C 
ATOM     16  H   LIG d   1       9.190  -2.487  -5.113  0.00  0.00     0.035 H 
ATOM     17  C   LIG d   1       7.521  -1.507  -5.932  0.00  0.00     0.052 C 
ATOM     18  H   LIG d   1       6.713  -1.678  -6.643  0.00  0.00     0.052 H 
ATOM     19  N   LIG d   1       8.643  -0.733  -6.542  0.00  0.00    -0.267 N 
ATOM     20  C   LIG d   1       9.315  -1.272  -7.578  0.00  0.00     0.223 C 
ATOM     21  O   LIG d   1       9.875  -0.535  -8.362  0.00  0.00    -0.275 OA
ATOM     22  C   LIG d   1       9.391  -2.754  -7.794  0.00  0.00     0.051 C 
ATOM     23  C   LIG d   1       8.593  -3.583  -6.796  0.00  0.00     0.072 C 
ATOM     24  H   LIG d   1       9.229  -4.409  -6.479  0.00  0.00     0.060 H 
ATOM     25  O   LIG d   1       7.443  -4.149  -7.417  0.00  0.00    -0.372 OA
ATOM     26  C   LIG d   1       6.759  -5.125  -6.623  0.00  0.00     0.067 C 
ATOM     27  C   LIG d   1       5.695  -4.425  -5.824  0.00  0.00    -0.054 C 
ATOM     28  C   LIG d   1       6.029  -3.621  -4.836  0.00  0.00    -0.023 C 
ATOM     29  C   LIG d   1       4.972  -2.762  -4.237  0.00  0.00    -0.009 C 
ATOM     30  H   LIG d   1      10.544   3.276  -5.316  0.00  0.00     0.064 H 
ATOM     31  H   LIG d   1      10.361   1.454  -6.966  0.00  0.00     0.064 H 
ATOM     32  H   LIG d   1       7.521   1.468  -2.848  0.00  0.00     0.064 H 
ATOM     33  H   LIG d   1       5.728   1.007  -5.192  0.00  0.00     0.033 H 
ATOM     34  H   LIG d   1       5.247  -0.527  -5.981  0.00  0.00     0.033 H 
ATOM     35  H   LIG d   1       4.842   0.355  -3.098  0.00  0.00     0.082 H 
ATOM     36  H   LIG d   1       3.750  -0.601  -4.151  0.00  0.00     0.082 H 
ATOM     37  H   LIG d   1       8.690  -2.434  -3.051  0.00  0.00     0.033 H 
ATOM     38  H   LIG d   1       7.242  -3.205  -2.349  0.00  0.00     0.033 H 
ATOM     39  H   LIG d   1      10.437  -3.057  -7.735  0.00  0.00     0.038 H 
ATOM     40  H   LIG d   1       9.026  -2.974  -8.796  0.00  0.00     0.038 H 
ATOM     41  H   LIG d   1       7.464  -5.611  -5.950  0.00  0.00     0.060 H 
ATOM     42  H   LIG d   1       6.299  -5.870  -7.273  0.00  0.00     0.060 H 
ATOM     43  H   LIG d   1       4.653  -4.583  -6.060  0.00  0.00     0.060 H 
ATOM     44  H   LIG d   1       4.289  -3.409  -3.685  0.00  0.00     0.086 H 
ATOM     45  H   LIG d   1       4.410  -2.307  -5.051  0.00  0.00     0.086 H 
ATOM     46  N   LIG d   1       5.400  -1.631  -3.366  0.00  0.00     0.241 N 
ATOM     47  H   LIG d   1       5.121  -1.819  -2.396  0.00  0.00     0.204 HD
ENDROOT
BRANCH   1  48
ATOM     48  N   LIG d   1       9.206   3.505  -3.091  0.00  0.00    -0.255 NA
ATOM     49  C   LIG d   1      10.366   4.080  -2.940  0.00  0.00     0.035 C 
ATOM     50  H   LIG d   1      11.213   3.752  -3.525  0.00  0.00     0.084 H 
BRANCH  49  51
ATOM     51  C   LIG d   1      10.523   5.176  -1.971  0.00  0.00    -0.007 A 
ATOM     52  C   LIG d   1      11.484   5.086  -0.958  0.00  0.00    -0.050 A 
ATOM     53  C   LIG d   1      11.630   6.115  -0.056  0.00  0.00    -0.019 A 
ATOM     54  H   LIG d   1      12.113   4.209  -0.885  0.00  0.00     0.062 H 
ATOM     55  C   LIG d   1      10.818   7.241  -0.145  0.00  0.00     0.120 A 
ATOM     56  H   LIG d   1      12.374   6.048   0.724  0.00  0.00     0.065 H 
ATOM     57  C   LIG d   1       9.862   7.335  -1.149  0.00  0.00    -0.019 A 
ATOM     58  C   LIG d   1       9.712   6.313  -2.059  0.00  0.00    -0.050 A 
ATOM     59  H   LIG d   1       9.237   8.213  -1.217  0.00  0.00     0.065 H 
ATOM     60  H   LIG d   1       8.969   6.388  -2.839  0.00  0.00     0.062 H 
BRANCH  55  61
ATOM     61  O   LIG d   1      10.963   8.251   0.749  0.00  0.00    -0.495 OA
BRANCH  61  62
ATOM     62  C   LIG d   1      11.501   9.480   0.259  0.00  0.00     0.079 C 
ATOM     63  H   LIG d   1      10.799   9.930  -0.444  0.00  0.00     0.066 H 
ATOM     64  H   LIG d   1      11.669  10.163   1.091  0.00  0.00     0.066 H 
ATOM     65  H   LIG d   1      12.447   9.286  -0.249  0.00  0.00     0.066 H 
ENDBRANCH  61  62
ENDBRANCH  55  61
ENDBRANCH  49  51
ENDBRANCH   1  48
TORSDOF 4
ENDMDL
MODEL 8
REMARK VINA RESULT:      -6.4     13.366     15.372
REMARK  4 active torsions:
REMARK  status: ('A' for Active; 'I' for Inactive)
REMARK    1  A    between atoms: C_1  and  O_2 
REMARK    2  A    between atoms: O_2  and  C_3 
REMARK    3  A    between atoms: C_6  and  C_9 
REMARK    4  A    between atoms: N_10  and  C_11 
ROOT
ATOM      1  C   LIG d   1      -3.738  -0.543 -13.226  0.00  0.00     0.064 A 
ATOM      2  C   LIG d   1      -2.372  -0.499 -13.504  0.00  0.00    -0.035 A 
ATOM      3  C   LIG d   1      -1.556  -1.596 -13.312  0.00  0.00    -0.038 A 
ATOM      4  C   LIG d   1      -2.146  -2.771 -12.824  0.00  0.00     0.041 A 
ATOM      5  C   LIG d   1      -3.528  -2.819 -12.586  0.00  0.00    -0.011 A 
ATOM      6  C   LIG d   1      -4.341  -1.719 -12.752  0.00  0.00    -0.031 A 
ATOM      7  C   LIG d   1      -3.891  -4.225 -12.204  0.00  0.00     0.064 C 
ATOM      8  C   LIG d   1      -4.649  -4.839 -13.418  0.00  0.00     0.004 C 
ATOM      9  C   LIG d   1      -6.060  -5.157 -12.872  0.00  0.00    -0.030 C 
ATOM     10  C   LIG d   1      -4.873  -4.324 -11.062  0.00  0.00    -0.008 C 
ATOM     11  H   LIG d   1      -5.435  -3.392 -11.015  0.00  0.00     0.086 H 
ATOM     12  C   LIG d   1      -4.308  -4.585  -9.681  0.00  0.00    -0.002 C 
ATOM     13  C   LIG d   1      -3.304  -5.749  -9.799  0.00  0.00    -0.003 C 
ATOM     14  H   LIG d   1      -2.983  -6.086  -8.814  0.00  0.00     0.035 H 
ATOM     15  C   LIG d   1      -2.147  -5.189 -10.597  0.00  0.00     0.013 C 
ATOM     16  H   LIG d   1      -1.929  -4.208 -10.178  0.00  0.00     0.035 H 
ATOM     17  C   LIG d   1      -2.560  -4.935 -12.045  0.00  0.00     0.052 C 
ATOM     18  H   LIG d   1      -2.516  -5.839 -12.652  0.00  0.00     0.052 H 
ATOM     19  N   LIG d   1      -1.525  -3.941 -12.454  0.00  0.00    -0.267 N 
ATOM     20  C   LIG d   1      -0.225  -4.272 -12.337  0.00  0.00     0.223 C 
ATOM     21  O   LIG d   1       0.588  -3.728 -13.053  0.00  0.00    -0.275 OA
ATOM     22  C   LIG d   1       0.250  -5.294 -11.347  0.00  0.00     0.051 C 
ATOM     23  C   LIG d   1      -0.858  -5.969 -10.550  0.00  0.00     0.072 C 
ATOM     24  H   LIG d   1      -0.540  -5.992  -9.508  0.00  0.00     0.060 H 
ATOM     25  O   LIG d   1      -1.029  -7.321 -10.969  0.00  0.00    -0.372 OA
ATOM     26  C   LIG d   1      -1.886  -8.100 -10.126  0.00  0.00     0.067 C 
ATOM     27  C   LIG d   1      -3.290  -8.002 -10.657  0.00  0.00    -0.054 C 
ATOM     28  C   LIG d   1      -3.957  -6.871 -10.562  0.00  0.00    -0.023 C 
ATOM     29  C   LIG d   1      -5.235  -6.740 -11.312  0.00  0.00    -0.009 C 
ATOM     30  H   LIG d   1      -1.940   0.417 -13.879  0.00  0.00     0.064 H 
ATOM     31  H   LIG d   1      -0.499  -1.552 -13.530  0.00  0.00     0.064 H 
ATOM     32  H   LIG d   1      -5.397  -1.759 -12.531  0.00  0.00     0.064 H 
ATOM     33  H   LIG d   1      -4.711  -4.117 -14.233  0.00  0.00     0.033 H 
ATOM     34  H   LIG d   1      -4.155  -5.751 -13.755  0.00  0.00     0.033 H 
ATOM     35  H   LIG d   1      -6.726  -4.305 -13.009  0.00  0.00     0.082 H 
ATOM     36  H   LIG d   1      -6.467  -6.046 -13.354  0.00  0.00     0.082 H 
ATOM     37  H   LIG d   1      -3.799  -3.693  -9.316  0.00  0.00     0.033 H 
ATOM     38  H   LIG d   1      -5.113  -4.858  -8.998  0.00  0.00     0.033 H 
ATOM     39  H   LIG d   1       0.930  -4.807 -10.648  0.00  0.00     0.038 H 
ATOM     40  H   LIG d   1       0.804  -6.062 -11.886  0.00  0.00     0.038 H 
ATOM     41  H   LIG d   1      -1.850  -7.713  -9.108  0.00  0.00     0.060 H 
ATOM     42  H   LIG d   1      -1.562  -9.140 -10.136  0.00  0.00     0.060 H 
ATOM     43  H   LIG d   1      -3.752  -8.862 -11.117  0.00  0.00     0.060 H 
ATOM     44  H   LIG d   1      -5.969  -7.393 -10.839  0.00  0.00     0.086 H 
ATOM     45  H   LIG d   1      -5.068  -7.110 -12.323  0.00  0.00     0.086 H 
ATOM     46  N   LIG d   1      -5.813  -5.377 -11.477  0.00  0.00     0.241 N 
ATOM     47  H   LIG d   1      -6.683  -5.305 -10.936  0.00  0.00     0.204 HD
ENDROOT
BRANCH   1  48
ATOM     48  N   LIG d   1      -4.500   0.578 -13.415  0.00  0.00    -0.255 NA
ATOM     49  C   LIG d   1      -3.985   1.758 -13.210  0.00  0.00     0.035 C 
ATOM     50  H   LIG d   1      -2.958   1.851 -12.891  0.00  0.00     0.084 H 
BRANCH  49  51
ATOM     51  C   LIG d   1      -4.804   2.963 -13.412  0.00  0.00    -0.007 A 
ATOM     52  C   LIG d   1      -6.194   2.899 -13.268  0.00  0.00    -0.050 A 
ATOM     53  C   LIG d   1      -6.957   4.030 -13.454  0.00  0.00    -0.019 A 
ATOM     54  H   LIG d   1      -6.669   1.963 -13.008  0.00  0.00     0.062 H 
ATOM     55  C   LIG d   1      -6.348   5.233 -13.793  0.00  0.00     0.120 A 
ATOM     56  H   LIG d   1      -8.030   3.983 -13.340  0.00  0.00     0.065 H 
ATOM     57  C   LIG d   1      -4.968   5.302 -13.937  0.00  0.00    -0.019 A 
ATOM     58  C   LIG d   1      -4.196   4.177 -13.748  0.00  0.00    -0.050 A 
ATOM     59  H   LIG d   1      -4.499   6.240 -14.196  0.00  0.00     0.065 H 
ATOM     60  H   LIG d   1      -3.124   4.232 -13.860  0.00  0.00     0.062 H 
BRANCH  55  61
ATOM     61  O   LIG d   1      -7.104   6.345 -13.980  0.00  0.00    -0.495 OA
BRANCH  61  62
ATOM     62  C   LIG d   1      -6.410   7.569 -14.226  0.00  0.00     0.079 C 
ATOM     63  H   LIG d   1      -6.574   7.879 -15.259  0.00  0.00     0.066 H 
ATOM     64  H   LIG d   1      -6.780   8.340 -13.552  0.00  0.00     0.066 H 
ATOM     65  H   LIG d   1      -5.342   7.421 -14.058  0.00  0.00     0.066 H 
ENDBRANCH  61  62
ENDBRANCH  55  61
ENDBRANCH  49  51
ENDBRANCH   1  48
TORSDOF 4
ENDMDL
MODEL 9
REMARK VINA RESULT:      -6.3      4.884      5.710
REMARK  4 active torsions:
REMARK  status: ('A' for Active; 'I' for Inactive)
REMARK    1  A    between atoms: C_1  and  O_2 
REMARK    2  A    between atoms: O_2  and  C_3 
REMARK    3  A    between atoms: C_6  and  C_9 
REMARK    4  A    between atoms: N_10  and  C_11 
ROOT
ATOM      1  C   LIG d   1       6.009   1.699  -9.013  0.00  0.00     0.064 A 
ATOM      2  C   LIG d   1       4.920   1.482  -9.856  0.00  0.00    -0.035 A 
ATOM      3  C   LIG d   1       4.136   0.350  -9.753  0.00  0.00    -0.038 A 
ATOM      4  C   LIG d   1       4.470  -0.587  -8.765  0.00  0.00     0.041 A 
ATOM      5  C   LIG d   1       5.542  -0.342  -7.895  0.00  0.00    -0.011 A 
ATOM      6  C   LIG d   1       6.342   0.774  -8.011  0.00  0.00    -0.031 A 
ATOM      7  C   LIG d   1       5.577  -1.438  -6.869  0.00  0.00     0.064 C 
ATOM      8  C   LIG d   1       5.082  -0.817  -5.529  0.00  0.00     0.004 C 
ATOM      9  C   LIG d   1       6.290  -0.949  -4.573  0.00  0.00    -0.030 C 
ATOM     10  C   LIG d   1       6.962  -1.950  -6.554  0.00  0.00    -0.008 C 
ATOM     11  H   LIG d   1       7.678  -1.168  -6.804  0.00  0.00     0.086 H 
ATOM     12  C   LIG d   1       7.409  -3.218  -7.253  0.00  0.00    -0.002 C 
ATOM     13  C   LIG d   1       6.271  -4.250  -7.121  0.00  0.00    -0.003 C 
ATOM     14  H   LIG d   1       6.596  -5.231  -7.466  0.00  0.00     0.035 H 
ATOM     15  C   LIG d   1       5.148  -3.706  -7.976  0.00  0.00     0.013 C 
ATOM     16  H   LIG d   1       5.601  -3.382  -8.913  0.00  0.00     0.035 H 
ATOM     17  C   LIG d   1       4.552  -2.447  -7.351  0.00  0.00     0.052 C 
ATOM     18  H   LIG d   1       3.823  -2.676  -6.574  0.00  0.00     0.052 H 
ATOM     19  N   LIG d   1       3.911  -1.825  -8.547  0.00  0.00    -0.267 N 
ATOM     20  C   LIG d   1       3.003  -2.538  -9.242  0.00  0.00     0.223 C 
ATOM     21  O   LIG d   1       2.161  -1.950  -9.886  0.00  0.00    -0.275 OA
ATOM     22  C   LIG d   1       3.002  -4.038  -9.243  0.00  0.00     0.051 C 
ATOM     23  C   LIG d   1       4.053  -4.675  -8.345  0.00  0.00     0.072 C 
ATOM     24  H   LIG d   1       4.521  -5.479  -8.914  0.00  0.00     0.060 H 
ATOM     25  O   LIG d   1       3.447  -5.266  -7.199  0.00  0.00    -0.372 OA
ATOM     26  C   LIG d   1       4.326  -6.084  -6.417  0.00  0.00     0.067 C 
ATOM     27  C   LIG d   1       4.952  -5.224  -5.354  0.00  0.00    -0.054 C 
ATOM     28  C   LIG d   1       5.837  -4.306  -5.681  0.00  0.00    -0.023 C 
ATOM     29  C   LIG d   1       6.245  -3.319  -4.645  0.00  0.00    -0.009 C 
ATOM     30  H   LIG d   1       4.682   2.218 -10.609  0.00  0.00     0.064 H 
ATOM     31  H   LIG d   1       3.293   0.191 -10.411  0.00  0.00     0.064 H 
ATOM     32  H   LIG d   1       7.186   0.934  -7.357  0.00  0.00     0.064 H 
ATOM     33  H   LIG d   1       4.822   0.233  -5.670  0.00  0.00     0.033 H 
ATOM     34  H   LIG d   1       4.227  -1.372  -5.144  0.00  0.00     0.033 H 
ATOM     35  H   LIG d   1       6.928  -0.068  -4.636  0.00  0.00     0.082 H 
ATOM     36  H   LIG d   1       5.953  -1.109  -3.548  0.00  0.00     0.082 H 
ATOM     37  H   LIG d   1       7.601  -3.011  -8.306  0.00  0.00     0.033 H 
ATOM     38  H   LIG d   1       8.313  -3.601  -6.779  0.00  0.00     0.033 H 
ATOM     39  H   LIG d   1       3.166  -4.381 -10.265  0.00  0.00     0.038 H 
ATOM     40  H   LIG d   1       2.019  -4.380  -8.921  0.00  0.00     0.038 H 
ATOM     41  H   LIG d   1       5.102  -6.503  -7.056  0.00  0.00     0.060 H 
ATOM     42  H   LIG d   1       3.758  -6.889  -5.951  0.00  0.00     0.060 H 
ATOM     43  H   LIG d   1       4.676  -5.362  -4.320  0.00  0.00     0.060 H 
ATOM     44  H   LIG d   1       6.838  -3.845  -3.897  0.00  0.00     0.086 H 
ATOM     45  H   LIG d   1       5.341  -2.956  -4.155  0.00  0.00     0.086 H 
ATOM     46  N   LIG d   1       6.974  -2.098  -5.090  0.00  0.00     0.241 N 
ATOM     47  H   LIG d   1       7.941  -2.132  -4.748  0.00  0.00     0.204 HD
ENDROOT
BRANCH   1  48
ATOM     48  N   LIG d   1       6.766   2.828  -9.169  0.00  0.00    -0.255 NA
ATOM     49  C   LIG d   1       8.042   2.797  -8.902  0.00  0.00     0.035 C 
ATOM     50  H   LIG d   1       8.501   1.882  -8.559  0.00  0.00     0.084 H 
BRANCH  49  51
ATOM     51  C   LIG d   1       8.857   4.011  -9.068  0.00  0.00    -0.007 A 
ATOM     52  C   LIG d   1       8.294   5.165  -9.623  0.00  0.00    -0.050 A 
ATOM     53  C   LIG d   1       9.058   6.299  -9.772  0.00  0.00    -0.019 A 
ATOM     54  H   LIG d   1       7.258   5.167  -9.931  0.00  0.00     0.062 H 
ATOM     55  C   LIG d   1      10.393   6.297  -9.381  0.00  0.00     0.120 A 
ATOM     56  H   LIG d   1       8.623   7.192 -10.197  0.00  0.00     0.065 H 
ATOM     57  C   LIG d   1      10.958   5.154  -8.830  0.00  0.00    -0.019 A 
ATOM     58  C   LIG d   1      10.200   4.015  -8.672  0.00  0.00    -0.050 A 
ATOM     59  H   LIG d   1      11.994   5.158  -8.524  0.00  0.00     0.065 H 
ATOM     60  H   LIG d   1      10.639   3.127  -8.243  0.00  0.00     0.062 H 
BRANCH  55  61
ATOM     61  O   LIG d   1      11.145   7.417  -9.535  0.00  0.00    -0.495 OA
BRANCH  61  62
ATOM     62  C   LIG d   1      10.685   8.382 -10.483  0.00  0.00     0.079 C 
ATOM     63  H   LIG d   1      10.988   9.379 -10.163  0.00  0.00     0.066 H 
ATOM     64  H   LIG d   1      11.116   8.168 -11.460  0.00  0.00     0.066 H 
ATOM     65  H   LIG d   1       9.597   8.337 -10.548  0.00  0.00     0.066 H 
ENDBRANCH  61  62
ENDBRANCH  55  61
ENDBRANCH  49  51
ENDBRANCH   1  48
TORSDOF 4
ENDMDL
