MODEL 1
REMARK VINA RESULT:      -5.6      0.000      0.000
REMARK  12 active torsions:
REMARK  status: ('A' for Active; 'I' for Inactive)
REMARK    1  A    between atoms: C_6  and  O_7 
REMARK    2  A    between atoms: O_7  and  C_8 
REMARK    3  A    between atoms: C_8  and  C_9 
REMARK    4  A    between atoms: C_9  and  C_11 
REMARK    5  A    between atoms: C_9  and  O_16 
REMARK    6  A    between atoms: C_11  and  O_12 
REMARK    7  A    between atoms: O_12  and  C_13 
REMARK    8  A    between atoms: C_13  and  C_14 
REMARK    9  A    between atoms: C_14  and  O_15 
REMARK   10  A    between atoms: C_17  and  C_21 
REMARK   11  A    between atoms: C_21  and  C_22 
REMARK   12  A    between atoms: C_22  and  N_43 
ROOT
ATOM      1  C   LIG d   1       6.474  -4.217  -5.341  0.00  0.00    -0.018 A 
ATOM      2  C   LIG d   1       7.317  -3.171  -5.042  0.00  0.00    -0.034 A 
ATOM      3  C   LIG d   1       6.863  -2.113  -4.261  0.00  0.00     0.047 A 
ATOM      4  C   LIG d   1       5.543  -2.126  -3.776  0.00  0.00     0.006 A 
ATOM      5  C   LIG d   1       4.694  -3.189  -4.092  0.00  0.00    -0.011 A 
ATOM      6  C   LIG d   1       5.163  -4.230  -4.868  0.00  0.00     0.121 A 
ATOM      7  C   LIG d   1       5.381  -0.890  -3.007  0.00  0.00    -0.017 A 
ATOM      8  C   LIG d   1       6.554  -0.239  -3.058  0.00  0.00     0.006 A 
ATOM      9  N   LIG d   1       7.452  -0.953  -3.803  0.00  0.00    -0.360 N 
ATOM     10  H   LIG d   1       8.367  -0.685  -3.983  0.00  0.00     0.165 HD
ATOM     11  H   LIG d   1       6.831  -5.036  -5.947  0.00  0.00     0.066 H 
ATOM     12  H   LIG d   1       8.330  -3.170  -5.414  0.00  0.00     0.064 H 
ATOM     13  H   LIG d   1       3.678  -3.200  -3.725  0.00  0.00     0.066 H 
ATOM     14  H   LIG d   1       6.759   0.708  -2.582  0.00  0.00     0.081 H 
ENDROOT
BRANCH   6  15
ATOM     15  O   LIG d   1       4.344  -5.271  -5.172  0.00  0.00    -0.489 OA
BRANCH  15  16
ATOM     16  C   LIG d   1       4.236  -5.631  -6.551  0.00  0.00     0.118 C 
ATOM     17  H   LIG d   1       3.191  -5.581  -6.859  0.00  0.00     0.072 H 
ATOM     18  H   LIG d   1       4.826  -4.940  -7.153  0.00  0.00     0.072 H 
BRANCH  16  19
ATOM     19  C   LIG d   1       4.759  -7.055  -6.749  0.00  0.00     0.112 C 
ATOM     20  H   LIG d   1       5.662  -7.028  -7.359  0.00  0.00     0.065 H 
BRANCH  19  21
ATOM     21  C   LIG d   1       5.082  -7.673  -5.387  0.00  0.00     0.077 C 
ATOM     22  H   LIG d   1       6.122  -7.998  -5.372  0.00  0.00     0.059 H 
ATOM     23  H   LIG d   1       4.921  -6.931  -4.604  0.00  0.00     0.059 H 
BRANCH  21  24
ATOM     24  O   LIG d   1       4.229  -8.797  -5.161  0.00  0.00    -0.375 OA
BRANCH  24  25
ATOM     25  C   LIG d   1       4.479  -9.476  -3.927  0.00  0.00     0.071 C 
ATOM     26  H   LIG d   1       5.450  -9.967  -3.974  0.00  0.00     0.058 H 
ATOM     27  H   LIG d   1       4.473  -8.758  -3.109  0.00  0.00     0.058 H 
BRANCH  25  28
ATOM     28  C   LIG d   1       3.389 -10.524  -3.694  0.00  0.00     0.068 C 
ATOM     29  H   LIG d   1       2.988 -10.851  -4.654  0.00  0.00     0.058 H 
ATOM     30  H   LIG d   1       3.813 -11.379  -3.168  0.00  0.00     0.058 H 
BRANCH  28  31
ATOM     31  O   LIG d   1       2.338  -9.954  -2.910  0.00  0.00    -0.393 OA
ATOM     32  H   LIG d   1       1.822 -10.603  -2.413  0.00  0.00     0.209 HD
ENDBRANCH  28  31
ENDBRANCH  25  28
ENDBRANCH  24  25
ENDBRANCH  21  24
ENDBRANCH  19  21
BRANCH  19  33
ATOM     33  O   LIG d   1       3.763  -7.841  -7.405  0.00  0.00    -0.386 OA
ATOM     34  H   LIG d   1       4.071  -8.271  -8.214  0.00  0.00     0.210 HD
ENDBRANCH  19  33
ENDBRANCH  16  19
ENDBRANCH  15  16
ENDBRANCH   6  15
BRANCH   7  35
ATOM     35  C   LIG d   1       4.137  -0.439  -2.287  0.00  0.00     0.015 C 
ATOM     36  H   LIG d   1       4.412   0.216  -1.460  0.00  0.00     0.037 H 
ATOM     37  H   LIG d   1       3.605  -1.307  -1.900  0.00  0.00     0.037 H 
BRANCH  35  38
ATOM     38  C   LIG d   1       3.232   0.321  -3.259  0.00  0.00    -0.031 C 
ATOM     39  H   LIG d   1       2.197   0.245  -2.927  0.00  0.00     0.082 H 
ATOM     40  H   LIG d   1       3.326  -0.110  -4.256  0.00  0.00     0.082 H 
BRANCH  38  41
ATOM     41  N   LIG d   1       3.627   1.741  -3.274  0.00  0.00     0.219 N 
ATOM     42  H   LIG d   1       2.889   2.312  -2.866  0.00  0.00     0.199 HD
ATOM     43  H   LIG d   1       4.487   1.869  -2.742  0.00  0.00     0.199 HD
ATOM     44  H   LIG d   1       3.784   2.037  -4.243  0.00  0.00     0.199 HD
ENDBRANCH  38  41
ENDBRANCH  35  38
ENDBRANCH   7  35
TORSDOF 12
ENDMDL
MODEL 2
REMARK VINA RESULT:      -5.5     12.104     15.001
REMARK  12 active torsions:
REMARK  status: ('A' for Active; 'I' for Inactive)
REMARK    1  A    between atoms: C_6  and  O_7 
REMARK    2  A    between atoms: O_7  and  C_8 
REMARK    3  A    between atoms: C_8  and  C_9 
REMARK    4  A    between atoms: C_9  and  C_11 
REMARK    5  A    between atoms: C_9  and  O_16 
REMARK    6  A    between atoms: C_11  and  O_12 
REMARK    7  A    between atoms: O_12  and  C_13 
REMARK    8  A    between atoms: C_13  and  C_14 
REMARK    9  A    between atoms: C_14  and  O_15 
REMARK   10  A    between atoms: C_17  and  C_21 
REMARK   11  A    between atoms: C_21  and  C_22 
REMARK   12  A    between atoms: C_22  and  N_43 
ROOT
ATOM      1  C   LIG d   1      10.044   5.460  -1.918  0.00  0.00    -0.018 A 
ATOM      2  C   LIG d   1      10.395   4.727  -3.029  0.00  0.00    -0.034 A 
ATOM      3  C   LIG d   1      10.251   5.277  -4.298  0.00  0.00     0.047 A 
ATOM      4  C   LIG d   1       9.754   6.585  -4.435  0.00  0.00     0.006 A 
ATOM      5  C   LIG d   1       9.394   7.317  -3.301  0.00  0.00    -0.011 A 
ATOM      6  C   LIG d   1       9.545   6.754  -2.049  0.00  0.00     0.121 A 
ATOM      7  C   LIG d   1       9.721   6.859  -5.873  0.00  0.00    -0.017 A 
ATOM      8  C   LIG d   1      10.186   5.762  -6.493  0.00  0.00     0.006 A 
ATOM      9  N   LIG d   1      10.507   4.805  -5.569  0.00  0.00    -0.360 N 
ATOM     10  H   LIG d   1      10.863   3.928  -5.776  0.00  0.00     0.165 HD
ATOM     11  H   LIG d   1      10.158   5.029  -0.934  0.00  0.00     0.066 H 
ATOM     12  H   LIG d   1      10.780   3.725  -2.916  0.00  0.00     0.064 H 
ATOM     13  H   LIG d   1       9.008   8.321  -3.402  0.00  0.00     0.066 H 
ATOM     14  H   LIG d   1      10.290   5.651  -7.561  0.00  0.00     0.081 H 
ENDROOT
BRANCH   6  15
ATOM     15  O   LIG d   1       9.204   7.464  -0.941  0.00  0.00    -0.489 OA
BRANCH  15  16
ATOM     16  C   LIG d   1      10.137   8.446  -0.486  0.00  0.00     0.118 C 
ATOM     17  H   LIG d   1      10.505   8.168   0.501  0.00  0.00     0.072 H 
ATOM     18  H   LIG d   1      10.973   8.502  -1.183  0.00  0.00     0.072 H 
BRANCH  16  19
ATOM     19  C   LIG d   1       9.446   9.809  -0.408  0.00  0.00     0.112 C 
ATOM     20  H   LIG d   1       9.362  10.114   0.634  0.00  0.00     0.065 H 
BRANCH  19  21
ATOM     21  C   LIG d   1      10.271  10.843  -1.178  0.00  0.00     0.077 C 
ATOM     22  H   LIG d   1      10.108  11.831  -0.749  0.00  0.00     0.059 H 
ATOM     23  H   LIG d   1      11.329  10.586  -1.111  0.00  0.00     0.059 H 
BRANCH  21  24
ATOM     24  O   LIG d   1       9.868  10.847  -2.549  0.00  0.00    -0.375 OA
BRANCH  24  25
ATOM     25  C   LIG d   1       9.896  12.141  -3.158  0.00  0.00     0.071 C 
ATOM     26  H   LIG d   1      10.522  12.807  -2.566  0.00  0.00     0.058 H 
ATOM     27  H   LIG d   1      10.303  12.059  -4.166  0.00  0.00     0.058 H 
BRANCH  25  28
ATOM     28  C   LIG d   1       8.475  12.703  -3.226  0.00  0.00     0.068 C 
ATOM     29  H   LIG d   1       8.330  13.423  -2.420  0.00  0.00     0.058 H 
ATOM     30  H   LIG d   1       8.324  13.197  -4.186  0.00  0.00     0.058 H 
BRANCH  28  31
ATOM     31  O   LIG d   1       7.533  11.637  -3.085  0.00  0.00    -0.393 OA
ATOM     32  H   LIG d   1       7.317  11.190  -3.914  0.00  0.00     0.209 HD
ENDBRANCH  28  31
ENDBRANCH  25  28
ENDBRANCH  24  25
ENDBRANCH  21  24
ENDBRANCH  19  21
BRANCH  19  33
ATOM     33  O   LIG d   1       8.142   9.715  -0.985  0.00  0.00    -0.386 OA
ATOM     34  H   LIG d   1       7.527   9.167  -0.480  0.00  0.00     0.210 HD
ENDBRANCH  19  33
ENDBRANCH  16  19
ENDBRANCH  15  16
ENDBRANCH   6  15
BRANCH   7  35
ATOM     35  C   LIG d   1       9.260   8.132  -6.534  0.00  0.00     0.015 C 
ATOM     36  H   LIG d   1       9.950   8.940  -6.287  0.00  0.00     0.037 H 
ATOM     37  H   LIG d   1       8.262   8.386  -6.176  0.00  0.00     0.037 H 
BRANCH  35  38
ATOM     38  C   LIG d   1       9.224   7.937  -8.051  0.00  0.00    -0.031 C 
ATOM     39  H   LIG d   1       8.736   6.991  -8.284  0.00  0.00     0.082 H 
ATOM     40  H   LIG d   1      10.243   7.926  -8.440  0.00  0.00     0.082 H 
BRANCH  38  41
ATOM     41  N   LIG d   1       8.453   9.036  -8.659  0.00  0.00     0.219 N 
ATOM     42  H   LIG d   1       8.279   9.764  -7.967  0.00  0.00     0.199 HD
ATOM     43  H   LIG d   1       8.967   9.430  -9.444  0.00  0.00     0.199 HD
ATOM     44  H   LIG d   1       7.554   8.671  -8.994  0.00  0.00     0.199 HD
ENDBRANCH  38  41
ENDBRANCH  35  38
ENDBRANCH   7  35
TORSDOF 12
ENDMDL
MODEL 3
REMARK VINA RESULT:      -5.5      6.610     10.194
REMARK  12 active torsions:
REMARK  status: ('A' for Active; 'I' for Inactive)
REMARK    1  A    between atoms: C_6  and  O_7 
REMARK    2  A    between atoms: O_7  and  C_8 
REMARK    3  A    between atoms: C_8  and  C_9 
REMARK    4  A    between atoms: C_9  and  C_11 
REMARK    5  A    between atoms: C_9  and  O_16 
REMARK    6  A    between atoms: C_11  and  O_12 
REMARK    7  A    between atoms: O_12  and  C_13 
REMARK    8  A    between atoms: C_13  and  C_14 
REMARK    9  A    between atoms: C_14  and  O_15 
REMARK   10  A    between atoms: C_17  and  C_21 
REMARK   11  A    between atoms: C_21  and  C_22 
REMARK   12  A    between atoms: C_22  and  N_43 
ROOT
ATOM      1  C   LIG d   1       8.939   0.691  -5.011  0.00  0.00    -0.018 A 
ATOM      2  C   LIG d   1       8.404  -0.576  -4.956  0.00  0.00    -0.034 A 
ATOM      3  C   LIG d   1       7.275  -0.820  -4.181  0.00  0.00     0.047 A 
ATOM      4  C   LIG d   1       6.684   0.236  -3.465  0.00  0.00     0.006 A 
ATOM      5  C   LIG d   1       7.240   1.516  -3.522  0.00  0.00    -0.011 A 
ATOM      6  C   LIG d   1       8.360   1.739  -4.297  0.00  0.00     0.121 A 
ATOM      7  C   LIG d   1       5.538  -0.344  -2.759  0.00  0.00    -0.017 A 
ATOM      8  C   LIG d   1       5.496  -1.646  -3.081  0.00  0.00     0.006 A 
ATOM      9  N   LIG d   1       6.526  -1.951  -3.929  0.00  0.00    -0.360 N 
ATOM     10  H   LIG d   1       6.703  -2.829  -4.299  0.00  0.00     0.165 HD
ATOM     11  H   LIG d   1       9.815   0.877  -5.615  0.00  0.00     0.066 H 
ATOM     12  H   LIG d   1       8.860  -1.380  -5.513  0.00  0.00     0.064 H 
ATOM     13  H   LIG d   1       6.792   2.328  -2.969  0.00  0.00     0.066 H 
ATOM     14  H   LIG d   1       4.760  -2.350  -2.724  0.00  0.00     0.081 H 
ENDROOT
BRANCH   6  15
ATOM     15  O   LIG d   1       8.902   2.984  -4.363  0.00  0.00    -0.489 OA
BRANCH  15  16
ATOM     16  C   LIG d   1      10.327   3.070  -4.418  0.00  0.00     0.118 C 
ATOM     17  H   LIG d   1      10.750   2.068  -4.491  0.00  0.00     0.072 H 
ATOM     18  H   LIG d   1      10.622   3.653  -5.290  0.00  0.00     0.072 H 
BRANCH  16  19
ATOM     19  C   LIG d   1      10.846   3.750  -3.149  0.00  0.00     0.112 C 
ATOM     20  H   LIG d   1      11.860   4.109  -3.318  0.00  0.00     0.065 H 
BRANCH  19  21
ATOM     21  C   LIG d   1       9.939   4.932  -2.799  0.00  0.00     0.077 C 
ATOM     22  H   LIG d   1       9.495   5.333  -3.710  0.00  0.00     0.059 H 
ATOM     23  H   LIG d   1       9.149   4.598  -2.125  0.00  0.00     0.059 H 
BRANCH  21  24
ATOM     24  O   LIG d   1      10.711   5.951  -2.159  0.00  0.00    -0.375 OA
BRANCH  24  25
ATOM     25  C   LIG d   1      10.060   6.555  -1.038  0.00  0.00     0.071 C 
ATOM     26  H   LIG d   1       9.317   5.867  -0.636  0.00  0.00     0.058 H 
ATOM     27  H   LIG d   1      10.797   6.784  -0.270  0.00  0.00     0.058 H 
BRANCH  25  28
ATOM     28  C   LIG d   1       9.371   7.846  -1.485  0.00  0.00     0.068 C 
ATOM     29  H   LIG d   1       9.934   8.704  -1.117  0.00  0.00     0.058 H 
ATOM     30  H   LIG d   1       9.330   7.878  -2.574  0.00  0.00     0.058 H 
BRANCH  28  31
ATOM     31  O   LIG d   1       8.044   7.886  -0.956  0.00  0.00    -0.393 OA
ATOM     32  H   LIG d   1       7.466   7.187  -1.289  0.00  0.00     0.209 HD
ENDBRANCH  28  31
ENDBRANCH  25  28
ENDBRANCH  24  25
ENDBRANCH  21  24
ENDBRANCH  19  21
BRANCH  19  33
ATOM     33  O   LIG d   1      10.844   2.813  -2.071  0.00  0.00    -0.386 OA
ATOM     34  H   LIG d   1      10.977   1.896  -2.347  0.00  0.00     0.210 HD
ENDBRANCH  19  33
ENDBRANCH  16  19
ENDBRANCH  15  16
ENDBRANCH   6  15
BRANCH   7  35
ATOM     35  C   LIG d   1       4.582   0.386  -1.851  0.00  0.00     0.015 C 
ATOM     36  H   LIG d   1       5.070   1.273  -1.447  0.00  0.00     0.037 H 
ATOM     37  H   LIG d   1       4.288  -0.270  -1.032  0.00  0.00     0.037 H 
BRANCH  35  38
ATOM     38  C   LIG d   1       3.342   0.802  -2.643  0.00  0.00    -0.031 C 
ATOM     39  H   LIG d   1       2.504   0.942  -1.960  0.00  0.00     0.082 H 
ATOM     40  H   LIG d   1       3.094   0.024  -3.366  0.00  0.00     0.082 H 
BRANCH  38  41
ATOM     41  N   LIG d   1       3.616   2.076  -3.331  0.00  0.00     0.219 N 
ATOM     42  H   LIG d   1       3.195   2.068  -4.259  0.00  0.00     0.199 HD
ATOM     43  H   LIG d   1       3.235   2.852  -2.793  0.00  0.00     0.199 HD
ATOM     44  H   LIG d   1       4.631   2.197  -3.424  0.00  0.00     0.199 HD
ENDBRANCH  38  41
ENDBRANCH  35  38
ENDBRANCH   7  35
TORSDOF 12
ENDMDL
MODEL 4
REMARK VINA RESULT:      -5.4      5.815      8.416
REMARK  12 active torsions:
REMARK  status: ('A' for Active; 'I' for Inactive)
REMARK    1  A    between atoms: C_6  and  O_7 
REMARK    2  A    between atoms: O_7  and  C_8 
REMARK    3  A    between atoms: C_8  and  C_9 
REMARK    4  A    between atoms: C_9  and  C_11 
REMARK    5  A    between atoms: C_9  and  O_16 
REMARK    6  A    between atoms: C_11  and  O_12 
REMARK    7  A    between atoms: O_12  and  C_13 
REMARK    8  A    between atoms: C_13  and  C_14 
REMARK    9  A    between atoms: C_14  and  O_15 
REMARK   10  A    between atoms: C_17  and  C_21 
REMARK   11  A    between atoms: C_21  and  C_22 
REMARK   12  A    between atoms: C_22  and  N_43 
ROOT
ATOM      1  C   LIG d   1       3.837   1.697  -9.122  0.00  0.00    -0.018 A 
ATOM      2  C   LIG d   1       3.902   1.385 -10.461  0.00  0.00    -0.034 A 
ATOM      3  C   LIG d   1       3.277   0.237 -10.938  0.00  0.00     0.047 A 
ATOM      4  C   LIG d   1       2.574  -0.591 -10.045  0.00  0.00     0.006 A 
ATOM      5  C   LIG d   1       2.520  -0.268  -8.688  0.00  0.00    -0.011 A 
ATOM      6  C   LIG d   1       3.147   0.875  -8.233  0.00  0.00     0.121 A 
ATOM      7  C   LIG d   1       2.047  -1.697 -10.849  0.00  0.00    -0.017 A 
ATOM      8  C   LIG d   1       2.430  -1.480 -12.116  0.00  0.00     0.006 A 
ATOM      9  N   LIG d   1       3.167  -0.330 -12.191  0.00  0.00    -0.360 N 
ATOM     10  H   LIG d   1       3.554   0.034 -13.002  0.00  0.00     0.165 HD
ATOM     11  H   LIG d   1       4.323   2.589  -8.755  0.00  0.00     0.066 H 
ATOM     12  H   LIG d   1       4.439   2.028 -11.140  0.00  0.00     0.064 H 
ATOM     13  H   LIG d   1       1.986  -0.905  -7.999  0.00  0.00     0.066 H 
ATOM     14  H   LIG d   1       2.194  -2.119 -12.954  0.00  0.00     0.081 H 
ENDROOT
BRANCH   6  15
ATOM     15  O   LIG d   1       3.092   1.199  -6.914  0.00  0.00    -0.489 OA
BRANCH  15  16
ATOM     16  C   LIG d   1       3.127   0.120  -5.978  0.00  0.00     0.118 C 
ATOM     17  H   LIG d   1       2.577  -0.730  -6.383  0.00  0.00     0.072 H 
ATOM     18  H   LIG d   1       4.161  -0.170  -5.797  0.00  0.00     0.072 H 
BRANCH  16  19
ATOM     19  C   LIG d   1       2.483   0.564  -4.664  0.00  0.00     0.112 C 
ATOM     20  H   LIG d   1       1.405   0.656  -4.800  0.00  0.00     0.065 H 
BRANCH  19  21
ATOM     21  C   LIG d   1       2.773  -0.475  -3.578  0.00  0.00     0.077 C 
ATOM     22  H   LIG d   1       2.844   0.021  -2.610  0.00  0.00     0.059 H 
ATOM     23  H   LIG d   1       1.967  -1.209  -3.553  0.00  0.00     0.059 H 
BRANCH  21  24
ATOM     24  O   LIG d   1       4.009  -1.132  -3.867  0.00  0.00    -0.375 OA
BRANCH  24  25
ATOM     25  C   LIG d   1       4.986  -1.015  -2.830  0.00  0.00     0.071 C 
ATOM     26  H   LIG d   1       5.109  -1.978  -2.337  0.00  0.00     0.058 H 
ATOM     27  H   LIG d   1       5.936  -0.702  -3.260  0.00  0.00     0.058 H 
BRANCH  25  28
ATOM     28  C   LIG d   1       4.521   0.025  -1.808  0.00  0.00     0.068 C 
ATOM     29  H   LIG d   1       3.446   0.178  -1.909  0.00  0.00     0.058 H 
ATOM     30  H   LIG d   1       4.745  -0.328  -0.802  0.00  0.00     0.058 H 
BRANCH  28  31
ATOM     31  O   LIG d   1       5.200   1.261  -2.043  0.00  0.00    -0.393 OA
ATOM     32  H   LIG d   1       5.810   1.515  -1.337  0.00  0.00     0.209 HD
ENDBRANCH  28  31
ENDBRANCH  25  28
ENDBRANCH  24  25
ENDBRANCH  21  24
ENDBRANCH  19  21
BRANCH  19  33
ATOM     33  O   LIG d   1       3.023   1.827  -4.271  0.00  0.00    -0.386 OA
ATOM     34  H   LIG d   1       2.355   2.496  -4.072  0.00  0.00     0.210 HD
ENDBRANCH  19  33
ENDBRANCH  16  19
ENDBRANCH  15  16
ENDBRANCH   6  15
BRANCH   7  35
ATOM     35  C   LIG d   1       1.222  -2.855 -10.348  0.00  0.00     0.015 C 
ATOM     36  H   LIG d   1       0.365  -3.001 -11.005  0.00  0.00     0.037 H 
ATOM     37  H   LIG d   1       0.874  -2.643  -9.338  0.00  0.00     0.037 H 
BRANCH  35  38
ATOM     38  C   LIG d   1       2.078  -4.123 -10.336  0.00  0.00    -0.031 C 
ATOM     39  H   LIG d   1       2.797  -4.084 -11.154  0.00  0.00     0.082 H 
ATOM     40  H   LIG d   1       1.436  -4.996 -10.460  0.00  0.00     0.082 H 
BRANCH  38  41
ATOM     41  N   LIG d   1       2.809  -4.198  -9.059  0.00  0.00     0.219 N 
ATOM     42  H   LIG d   1       3.232  -5.119  -8.953  0.00  0.00     0.199 HD
ATOM     43  H   LIG d   1       3.536  -3.486  -9.031  0.00  0.00     0.199 HD
ATOM     44  H   LIG d   1       2.153  -4.040  -8.286  0.00  0.00     0.199 HD
ENDBRANCH  38  41
ENDBRANCH  35  38
ENDBRANCH   7  35
TORSDOF 12
ENDMDL
MODEL 5
REMARK VINA RESULT:      -5.4     12.453     15.607
REMARK  12 active torsions:
REMARK  status: ('A' for Active; 'I' for Inactive)
REMARK    1  A    between atoms: C_6  and  O_7 
REMARK    2  A    between atoms: O_7  and  C_8 
REMARK    3  A    between atoms: C_8  and  C_9 
REMARK    4  A    between atoms: C_9  and  C_11 
REMARK    5  A    between atoms: C_9  and  O_16 
REMARK    6  A    between atoms: C_11  and  O_12 
REMARK    7  A    between atoms: O_12  and  C_13 
REMARK    8  A    between atoms: C_13  and  C_14 
REMARK    9  A    between atoms: C_14  and  O_15 
REMARK   10  A    between atoms: C_17  and  C_21 
REMARK   11  A    between atoms: C_21  and  C_22 
REMARK   12  A    between atoms: C_22  and  N_43 
ROOT
ATOM      1  C   LIG d   1      11.043   7.209   0.592  0.00  0.00    -0.018 A 
ATOM      2  C   LIG d   1      11.343   5.901   0.284  0.00  0.00    -0.034 A 
ATOM      3  C   LIG d   1      10.927   5.360  -0.928  0.00  0.00     0.047 A 
ATOM      4  C   LIG d   1      10.209   6.160  -1.834  0.00  0.00     0.006 A 
ATOM      5  C   LIG d   1       9.905   7.483  -1.508  0.00  0.00    -0.011 A 
ATOM      6  C   LIG d   1      10.326   8.003  -0.300  0.00  0.00     0.121 A 
ATOM      7  C   LIG d   1       9.923   5.307  -2.990  0.00  0.00    -0.017 A 
ATOM      8  C   LIG d   1      10.465   4.106  -2.736  0.00  0.00     0.006 A 
ATOM      9  N   LIG d   1      11.069   4.117  -1.508  0.00  0.00    -0.360 N 
ATOM     10  H   LIG d   1      11.529   3.364  -1.106  0.00  0.00     0.165 HD
ATOM     11  H   LIG d   1      11.368   7.625   1.535  0.00  0.00     0.066 H 
ATOM     12  H   LIG d   1      11.899   5.295   0.983  0.00  0.00     0.064 H 
ATOM     13  H   LIG d   1       9.349   8.100  -2.200  0.00  0.00     0.066 H 
ATOM     14  H   LIG d   1      10.429   3.256  -3.400  0.00  0.00     0.081 H 
ENDROOT
BRANCH   6  15
ATOM     15  O   LIG d   1      10.039   9.292   0.020  0.00  0.00    -0.489 OA
BRANCH  15  16
ATOM     16  C   LIG d   1      10.998   9.993   0.814  0.00  0.00     0.118 C 
ATOM     17  H   LIG d   1      10.877   9.715   1.861  0.00  0.00     0.072 H 
ATOM     18  H   LIG d   1      12.004   9.732   0.483  0.00  0.00     0.072 H 
BRANCH  16  19
ATOM     19  C   LIG d   1      10.786  11.500   0.659  0.00  0.00     0.112 C 
ATOM     20  H   LIG d   1      11.319  12.026   1.450  0.00  0.00     0.065 H 
BRANCH  19  21
ATOM     21  C   LIG d   1      11.319  11.952  -0.703  0.00  0.00     0.077 C 
ATOM     22  H   LIG d   1      12.009  12.784  -0.565  0.00  0.00     0.059 H 
ATOM     23  H   LIG d   1      11.839  11.123  -1.183  0.00  0.00     0.059 H 
BRANCH  21  24
ATOM     24  O   LIG d   1      10.228  12.371  -1.526  0.00  0.00    -0.375 OA
BRANCH  24  25
ATOM     25  C   LIG d   1      10.054  11.581  -2.705  0.00  0.00     0.071 C 
ATOM     26  H   LIG d   1      10.431  12.129  -3.567  0.00  0.00     0.058 H 
ATOM     27  H   LIG d   1      10.602  10.646  -2.600  0.00  0.00     0.058 H 
BRANCH  25  28
ATOM     28  C   LIG d   1       8.566  11.282  -2.901  0.00  0.00     0.068 C 
ATOM     29  H   LIG d   1       8.020  12.217  -3.025  0.00  0.00     0.058 H 
ATOM     30  H   LIG d   1       8.434  10.663  -3.789  0.00  0.00     0.058 H 
BRANCH  28  31
ATOM     31  O   LIG d   1       8.064  10.587  -1.757  0.00  0.00    -0.393 OA
ATOM     32  H   LIG d   1       7.131  10.344  -1.822  0.00  0.00     0.209 HD
ENDBRANCH  28  31
ENDBRANCH  25  28
ENDBRANCH  24  25
ENDBRANCH  21  24
ENDBRANCH  19  21
BRANCH  19  33
ATOM     33  O   LIG d   1       9.390  11.796   0.746  0.00  0.00    -0.386 OA
ATOM     34  H   LIG d   1       8.824  11.013   0.786  0.00  0.00     0.210 HD
ENDBRANCH  19  33
ENDBRANCH  16  19
ENDBRANCH  15  16
ENDBRANCH   6  15
BRANCH   7  35
ATOM     35  C   LIG d   1       9.169   5.704  -4.233  0.00  0.00     0.015 C 
ATOM     36  H   LIG d   1       8.190   6.094  -3.955  0.00  0.00     0.037 H 
ATOM     37  H   LIG d   1       9.043   4.833  -4.875  0.00  0.00     0.037 H 
BRANCH  35  38
ATOM     38  C   LIG d   1       9.953   6.783  -4.983  0.00  0.00    -0.031 C 
ATOM     39  H   LIG d   1      10.247   6.403  -5.962  0.00  0.00     0.082 H 
ATOM     40  H   LIG d   1      10.844   7.047  -4.413  0.00  0.00     0.082 H 
BRANCH  38  41
ATOM     41  N   LIG d   1       9.091   7.964  -5.167  0.00  0.00     0.219 N 
ATOM     42  H   LIG d   1       9.405   8.503  -5.972  0.00  0.00     0.199 HD
ATOM     43  H   LIG d   1       8.125   7.672  -5.310  0.00  0.00     0.199 HD
ATOM     44  H   LIG d   1       9.142   8.553  -4.328  0.00  0.00     0.199 HD
ENDBRANCH  38  41
ENDBRANCH  35  38
ENDBRANCH   7  35
TORSDOF 12
ENDMDL
MODEL 6
REMARK VINA RESULT:      -5.3     11.587     15.333
REMARK  12 active torsions:
REMARK  status: ('A' for Active; 'I' for Inactive)
REMARK    1  A    between atoms: C_6  and  O_7 
REMARK    2  A    between atoms: O_7  and  C_8 
REMARK    3  A    between atoms: C_8  and  C_9 
REMARK    4  A    between atoms: C_9  and  C_11 
REMARK    5  A    between atoms: C_9  and  O_16 
REMARK    6  A    between atoms: C_11  and  O_12 
REMARK    7  A    between atoms: O_12  and  C_13 
REMARK    8  A    between atoms: C_13  and  C_14 
REMARK    9  A    between atoms: C_14  and  O_15 
REMARK   10  A    between atoms: C_17  and  C_21 
REMARK   11  A    between atoms: C_21  and  C_22 
REMARK   12  A    between atoms: C_22  and  N_43 
ROOT
ATOM      1  C   LIG d   1      10.471   8.015  -0.118  0.00  0.00    -0.018 A 
ATOM      2  C   LIG d   1      10.993   6.749   0.028  0.00  0.00    -0.034 A 
ATOM      3  C   LIG d   1      10.789   5.795  -0.963  0.00  0.00     0.047 A 
ATOM      4  C   LIG d   1      10.056   6.136  -2.113  0.00  0.00     0.006 A 
ATOM      5  C   LIG d   1       9.525   7.421  -2.247  0.00  0.00    -0.011 A 
ATOM      6  C   LIG d   1       9.738   8.354  -1.253  0.00  0.00     0.121 A 
ATOM      7  C   LIG d   1      10.020   4.930  -2.944  0.00  0.00    -0.017 A 
ATOM      8  C   LIG d   1      10.707   3.981  -2.289  0.00  0.00     0.006 A 
ATOM      9  N   LIG d   1      11.174   4.478  -1.103  0.00  0.00    -0.360 N 
ATOM     10  H   LIG d   1      11.698   3.979  -0.457  0.00  0.00     0.165 HD
ATOM     11  H   LIG d   1      10.632   8.753   0.654  0.00  0.00     0.066 H 
ATOM     12  H   LIG d   1      11.559   6.497   0.911  0.00  0.00     0.064 H 
ATOM     13  H   LIG d   1       8.957   7.685  -3.127  0.00  0.00     0.066 H 
ATOM     14  H   LIG d   1      10.866   2.974  -2.644  0.00  0.00     0.081 H 
ENDROOT
BRANCH   6  15
ATOM     15  O   LIG d   1       9.230   9.609  -1.381  0.00  0.00    -0.489 OA
BRANCH  15  16
ATOM     16  C   LIG d   1       9.904  10.494  -2.278  0.00  0.00     0.118 C 
ATOM     17  H   LIG d   1      10.788  10.904  -1.789  0.00  0.00     0.072 H 
ATOM     18  H   LIG d   1      10.204   9.946  -3.171  0.00  0.00     0.072 H 
BRANCH  16  19
ATOM     19  C   LIG d   1       8.963  11.634  -2.671  0.00  0.00     0.112 C 
ATOM     20  H   LIG d   1       9.080  12.460  -1.969  0.00  0.00     0.065 H 
BRANCH  19  21
ATOM     21  C   LIG d   1       9.306  12.113  -4.084  0.00  0.00     0.077 C 
ATOM     22  H   LIG d   1       8.655  12.945  -4.354  0.00  0.00     0.059 H 
ATOM     23  H   LIG d   1      10.346  12.439  -4.114  0.00  0.00     0.059 H 
BRANCH  21  24
ATOM     24  O   LIG d   1       9.115  11.040  -5.009  0.00  0.00    -0.375 OA
BRANCH  24  25
ATOM     25  C   LIG d   1       9.753  11.243  -6.272  0.00  0.00     0.071 C 
ATOM     26  H   LIG d   1      10.810  10.994  -6.189  0.00  0.00     0.058 H 
ATOM     27  H   LIG d   1       9.287  10.605  -7.021  0.00  0.00     0.058 H 
BRANCH  25  28
ATOM     28  C   LIG d   1       9.606  12.709  -6.687  0.00  0.00     0.068 C 
ATOM     29  H   LIG d   1       9.062  13.252  -5.914  0.00  0.00     0.058 H 
ATOM     30  H   LIG d   1      10.594  13.151  -6.815  0.00  0.00     0.058 H 
BRANCH  28  31
ATOM     31  O   LIG d   1       8.885  12.786  -7.919  0.00  0.00    -0.393 OA
ATOM     32  H   LIG d   1       9.173  12.146  -8.584  0.00  0.00     0.209 HD
ENDBRANCH  28  31
ENDBRANCH  25  28
ENDBRANCH  24  25
ENDBRANCH  21  24
ENDBRANCH  19  21
BRANCH  19  33
ATOM     33  O   LIG d   1       7.612  11.170  -2.640  0.00  0.00    -0.386 OA
ATOM     34  H   LIG d   1       6.971  11.844  -2.379  0.00  0.00     0.210 HD
ENDBRANCH  19  33
ENDBRANCH  16  19
ENDBRANCH  15  16
ENDBRANCH   6  15
BRANCH   7  35
ATOM     35  C   LIG d   1       9.346   4.784  -4.284  0.00  0.00     0.015 C 
ATOM     36  H   LIG d   1       9.733   5.538  -4.969  0.00  0.00     0.037 H 
ATOM     37  H   LIG d   1       8.271   4.918  -4.166  0.00  0.00     0.037 H 
BRANCH  35  38
ATOM     38  C   LIG d   1       9.627   3.389  -4.848  0.00  0.00    -0.031 C 
ATOM     39  H   LIG d   1      10.403   2.907  -4.253  0.00  0.00     0.082 H 
ATOM     40  H   LIG d   1       9.963   3.476  -5.881  0.00  0.00     0.082 H 
BRANCH  38  41
ATOM     41  N   LIG d   1       8.396   2.583  -4.772  0.00  0.00     0.219 N 
ATOM     42  H   LIG d   1       8.402   1.869  -5.499  0.00  0.00     0.199 HD
ATOM     43  H   LIG d   1       8.326   2.137  -3.859  0.00  0.00     0.199 HD
ATOM     44  H   LIG d   1       7.583   3.195  -4.910  0.00  0.00     0.199 HD
ENDBRANCH  38  41
ENDBRANCH  35  38
ENDBRANCH   7  35
TORSDOF 12
ENDMDL
MODEL 7
REMARK VINA RESULT:      -5.3      5.024      8.430
REMARK  12 active torsions:
REMARK  status: ('A' for Active; 'I' for Inactive)
REMARK    1  A    between atoms: C_6  and  O_7 
REMARK    2  A    between atoms: O_7  and  C_8 
REMARK    3  A    between atoms: C_8  and  C_9 
REMARK    4  A    between atoms: C_9  and  C_11 
REMARK    5  A    between atoms: C_9  and  O_16 
REMARK    6  A    between atoms: C_11  and  O_12 
REMARK    7  A    between atoms: O_12  and  C_13 
REMARK    8  A    between atoms: C_13  and  C_14 
REMARK    9  A    between atoms: C_14  and  O_15 
REMARK   10  A    between atoms: C_17  and  C_21 
REMARK   11  A    between atoms: C_21  and  C_22 
REMARK   12  A    between atoms: C_22  and  N_43 
ROOT
ATOM      1  C   LIG d   1       7.445  -2.629  -5.064  0.00  0.00    -0.018 A 
ATOM      2  C   LIG d   1       6.268  -3.244  -4.703  0.00  0.00    -0.034 A 
ATOM      3  C   LIG d   1       5.391  -2.608  -3.831  0.00  0.00     0.047 A 
ATOM      4  C   LIG d   1       5.712  -1.334  -3.331  0.00  0.00     0.006 A 
ATOM      5  C   LIG d   1       6.912  -0.722  -3.698  0.00  0.00    -0.011 A 
ATOM      6  C   LIG d   1       7.770  -1.369  -4.565  0.00  0.00     0.121 A 
ATOM      7  C   LIG d   1       4.603  -0.951  -2.453  0.00  0.00    -0.017 A 
ATOM      8  C   LIG d   1       3.715  -1.958  -2.479  0.00  0.00     0.006 A 
ATOM      9  N   LIG d   1       4.168  -2.958  -3.296  0.00  0.00    -0.360 N 
ATOM     10  H   LIG d   1       3.699  -3.788  -3.474  0.00  0.00     0.165 HD
ATOM     11  H   LIG d   1       8.124  -3.126  -5.741  0.00  0.00     0.066 H 
ATOM     12  H   LIG d   1       6.026  -4.220  -5.094  0.00  0.00     0.064 H 
ATOM     13  H   LIG d   1       7.164   0.255  -3.313  0.00  0.00     0.066 H 
ATOM     14  H   LIG d   1       2.783  -1.977  -1.935  0.00  0.00     0.081 H 
ENDROOT
BRANCH   6  15
ATOM     15  O   LIG d   1       8.937  -0.776  -4.933  0.00  0.00    -0.489 OA
BRANCH  15  16
ATOM     16  C   LIG d   1       8.856   0.559  -5.436  0.00  0.00     0.118 C 
ATOM     17  H   LIG d   1       9.026   0.552  -6.513  0.00  0.00     0.072 H 
ATOM     18  H   LIG d   1       7.867   0.966  -5.228  0.00  0.00     0.072 H 
BRANCH  16  19
ATOM     19  C   LIG d   1       9.918   1.426  -4.757  0.00  0.00     0.112 C 
ATOM     20  H   LIG d   1      10.394   2.066  -5.500  0.00  0.00     0.065 H 
BRANCH  19  21
ATOM     21  C   LIG d   1       9.257   2.294  -3.684  0.00  0.00     0.077 C 
ATOM     22  H   LIG d   1       8.192   2.067  -3.638  0.00  0.00     0.059 H 
ATOM     23  H   LIG d   1       9.716   2.088  -2.716  0.00  0.00     0.059 H 
BRANCH  21  24
ATOM     24  O   LIG d   1       9.436   3.673  -4.012  0.00  0.00    -0.375 OA
BRANCH  24  25
ATOM     25  C   LIG d   1       9.828   4.487  -2.903  0.00  0.00     0.071 C 
ATOM     26  H   LIG d   1       9.848   5.532  -3.210  0.00  0.00     0.058 H 
ATOM     27  H   LIG d   1       9.115   4.361  -2.090  0.00  0.00     0.058 H 
BRANCH  25  28
ATOM     28  C   LIG d   1      11.222   4.067  -2.431  0.00  0.00     0.068 C 
ATOM     29  H   LIG d   1      11.401   3.028  -2.707  0.00  0.00     0.058 H 
ATOM     30  H   LIG d   1      11.972   4.703  -2.902  0.00  0.00     0.058 H 
BRANCH  28  31
ATOM     31  O   LIG d   1      11.305   4.203  -1.011  0.00  0.00    -0.393 OA
ATOM     32  H   LIG d   1      10.796   4.944  -0.655  0.00  0.00     0.209 HD
ENDBRANCH  28  31
ENDBRANCH  25  28
ENDBRANCH  24  25
ENDBRANCH  21  24
ENDBRANCH  19  21
BRANCH  19  33
ATOM     33  O   LIG d   1      10.902   0.586  -4.151  0.00  0.00    -0.386 OA
ATOM     34  H   LIG d   1      11.750   0.575  -4.615  0.00  0.00     0.210 HD
ENDBRANCH  19  33
ENDBRANCH  16  19
ENDBRANCH  15  16
ENDBRANCH   6  15
BRANCH   7  35
ATOM     35  C   LIG d   1       4.478   0.333  -1.674  0.00  0.00     0.015 C 
ATOM     36  H   LIG d   1       5.325   0.429  -0.994  0.00  0.00     0.037 H 
ATOM     37  H   LIG d   1       3.552   0.321  -1.101  0.00  0.00     0.037 H 
BRANCH  35  38
ATOM     38  C   LIG d   1       4.464   1.518  -2.642  0.00  0.00    -0.031 C 
ATOM     39  H   LIG d   1       5.428   1.586  -3.147  0.00  0.00     0.082 H 
ATOM     40  H   LIG d   1       4.280   2.438  -2.088  0.00  0.00     0.082 H 
BRANCH  38  41
ATOM     41  N   LIG d   1       3.411   1.303  -3.650  0.00  0.00     0.219 N 
ATOM     42  H   LIG d   1       2.494   1.321  -3.205  0.00  0.00     0.199 HD
ATOM     43  H   LIG d   1       3.456   2.030  -4.362  0.00  0.00     0.199 HD
ATOM     44  H   LIG d   1       3.550   0.388  -4.094  0.00  0.00     0.199 HD
ENDBRANCH  38  41
ENDBRANCH  35  38
ENDBRANCH   7  35
TORSDOF 12
ENDMDL
MODEL 8
REMARK VINA RESULT:      -5.3      4.957      6.484
REMARK  12 active torsions:
REMARK  status: ('A' for Active; 'I' for Inactive)
REMARK    1  A    between atoms: C_6  and  O_7 
REMARK    2  A    between atoms: O_7  and  C_8 
REMARK    3  A    between atoms: C_8  and  C_9 
REMARK    4  A    between atoms: C_9  and  C_11 
REMARK    5  A    between atoms: C_9  and  O_16 
REMARK    6  A    between atoms: C_11  and  O_12 
REMARK    7  A    between atoms: O_12  and  C_13 
REMARK    8  A    between atoms: C_13  and  C_14 
REMARK    9  A    between atoms: C_14  and  O_15 
REMARK   10  A    between atoms: C_17  and  C_21 
REMARK   11  A    between atoms: C_21  and  C_22 
REMARK   12  A    between atoms: C_22  and  N_43 
ROOT
ATOM      1  C   LIG d   1       6.106  -2.267  -6.437  0.00  0.00    -0.018 A 
ATOM      2  C   LIG d   1       5.317  -3.035  -5.610  0.00  0.00    -0.034 A 
ATOM      3  C   LIG d   1       4.866  -2.514  -4.401  0.00  0.00     0.047 A 
ATOM      4  C   LIG d   1       5.215  -1.202  -4.038  0.00  0.00     0.006 A 
ATOM      5  C   LIG d   1       6.021  -0.435  -4.882  0.00  0.00    -0.011 A 
ATOM      6  C   LIG d   1       6.459  -0.968  -6.078  0.00  0.00     0.121 A 
ATOM      7  C   LIG d   1       4.596  -0.964  -2.732  0.00  0.00    -0.017 A 
ATOM      8  C   LIG d   1       3.934  -2.084  -2.401  0.00  0.00     0.006 A 
ATOM      9  N   LIG d   1       4.084  -3.023  -3.385  0.00  0.00    -0.360 N 
ATOM     10  H   LIG d   1       3.697  -3.911  -3.371  0.00  0.00     0.165 HD
ATOM     11  H   LIG d   1       6.454  -2.675  -7.375  0.00  0.00     0.066 H 
ATOM     12  H   LIG d   1       5.050  -4.040  -5.898  0.00  0.00     0.064 H 
ATOM     13  H   LIG d   1       6.295   0.573  -4.604  0.00  0.00     0.066 H 
ATOM     14  H   LIG d   1       3.368  -2.224  -1.492  0.00  0.00     0.081 H 
ENDROOT
BRANCH   6  15
ATOM     15  O   LIG d   1       7.238  -0.224  -6.907  0.00  0.00    -0.489 OA
BRANCH  15  16
ATOM     16  C   LIG d   1       7.130  -0.486  -8.308  0.00  0.00     0.118 C 
ATOM     17  H   LIG d   1       8.127  -0.570  -8.740  0.00  0.00     0.072 H 
ATOM     18  H   LIG d   1       6.588  -1.419  -8.462  0.00  0.00     0.072 H 
BRANCH  16  19
ATOM     19  C   LIG d   1       6.375   0.660  -8.984  0.00  0.00     0.112 C 
ATOM     20  H   LIG d   1       6.902   0.958  -9.890  0.00  0.00     0.065 H 
BRANCH  19  21
ATOM     21  C   LIG d   1       4.962   0.197  -9.345  0.00  0.00     0.077 C 
ATOM     22  H   LIG d   1       4.910  -0.012 -10.413  0.00  0.00     0.059 H 
ATOM     23  H   LIG d   1       4.722  -0.708  -8.785  0.00  0.00     0.059 H 
BRANCH  21  24
ATOM     24  O   LIG d   1       4.026   1.224  -9.014  0.00  0.00    -0.375 OA
BRANCH  24  25
ATOM     25  C   LIG d   1       2.791   0.736  -8.483  0.00  0.00     0.071 C 
ATOM     26  H   LIG d   1       2.119   1.573  -8.298  0.00  0.00     0.058 H 
ATOM     27  H   LIG d   1       2.334   0.052  -9.197  0.00  0.00     0.058 H 
BRANCH  25  28
ATOM     28  C   LIG d   1       3.059  -0.002  -7.169  0.00  0.00     0.068 C 
ATOM     29  H   LIG d   1       2.264  -0.726  -6.991  0.00  0.00     0.058 H 
ATOM     30  H   LIG d   1       4.016  -0.520  -7.231  0.00  0.00     0.058 H 
BRANCH  28  31
ATOM     31  O   LIG d   1       3.095   0.938  -6.093  0.00  0.00    -0.393 OA
ATOM     32  H   LIG d   1       2.400   1.609  -6.133  0.00  0.00     0.209 HD
ENDBRANCH  28  31
ENDBRANCH  25  28
ENDBRANCH  24  25
ENDBRANCH  21  24
ENDBRANCH  19  21
BRANCH  19  33
ATOM     33  O   LIG d   1       6.298   1.772  -8.090  0.00  0.00    -0.386 OA
ATOM     34  H   LIG d   1       5.396   2.063  -7.901  0.00  0.00     0.210 HD
ENDBRANCH  19  33
ENDBRANCH  16  19
ENDBRANCH  15  16
ENDBRANCH   6  15
BRANCH   7  35
ATOM     35  C   LIG d   1       4.681   0.301  -1.916  0.00  0.00     0.015 C 
ATOM     36  H   LIG d   1       5.607   0.825  -2.154  0.00  0.00     0.037 H 
ATOM     37  H   LIG d   1       4.667   0.051  -0.856  0.00  0.00     0.037 H 
BRANCH  35  38
ATOM     38  C   LIG d   1       3.487   1.200  -2.244  0.00  0.00    -0.031 C 
ATOM     39  H   LIG d   1       3.239   1.806  -1.373  0.00  0.00     0.082 H 
ATOM     40  H   LIG d   1       2.630   0.583  -2.513  0.00  0.00     0.082 H 
BRANCH  38  41
ATOM     41  N   LIG d   1       3.849   2.092  -3.360  0.00  0.00     0.219 N 
ATOM     42  H   LIG d   1       3.105   2.100  -4.056  0.00  0.00     0.199 HD
ATOM     43  H   LIG d   1       4.001   3.038  -3.015  0.00  0.00     0.199 HD
ATOM     44  H   LIG d   1       4.713   1.751  -3.797  0.00  0.00     0.199 HD
ENDBRANCH  38  41
ENDBRANCH  35  38
ENDBRANCH   7  35
TORSDOF 12
ENDMDL
MODEL 9
REMARK VINA RESULT:      -5.2     11.755     14.880
REMARK  12 active torsions:
REMARK  status: ('A' for Active; 'I' for Inactive)
REMARK    1  A    between atoms: C_6  and  O_7 
REMARK    2  A    between atoms: O_7  and  C_8 
REMARK    3  A    between atoms: C_8  and  C_9 
REMARK    4  A    between atoms: C_9  and  C_11 
REMARK    5  A    between atoms: C_9  and  O_16 
REMARK    6  A    between atoms: C_11  and  O_12 
REMARK    7  A    between atoms: O_12  and  C_13 
REMARK    8  A    between atoms: C_13  and  C_14 
REMARK    9  A    between atoms: C_14  and  O_15 
REMARK   10  A    between atoms: C_17  and  C_21 
REMARK   11  A    between atoms: C_21  and  C_22 
REMARK   12  A    between atoms: C_22  and  N_43 
ROOT
ATOM      1  C   LIG d   1       9.506   5.331  -4.710  0.00  0.00    -0.018 A 
ATOM      2  C   LIG d   1       9.885   4.768  -3.512  0.00  0.00    -0.034 A 
ATOM      3  C   LIG d   1      10.094   5.576  -2.400  0.00  0.00     0.047 A 
ATOM      4  C   LIG d   1       9.908   6.966  -2.507  0.00  0.00     0.006 A 
ATOM      5  C   LIG d   1       9.530   7.527  -3.729  0.00  0.00    -0.011 A 
ATOM      6  C   LIG d   1       9.327   6.708  -4.822  0.00  0.00     0.121 A 
ATOM      7  C   LIG d   1      10.206   7.519  -1.184  0.00  0.00    -0.017 A 
ATOM      8  C   LIG d   1      10.529   6.486  -0.390  0.00  0.00     0.006 A 
ATOM      9  N   LIG d   1      10.468   5.317  -1.097  0.00  0.00    -0.360 N 
ATOM     10  H   LIG d   1      10.659   4.437  -0.738  0.00  0.00     0.165 HD
ATOM     11  H   LIG d   1       9.345   4.699  -5.571  0.00  0.00     0.066 H 
ATOM     12  H   LIG d   1      10.021   3.700  -3.436  0.00  0.00     0.064 H 
ATOM     13  H   LIG d   1       9.391   8.594  -3.817  0.00  0.00     0.066 H 
ATOM     14  H   LIG d   1      10.797   6.566   0.653  0.00  0.00     0.081 H 
ENDROOT
BRANCH   6  15
ATOM     15  O   LIG d   1       8.953   7.247  -6.013  0.00  0.00    -0.489 OA
BRANCH  15  16
ATOM     16  C   LIG d   1       9.983   7.823  -6.818  0.00  0.00     0.118 C 
ATOM     17  H   LIG d   1      10.895   7.918  -6.228  0.00  0.00     0.072 H 
ATOM     18  H   LIG d   1      10.173   7.182  -7.678  0.00  0.00     0.072 H 
BRANCH  16  19
ATOM     19  C   LIG d   1       9.541   9.206  -7.300  0.00  0.00     0.112 C 
ATOM     20  H   LIG d   1       9.032   9.727  -6.489  0.00  0.00     0.065 H 
BRANCH  19  21
ATOM     21  C   LIG d   1      10.768  10.011  -7.733  0.00  0.00     0.077 C 
ATOM     22  H   LIG d   1      11.633   9.350  -7.796  0.00  0.00     0.059 H 
ATOM     23  H   LIG d   1      10.582  10.461  -8.708  0.00  0.00     0.059 H 
BRANCH  21  24
ATOM     24  O   LIG d   1      11.024  11.040  -6.775  0.00  0.00    -0.375 OA
BRANCH  24  25
ATOM     25  C   LIG d   1       9.844  11.658  -6.257  0.00  0.00     0.071 C 
ATOM     26  H   LIG d   1       8.983  11.019  -6.454  0.00  0.00     0.058 H 
ATOM     27  H   LIG d   1       9.950  11.802  -5.182  0.00  0.00     0.058 H 
BRANCH  25  28
ATOM     28  C   LIG d   1       9.639  13.014  -6.936  0.00  0.00     0.068 C 
ATOM     29  H   LIG d   1       9.179  13.707  -6.232  0.00  0.00     0.058 H 
ATOM     30  H   LIG d   1      10.603  13.408  -7.258  0.00  0.00     0.058 H 
BRANCH  28  31
ATOM     31  O   LIG d   1       8.785  12.854  -8.072  0.00  0.00    -0.393 OA
ATOM     32  H   LIG d   1       8.362  13.673  -8.364  0.00  0.00     0.209 HD
ENDBRANCH  28  31
ENDBRANCH  25  28
ENDBRANCH  24  25
ENDBRANCH  21  24
ENDBRANCH  19  21
BRANCH  19  33
ATOM     33  O   LIG d   1       8.650   9.062  -8.408  0.00  0.00    -0.386 OA
ATOM     34  H   LIG d   1       7.722   8.964  -8.156  0.00  0.00     0.210 HD
ENDBRANCH  19  33
ENDBRANCH  16  19
ENDBRANCH  15  16
ENDBRANCH   6  15
BRANCH   7  35
ATOM     35  C   LIG d   1      10.154   8.972  -0.788  0.00  0.00     0.015 C 
ATOM     36  H   LIG d   1      10.644   9.575  -1.552  0.00  0.00     0.037 H 
ATOM     37  H   LIG d   1      10.667   9.107   0.164  0.00  0.00     0.037 H 
BRANCH  35  38
ATOM     38  C   LIG d   1       8.696   9.411  -0.648  0.00  0.00    -0.031 C 
ATOM     39  H   LIG d   1       8.534   9.825   0.348  0.00  0.00     0.082 H 
ATOM     40  H   LIG d   1       8.041   8.552  -0.794  0.00  0.00     0.082 H 
BRANCH  38  41
ATOM     41  N   LIG d   1       8.409  10.453  -1.651  0.00  0.00     0.219 N 
ATOM     42  H   LIG d   1       7.416  10.682  -1.641  0.00  0.00     0.199 HD
ATOM     43  H   LIG d   1       8.952  11.290  -1.448  0.00  0.00     0.199 HD
ATOM     44  H   LIG d   1       8.664  10.103  -2.581  0.00  0.00     0.199 HD
ENDBRANCH  38  41
ENDBRANCH  35  38
ENDBRANCH   7  35
TORSDOF 12
ENDMDL
