MODEL 1
REMARK VINA RESULT:      -7.8      0.000      0.000
REMARK  11 active torsions:
REMARK  status: ('A' for Active; 'I' for Inactive)
REMARK    1  A    between atoms: C_1  and  C_2 
REMARK    2  A    between atoms: C_6  and  O_37 
REMARK    3  A    between atoms: C_7  and  C_36 
REMARK    4  A    between atoms: C_12  and  C_13 
REMARK    5  A    between atoms: C_13  and  C_14 
REMARK       I    between atoms: C_14  and  N_16 
REMARK    6  A    between atoms: N_16  and  C_17 
REMARK    7  A    between atoms: C_17  and  C_18 
REMARK       I    between atoms: C_18  and  N_20 
REMARK    8  A    between atoms: N_20  and  C_21 
REMARK    9  A    between atoms: C_21  and  C_22 
REMARK       I    between atoms: C_22  and  N_24 
REMARK       I    between atoms: N_24  and  CA_25 
REMARK   10  A    between atoms: CA_25  and  CB_27 
REMARK       I    between atoms: CA_25  and  C_34 
REMARK   11  A    between atoms: CB_27  and  CG_28 
ROOT
ATOM      1  C   UNK d   0      12.809   4.722  -5.661  0.00  0.00     0.088 C 
ATOM      2  H   UNK d   0      12.688   4.896  -6.730  0.00  0.00     0.056 H 
ATOM      3  H   UNK d   0      13.776   5.105  -5.336  0.00  0.00     0.056 H 
ENDROOT
BRANCH   1   4
ATOM      4  N   UNK d   0      11.741   5.411  -4.930  0.00  0.00    -0.306 N 
ATOM      5  C   UNK d   0      10.540   5.597  -5.510  0.00  0.00     0.218 C 
ATOM      6  O   UNK d   0      10.341   5.196  -6.638  0.00  0.00    -0.275 OA
ATOM      7  H   UNK d   0      11.899   5.731  -4.028  0.00  0.00     0.149 HD
BRANCH   5   8
ATOM      8  C   UNK d   0       9.443   6.311  -4.761  0.00  0.00     0.056 C 
ATOM      9  H   UNK d   0       9.259   7.280  -5.225  0.00  0.00     0.041 H 
ATOM     10  H   UNK d   0       8.532   5.713  -4.795  0.00  0.00     0.041 H 
BRANCH   8  11
ATOM     11  C   UNK d   0       9.860   6.511  -3.328  0.00  0.00     0.049 A 
ATOM     12  C   UNK d   0      10.183   7.753  -2.881  0.00  0.00    -0.029 A 
ATOM     13  C   UNK d   0      10.577   7.901  -1.477  0.00  0.00     0.021 A 
ATOM     14  C   UNK d   0      10.615   6.760  -0.655  0.00  0.00     0.146 A 
ATOM     15  C   UNK d   0      10.916   9.154  -0.953  0.00  0.00    -0.047 A 
ATOM     16  C   UNK d   0      10.993   6.889   0.672  0.00  0.00     0.034 A 
ATOM     17  O   UNK d   0      10.287   5.553  -1.166  0.00  0.00    -0.422 OA
ATOM     18  C   UNK d   0      11.326   8.136   1.175  0.00  0.00     0.123 A 
ATOM     19  C   UNK d   0      11.285   9.264   0.356  0.00  0.00    -0.019 A 
ATOM     20  H   UNK d   0      11.547  10.230   0.761  0.00  0.00     0.065 H 
ATOM     21  C   UNK d   0       9.921   5.411  -2.448  0.00  0.00     0.341 A 
ATOM     22  O   UNK d   0       9.633   4.303  -2.864  0.00  0.00    -0.245 OA
ATOM     23  H   UNK d   0      10.886  10.031  -1.583  0.00  0.00     0.063 H 
BRANCH  12  24
ATOM     24  C   UNK d   0      10.132   8.945  -3.800  0.00  0.00    -0.038 C 
ATOM     25  H   UNK d   0      10.234   9.859  -3.215  0.00  0.00     0.028 H 
ATOM     26  H   UNK d   0      10.946   8.882  -4.521  0.00  0.00     0.028 H 
ATOM     27  H   UNK d   0       9.178   8.956  -4.328  0.00  0.00     0.028 H 
ENDBRANCH  12  24
BRANCH  16  28
ATOM     28  C   UNK d   0      11.040   5.677   1.566  0.00  0.00    -0.033 C 
ATOM     29  H   UNK d   0      11.955   5.697   2.158  0.00  0.00     0.028 H 
ATOM     30  H   UNK d   0      10.177   5.683   2.232  0.00  0.00     0.028 H 
ATOM     31  H   UNK d   0      11.022   4.774   0.956  0.00  0.00     0.028 H 
ENDBRANCH  16  28
BRANCH  18  32
ATOM     32  O   UNK d   0      11.695   8.261   2.475  0.00  0.00    -0.506 OA
ATOM     33  H   UNK d   0      11.496   7.486   3.017  0.00  0.00     0.292 HD
ENDBRANCH  18  32
ENDBRANCH   8  11
ENDBRANCH   5   8
ENDBRANCH   1   4
BRANCH   1  34
ATOM     34  C   UNK d   0      12.735   3.243  -5.382  0.00  0.00     0.231 C 
ATOM     35  O   UNK d   0      13.240   2.455  -6.153  0.00  0.00    -0.274 OA
ATOM     36  N   UNK d   0      12.107   2.795  -4.276  0.00  0.00    -0.305 N 
ATOM     37  H   UNK d   0      11.703   3.426  -3.660  0.00  0.00     0.149 HD
BRANCH  36  38
ATOM     38  C   UNK d   0      12.036   1.358  -4.006  0.00  0.00     0.088 C 
ATOM     39  H   UNK d   0      12.816   0.843  -4.567  0.00  0.00     0.056 H 
ATOM     40  H   UNK d   0      12.178   1.181  -2.940  0.00  0.00     0.056 H 
BRANCH  38  41
ATOM     41  C   UNK d   0      10.686   0.835  -4.426  0.00  0.00     0.231 C 
ATOM     42  O   UNK d   0      10.600  -0.226  -5.007  0.00  0.00    -0.274 OA
ATOM     43  N   PHE d   1       9.574   1.548  -4.158  0.00  0.00    -0.306 N 
ATOM     44  CA  PHE d   1       8.262   1.040  -4.567  0.00  0.00     0.067 C 
ATOM     45  H   PHE d   1       9.642   2.397  -3.693  0.00  0.00     0.149 HD
ATOM     46  HA  PHE d   1       8.250  -0.047  -4.481  0.00  0.00     0.056 H 
ATOM     47  C   PHE d   1       7.994   1.433  -5.997  0.00  0.00     0.062 C 
ATOM     48  O   PHE d   1       8.816   2.073  -6.611  0.00  0.00    -0.548 OA
ATOM     49  OXT PHE d   1       6.844   1.074  -6.588  0.00  0.00    -0.548 OA
BRANCH  44  50
ATOM     50  CB  PHE d   1       7.180   1.635  -3.663  0.00  0.00    -0.004 C 
ATOM     51  HB1 PHE d   1       7.650   2.134  -2.816  0.00  0.00     0.034 H 
ATOM     52  HB2 PHE d   1       6.591   2.356  -4.228  0.00  0.00     0.034 H 
BRANCH  50  53
ATOM     53  CG  PHE d   1       6.282   0.534  -3.162  0.00  0.00    -0.045 A 
ATOM     54  CD1 PHE d   1       6.539  -0.780  -3.507  0.00  0.00    -0.059 A 
ATOM     55  CE1 PHE d   1       5.715  -1.790  -3.047  0.00  0.00    -0.061 A 
ATOM     56  HD1 PHE d   1       7.386  -1.017  -4.134  0.00  0.00     0.062 H 
ATOM     57  CZ  PHE d   1       4.632  -1.486  -2.243  0.00  0.00    -0.062 A 
ATOM     58  HE1 PHE d   1       5.917  -2.816  -3.316  0.00  0.00     0.062 H 
ATOM     59  CE2 PHE d   1       4.374  -0.172  -1.898  0.00  0.00    -0.061 A 
ATOM     60  HZ  PHE d   1       3.988  -2.275  -1.883  0.00  0.00     0.062 H 
ATOM     61  CD2 PHE d   1       5.201   0.837  -2.354  0.00  0.00    -0.059 A 
ATOM     62  HE2 PHE d   1       3.529   0.065  -1.270  0.00  0.00     0.062 H 
ATOM     63  HD2 PHE d   1       5.002   1.863  -2.082  0.00  0.00     0.062 H 
ENDBRANCH  50  53
ENDBRANCH  44  50
ENDBRANCH  38  41
ENDBRANCH  36  38
ENDBRANCH   1  34
TORSDOF 13
ENDMDL
MODEL 2
REMARK VINA RESULT:      -7.7      6.361     10.892
REMARK  11 active torsions:
REMARK  status: ('A' for Active; 'I' for Inactive)
REMARK    1  A    between atoms: C_1  and  C_2 
REMARK    2  A    between atoms: C_6  and  O_37 
REMARK    3  A    between atoms: C_7  and  C_36 
REMARK    4  A    between atoms: C_12  and  C_13 
REMARK    5  A    between atoms: C_13  and  C_14 
REMARK       I    between atoms: C_14  and  N_16 
REMARK    6  A    between atoms: N_16  and  C_17 
REMARK    7  A    between atoms: C_17  and  C_18 
REMARK       I    between atoms: C_18  and  N_20 
REMARK    8  A    between atoms: N_20  and  C_21 
REMARK    9  A    between atoms: C_21  and  C_22 
REMARK       I    between atoms: C_22  and  N_24 
REMARK       I    between atoms: N_24  and  CA_25 
REMARK   10  A    between atoms: CA_25  and  CB_27 
REMARK       I    between atoms: CA_25  and  C_34 
REMARK   11  A    between atoms: CB_27  and  CG_28 
ROOT
ATOM      1  C   UNK d   0       6.180   2.121  -9.037  0.00  0.00     0.088 C 
ATOM      2  H   UNK d   0       6.451   1.727 -10.015  0.00  0.00     0.056 H 
ATOM      3  H   UNK d   0       6.081   3.205  -9.096  0.00  0.00     0.056 H 
ENDROOT
BRANCH   1   4
ATOM      4  N   UNK d   0       4.905   1.538  -8.611  0.00  0.00    -0.306 N 
ATOM      5  C   UNK d   0       3.974   1.209  -9.527  0.00  0.00     0.218 C 
ATOM      6  O   UNK d   0       4.191   1.397 -10.706  0.00  0.00    -0.275 OA
ATOM      7  H   UNK d   0       4.732   1.387  -7.668  0.00  0.00     0.149 HD
BRANCH   5   8
ATOM      8  C   UNK d   0       2.660   0.615  -9.089  0.00  0.00     0.056 C 
ATOM      9  H   UNK d   0       2.430   0.949  -8.077  0.00  0.00     0.041 H 
ATOM     10  H   UNK d   0       1.871   0.939  -9.767  0.00  0.00     0.041 H 
BRANCH   8  11
ATOM     11  C   UNK d   0       2.756  -0.889  -9.110  0.00  0.00     0.049 A 
ATOM     12  C   UNK d   0       2.034  -1.603 -10.014  0.00  0.00    -0.029 A 
ATOM     13  C   UNK d   0       2.163  -3.063 -10.001  0.00  0.00     0.021 A 
ATOM     14  C   UNK d   0       3.015  -3.664  -9.056  0.00  0.00     0.146 A 
ATOM     15  C   UNK d   0       1.451  -3.856 -10.909  0.00  0.00    -0.047 A 
ATOM     16  C   UNK d   0       3.138  -5.045  -9.033  0.00  0.00     0.034 A 
ATOM     17  O   UNK d   0       3.699  -2.894  -8.183  0.00  0.00    -0.422 OA
ATOM     18  C   UNK d   0       2.426  -5.815  -9.937  0.00  0.00     0.123 A 
ATOM     19  C   UNK d   0       1.585  -5.214 -10.872  0.00  0.00    -0.019 A 
ATOM     20  H   UNK d   0       1.036  -5.826 -11.572  0.00  0.00     0.065 H 
ATOM     21  C   UNK d   0       3.590  -1.558  -8.191  0.00  0.00     0.341 A 
ATOM     22  O   UNK d   0       4.227  -0.905  -7.385  0.00  0.00    -0.245 OA
ATOM     23  H   UNK d   0       0.798  -3.395 -11.635  0.00  0.00     0.063 H 
BRANCH  12  24
ATOM     24  C   UNK d   0       1.131  -0.914 -11.003  0.00  0.00    -0.038 C 
ATOM     25  H   UNK d   0       0.099  -1.209 -10.818  0.00  0.00     0.028 H 
ATOM     26  H   UNK d   0       1.226   0.165 -10.890  0.00  0.00     0.028 H 
ATOM     27  H   UNK d   0       1.416  -1.201 -12.015  0.00  0.00     0.028 H 
ENDBRANCH  12  24
BRANCH  16  28
ATOM     28  C   UNK d   0       4.045  -5.706  -8.027  0.00  0.00    -0.033 C 
ATOM     29  H   UNK d   0       4.837  -5.014  -7.741  0.00  0.00     0.028 H 
ATOM     30  H   UNK d   0       3.468  -5.983  -7.144  0.00  0.00     0.028 H 
ATOM     31  H   UNK d   0       4.486  -6.600  -8.467  0.00  0.00     0.028 H 
ENDBRANCH  16  28
BRANCH  18  32
ATOM     32  O   UNK d   0       2.549  -7.167  -9.913  0.00  0.00    -0.506 OA
ATOM     33  H   UNK d   0       1.730  -7.640 -10.113  0.00  0.00     0.292 HD
ENDBRANCH  18  32
ENDBRANCH   8  11
ENDBRANCH   5   8
ENDBRANCH   1   4
BRANCH   1  34
ATOM     34  C   UNK d   0       7.252   1.768  -8.039  0.00  0.00     0.231 C 
ATOM     35  O   UNK d   0       8.383   2.177  -8.194  0.00  0.00    -0.274 OA
ATOM     36  N   UNK d   0       6.955   0.997  -6.974  0.00  0.00    -0.305 N 
ATOM     37  H   UNK d   0       6.050   0.671  -6.849  0.00  0.00     0.149 HD
BRANCH  36  38
ATOM     38  C   UNK d   0       7.998   0.654  -6.004  0.00  0.00     0.088 C 
ATOM     39  H   UNK d   0       8.957   0.575  -6.515  0.00  0.00     0.056 H 
ATOM     40  H   UNK d   0       8.055   1.431  -5.242  0.00  0.00     0.056 H 
BRANCH  38  41
ATOM     41  C   UNK d   0       7.664  -0.664  -5.355  0.00  0.00     0.231 C 
ATOM     42  O   UNK d   0       8.539  -1.321  -4.831  0.00  0.00    -0.274 OA
ATOM     43  N   PHE d   1       6.394  -1.115  -5.357  0.00  0.00    -0.306 N 
ATOM     44  CA  PHE d   1       6.069  -2.397  -4.726  0.00  0.00     0.067 C 
ATOM     45  H   PHE d   1       5.694  -0.590  -5.776  0.00  0.00     0.149 HD
ATOM     46  HA  PHE d   1       6.699  -2.539  -3.848  0.00  0.00     0.056 H 
ATOM     47  C   PHE d   1       6.315  -3.515  -5.707  0.00  0.00     0.062 C 
ATOM     48  O   PHE d   1       6.719  -3.266  -6.818  0.00  0.00    -0.548 OA
ATOM     49  OXT PHE d   1       6.084  -4.787  -5.345  0.00  0.00    -0.548 OA
BRANCH  44  50
ATOM     50  CB  PHE d   1       4.599  -2.401  -4.306  0.00  0.00    -0.004 C 
ATOM     51  HB1 PHE d   1       3.968  -2.480  -5.191  0.00  0.00     0.034 H 
ATOM     52  HB2 PHE d   1       4.411  -3.250  -3.649  0.00  0.00     0.034 H 
BRANCH  50  53
ATOM     53  CG  PHE d   1       4.281  -1.121  -3.576  0.00  0.00    -0.045 A 
ATOM     54  CD1 PHE d   1       3.423  -0.197  -4.142  0.00  0.00    -0.059 A 
ATOM     55  CE1 PHE d   1       3.131   0.977  -3.472  0.00  0.00    -0.061 A 
ATOM     56  HD1 PHE d   1       2.978  -0.393  -5.106  0.00  0.00     0.062 H 
ATOM     57  CZ  PHE d   1       3.699   1.227  -2.237  0.00  0.00    -0.062 A 
ATOM     58  HE1 PHE d   1       2.460   1.698  -3.914  0.00  0.00     0.062 H 
ATOM     59  CE2 PHE d   1       4.559   0.303  -1.671  0.00  0.00    -0.061 A 
ATOM     60  HZ  PHE d   1       3.471   2.144  -1.713  0.00  0.00     0.062 H 
ATOM     61  CD2 PHE d   1       4.846  -0.872  -2.338  0.00  0.00    -0.059 A 
ATOM     62  HE2 PHE d   1       5.002   0.499  -0.706  0.00  0.00     0.062 H 
ATOM     63  HD2 PHE d   1       5.514  -1.596  -1.895  0.00  0.00     0.062 H 
ENDBRANCH  50  53
ENDBRANCH  44  50
ENDBRANCH  38  41
ENDBRANCH  36  38
ENDBRANCH   1  34
TORSDOF 13
ENDMDL
MODEL 3
REMARK VINA RESULT:      -7.6      7.352     10.329
REMARK  11 active torsions:
REMARK  status: ('A' for Active; 'I' for Inactive)
REMARK    1  A    between atoms: C_1  and  C_2 
REMARK    2  A    between atoms: C_6  and  O_37 
REMARK    3  A    between atoms: C_7  and  C_36 
REMARK    4  A    between atoms: C_12  and  C_13 
REMARK    5  A    between atoms: C_13  and  C_14 
REMARK       I    between atoms: C_14  and  N_16 
REMARK    6  A    between atoms: N_16  and  C_17 
REMARK    7  A    between atoms: C_17  and  C_18 
REMARK       I    between atoms: C_18  and  N_20 
REMARK    8  A    between atoms: N_20  and  C_21 
REMARK    9  A    between atoms: C_21  and  C_22 
REMARK       I    between atoms: C_22  and  N_24 
REMARK       I    between atoms: N_24  and  CA_25 
REMARK   10  A    between atoms: CA_25  and  CB_27 
REMARK       I    between atoms: CA_25  and  C_34 
REMARK   11  A    between atoms: CB_27  and  CG_28 
ROOT
ATOM      1  C   UNK d   0       5.015  -5.275  -9.585  0.00  0.00     0.088 C 
ATOM      2  H   UNK d   0       5.809  -4.606  -9.917  0.00  0.00     0.056 H 
ATOM      3  H   UNK d   0       5.087  -6.220 -10.123  0.00  0.00     0.056 H 
ENDROOT
BRANCH   1   4
ATOM      4  N   UNK d   0       5.151  -5.519  -8.147  0.00  0.00    -0.306 N 
ATOM      5  C   UNK d   0       6.375  -5.623  -7.594  0.00  0.00     0.218 C 
ATOM      6  O   UNK d   0       7.365  -5.515  -8.287  0.00  0.00    -0.275 OA
ATOM      7  H   UNK d   0       4.360  -5.605  -7.593  0.00  0.00     0.149 HD
BRANCH   5   8
ATOM      8  C   UNK d   0       6.515  -5.881  -6.116  0.00  0.00     0.056 C 
ATOM      9  H   UNK d   0       5.909  -6.744  -5.838  0.00  0.00     0.041 H 
ATOM     10  H   UNK d   0       7.561  -6.081  -5.880  0.00  0.00     0.041 H 
BRANCH   8  11
ATOM     11  C   UNK d   0       6.049  -4.673  -5.347  0.00  0.00     0.049 A 
ATOM     12  C   UNK d   0       6.938  -3.711  -4.986  0.00  0.00    -0.029 A 
ATOM     13  C   UNK d   0       6.438  -2.551  -4.244  0.00  0.00     0.021 A 
ATOM     14  C   UNK d   0       5.068  -2.482  -3.928  0.00  0.00     0.146 A 
ATOM     15  C   UNK d   0       7.301  -1.523  -3.848  0.00  0.00    -0.047 A 
ATOM     16  C   UNK d   0       4.587  -1.391  -3.221  0.00  0.00     0.034 A 
ATOM     17  O   UNK d   0       4.240  -3.476  -4.313  0.00  0.00    -0.422 OA
ATOM     18  C   UNK d   0       5.455  -0.382  -2.836  0.00  0.00     0.123 A 
ATOM     19  C   UNK d   0       6.810  -0.455  -3.153  0.00  0.00    -0.019 A 
ATOM     20  H   UNK d   0       7.476   0.338  -2.846  0.00  0.00     0.065 H 
ATOM     21  C   UNK d   0       4.689  -4.539  -4.997  0.00  0.00     0.341 A 
ATOM     22  O   UNK d   0       3.905  -5.410  -5.323  0.00  0.00    -0.245 OA
ATOM     23  H   UNK d   0       8.353  -1.574  -4.090  0.00  0.00     0.063 H 
BRANCH  12  24
ATOM     24  C   UNK d   0       8.396  -3.831  -5.342  0.00  0.00    -0.038 C 
ATOM     25  H   UNK d   0       8.940  -4.266  -4.503  0.00  0.00     0.028 H 
ATOM     26  H   UNK d   0       8.505  -4.473  -6.216  0.00  0.00     0.028 H 
ATOM     27  H   UNK d   0       8.799  -2.843  -5.564  0.00  0.00     0.028 H 
ENDBRANCH  12  24
BRANCH  16  28
ATOM     28  C   UNK d   0       3.123  -1.301  -2.874  0.00  0.00    -0.033 C 
ATOM     29  H   UNK d   0       2.626  -2.231  -3.149  0.00  0.00     0.028 H 
ATOM     30  H   UNK d   0       3.013  -1.134  -1.803  0.00  0.00     0.028 H 
ATOM     31  H   UNK d   0       2.670  -0.472  -3.419  0.00  0.00     0.028 H 
ENDBRANCH  16  28
BRANCH  18  32
ATOM     32  O   UNK d   0       4.982   0.685  -2.144  0.00  0.00    -0.506 OA
ATOM     33  H   UNK d   0       5.239   0.696  -1.212  0.00  0.00     0.292 HD
ENDBRANCH  18  32
ENDBRANCH   8  11
ENDBRANCH   5   8
ENDBRANCH   1   4
BRANCH   1  34
ATOM     34  C   UNK d   0       3.676  -4.640  -9.862  0.00  0.00     0.231 C 
ATOM     35  O   UNK d   0       2.657  -5.197  -9.515  0.00  0.00    -0.274 OA
ATOM     36  N   UNK d   0       3.612  -3.452 -10.497  0.00  0.00    -0.305 N 
ATOM     37  H   UNK d   0       4.428  -3.006 -10.774  0.00  0.00     0.149 HD
BRANCH  36  38
ATOM     38  C   UNK d   0       2.312  -2.835 -10.766  0.00  0.00     0.088 C 
ATOM     39  H   UNK d   0       2.286  -2.476 -11.796  0.00  0.00     0.056 H 
ATOM     40  H   UNK d   0       1.522  -3.572 -10.619  0.00  0.00     0.056 H 
BRANCH  38  41
ATOM     41  C   UNK d   0       2.101  -1.677  -9.825  0.00  0.00     0.231 C 
ATOM     42  O   UNK d   0       1.076  -1.032  -9.876  0.00  0.00    -0.274 OA
ATOM     43  N   PHE d   1       3.053  -1.358  -8.926  0.00  0.00    -0.306 N 
ATOM     44  CA  PHE d   1       2.849  -0.232  -8.011  0.00  0.00     0.067 C 
ATOM     45  H   PHE d   1       3.874  -1.874  -8.884  0.00  0.00     0.149 HD
ATOM     46  HA  PHE d   1       1.796  -0.173  -7.737  0.00  0.00     0.056 H 
ATOM     47  C   PHE d   1       3.264   1.048  -8.689  0.00  0.00     0.062 C 
ATOM     48  O   PHE d   1       3.687   1.022  -9.821  0.00  0.00    -0.548 OA
ATOM     49  OXT PHE d   1       3.164   2.217  -8.036  0.00  0.00    -0.548 OA
BRANCH  44  50
ATOM     50  CB  PHE d   1       3.693  -0.439  -6.752  0.00  0.00    -0.004 C 
ATOM     51  HB1 PHE d   1       3.628   0.448  -6.121  0.00  0.00     0.034 H 
ATOM     52  HB2 PHE d   1       3.319  -1.302  -6.201  0.00  0.00     0.034 H 
BRANCH  50  53
ATOM     53  CG  PHE d   1       5.129  -0.675  -7.141  0.00  0.00    -0.045 A 
ATOM     54  CD1 PHE d   1       6.094   0.262  -6.824  0.00  0.00    -0.059 A 
ATOM     55  CE1 PHE d   1       7.412   0.046  -7.182  0.00  0.00    -0.061 A 
ATOM     56  HD1 PHE d   1       5.819   1.163  -6.295  0.00  0.00     0.062 H 
ATOM     57  CZ  PHE d   1       7.764  -1.108  -7.858  0.00  0.00    -0.062 A 
ATOM     58  HE1 PHE d   1       8.166   0.777  -6.933  0.00  0.00     0.062 H 
ATOM     59  CE2 PHE d   1       6.799  -2.045  -8.176  0.00  0.00    -0.061 A 
ATOM     60  HZ  PHE d   1       8.794  -1.277  -8.137  0.00  0.00     0.062 H 
ATOM     61  CD2 PHE d   1       5.482  -1.831  -7.813  0.00  0.00    -0.059 A 
ATOM     62  HE2 PHE d   1       7.074  -2.946  -8.703  0.00  0.00     0.062 H 
ATOM     63  HD2 PHE d   1       4.728  -2.564  -8.058  0.00  0.00     0.062 H 
ENDBRANCH  50  53
ENDBRANCH  44  50
ENDBRANCH  38  41
ENDBRANCH  36  38
ENDBRANCH   1  34
TORSDOF 13
ENDMDL
MODEL 4
REMARK VINA RESULT:      -7.5      2.570      3.941
REMARK  11 active torsions:
REMARK  status: ('A' for Active; 'I' for Inactive)
REMARK    1  A    between atoms: C_1  and  C_2 
REMARK    2  A    between atoms: C_6  and  O_37 
REMARK    3  A    between atoms: C_7  and  C_36 
REMARK    4  A    between atoms: C_12  and  C_13 
REMARK    5  A    between atoms: C_13  and  C_14 
REMARK       I    between atoms: C_14  and  N_16 
REMARK    6  A    between atoms: N_16  and  C_17 
REMARK    7  A    between atoms: C_17  and  C_18 
REMARK       I    between atoms: C_18  and  N_20 
REMARK    8  A    between atoms: N_20  and  C_21 
REMARK    9  A    between atoms: C_21  and  C_22 
REMARK       I    between atoms: C_22  and  N_24 
REMARK       I    between atoms: N_24  and  CA_25 
REMARK   10  A    between atoms: CA_25  and  CB_27 
REMARK       I    between atoms: CA_25  and  C_34 
REMARK   11  A    between atoms: CB_27  and  CG_28 
ROOT
ATOM      1  C   UNK d   0       8.566   2.647  -3.828  0.00  0.00     0.088 C 
ATOM      2  H   UNK d   0       8.748   2.160  -2.871  0.00  0.00     0.056 H 
ATOM      3  H   UNK d   0       7.582   3.115  -3.818  0.00  0.00     0.056 H 
ENDROOT
BRANCH   1   4
ATOM      4  N   UNK d   0       9.590   3.670  -4.058  0.00  0.00    -0.306 N 
ATOM      5  C   UNK d   0      10.640   3.771  -3.221  0.00  0.00     0.218 C 
ATOM      6  O   UNK d   0      10.739   3.017  -2.276  0.00  0.00    -0.275 OA
ATOM      7  H   UNK d   0       9.512   4.273  -4.814  0.00  0.00     0.149 HD
BRANCH   5   8
ATOM      8  C   UNK d   0      11.691   4.827  -3.454  0.00  0.00     0.056 C 
ATOM      9  H   UNK d   0      12.626   4.518  -2.986  0.00  0.00     0.041 H 
ATOM     10  H   UNK d   0      11.846   4.955  -4.525  0.00  0.00     0.041 H 
BRANCH   8  11
ATOM     11  C   UNK d   0      11.236   6.131  -2.852  0.00  0.00     0.049 A 
ATOM     12  C   UNK d   0      11.581   6.449  -1.577  0.00  0.00    -0.029 A 
ATOM     13  C   UNK d   0      11.121   7.730  -1.035  0.00  0.00     0.021 A 
ATOM     14  C   UNK d   0      10.338   8.572  -1.847  0.00  0.00     0.146 A 
ATOM     15  C   UNK d   0      11.445   8.118   0.270  0.00  0.00    -0.047 A 
ATOM     16  C   UNK d   0       9.893   9.784  -1.342  0.00  0.00     0.034 A 
ATOM     17  O   UNK d   0      10.027   8.192  -3.105  0.00  0.00    -0.422 OA
ATOM     18  C   UNK d   0      10.223  10.153  -0.048  0.00  0.00     0.123 A 
ATOM     19  C   UNK d   0      10.999   9.316   0.751  0.00  0.00    -0.019 A 
ATOM     20  H   UNK d   0      11.249   9.615   1.758  0.00  0.00     0.065 H 
ATOM     21  C   UNK d   0      10.449   7.023  -3.609  0.00  0.00     0.341 A 
ATOM     22  O   UNK d   0      10.145   6.724  -4.749  0.00  0.00    -0.245 OA
ATOM     23  H   UNK d   0      12.046   7.473   0.893  0.00  0.00     0.063 H 
BRANCH  12  24
ATOM     24  C   UNK d   0      12.416   5.512  -0.744  0.00  0.00    -0.038 C 
ATOM     25  H   UNK d   0      12.635   5.978   0.217  0.00  0.00     0.028 H 
ATOM     26  H   UNK d   0      11.868   4.584  -0.580  0.00  0.00     0.028 H 
ATOM     27  H   UNK d   0      13.349   5.296  -1.265  0.00  0.00     0.028 H 
ENDBRANCH  12  24
BRANCH  16  28
ATOM     28  C   UNK d   0       9.054  10.697  -2.197  0.00  0.00    -0.033 C 
ATOM     29  H   UNK d   0       9.691  11.453  -2.656  0.00  0.00     0.028 H 
ATOM     30  H   UNK d   0       8.562  10.115  -2.976  0.00  0.00     0.028 H 
ATOM     31  H   UNK d   0       8.300  11.185  -1.578  0.00  0.00     0.028 H 
ENDBRANCH  16  28
BRANCH  18  32
ATOM     32  O   UNK d   0       9.787  11.340   0.445  0.00  0.00    -0.506 OA
ATOM     33  H   UNK d   0       9.733  11.369   1.410  0.00  0.00     0.292 HD
ENDBRANCH  18  32
ENDBRANCH   8  11
ENDBRANCH   5   8
ENDBRANCH   1   4
BRANCH   1  34
ATOM     34  C   UNK d   0       8.623   1.622  -4.931  0.00  0.00     0.231 C 
ATOM     35  O   UNK d   0       9.684   1.122  -5.239  0.00  0.00    -0.274 OA
ATOM     36  N   UNK d   0       7.495   1.261  -5.575  0.00  0.00    -0.305 N 
ATOM     37  H   UNK d   0       6.647   1.661  -5.328  0.00  0.00     0.149 HD
BRANCH  36  38
ATOM     38  C   UNK d   0       7.551   0.264  -6.647  0.00  0.00     0.088 C 
ATOM     39  H   UNK d   0       7.856   0.747  -7.576  0.00  0.00     0.056 H 
ATOM     40  H   UNK d   0       8.273  -0.510  -6.386  0.00  0.00     0.056 H 
BRANCH  38  41
ATOM     41  C   UNK d   0       6.189  -0.357  -6.826  0.00  0.00     0.231 C 
ATOM     42  O   UNK d   0       6.080  -1.432  -7.375  0.00  0.00    -0.274 OA
ATOM     43  N   PHE d   1       5.092   0.285  -6.377  0.00  0.00    -0.306 N 
ATOM     44  CA  PHE d   1       3.768  -0.318  -6.552  0.00  0.00     0.067 C 
ATOM     45  H   PHE d   1       5.179   1.146  -5.938  0.00  0.00     0.149 HD
ATOM     46  HA  PHE d   1       3.847  -1.401  -6.456  0.00  0.00     0.056 H 
ATOM     47  C   PHE d   1       3.235   0.028  -7.918  0.00  0.00     0.062 C 
ATOM     48  O   PHE d   1       3.893   0.709  -8.668  0.00  0.00    -0.548 OA
ATOM     49  OXT PHE d   1       2.028  -0.419  -8.301  0.00  0.00    -0.548 OA
BRANCH  44  50
ATOM     50  CB  PHE d   1       2.817   0.221  -5.481  0.00  0.00    -0.004 C 
ATOM     51  HB1 PHE d   1       2.706   1.298  -5.604  0.00  0.00     0.034 H 
ATOM     52  HB2 PHE d   1       1.844  -0.258  -5.585  0.00  0.00     0.034 H 
BRANCH  50  53
ATOM     53  CG  PHE d   1       3.380  -0.074  -4.115  0.00  0.00    -0.045 A 
ATOM     54  CD1 PHE d   1       3.677   0.964  -3.251  0.00  0.00    -0.059 A 
ATOM     55  CE1 PHE d   1       4.193   0.694  -1.997  0.00  0.00    -0.061 A 
ATOM     56  HD1 PHE d   1       3.505   1.985  -3.555  0.00  0.00     0.062 H 
ATOM     57  CZ  PHE d   1       4.413  -0.615  -1.607  0.00  0.00    -0.062 A 
ATOM     58  HE1 PHE d   1       4.424   1.504  -1.322  0.00  0.00     0.062 H 
ATOM     59  CE2 PHE d   1       4.116  -1.653  -2.472  0.00  0.00    -0.061 A 
ATOM     60  HZ  PHE d   1       4.815  -0.826  -0.628  0.00  0.00     0.062 H 
ATOM     61  CD2 PHE d   1       3.595  -1.382  -3.723  0.00  0.00    -0.059 A 
ATOM     62  HE2 PHE d   1       4.287  -2.674  -2.167  0.00  0.00     0.062 H 
ATOM     63  HD2 PHE d   1       3.360  -2.193  -4.397  0.00  0.00     0.062 H 
ENDBRANCH  50  53
ENDBRANCH  44  50
ENDBRANCH  38  41
ENDBRANCH  36  38
ENDBRANCH   1  34
TORSDOF 13
ENDMDL
MODEL 5
REMARK VINA RESULT:      -7.5      6.694      9.855
REMARK  11 active torsions:
REMARK  status: ('A' for Active; 'I' for Inactive)
REMARK    1  A    between atoms: C_1  and  C_2 
REMARK    2  A    between atoms: C_6  and  O_37 
REMARK    3  A    between atoms: C_7  and  C_36 
REMARK    4  A    between atoms: C_12  and  C_13 
REMARK    5  A    between atoms: C_13  and  C_14 
REMARK       I    between atoms: C_14  and  N_16 
REMARK    6  A    between atoms: N_16  and  C_17 
REMARK    7  A    between atoms: C_17  and  C_18 
REMARK       I    between atoms: C_18  and  N_20 
REMARK    8  A    between atoms: N_20  and  C_21 
REMARK    9  A    between atoms: C_21  and  C_22 
REMARK       I    between atoms: C_22  and  N_24 
REMARK       I    between atoms: N_24  and  CA_25 
REMARK   10  A    between atoms: CA_25  and  CB_27 
REMARK       I    between atoms: CA_25  and  C_34 
REMARK   11  A    between atoms: CB_27  and  CG_28 
ROOT
ATOM      1  C   UNK d   0       1.088  -3.378 -10.641  0.00  0.00     0.088 C 
ATOM      2  H   UNK d   0       0.091  -3.802 -10.524  0.00  0.00     0.056 H 
ATOM      3  H   UNK d   0       1.348  -3.344 -11.699  0.00  0.00     0.056 H 
ENDROOT
BRANCH   1   4
ATOM      4  N   UNK d   0       1.110  -2.021 -10.089  0.00  0.00    -0.306 N 
ATOM      5  C   UNK d   0       2.063  -1.151 -10.476  0.00  0.00     0.218 C 
ATOM      6  O   UNK d   0       2.904  -1.491 -11.281  0.00  0.00    -0.275 OA
ATOM      7  H   UNK d   0       0.438  -1.749  -9.445  0.00  0.00     0.149 HD
BRANCH   5   8
ATOM      8  C   UNK d   0       2.089   0.243  -9.903  0.00  0.00     0.056 C 
ATOM      9  H   UNK d   0       1.816   0.959 -10.678  0.00  0.00     0.041 H 
ATOM     10  H   UNK d   0       1.378   0.311  -9.080  0.00  0.00     0.041 H 
BRANCH   8  11
ATOM     11  C   UNK d   0       3.474   0.554  -9.398  0.00  0.00     0.049 A 
ATOM     12  C   UNK d   0       3.833   0.202  -8.136  0.00  0.00    -0.029 A 
ATOM     13  C   UNK d   0       5.192   0.519  -7.690  0.00  0.00     0.021 A 
ATOM     14  C   UNK d   0       6.064   1.179  -8.576  0.00  0.00     0.146 A 
ATOM     15  C   UNK d   0       5.625   0.179  -6.403  0.00  0.00    -0.047 A 
ATOM     16  C   UNK d   0       7.350   1.489  -8.161  0.00  0.00     0.034 A 
ATOM     17  O   UNK d   0       5.641   1.505  -9.816  0.00  0.00    -0.422 OA
ATOM     18  C   UNK d   0       7.763   1.146  -6.884  0.00  0.00     0.123 A 
ATOM     19  C   UNK d   0       6.895   0.492  -6.011  0.00  0.00    -0.019 A 
ATOM     20  H   UNK d   0       7.230   0.230  -5.018  0.00  0.00     0.065 H 
ATOM     21  C   UNK d   0       4.400   1.213 -10.233  0.00  0.00     0.341 A 
ATOM     22  O   UNK d   0       4.064   1.526 -11.360  0.00  0.00    -0.245 OA
ATOM     23  H   UNK d   0       4.957  -0.327  -5.722  0.00  0.00     0.063 H 
BRANCH  12  24
ATOM     24  C   UNK d   0       2.862  -0.498  -7.221  0.00  0.00    -0.038 C 
ATOM     25  H   UNK d   0       2.420   0.227  -6.538  0.00  0.00     0.028 H 
ATOM     26  H   UNK d   0       2.076  -0.965  -7.814  0.00  0.00     0.028 H 
ATOM     27  H   UNK d   0       3.388  -1.262  -6.649  0.00  0.00     0.028 H 
ENDBRANCH  12  24
BRANCH  16  28
ATOM     28  C   UNK d   0       8.297   2.195  -9.096  0.00  0.00    -0.033 C 
ATOM     29  H   UNK d   0       8.945   2.860  -8.525  0.00  0.00     0.028 H 
ATOM     30  H   UNK d   0       8.904   1.459  -9.622  0.00  0.00     0.028 H 
ATOM     31  H   UNK d   0       7.726   2.778  -9.820  0.00  0.00     0.028 H 
ENDBRANCH  16  28
BRANCH  18  32
ATOM     32  O   UNK d   0       9.022   1.450  -6.479  0.00  0.00    -0.506 OA
ATOM     33  H   UNK d   0       9.665   1.502  -7.199  0.00  0.00     0.292 HD
ENDBRANCH  18  32
ENDBRANCH   8  11
ENDBRANCH   5   8
ENDBRANCH   1   4
BRANCH   1  34
ATOM     34  C   UNK d   0       2.087  -4.236  -9.907  0.00  0.00     0.231 C 
ATOM     35  O   UNK d   0       2.347  -5.347 -10.315  0.00  0.00    -0.274 OA
ATOM     36  N   UNK d   0       2.690  -3.767  -8.796  0.00  0.00    -0.305 N 
ATOM     37  H   UNK d   0       2.481  -2.878  -8.469  0.00  0.00     0.149 HD
BRANCH  36  38
ATOM     38  C   UNK d   0       3.660  -4.601  -8.082  0.00  0.00     0.088 C 
ATOM     39  H   UNK d   0       3.132  -5.371  -7.519  0.00  0.00     0.056 H 
ATOM     40  H   UNK d   0       4.331  -5.072  -8.800  0.00  0.00     0.056 H 
BRANCH  38  41
ATOM     41  C   UNK d   0       4.457  -3.743  -7.134  0.00  0.00     0.231 C 
ATOM     42  O   UNK d   0       5.229  -2.915  -7.568  0.00  0.00    -0.274 OA
ATOM     43  N   PHE d   1       4.313  -3.896  -5.803  0.00  0.00    -0.306 N 
ATOM     44  CA  PHE d   1       5.089  -3.063  -4.880  0.00  0.00     0.067 C 
ATOM     45  H   PHE d   1       3.695  -4.558  -5.455  0.00  0.00     0.149 HD
ATOM     46  HA  PHE d   1       5.211  -2.067  -5.307  0.00  0.00     0.056 H 
ATOM     47  C   PHE d   1       6.444  -3.685  -4.660  0.00  0.00     0.062 C 
ATOM     48  O   PHE d   1       6.731  -4.718  -5.216  0.00  0.00    -0.548 OA
ATOM     49  OXT PHE d   1       7.330  -3.090  -3.846  0.00  0.00    -0.548 OA
BRANCH  44  50
ATOM     50  CB  PHE d   1       4.352  -2.958  -3.544  0.00  0.00    -0.004 C 
ATOM     51  HB1 PHE d   1       3.380  -3.445  -3.627  0.00  0.00     0.034 H 
ATOM     52  HB2 PHE d   1       4.938  -3.447  -2.767  0.00  0.00     0.034 H 
BRANCH  50  53
ATOM     53  CG  PHE d   1       4.157  -1.507  -3.190  0.00  0.00    -0.045 A 
ATOM     54  CD1 PHE d   1       3.158  -0.773  -3.800  0.00  0.00    -0.059 A 
ATOM     55  CE1 PHE d   1       2.979   0.559  -3.475  0.00  0.00    -0.061 A 
ATOM     56  HD1 PHE d   1       2.515  -1.241  -4.531  0.00  0.00     0.062 H 
ATOM     57  CZ  PHE d   1       3.801   1.157  -2.538  0.00  0.00    -0.062 A 
ATOM     58  HE1 PHE d   1       2.198   1.131  -3.951  0.00  0.00     0.062 H 
ATOM     59  CE2 PHE d   1       4.802   0.424  -1.927  0.00  0.00    -0.061 A 
ATOM     60  HZ  PHE d   1       3.662   2.197  -2.283  0.00  0.00     0.062 H 
ATOM     61  CD2 PHE d   1       4.976  -0.909  -2.249  0.00  0.00    -0.059 A 
ATOM     62  HE2 PHE d   1       5.443   0.891  -1.195  0.00  0.00     0.062 H 
ATOM     63  HD2 PHE d   1       5.755  -1.483  -1.769  0.00  0.00     0.062 H 
ENDBRANCH  50  53
ENDBRANCH  44  50
ENDBRANCH  38  41
ENDBRANCH  36  38
ENDBRANCH   1  34
TORSDOF 13
ENDMDL
MODEL 6
REMARK VINA RESULT:      -7.4      1.787      3.925
REMARK  11 active torsions:
REMARK  status: ('A' for Active; 'I' for Inactive)
REMARK    1  A    between atoms: C_1  and  C_2 
REMARK    2  A    between atoms: C_6  and  O_37 
REMARK    3  A    between atoms: C_7  and  C_36 
REMARK    4  A    between atoms: C_12  and  C_13 
REMARK    5  A    between atoms: C_13  and  C_14 
REMARK       I    between atoms: C_14  and  N_16 
REMARK    6  A    between atoms: N_16  and  C_17 
REMARK    7  A    between atoms: C_17  and  C_18 
REMARK       I    between atoms: C_18  and  N_20 
REMARK    8  A    between atoms: N_20  and  C_21 
REMARK    9  A    between atoms: C_21  and  C_22 
REMARK       I    between atoms: C_22  and  N_24 
REMARK       I    between atoms: N_24  and  CA_25 
REMARK   10  A    between atoms: CA_25  and  CB_27 
REMARK       I    between atoms: CA_25  and  C_34 
REMARK   11  A    between atoms: CB_27  and  CG_28 
ROOT
ATOM      1  C   UNK d   0      13.238   4.087  -3.068  0.00  0.00     0.088 C 
ATOM      2  H   UNK d   0      13.939   4.725  -3.608  0.00  0.00     0.056 H 
ATOM      3  H   UNK d   0      13.560   3.988  -2.032  0.00  0.00     0.056 H 
ENDROOT
BRANCH   1   4
ATOM      4  N   UNK d   0      11.901   4.686  -3.110  0.00  0.00    -0.306 N 
ATOM      5  C   UNK d   0      11.338   5.155  -1.980  0.00  0.00     0.218 C 
ATOM      6  O   UNK d   0      11.936   5.081  -0.928  0.00  0.00    -0.275 OA
ATOM      7  H   UNK d   0      11.423   4.746  -3.952  0.00  0.00     0.149 HD
BRANCH   5   8
ATOM      8  C   UNK d   0       9.960   5.766  -2.021  0.00  0.00     0.056 C 
ATOM      9  H   UNK d   0       9.214   4.973  -2.079  0.00  0.00     0.041 H 
ATOM     10  H   UNK d   0       9.797   6.354  -1.118  0.00  0.00     0.041 H 
BRANCH   8  11
ATOM     11  C   UNK d   0       9.840   6.657  -3.230  0.00  0.00     0.049 A 
ATOM     12  C   UNK d   0      10.161   7.974  -3.139  0.00  0.00    -0.029 A 
ATOM     13  C   UNK d   0      10.034   8.801  -4.342  0.00  0.00     0.021 A 
ATOM     14  C   UNK d   0       9.579   8.206  -5.533  0.00  0.00     0.146 A 
ATOM     15  C   UNK d   0      10.354  10.163  -4.316  0.00  0.00    -0.047 A 
ATOM     16  C   UNK d   0       9.450   8.982  -6.675  0.00  0.00     0.034 A 
ATOM     17  O   UNK d   0       9.272   6.891  -5.553  0.00  0.00    -0.422 OA
ATOM     18  C   UNK d   0       9.771  10.329  -6.632  0.00  0.00     0.123 A 
ATOM     19  C   UNK d   0      10.221  10.912  -5.449  0.00  0.00    -0.019 A 
ATOM     20  H   UNK d   0      10.467  11.964  -5.430  0.00  0.00     0.065 H 
ATOM     21  C   UNK d   0       9.391   6.127  -4.457  0.00  0.00     0.341 A 
ATOM     22  O   UNK d   0       9.103   4.946  -4.523  0.00  0.00    -0.245 OA
ATOM     23  H   UNK d   0      10.703  10.621  -3.402  0.00  0.00     0.063 H 
BRANCH  12  24
ATOM     24  C   UNK d   0      10.638   8.567  -1.839  0.00  0.00    -0.038 C 
ATOM     25  H   UNK d   0      10.236   7.989  -1.007  0.00  0.00     0.028 H 
ATOM     26  H   UNK d   0      11.727   8.541  -1.806  0.00  0.00     0.028 H 
ATOM     27  H   UNK d   0      10.296   9.599  -1.764  0.00  0.00     0.028 H 
ENDBRANCH  12  24
BRANCH  16  28
ATOM     28  C   UNK d   0       8.964   8.362  -7.959  0.00  0.00    -0.033 C 
ATOM     29  H   UNK d   0       9.717   7.670  -8.337  0.00  0.00     0.028 H 
ATOM     30  H   UNK d   0       8.036   7.822  -7.774  0.00  0.00     0.028 H 
ATOM     31  H   UNK d   0       8.787   9.144  -8.698  0.00  0.00     0.028 H 
ENDBRANCH  16  28
BRANCH  18  32
ATOM     32  O   UNK d   0       9.644  11.087  -7.751  0.00  0.00    -0.506 OA
ATOM     33  H   UNK d   0       9.899  10.632  -8.566  0.00  0.00     0.292 HD
ENDBRANCH  18  32
ENDBRANCH   8  11
ENDBRANCH   5   8
ENDBRANCH   1   4
BRANCH   1  34
ATOM     34  C   UNK d   0      13.199   2.726  -3.714  0.00  0.00     0.231 C 
ATOM     35  O   UNK d   0      14.157   2.324  -4.339  0.00  0.00    -0.274 OA
ATOM     36  N   UNK d   0      12.098   1.956  -3.598  0.00  0.00    -0.305 N 
ATOM     37  H   UNK d   0      11.332   2.278  -3.098  0.00  0.00     0.149 HD
BRANCH  36  38
ATOM     38  C   UNK d   0      12.061   0.634  -4.226  0.00  0.00     0.088 C 
ATOM     39  H   UNK d   0      12.691   0.636  -5.116  0.00  0.00     0.056 H 
ATOM     40  H   UNK d   0      12.428  -0.113  -3.522  0.00  0.00     0.056 H 
BRANCH  38  41
ATOM     41  C   UNK d   0      10.643   0.303  -4.615  0.00  0.00     0.231 C 
ATOM     42  O   UNK d   0      10.400  -0.727  -5.205  0.00  0.00    -0.274 OA
ATOM     43  N   PHE d   1       9.644   1.155  -4.308  0.00  0.00    -0.306 N 
ATOM     44  CA  PHE d   1       8.265   0.835  -4.686  0.00  0.00     0.067 C 
ATOM     45  H   PHE d   1       9.838   1.980  -3.835  0.00  0.00     0.149 HD
ATOM     46  HA  PHE d   1       8.109  -0.241  -4.613  0.00  0.00     0.056 H 
ATOM     47  C   PHE d   1       8.017   1.283  -6.104  0.00  0.00     0.062 C 
ATOM     48  O   PHE d   1       8.901   1.815  -6.732  0.00  0.00    -0.548 OA
ATOM     49  OXT PHE d   1       6.813   1.091  -6.667  0.00  0.00    -0.548 OA
BRANCH  44  50
ATOM     50  CB  PHE d   1       7.298   1.556  -3.746  0.00  0.00    -0.004 C 
ATOM     51  HB1 PHE d   1       7.858   2.018  -2.933  0.00  0.00     0.034 H 
ATOM     52  HB2 PHE d   1       6.760   2.326  -4.299  0.00  0.00     0.034 H 
BRANCH  50  53
ATOM     53  CG  PHE d   1       6.315   0.565  -3.179  0.00  0.00    -0.045 A 
ATOM     54  CD1 PHE d   1       5.255   1.005  -2.409  0.00  0.00    -0.059 A 
ATOM     55  CE1 PHE d   1       4.353   0.095  -1.888  0.00  0.00    -0.061 A 
ATOM     56  HD1 PHE d   1       5.131   2.060  -2.214  0.00  0.00     0.062 H 
ATOM     57  CZ  PHE d   1       4.511  -1.255  -2.139  0.00  0.00    -0.062 A 
ATOM     58  HE1 PHE d   1       3.525   0.439  -1.287  0.00  0.00     0.062 H 
ATOM     59  CE2 PHE d   1       5.572  -1.696  -2.909  0.00  0.00    -0.061 A 
ATOM     60  HZ  PHE d   1       3.807  -1.966  -1.733  0.00  0.00     0.062 H 
ATOM     61  CD2 PHE d   1       6.470  -0.786  -3.434  0.00  0.00    -0.059 A 
ATOM     62  HE2 PHE d   1       5.695  -2.751  -3.105  0.00  0.00     0.062 H 
ATOM     63  HD2 PHE d   1       7.296  -1.129  -4.039  0.00  0.00     0.062 H 
ENDBRANCH  50  53
ENDBRANCH  44  50
ENDBRANCH  38  41
ENDBRANCH  36  38
ENDBRANCH   1  34
TORSDOF 13
ENDMDL
MODEL 7
REMARK VINA RESULT:      -7.4      8.550     14.640
REMARK  11 active torsions:
REMARK  status: ('A' for Active; 'I' for Inactive)
REMARK    1  A    between atoms: C_1  and  C_2 
REMARK    2  A    between atoms: C_6  and  O_37 
REMARK    3  A    between atoms: C_7  and  C_36 
REMARK    4  A    between atoms: C_12  and  C_13 
REMARK    5  A    between atoms: C_13  and  C_14 
REMARK       I    between atoms: C_14  and  N_16 
REMARK    6  A    between atoms: N_16  and  C_17 
REMARK    7  A    between atoms: C_17  and  C_18 
REMARK       I    between atoms: C_18  and  N_20 
REMARK    8  A    between atoms: N_20  and  C_21 
REMARK    9  A    between atoms: C_21  and  C_22 
REMARK       I    between atoms: C_22  and  N_24 
REMARK       I    between atoms: N_24  and  CA_25 
REMARK   10  A    between atoms: CA_25  and  CB_27 
REMARK       I    between atoms: CA_25  and  C_34 
REMARK   11  A    between atoms: CB_27  and  CG_28 
ROOT
ATOM      1  C   UNK d   0       5.095  -8.695  -7.956  0.00  0.00     0.088 C 
ATOM      2  H   UNK d   0       6.124  -8.371  -7.797  0.00  0.00     0.056 H 
ATOM      3  H   UNK d   0       5.028  -9.245  -8.895  0.00  0.00     0.056 H 
ENDROOT
BRANCH   1   4
ATOM      4  N   UNK d   0       4.681  -9.562  -6.850  0.00  0.00    -0.306 N 
ATOM      5  C   UNK d   0       4.280 -10.824  -7.098  0.00  0.00     0.218 C 
ATOM      6  O   UNK d   0       4.261 -11.243  -8.236  0.00  0.00    -0.275 OA
ATOM      7  H   UNK d   0       4.696  -9.228  -5.940  0.00  0.00     0.149 HD
BRANCH   5   8
ATOM      8  C   UNK d   0       3.847 -11.715  -5.961  0.00  0.00     0.056 C 
ATOM      9  H   UNK d   0       2.970 -11.285  -5.477  0.00  0.00     0.041 H 
ATOM     10  H   UNK d   0       3.600 -12.703  -6.349  0.00  0.00     0.041 H 
BRANCH   8  11
ATOM     11  C   UNK d   0       4.966 -11.833  -4.960  0.00  0.00     0.049 A 
ATOM     12  C   UNK d   0       4.899 -11.161  -3.781  0.00  0.00    -0.029 A 
ATOM     13  C   UNK d   0       6.008 -11.311  -2.836  0.00  0.00     0.021 A 
ATOM     14  C   UNK d   0       7.096 -12.131  -3.185  0.00  0.00     0.146 A 
ATOM     15  C   UNK d   0       5.996 -10.648  -1.602  0.00  0.00    -0.047 A 
ATOM     16  C   UNK d   0       8.153 -12.274  -2.299  0.00  0.00     0.034 A 
ATOM     17  O   UNK d   0       7.102 -12.767  -4.376  0.00  0.00    -0.422 OA
ATOM     18  C   UNK d   0       8.126 -11.612  -1.083  0.00  0.00     0.123 A 
ATOM     19  C   UNK d   0       7.045 -10.801  -0.742  0.00  0.00    -0.019 A 
ATOM     20  H   UNK d   0       7.037 -10.290   0.210  0.00  0.00     0.065 H 
ATOM     21  C   UNK d   0       6.088 -12.639  -5.245  0.00  0.00     0.341 A 
ATOM     22  O   UNK d   0       6.137 -13.232  -6.306  0.00  0.00    -0.245 OA
ATOM     23  H   UNK d   0       5.161 -10.019  -1.333  0.00  0.00     0.063 H 
BRANCH  12  24
ATOM     24  C   UNK d   0       3.715 -10.289  -3.454  0.00  0.00    -0.038 C 
ATOM     25  H   UNK d   0       3.615  -9.513  -4.212  0.00  0.00     0.028 H 
ATOM     26  H   UNK d   0       2.811 -10.897  -3.435  0.00  0.00     0.028 H 
ATOM     27  H   UNK d   0       3.863  -9.827  -2.478  0.00  0.00     0.028 H 
ENDBRANCH  12  24
BRANCH  16  28
ATOM     28  C   UNK d   0       9.327 -13.148  -2.658  0.00  0.00    -0.033 C 
ATOM     29  H   UNK d   0       9.772 -13.551  -1.748  0.00  0.00     0.028 H 
ATOM     30  H   UNK d   0       8.989 -13.969  -3.290  0.00  0.00     0.028 H 
ATOM     31  H   UNK d   0      10.069 -12.558  -3.196  0.00  0.00     0.028 H 
ENDBRANCH  16  28
BRANCH  18  32
ATOM     32  O   UNK d   0       9.162 -11.753  -0.217  0.00  0.00    -0.506 OA
ATOM     33  H   UNK d   0       9.120 -12.556   0.319  0.00  0.00     0.292 HD
ENDBRANCH  18  32
ENDBRANCH   8  11
ENDBRANCH   5   8
ENDBRANCH   1   4
BRANCH   1  34
ATOM     34  C   UNK d   0       4.193  -7.489  -8.014  0.00  0.00     0.231 C 
ATOM     35  O   UNK d   0       3.168  -7.529  -8.661  0.00  0.00    -0.274 OA
ATOM     36  N   UNK d   0       4.525  -6.366  -7.347  0.00  0.00    -0.305 N 
ATOM     37  H   UNK d   0       5.345  -6.334  -6.829  0.00  0.00     0.149 HD
BRANCH  36  38
ATOM     38  C   UNK d   0       3.649  -5.194  -7.403  0.00  0.00     0.088 C 
ATOM     39  H   UNK d   0       3.473  -4.922  -8.445  0.00  0.00     0.056 H 
ATOM     40  H   UNK d   0       2.698  -5.428  -6.924  0.00  0.00     0.056 H 
BRANCH  38  41
ATOM     41  C   UNK d   0       4.304  -4.042  -6.686  0.00  0.00     0.231 C 
ATOM     42  O   UNK d   0       4.849  -3.164  -7.320  0.00  0.00    -0.274 OA
ATOM     43  N   PHE d   1       4.285  -3.988  -5.340  0.00  0.00    -0.306 N 
ATOM     44  CA  PHE d   1       4.922  -2.868  -4.642  0.00  0.00     0.067 C 
ATOM     45  H   PHE d   1       3.849  -4.691  -4.832  0.00  0.00     0.149 HD
ATOM     46  HA  PHE d   1       4.799  -1.958  -5.228  0.00  0.00     0.056 H 
ATOM     47  C   PHE d   1       6.391  -3.157  -4.466  0.00  0.00     0.062 C 
ATOM     48  O   PHE d   1       6.857  -4.192  -4.880  0.00  0.00    -0.548 OA
ATOM     49  OXT PHE d   1       7.181  -2.265  -3.848  0.00  0.00    -0.548 OA
BRANCH  44  50
ATOM     50  CB  PHE d   1       4.271  -2.685  -3.270  0.00  0.00    -0.004 C 
ATOM     51  HB1 PHE d   1       3.310  -3.200  -3.253  0.00  0.00     0.034 H 
ATOM     52  HB2 PHE d   1       4.920  -3.101  -2.500  0.00  0.00     0.034 H 
BRANCH  50  53
ATOM     53  CG  PHE d   1       4.057  -1.216  -3.008  0.00  0.00    -0.045 A 
ATOM     54  CD1 PHE d   1       4.626  -0.622  -1.897  0.00  0.00    -0.059 A 
ATOM     55  CE1 PHE d   1       4.430   0.725  -1.656  0.00  0.00    -0.061 A 
ATOM     56  HD1 PHE d   1       5.226  -1.210  -1.219  0.00  0.00     0.062 H 
ATOM     57  CZ  PHE d   1       3.663   1.478  -2.527  0.00  0.00    -0.062 A 
ATOM     58  HE1 PHE d   1       4.875   1.189  -0.790  0.00  0.00     0.062 H 
ATOM     59  CE2 PHE d   1       3.093   0.884  -3.637  0.00  0.00    -0.061 A 
ATOM     60  HZ  PHE d   1       3.510   2.530  -2.339  0.00  0.00     0.062 H 
ATOM     61  CD2 PHE d   1       3.294  -0.462  -3.881  0.00  0.00    -0.059 A 
ATOM     62  HE2 PHE d   1       2.494   1.472  -4.317  0.00  0.00     0.062 H 
ATOM     63  HD2 PHE d   1       2.852  -0.926  -4.750  0.00  0.00     0.062 H 
ENDBRANCH  50  53
ENDBRANCH  44  50
ENDBRANCH  38  41
ENDBRANCH  36  38
ENDBRANCH   1  34
TORSDOF 13
ENDMDL
MODEL 8
REMARK VINA RESULT:      -7.4      6.049      9.564
REMARK  11 active torsions:
REMARK  status: ('A' for Active; 'I' for Inactive)
REMARK    1  A    between atoms: C_1  and  C_2 
REMARK    2  A    between atoms: C_6  and  O_37 
REMARK    3  A    between atoms: C_7  and  C_36 
REMARK    4  A    between atoms: C_12  and  C_13 
REMARK    5  A    between atoms: C_13  and  C_14 
REMARK       I    between atoms: C_14  and  N_16 
REMARK    6  A    between atoms: N_16  and  C_17 
REMARK    7  A    between atoms: C_17  and  C_18 
REMARK       I    between atoms: C_18  and  N_20 
REMARK    8  A    between atoms: N_20  and  C_21 
REMARK    9  A    between atoms: C_21  and  C_22 
REMARK       I    between atoms: C_22  and  N_24 
REMARK       I    between atoms: N_24  and  CA_25 
REMARK   10  A    between atoms: CA_25  and  CB_27 
REMARK       I    between atoms: CA_25  and  C_34 
REMARK   11  A    between atoms: CB_27  and  CG_28 
ROOT
ATOM      1  C   UNK d   0       9.584   0.770  -6.165  0.00  0.00     0.088 C 
ATOM      2  H   UNK d   0      10.589   1.192  -6.161  0.00  0.00     0.056 H 
ATOM      3  H   UNK d   0       8.982   1.255  -5.397  0.00  0.00     0.056 H 
ENDROOT
BRANCH   1   4
ATOM      4  N   UNK d   0       8.969   0.989  -7.477  0.00  0.00    -0.306 N 
ATOM      5  C   UNK d   0       7.669   1.330  -7.564  0.00  0.00     0.218 C 
ATOM      6  O   UNK d   0       7.007   1.456  -6.555  0.00  0.00    -0.275 OA
ATOM      7  H   UNK d   0       9.499   0.888  -8.284  0.00  0.00     0.149 HD
BRANCH   5   8
ATOM      8  C   UNK d   0       7.034   1.548  -8.913  0.00  0.00     0.056 C 
ATOM      9  H   UNK d   0       6.621   2.556  -8.961  0.00  0.00     0.041 H 
ATOM     10  H   UNK d   0       7.787   1.426  -9.692  0.00  0.00     0.041 H 
BRANCH   8  11
ATOM     11  C   UNK d   0       5.931   0.543  -9.119  0.00  0.00     0.049 A 
ATOM     12  C   UNK d   0       4.655   0.965  -9.318  0.00  0.00    -0.029 A 
ATOM     13  C   UNK d   0       3.616  -0.048  -9.519  0.00  0.00     0.021 A 
ATOM     14  C   UNK d   0       3.974  -1.408  -9.490  0.00  0.00     0.146 A 
ATOM     15  C   UNK d   0       2.282   0.321  -9.733  0.00  0.00    -0.047 A 
ATOM     16  C   UNK d   0       2.997  -2.374  -9.674  0.00  0.00     0.034 A 
ATOM     17  O   UNK d   0       5.262  -1.759  -9.282  0.00  0.00    -0.422 OA
ATOM     18  C   UNK d   0       1.682  -1.992  -9.884  0.00  0.00     0.123 A 
ATOM     19  C   UNK d   0       1.333  -0.643  -9.913  0.00  0.00    -0.019 A 
ATOM     20  H   UNK d   0       0.304  -0.359 -10.078  0.00  0.00     0.065 H 
ATOM     21  C   UNK d   0       6.219  -0.837  -9.102  0.00  0.00     0.341 A 
ATOM     22  O   UNK d   0       7.366  -1.201  -8.920  0.00  0.00    -0.245 OA
ATOM     23  H   UNK d   0       2.006   1.365  -9.756  0.00  0.00     0.063 H 
BRANCH  12  24
ATOM     24  C   UNK d   0       4.318   2.433  -9.335  0.00  0.00    -0.038 C 
ATOM     25  H   UNK d   0       4.928   2.954  -8.596  0.00  0.00     0.028 H 
ATOM     26  H   UNK d   0       4.520   2.841 -10.325  0.00  0.00     0.028 H 
ATOM     27  H   UNK d   0       3.263   2.567  -9.094  0.00  0.00     0.028 H 
ENDBRANCH  12  24
BRANCH  16  28
ATOM     28  C   UNK d   0       3.363  -3.835  -9.645  0.00  0.00    -0.033 C 
ATOM     29  H   UNK d   0       2.689  -4.367  -8.974  0.00  0.00     0.028 H 
ATOM     30  H   UNK d   0       3.278  -4.251 -10.649  0.00  0.00     0.028 H 
ATOM     31  H   UNK d   0       4.389  -3.947  -9.292  0.00  0.00     0.028 H 
ENDBRANCH  16  28
BRANCH  18  32
ATOM     32  O   UNK d   0       0.726  -2.939 -10.064  0.00  0.00    -0.506 OA
ATOM     33  H   UNK d   0       0.132  -2.762 -10.806  0.00  0.00     0.292 HD
ENDBRANCH  18  32
ENDBRANCH   8  11
ENDBRANCH   5   8
ENDBRANCH   1   4
BRANCH   1  34
ATOM     34  C   UNK d   0       9.660  -0.709  -5.886  0.00  0.00     0.231 C 
ATOM     35  O   UNK d   0      10.347  -1.118  -4.974  0.00  0.00    -0.274 OA
ATOM     36  N   UNK d   0       8.966  -1.576  -6.649  0.00  0.00    -0.305 N 
ATOM     37  H   UNK d   0       8.416  -1.247  -7.378  0.00  0.00     0.149 HD
BRANCH  36  38
ATOM     38  C   UNK d   0       9.040  -3.013  -6.377  0.00  0.00     0.088 C 
ATOM     39  H   UNK d   0       9.204  -3.551  -7.311  0.00  0.00     0.056 H 
ATOM     40  H   UNK d   0       9.865  -3.211  -5.694  0.00  0.00     0.056 H 
BRANCH  38  41
ATOM     41  C   UNK d   0       7.748  -3.473  -5.753  0.00  0.00     0.231 C 
ATOM     42  O   UNK d   0       7.759  -4.330  -4.896  0.00  0.00    -0.274 OA
ATOM     43  N   PHE d   1       6.578  -2.932  -6.149  0.00  0.00    -0.306 N 
ATOM     44  CA  PHE d   1       5.321  -3.379  -5.543  0.00  0.00     0.067 C 
ATOM     45  H   PHE d   1       6.568  -2.246  -6.836  0.00  0.00     0.149 HD
ATOM     46  HA  PHE d   1       5.489  -3.613  -4.492  0.00  0.00     0.056 H 
ATOM     47  C   PHE d   1       4.829  -4.610  -6.259  0.00  0.00     0.062 C 
ATOM     48  O   PHE d   1       5.462  -5.067  -7.181  0.00  0.00    -0.548 OA
ATOM     49  OXT PHE d   1       3.686  -5.199  -5.872  0.00  0.00    -0.548 OA
BRANCH  44  50
ATOM     50  CB  PHE d   1       4.276  -2.269  -5.659  0.00  0.00    -0.004 C 
ATOM     51  HB1 PHE d   1       4.557  -1.588  -6.462  0.00  0.00     0.034 H 
ATOM     52  HB2 PHE d   1       3.303  -2.707  -5.880  0.00  0.00     0.034 H 
BRANCH  50  53
ATOM     53  CG  PHE d   1       4.202  -1.509  -4.360  0.00  0.00    -0.045 A 
ATOM     54  CD1 PHE d   1       4.459  -2.156  -3.166  0.00  0.00    -0.059 A 
ATOM     55  CE1 PHE d   1       4.392  -1.459  -1.973  0.00  0.00    -0.061 A 
ATOM     56  HD1 PHE d   1       4.715  -3.205  -3.164  0.00  0.00     0.062 H 
ATOM     57  CZ  PHE d   1       4.066  -0.115  -1.976  0.00  0.00    -0.062 A 
ATOM     58  HE1 PHE d   1       4.594  -1.963  -1.040  0.00  0.00     0.062 H 
ATOM     59  CE2 PHE d   1       3.809   0.532  -3.170  0.00  0.00    -0.061 A 
ATOM     60  HZ  PHE d   1       4.014   0.430  -1.045  0.00  0.00     0.062 H 
ATOM     61  CD2 PHE d   1       3.881  -0.164  -4.362  0.00  0.00    -0.059 A 
ATOM     62  HE2 PHE d   1       3.555   1.581  -3.172  0.00  0.00     0.062 H 
ATOM     63  HD2 PHE d   1       3.684   0.342  -5.296  0.00  0.00     0.062 H 
ENDBRANCH  50  53
ENDBRANCH  44  50
ENDBRANCH  38  41
ENDBRANCH  36  38
ENDBRANCH   1  34
TORSDOF 13
ENDMDL
MODEL 9
REMARK VINA RESULT:      -7.3      2.837      5.662
REMARK  11 active torsions:
REMARK  status: ('A' for Active; 'I' for Inactive)
REMARK    1  A    between atoms: C_1  and  C_2 
REMARK    2  A    between atoms: C_6  and  O_37 
REMARK    3  A    between atoms: C_7  and  C_36 
REMARK    4  A    between atoms: C_12  and  C_13 
REMARK    5  A    between atoms: C_13  and  C_14 
REMARK       I    between atoms: C_14  and  N_16 
REMARK    6  A    between atoms: N_16  and  C_17 
REMARK    7  A    between atoms: C_17  and  C_18 
REMARK       I    between atoms: C_18  and  N_20 
REMARK    8  A    between atoms: N_20  and  C_21 
REMARK    9  A    between atoms: C_21  and  C_22 
REMARK       I    between atoms: C_22  and  N_24 
REMARK       I    between atoms: N_24  and  CA_25 
REMARK   10  A    between atoms: CA_25  and  CB_27 
REMARK       I    between atoms: CA_25  and  C_34 
REMARK   11  A    between atoms: CB_27  and  CG_28 
ROOT
ATOM      1  C   UNK d   0       8.336   2.165  -3.628  0.00  0.00     0.088 C 
ATOM      2  H   UNK d   0       8.638   1.658  -2.712  0.00  0.00     0.056 H 
ATOM      3  H   UNK d   0       7.328   2.562  -3.509  0.00  0.00     0.056 H 
ENDROOT
BRANCH   1   4
ATOM      4  N   UNK d   0       9.264   3.264  -3.907  0.00  0.00    -0.306 N 
ATOM      5  C   UNK d   0      10.409   3.374  -3.206  0.00  0.00     0.218 C 
ATOM      6  O   UNK d   0      10.672   2.563  -2.343  0.00  0.00    -0.275 OA
ATOM      7  H   UNK d   0       9.054   3.913  -4.597  0.00  0.00     0.149 HD
BRANCH   5   8
ATOM      8  C   UNK d   0      11.360   4.508  -3.488  0.00  0.00     0.056 C 
ATOM      9  H   UNK d   0      11.283   5.253  -2.695  0.00  0.00     0.041 H 
ATOM     10  H   UNK d   0      12.380   4.125  -3.528  0.00  0.00     0.041 H 
BRANCH   8  11
ATOM     11  C   UNK d   0      11.010   5.143  -4.809  0.00  0.00     0.049 A 
ATOM     12  C   UNK d   0      10.357   6.334  -4.839  0.00  0.00    -0.029 A 
ATOM     13  C   UNK d   0      10.042   6.916  -6.146  0.00  0.00     0.021 A 
ATOM     14  C   UNK d   0      10.417   6.221  -7.311  0.00  0.00     0.146 A 
ATOM     15  C   UNK d   0       9.375   8.143  -6.246  0.00  0.00    -0.047 A 
ATOM     16  C   UNK d   0      10.118   6.761  -8.552  0.00  0.00     0.034 A 
ATOM     17  O   UNK d   0      11.060   5.038  -7.209  0.00  0.00    -0.422 OA
ATOM     18  C   UNK d   0       9.458   7.976  -8.633  0.00  0.00     0.123 A 
ATOM     19  C   UNK d   0       9.089   8.660  -7.477  0.00  0.00    -0.019 A 
ATOM     20  H   UNK d   0       8.574   9.606  -7.554  0.00  0.00     0.065 H 
ATOM     21  C   UNK d   0      11.356   4.501  -6.016  0.00  0.00     0.341 A 
ATOM     22  O   UNK d   0      11.938   3.433  -5.973  0.00  0.00    -0.245 OA
ATOM     23  H   UNK d   0       9.087   8.677  -5.353  0.00  0.00     0.063 H 
BRANCH  12  24
ATOM     24  C   UNK d   0       9.971   7.038  -3.565  0.00  0.00    -0.038 C 
ATOM     25  H   UNK d   0       9.548   6.317  -2.865  0.00  0.00     0.028 H 
ATOM     26  H   UNK d   0      10.854   7.499  -3.122  0.00  0.00     0.028 H 
ATOM     27  H   UNK d   0       9.231   7.808  -3.785  0.00  0.00     0.028 H 
ENDBRANCH  12  24
BRANCH  16  28
ATOM     28  C   UNK d   0      10.512   6.030  -9.809  0.00  0.00    -0.033 C 
ATOM     29  H   UNK d   0       9.712   5.349 -10.101  0.00  0.00     0.028 H 
ATOM     30  H   UNK d   0      10.686   6.750 -10.609  0.00  0.00     0.028 H 
ATOM     31  H   UNK d   0      11.425   5.461  -9.629  0.00  0.00     0.028 H 
ENDBRANCH  16  28
BRANCH  18  32
ATOM     32  O   UNK d   0       9.166   8.503  -9.850  0.00  0.00    -0.506 OA
ATOM     33  H   UNK d   0       9.774   9.199 -10.133  0.00  0.00     0.292 HD
ENDBRANCH  18  32
ENDBRANCH   8  11
ENDBRANCH   5   8
ENDBRANCH   1   4
BRANCH   1  34
ATOM     34  C   UNK d   0       8.359   1.185  -4.773  0.00  0.00     0.231 C 
ATOM     35  O   UNK d   0       9.187   0.299  -4.797  0.00  0.00    -0.274 OA
ATOM     36  N   UNK d   0       7.460   1.295  -5.772  0.00  0.00    -0.305 N 
ATOM     37  H   UNK d   0       6.798   2.004  -5.753  0.00  0.00     0.149 HD
BRANCH  36  38
ATOM     38  C   UNK d   0       7.483   0.343  -6.885  0.00  0.00     0.088 C 
ATOM     39  H   UNK d   0       7.723   0.870  -7.809  0.00  0.00     0.056 H 
ATOM     40  H   UNK d   0       8.238  -0.420  -6.695  0.00  0.00     0.056 H 
BRANCH  38  41
ATOM     41  C   UNK d   0       6.130  -0.309  -7.015  0.00  0.00     0.231 C 
ATOM     42  O   UNK d   0       6.029  -1.397  -7.540  0.00  0.00    -0.274 OA
ATOM     43  N   PHE d   1       5.032   0.318  -6.548  0.00  0.00    -0.306 N 
ATOM     44  CA  PHE d   1       3.717  -0.315  -6.674  0.00  0.00     0.067 C 
ATOM     45  H   PHE d   1       5.113   1.189  -6.127  0.00  0.00     0.149 HD
ATOM     46  HA  PHE d   1       3.821  -1.394  -6.561  0.00  0.00     0.056 H 
ATOM     47  C   PHE d   1       3.139  -0.006  -8.032  0.00  0.00     0.062 C 
ATOM     48  O   PHE d   1       3.763   0.674  -8.812  0.00  0.00    -0.548 OA
ATOM     49  OXT PHE d   1       1.933  -0.486  -8.372  0.00  0.00    -0.548 OA
BRANCH  44  50
ATOM     50  CB  PHE d   1       2.785   0.224  -5.588  0.00  0.00    -0.004 C 
ATOM     51  HB1 PHE d   1       2.683   1.304  -5.700  0.00  0.00     0.034 H 
ATOM     52  HB2 PHE d   1       1.805  -0.244  -5.684  0.00  0.00     0.034 H 
BRANCH  50  53
ATOM     53  CG  PHE d   1       3.360  -0.088  -4.231  0.00  0.00    -0.045 A 
ATOM     54  CD1 PHE d   1       3.617   0.934  -3.337  0.00  0.00    -0.059 A 
ATOM     55  CE1 PHE d   1       4.145   0.647  -2.091  0.00  0.00    -0.061 A 
ATOM     56  HD1 PHE d   1       3.404   1.956  -3.610  0.00  0.00     0.062 H 
ATOM     57  CZ  PHE d   1       4.416  -0.663  -1.741  0.00  0.00    -0.062 A 
ATOM     58  HE1 PHE d   1       4.345   1.445  -1.393  0.00  0.00     0.062 H 
ATOM     59  CE2 PHE d   1       4.160  -1.685  -2.635  0.00  0.00    -0.061 A 
ATOM     60  HZ  PHE d   1       4.828  -0.887  -0.768  0.00  0.00     0.062 H 
ATOM     61  CD2 PHE d   1       3.627  -1.399  -3.878  0.00  0.00    -0.059 A 
ATOM     62  HE2 PHE d   1       4.371  -2.708  -2.362  0.00  0.00     0.062 H 
ATOM     63  HD2 PHE d   1       3.423  -2.198  -4.576  0.00  0.00     0.062 H 
ENDBRANCH  50  53
ENDBRANCH  44  50
ENDBRANCH  38  41
ENDBRANCH  36  38
ENDBRANCH   1  34
TORSDOF 13
ENDMDL
