MODEL 1
REMARK VINA RESULT:      -4.6      0.000      0.000
REMARK  11 active torsions:
REMARK  status: ('A' for Active; 'I' for Inactive)
REMARK    1  A    between atoms: C_1  and  C_2 
REMARK    2  A    between atoms: C_2  and  C_4 
REMARK    3  A    between atoms: C_2  and  C_12 
REMARK    4  A    between atoms: C_4  and  C_5 
REMARK    5  A    between atoms: C_5  and  C_6 
REMARK    6  A    between atoms: C_6  and  C_7 
REMARK    7  A    between atoms: C_7  and  C_8 
REMARK    8  A    between atoms: C_7  and  C_9 
REMARK    9  A    between atoms: C_7  and  O_10 
REMARK   10  A    between atoms: O_10  and  C_11 
REMARK   11  A    between atoms: C_12  and  C_13 
ROOT
ATOM      1  C   LIG d   1       4.249  -1.789  -2.404  0.00  0.00    -0.050 C 
ATOM      2  H   LIG d   1       4.067  -2.327  -1.474  0.00  0.00     0.027 H 
ATOM      3  H   LIG d   1       5.109  -1.130  -2.282  0.00  0.00     0.027 H 
ENDROOT
BRANCH   1   4
ATOM      4  C   LIG d   1       3.016  -0.957  -2.761  0.00  0.00    -0.050 C 
ATOM      5  H   LIG d   1       2.808  -1.055  -3.827  0.00  0.00     0.027 H 
ATOM      6  H   LIG d   1       2.159  -1.313  -2.189  0.00  0.00     0.027 H 
BRANCH   4   7
ATOM      7  C   LIG d   1       3.279   0.513  -2.425  0.00  0.00    -0.037 C 
ATOM      8  H   LIG d   1       2.489   0.882  -1.772  0.00  0.00     0.030 H 
BRANCH   7   9
ATOM      9  C   LIG d   1       4.628   0.641  -1.717  0.00  0.00    -0.062 C 
ATOM     10  H   LIG d   1       4.467   0.807  -0.652  0.00  0.00     0.023 H 
ATOM     11  H   LIG d   1       5.201  -0.275  -1.858  0.00  0.00     0.023 H 
ATOM     12  H   LIG d   1       5.180   1.483  -2.136  0.00  0.00     0.023 H 
ENDBRANCH   7   9
BRANCH   7  13
ATOM     13  C   LIG d   1       3.300   1.334  -3.715  0.00  0.00     0.005 C 
ATOM     14  H   LIG d   1       2.852   2.214  -3.559  0.00  0.00     0.034 H 
ATOM     15  H   LIG d   1       4.333   1.501  -4.022  0.00  0.00     0.034 H 
BRANCH  13  16
ATOM     16  C   LIG d   1       2.570   0.585  -4.800  0.00  0.00     0.121 C 
ATOM     17  O   LIG d   1       2.921   0.694  -5.951  0.00  0.00    -0.301 OA
ATOM     18  H   LIG d   1       1.733  -0.049  -4.550  0.00  0.00     0.103 H 
ENDBRANCH  13  16
ENDBRANCH   7  13
ENDBRANCH   4   7
ENDBRANCH   1   4
BRANCH   1  19
ATOM     19  C   LIG d   1       4.530  -2.791  -3.526  0.00  0.00    -0.024 C 
ATOM     20  H   LIG d   1       4.650  -3.788  -3.102  0.00  0.00     0.029 H 
ATOM     21  H   LIG d   1       3.696  -2.794  -4.228  0.00  0.00     0.029 H 
BRANCH  19  22
ATOM     22  C   LIG d   1       5.812  -2.391  -4.259  0.00  0.00     0.064 C 
BRANCH  22  23
ATOM     23  C   LIG d   1       6.821  -1.832  -3.254  0.00  0.00    -0.036 C 
ATOM     24  H   LIG d   1       7.833  -2.044  -3.598  0.00  0.00     0.026 H 
ATOM     25  H   LIG d   1       6.685  -0.754  -3.164  0.00  0.00     0.026 H 
ATOM     26  H   LIG d   1       6.662  -2.300  -2.281  0.00  0.00     0.026 H 
ENDBRANCH  22  23
BRANCH  22  27
ATOM     27  C   LIG d   1       6.409  -3.620  -4.950  0.00  0.00    -0.036 C 
ATOM     28  H   LIG d   1       6.204  -4.508  -4.352  0.00  0.00     0.026 H 
ATOM     29  H   LIG d   1       5.961  -3.734  -5.937  0.00  0.00     0.026 H 
ATOM     30  H   LIG d   1       7.486  -3.491  -5.052  0.00  0.00     0.026 H 
ENDBRANCH  22  27
BRANCH  22  31
ATOM     31  O   LIG d   1       5.510  -1.394  -5.237  0.00  0.00    -0.377 OA
BRANCH  31  32
ATOM     32  C   LIG d   1       6.334  -0.229  -5.153  0.00  0.00     0.037 C 
ATOM     33  H   LIG d   1       5.758   0.646  -5.448  0.00  0.00     0.052 H 
ATOM     34  H   LIG d   1       6.682  -0.105  -4.127  0.00  0.00     0.052 H 
ATOM     35  H   LIG d   1       7.192  -0.342  -5.816  0.00  0.00     0.052 H 
ENDBRANCH  31  32
ENDBRANCH  22  31
ENDBRANCH  19  22
ENDBRANCH   1  19
TORSDOF 11
ENDMDL
MODEL 2
REMARK VINA RESULT:      -4.5      0.882      1.617
REMARK  11 active torsions:
REMARK  status: ('A' for Active; 'I' for Inactive)
REMARK    1  A    between atoms: C_1  and  C_2 
REMARK    2  A    between atoms: C_2  and  C_4 
REMARK    3  A    between atoms: C_2  and  C_12 
REMARK    4  A    between atoms: C_4  and  C_5 
REMARK    5  A    between atoms: C_5  and  C_6 
REMARK    6  A    between atoms: C_6  and  C_7 
REMARK    7  A    between atoms: C_7  and  C_8 
REMARK    8  A    between atoms: C_7  and  C_9 
REMARK    9  A    between atoms: C_7  and  O_10 
REMARK   10  A    between atoms: O_10  and  C_11 
REMARK   11  A    between atoms: C_12  and  C_13 
ROOT
ATOM      1  C   LIG d   1       4.307  -1.865  -2.518  0.00  0.00    -0.050 C 
ATOM      2  H   LIG d   1       4.166  -2.473  -1.625  0.00  0.00     0.027 H 
ATOM      3  H   LIG d   1       5.140  -1.179  -2.365  0.00  0.00     0.027 H 
ENDROOT
BRANCH   1   4
ATOM      4  C   LIG d   1       3.033  -1.066  -2.798  0.00  0.00    -0.050 C 
ATOM      5  H   LIG d   1       2.768  -1.162  -3.851  0.00  0.00     0.027 H 
ATOM      6  H   LIG d   1       2.220  -1.452  -2.183  0.00  0.00     0.027 H 
BRANCH   4   7
ATOM      7  C   LIG d   1       3.272   0.408  -2.464  0.00  0.00    -0.037 C 
ATOM      8  H   LIG d   1       2.443   0.783  -1.865  0.00  0.00     0.030 H 
BRANCH   7   9
ATOM      9  C   LIG d   1       4.575   0.547  -1.675  0.00  0.00    -0.062 C 
ATOM     10  H   LIG d   1       5.236  -0.287  -1.914  0.00  0.00     0.023 H 
ATOM     11  H   LIG d   1       5.064   1.484  -1.942  0.00  0.00     0.023 H 
ATOM     12  H   LIG d   1       4.357   0.542  -0.607  0.00  0.00     0.023 H 
ENDBRANCH   7   9
BRANCH   7  13
ATOM     13  C   LIG d   1       3.372   1.215  -3.759  0.00  0.00     0.005 C 
ATOM     14  H   LIG d   1       3.018   2.136  -3.608  0.00  0.00     0.034 H 
ATOM     15  H   LIG d   1       4.415   1.273  -4.071  0.00  0.00     0.034 H 
BRANCH  13  16
ATOM     16  C   LIG d   1       2.564   0.537  -4.837  0.00  0.00     0.121 C 
ATOM     17  O   LIG d   1       2.834   0.721  -6.000  0.00  0.00    -0.301 OA
ATOM     18  H   LIG d   1       1.744  -0.112  -4.570  0.00  0.00     0.103 H 
ENDBRANCH  13  16
ENDBRANCH   7  13
ENDBRANCH   4   7
ENDBRANCH   1   4
BRANCH   1  19
ATOM     19  C   LIG d   1       4.610  -2.776  -3.710  0.00  0.00    -0.024 C 
ATOM     20  H   LIG d   1       4.651  -3.812  -3.375  0.00  0.00     0.029 H 
ATOM     21  H   LIG d   1       3.825  -2.667  -4.459  0.00  0.00     0.029 H 
BRANCH  19  22
ATOM     22  C   LIG d   1       5.957  -2.386  -4.322  0.00  0.00     0.064 C 
BRANCH  22  23
ATOM     23  C   LIG d   1       5.738  -1.323  -5.400  0.00  0.00    -0.036 C 
ATOM     24  H   LIG d   1       5.634  -0.344  -4.932  0.00  0.00     0.026 H 
ATOM     25  H   LIG d   1       6.592  -1.312  -6.079  0.00  0.00     0.026 H 
ATOM     26  H   LIG d   1       4.833  -1.556  -5.961  0.00  0.00     0.026 H 
ENDBRANCH  22  23
BRANCH  22  27
ATOM     27  C   LIG d   1       6.869  -1.823  -3.229  0.00  0.00    -0.036 C 
ATOM     28  H   LIG d   1       6.313  -1.106  -2.626  0.00  0.00     0.026 H 
ATOM     29  H   LIG d   1       7.221  -2.637  -2.596  0.00  0.00     0.026 H 
ATOM     30  H   LIG d   1       7.723  -1.326  -3.689  0.00  0.00     0.026 H 
ENDBRANCH  22  27
BRANCH  22  31
ATOM     31  O   LIG d   1       6.568  -3.539  -4.905  0.00  0.00    -0.377 OA
BRANCH  31  32
ATOM     32  C   LIG d   1       7.901  -3.781  -4.453  0.00  0.00     0.037 C 
ATOM     33  H   LIG d   1       8.065  -4.854  -4.364  0.00  0.00     0.052 H 
ATOM     34  H   LIG d   1       8.609  -3.365  -5.170  0.00  0.00     0.052 H 
ATOM     35  H   LIG d   1       8.048  -3.308  -3.482  0.00  0.00     0.052 H 
ENDBRANCH  31  32
ENDBRANCH  22  31
ENDBRANCH  19  22
ENDBRANCH   1  19
TORSDOF 11
ENDMDL
MODEL 3
REMARK VINA RESULT:      -4.4      1.565      2.135
REMARK  11 active torsions:
REMARK  status: ('A' for Active; 'I' for Inactive)
REMARK    1  A    between atoms: C_1  and  C_2 
REMARK    2  A    between atoms: C_2  and  C_4 
REMARK    3  A    between atoms: C_2  and  C_12 
REMARK    4  A    between atoms: C_4  and  C_5 
REMARK    5  A    between atoms: C_5  and  C_6 
REMARK    6  A    between atoms: C_6  and  C_7 
REMARK    7  A    between atoms: C_7  and  C_8 
REMARK    8  A    between atoms: C_7  and  C_9 
REMARK    9  A    between atoms: C_7  and  O_10 
REMARK   10  A    between atoms: O_10  and  C_11 
REMARK   11  A    between atoms: C_12  and  C_13 
ROOT
ATOM      1  C   LIG d   1       5.238  -1.616  -2.621  0.00  0.00    -0.050 C 
ATOM      2  H   LIG d   1       5.968  -2.134  -1.999  0.00  0.00     0.027 H 
ATOM      3  H   LIG d   1       5.757  -1.018  -3.370  0.00  0.00     0.027 H 
ENDROOT
BRANCH   1   4
ATOM      4  C   LIG d   1       4.378  -0.704  -1.746  0.00  0.00    -0.050 C 
ATOM      5  H   LIG d   1       3.325  -0.864  -1.978  0.00  0.00     0.027 H 
ATOM      6  H   LIG d   1       4.557  -0.933  -0.695  0.00  0.00     0.027 H 
BRANCH   4   7
ATOM      7  C   LIG d   1       4.745   0.757  -2.018  0.00  0.00    -0.037 C 
ATOM      8  H   LIG d   1       5.077   1.226  -1.093  0.00  0.00     0.030 H 
BRANCH   7   9
ATOM      9  C   LIG d   1       5.869   0.816  -3.053  0.00  0.00    -0.062 C 
ATOM     10  H   LIG d   1       5.530   0.362  -3.985  0.00  0.00     0.023 H 
ATOM     11  H   LIG d   1       6.142   1.855  -3.235  0.00  0.00     0.023 H 
ATOM     12  H   LIG d   1       6.737   0.273  -2.679  0.00  0.00     0.023 H 
ENDBRANCH   7   9
BRANCH   7  13
ATOM     13  C   LIG d   1       3.519   1.498  -2.554  0.00  0.00     0.005 C 
ATOM     14  H   LIG d   1       2.783   1.460  -1.879  0.00  0.00     0.034 H 
ATOM     15  H   LIG d   1       3.780   2.539  -2.749  0.00  0.00     0.034 H 
BRANCH  13  16
ATOM     16  C   LIG d   1       3.060   0.849  -3.835  0.00  0.00     0.121 C 
ATOM     17  O   LIG d   1       2.740   1.533  -4.778  0.00  0.00    -0.301 OA
ATOM     18  H   LIG d   1       3.015  -0.227  -3.909  0.00  0.00     0.103 H 
ENDBRANCH  13  16
ENDBRANCH   7  13
ENDBRANCH   4   7
ENDBRANCH   1   4
BRANCH   1  19
ATOM     19  C   LIG d   1       4.344  -2.643  -3.319  0.00  0.00    -0.024 C 
ATOM     20  H   LIG d   1       4.265  -3.537  -2.700  0.00  0.00     0.029 H 
ATOM     21  H   LIG d   1       3.352  -2.218  -3.471  0.00  0.00     0.029 H 
BRANCH  19  22
ATOM     22  C   LIG d   1       4.953  -3.014  -4.673  0.00  0.00     0.064 C 
BRANCH  22  23
ATOM     23  C   LIG d   1       4.668  -1.901  -5.683  0.00  0.00    -0.036 C 
ATOM     24  H   LIG d   1       5.511  -1.805  -6.367  0.00  0.00     0.026 H 
ATOM     25  H   LIG d   1       3.767  -2.145  -6.247  0.00  0.00     0.026 H 
ATOM     26  H   LIG d   1       4.520  -0.959  -5.153  0.00  0.00     0.026 H 
ENDBRANCH  22  23
BRANCH  22  27
ATOM     27  C   LIG d   1       6.466  -3.188  -4.521  0.00  0.00    -0.036 C 
ATOM     28  H   LIG d   1       6.776  -2.830  -3.539  0.00  0.00     0.026 H 
ATOM     29  H   LIG d   1       6.721  -4.243  -4.620  0.00  0.00     0.026 H 
ATOM     30  H   LIG d   1       6.977  -2.616  -5.295  0.00  0.00     0.026 H 
ENDBRANCH  22  27
BRANCH  22  31
ATOM     31  O   LIG d   1       4.377  -4.238  -5.136  0.00  0.00    -0.377 OA
BRANCH  31  32
ATOM     32  C   LIG d   1       4.325  -4.354  -6.559  0.00  0.00     0.037 C 
ATOM     33  H   LIG d   1       3.441  -4.921  -6.845  0.00  0.00     0.052 H 
ATOM     34  H   LIG d   1       4.277  -3.359  -7.003  0.00  0.00     0.052 H 
ATOM     35  H   LIG d   1       5.218  -4.867  -6.915  0.00  0.00     0.052 H 
ENDBRANCH  31  32
ENDBRANCH  22  31
ENDBRANCH  19  22
ENDBRANCH   1  19
TORSDOF 11
ENDMDL
MODEL 4
REMARK VINA RESULT:      -4.2      1.913      3.235
REMARK  11 active torsions:
REMARK  status: ('A' for Active; 'I' for Inactive)
REMARK    1  A    between atoms: C_1  and  C_2 
REMARK    2  A    between atoms: C_2  and  C_4 
REMARK    3  A    between atoms: C_2  and  C_12 
REMARK    4  A    between atoms: C_4  and  C_5 
REMARK    5  A    between atoms: C_5  and  C_6 
REMARK    6  A    between atoms: C_6  and  C_7 
REMARK    7  A    between atoms: C_7  and  C_8 
REMARK    8  A    between atoms: C_7  and  C_9 
REMARK    9  A    between atoms: C_7  and  O_10 
REMARK   10  A    between atoms: O_10  and  C_11 
REMARK   11  A    between atoms: C_12  and  C_13 
ROOT
ATOM      1  C   LIG d   1       2.735   0.621  -4.988  0.00  0.00    -0.050 C 
ATOM      2  H   LIG d   1       3.694   0.934  -4.575  0.00  0.00     0.027 H 
ATOM      3  H   LIG d   1       2.059   1.475  -5.028  0.00  0.00     0.027 H 
ENDROOT
BRANCH   1   4
ATOM      4  C   LIG d   1       2.129  -0.468  -4.102  0.00  0.00    -0.050 C 
ATOM      5  H   LIG d   1       1.062  -0.282  -3.975  0.00  0.00     0.027 H 
ATOM      6  H   LIG d   1       2.274  -1.442  -4.571  0.00  0.00     0.027 H 
BRANCH   4   7
ATOM      7  C   LIG d   1       2.816  -0.453  -2.734  0.00  0.00    -0.037 C 
ATOM      8  H   LIG d   1       2.079  -0.647  -1.956  0.00  0.00     0.030 H 
BRANCH   7   9
ATOM      9  C   LIG d   1       3.897  -1.534  -2.694  0.00  0.00    -0.062 C 
ATOM     10  H   LIG d   1       4.671  -1.301  -3.426  0.00  0.00     0.023 H 
ATOM     11  H   LIG d   1       4.338  -1.571  -1.699  0.00  0.00     0.023 H 
ATOM     12  H   LIG d   1       3.453  -2.501  -2.931  0.00  0.00     0.023 H 
ENDBRANCH   7   9
BRANCH   7  13
ATOM     13  C   LIG d   1       3.456   0.916  -2.501  0.00  0.00     0.005 C 
ATOM     14  H   LIG d   1       3.470   1.429  -3.358  0.00  0.00     0.034 H 
ATOM     15  H   LIG d   1       2.877   1.466  -1.758  0.00  0.00     0.034 H 
BRANCH  13  16
ATOM     16  C   LIG d   1       4.867   0.733  -2.002  0.00  0.00     0.121 C 
ATOM     17  O   LIG d   1       5.749   1.451  -2.408  0.00  0.00    -0.301 OA
ATOM     18  H   LIG d   1       5.089  -0.040  -1.282  0.00  0.00     0.103 H 
ENDBRANCH  13  16
ENDBRANCH   7  13
ENDBRANCH   4   7
ENDBRANCH   1   4
BRANCH   1  19
ATOM     19  C   LIG d   1       2.945   0.070  -6.401  0.00  0.00    -0.024 C 
ATOM     20  H   LIG d   1       2.309  -0.803  -6.549  0.00  0.00     0.029 H 
ATOM     21  H   LIG d   1       2.685   0.837  -7.132  0.00  0.00     0.029 H 
BRANCH  19  22
ATOM     22  C   LIG d   1       4.411  -0.331  -6.580  0.00  0.00     0.064 C 
BRANCH  22  23
ATOM     23  C   LIG d   1       4.531  -1.855  -6.539  0.00  0.00    -0.036 C 
ATOM     24  H   LIG d   1       4.006  -2.238  -5.665  0.00  0.00     0.026 H 
ATOM     25  H   LIG d   1       4.091  -2.278  -7.443  0.00  0.00     0.026 H 
ATOM     26  H   LIG d   1       5.584  -2.135  -6.483  0.00  0.00     0.026 H 
ENDBRANCH  22  23
BRANCH  22  27
ATOM     27  C   LIG d   1       4.919   0.185  -7.928  0.00  0.00    -0.036 C 
ATOM     28  H   LIG d   1       5.832  -0.345  -8.199  0.00  0.00     0.026 H 
ATOM     29  H   LIG d   1       4.159   0.014  -8.691  0.00  0.00     0.026 H 
ATOM     30  H   LIG d   1       5.126   1.252  -7.854  0.00  0.00     0.026 H 
ENDBRANCH  22  27
BRANCH  22  31
ATOM     31  O   LIG d   1       5.192   0.239  -5.527  0.00  0.00    -0.377 OA
BRANCH  31  32
ATOM     32  C   LIG d   1       6.456  -0.400  -5.332  0.00  0.00     0.037 C 
ATOM     33  H   LIG d   1       6.423  -1.405  -5.750  0.00  0.00     0.052 H 
ATOM     34  H   LIG d   1       7.234   0.176  -5.832  0.00  0.00     0.052 H 
ATOM     35  H   LIG d   1       6.674  -0.455  -4.266  0.00  0.00     0.052 H 
ENDBRANCH  31  32
ENDBRANCH  22  31
ENDBRANCH  19  22
ENDBRANCH   1  19
TORSDOF 11
ENDMDL
MODEL 5
REMARK VINA RESULT:      -4.2      2.466      4.132
REMARK  11 active torsions:
REMARK  status: ('A' for Active; 'I' for Inactive)
REMARK    1  A    between atoms: C_1  and  C_2 
REMARK    2  A    between atoms: C_2  and  C_4 
REMARK    3  A    between atoms: C_2  and  C_12 
REMARK    4  A    between atoms: C_4  and  C_5 
REMARK    5  A    between atoms: C_5  and  C_6 
REMARK    6  A    between atoms: C_6  and  C_7 
REMARK    7  A    between atoms: C_7  and  C_8 
REMARK    8  A    between atoms: C_7  and  C_9 
REMARK    9  A    between atoms: C_7  and  O_10 
REMARK   10  A    between atoms: O_10  and  C_11 
REMARK   11  A    between atoms: C_12  and  C_13 
ROOT
ATOM      1  C   LIG d   1       3.446  -0.415  -5.011  0.00  0.00    -0.050 C 
ATOM      2  H   LIG d   1       3.432  -1.454  -5.338  0.00  0.00     0.027 H 
ATOM      3  H   LIG d   1       4.472  -0.046  -5.013  0.00  0.00     0.027 H 
ENDROOT
BRANCH   1   4
ATOM      4  C   LIG d   1       2.872  -0.318  -3.597  0.00  0.00    -0.050 C 
ATOM      5  H   LIG d   1       3.085   0.669  -3.185  0.00  0.00     0.027 H 
ATOM      6  H   LIG d   1       1.794  -0.472  -3.630  0.00  0.00     0.027 H 
BRANCH   4   7
ATOM      7  C   LIG d   1       3.514  -1.388  -2.711  0.00  0.00    -0.037 C 
ATOM      8  H   LIG d   1       2.736  -1.924  -2.169  0.00  0.00     0.030 H 
BRANCH   7   9
ATOM      9  C   LIG d   1       4.296  -2.370  -3.585  0.00  0.00    -0.062 C 
ATOM     10  H   LIG d   1       3.970  -2.276  -4.621  0.00  0.00     0.023 H 
ATOM     11  H   LIG d   1       5.361  -2.148  -3.518  0.00  0.00     0.023 H 
ATOM     12  H   LIG d   1       4.116  -3.388  -3.239  0.00  0.00     0.023 H 
ENDBRANCH   7   9
BRANCH   7  13
ATOM     13  C   LIG d   1       4.465  -0.723  -1.715  0.00  0.00     0.005 C 
ATOM     14  H   LIG d   1       4.202  -0.973  -0.784  0.00  0.00     0.034 H 
ATOM     15  H   LIG d   1       5.485  -1.058  -1.908  0.00  0.00     0.034 H 
BRANCH  13  16
ATOM     16  C   LIG d   1       4.391   0.774  -1.873  0.00  0.00     0.121 C 
ATOM     17  O   LIG d   1       5.393   1.406  -2.109  0.00  0.00    -0.301 OA
ATOM     18  H   LIG d   1       3.444   1.282  -1.775  0.00  0.00     0.103 H 
ENDBRANCH  13  16
ENDBRANCH   7  13
ENDBRANCH   4   7
ENDBRANCH   1   4
BRANCH   1  19
ATOM     19  C   LIG d   1       2.599   0.431  -5.965  0.00  0.00    -0.024 C 
ATOM     20  H   LIG d   1       1.594   0.012  -6.026  0.00  0.00     0.029 H 
ATOM     21  H   LIG d   1       2.543   1.453  -5.591  0.00  0.00     0.029 H 
BRANCH  19  22
ATOM     22  C   LIG d   1       3.238   0.428  -7.354  0.00  0.00     0.064 C 
BRANCH  22  23
ATOM     23  C   LIG d   1       4.635  -0.191  -7.273  0.00  0.00    -0.036 C 
ATOM     24  H   LIG d   1       4.806  -0.571  -6.265  0.00  0.00     0.026 H 
ATOM     25  H   LIG d   1       4.711  -1.010  -7.988  0.00  0.00     0.026 H 
ATOM     26  H   LIG d   1       5.383   0.567  -7.507  0.00  0.00     0.026 H 
ENDBRANCH  22  23
BRANCH  22  27
ATOM     27  C   LIG d   1       2.372  -0.392  -8.313  0.00  0.00    -0.036 C 
ATOM     28  H   LIG d   1       1.398   0.085  -8.420  0.00  0.00     0.026 H 
ATOM     29  H   LIG d   1       2.860  -0.447  -9.286  0.00  0.00     0.026 H 
ATOM     30  H   LIG d   1       2.242  -1.398  -7.914  0.00  0.00     0.026 H 
ENDBRANCH  22  27
BRANCH  22  31
ATOM     31  O   LIG d   1       3.339   1.771  -7.834  0.00  0.00    -0.377 OA
BRANCH  31  32
ATOM     32  C   LIG d   1       4.073   1.898  -9.054  0.00  0.00     0.037 C 
ATOM     33  H   LIG d   1       4.977   2.479  -8.876  0.00  0.00     0.052 H 
ATOM     34  H   LIG d   1       4.344   0.907  -9.419  0.00  0.00     0.052 H 
ATOM     35  H   LIG d   1       3.457   2.402  -9.798  0.00  0.00     0.052 H 
ENDBRANCH  31  32
ENDBRANCH  22  31
ENDBRANCH  19  22
ENDBRANCH   1  19
TORSDOF 11
ENDMDL
MODEL 6
REMARK VINA RESULT:      -4.1      2.721      4.211
REMARK  11 active torsions:
REMARK  status: ('A' for Active; 'I' for Inactive)
REMARK    1  A    between atoms: C_1  and  C_2 
REMARK    2  A    between atoms: C_2  and  C_4 
REMARK    3  A    between atoms: C_2  and  C_12 
REMARK    4  A    between atoms: C_4  and  C_5 
REMARK    5  A    between atoms: C_5  and  C_6 
REMARK    6  A    between atoms: C_6  and  C_7 
REMARK    7  A    between atoms: C_7  and  C_8 
REMARK    8  A    between atoms: C_7  and  C_9 
REMARK    9  A    between atoms: C_7  and  O_10 
REMARK   10  A    between atoms: O_10  and  C_11 
REMARK   11  A    between atoms: C_12  and  C_13 
ROOT
ATOM      1  C   LIG d   1       3.569  -0.238  -5.448  0.00  0.00    -0.050 C 
ATOM      2  H   LIG d   1       4.552   0.233  -5.448  0.00  0.00     0.027 H 
ATOM      3  H   LIG d   1       3.650  -1.252  -5.840  0.00  0.00     0.027 H 
ENDROOT
BRANCH   1   4
ATOM      4  C   LIG d   1       2.616   0.574  -6.325  0.00  0.00    -0.050 C 
ATOM      5  H   LIG d   1       1.637   0.095  -6.339  0.00  0.00     0.027 H 
ATOM      6  H   LIG d   1       2.520   1.583  -5.922  0.00  0.00     0.027 H 
BRANCH   4   7
ATOM      7  C   LIG d   1       3.169   0.645  -7.750  0.00  0.00    -0.037 C 
ATOM      8  H   LIG d   1       4.240   0.448  -7.734  0.00  0.00     0.030 H 
BRANCH   7   9
ATOM      9  C   LIG d   1       2.471  -0.402  -8.620  0.00  0.00    -0.062 C 
ATOM     10  H   LIG d   1       2.886  -0.372  -9.628  0.00  0.00     0.023 H 
ATOM     11  H   LIG d   1       2.627  -1.392  -8.193  0.00  0.00     0.023 H 
ATOM     12  H   LIG d   1       1.403  -0.188  -8.661  0.00  0.00     0.023 H 
ENDBRANCH   7   9
BRANCH   7  13
ATOM     13  C   LIG d   1       2.915   2.038  -8.328  0.00  0.00     0.005 C 
ATOM     14  H   LIG d   1       1.953   2.123  -8.586  0.00  0.00     0.034 H 
ATOM     15  H   LIG d   1       3.157   2.792  -7.578  0.00  0.00     0.034 H 
BRANCH  13  16
ATOM     16  C   LIG d   1       3.782   2.245  -9.543  0.00  0.00     0.121 C 
ATOM     17  O   LIG d   1       4.956   2.495  -9.411  0.00  0.00    -0.301 OA
ATOM     18  H   LIG d   1       3.354   2.169 -10.531  0.00  0.00     0.103 H 
ENDBRANCH  13  16
ENDBRANCH   7  13
ENDBRANCH   4   7
ENDBRANCH   1   4
BRANCH   1  19
ATOM     19  C   LIG d   1       3.029  -0.287  -4.017  0.00  0.00    -0.024 C 
ATOM     20  H   LIG d   1       2.601   0.681  -3.756  0.00  0.00     0.029 H 
ATOM     21  H   LIG d   1       2.258  -1.055  -3.946  0.00  0.00     0.029 H 
BRANCH  19  22
ATOM     22  C   LIG d   1       4.169  -0.617  -3.051  0.00  0.00     0.064 C 
BRANCH  22  23
ATOM     23  C   LIG d   1       4.257   0.468  -1.977  0.00  0.00    -0.036 C 
ATOM     24  H   LIG d   1       3.326   0.498  -1.412  0.00  0.00     0.026 H 
ATOM     25  H   LIG d   1       5.085   0.245  -1.303  0.00  0.00     0.026 H 
ATOM     26  H   LIG d   1       4.426   1.435  -2.451  0.00  0.00     0.026 H 
ENDBRANCH  22  23
BRANCH  22  27
ATOM     27  C   LIG d   1       3.899  -1.970  -2.389  0.00  0.00    -0.036 C 
ATOM     28  H   LIG d   1       4.257  -1.948  -1.359  0.00  0.00     0.026 H 
ATOM     29  H   LIG d   1       2.828  -2.172  -2.397  0.00  0.00     0.026 H 
ATOM     30  H   LIG d   1       4.421  -2.754  -2.938  0.00  0.00     0.026 H 
ENDBRANCH  22  27
BRANCH  22  31
ATOM     31  O   LIG d   1       5.401  -0.677  -3.773  0.00  0.00    -0.377 OA
BRANCH  31  32
ATOM     32  C   LIG d   1       6.334  -1.625  -3.250  0.00  0.00     0.037 C 
ATOM     33  H   LIG d   1       5.880  -2.614  -3.239  0.00  0.00     0.052 H 
ATOM     34  H   LIG d   1       7.225  -1.642  -3.878  0.00  0.00     0.052 H 
ATOM     35  H   LIG d   1       6.612  -1.340  -2.235  0.00  0.00     0.052 H 
ENDBRANCH  31  32
ENDBRANCH  22  31
ENDBRANCH  19  22
ENDBRANCH   1  19
TORSDOF 11
ENDMDL
MODEL 7
REMARK VINA RESULT:      -3.9      1.966      4.746
REMARK  11 active torsions:
REMARK  status: ('A' for Active; 'I' for Inactive)
REMARK    1  A    between atoms: C_1  and  C_2 
REMARK    2  A    between atoms: C_2  and  C_4 
REMARK    3  A    between atoms: C_2  and  C_12 
REMARK    4  A    between atoms: C_4  and  C_5 
REMARK    5  A    between atoms: C_5  and  C_6 
REMARK    6  A    between atoms: C_6  and  C_7 
REMARK    7  A    between atoms: C_7  and  C_8 
REMARK    8  A    between atoms: C_7  and  C_9 
REMARK    9  A    between atoms: C_7  and  O_10 
REMARK   10  A    between atoms: O_10  and  C_11 
REMARK   11  A    between atoms: C_12  and  C_13 
ROOT
ATOM      1  C   LIG d   1       5.488  -1.908  -3.126  0.00  0.00    -0.050 C 
ATOM      2  H   LIG d   1       6.024  -2.107  -2.198  0.00  0.00     0.027 H 
ATOM      3  H   LIG d   1       4.458  -2.253  -3.033  0.00  0.00     0.027 H 
ENDROOT
BRANCH   1   4
ATOM      4  C   LIG d   1       6.172  -2.647  -4.277  0.00  0.00    -0.050 C 
ATOM      5  H   LIG d   1       6.772  -1.943  -4.855  0.00  0.00     0.027 H 
ATOM      6  H   LIG d   1       6.817  -3.429  -3.876  0.00  0.00     0.027 H 
BRANCH   4   7
ATOM      7  C   LIG d   1       5.110  -3.275  -5.182  0.00  0.00    -0.037 C 
ATOM      8  H   LIG d   1       4.199  -3.444  -4.609  0.00  0.00     0.030 H 
BRANCH   7   9
ATOM      9  C   LIG d   1       4.812  -2.332  -6.349  0.00  0.00    -0.062 C 
ATOM     10  H   LIG d   1       4.395  -2.902  -7.180  0.00  0.00     0.023 H 
ATOM     11  H   LIG d   1       4.094  -1.577  -6.031  0.00  0.00     0.023 H 
ATOM     12  H   LIG d   1       5.734  -1.846  -6.668  0.00  0.00     0.023 H 
ENDBRANCH   7   9
BRANCH   7  13
ATOM     13  C   LIG d   1       5.627  -4.609  -5.724  0.00  0.00     0.005 C 
ATOM     14  H   LIG d   1       5.857  -4.510  -6.692  0.00  0.00     0.034 H 
ATOM     15  H   LIG d   1       6.516  -4.907  -5.168  0.00  0.00     0.034 H 
BRANCH  13  16
ATOM     16  C   LIG d   1       4.560  -5.663  -5.567  0.00  0.00     0.121 C 
ATOM     17  O   LIG d   1       3.469  -5.495  -6.057  0.00  0.00    -0.301 OA
ATOM     18  H   LIG d   1       4.771  -6.567  -5.016  0.00  0.00     0.103 H 
ENDBRANCH  13  16
ENDBRANCH   7  13
ENDBRANCH   4   7
ENDBRANCH   1   4
BRANCH   1  19
ATOM     19  C   LIG d   1       5.498  -0.404  -3.408  0.00  0.00    -0.024 C 
ATOM     20  H   LIG d   1       6.276   0.073  -2.811  0.00  0.00     0.029 H 
ATOM     21  H   LIG d   1       5.698  -0.234  -4.466  0.00  0.00     0.029 H 
BRANCH  19  22
ATOM     22  C   LIG d   1       4.138   0.193  -3.042  0.00  0.00     0.064 C 
BRANCH  22  23
ATOM     23  C   LIG d   1       3.136  -0.936  -2.793  0.00  0.00    -0.036 C 
ATOM     24  H   LIG d   1       3.574  -1.668  -2.115  0.00  0.00     0.026 H 
ATOM     25  H   LIG d   1       2.229  -0.525  -2.349  0.00  0.00     0.026 H 
ATOM     26  H   LIG d   1       2.889  -1.418  -3.739  0.00  0.00     0.026 H 
ENDBRANCH  22  23
BRANCH  22  27
ATOM     27  C   LIG d   1       4.277   1.041  -1.776  0.00  0.00    -0.036 C 
ATOM     28  H   LIG d   1       4.139   0.408  -0.899  0.00  0.00     0.026 H 
ATOM     29  H   LIG d   1       5.269   1.491  -1.747  0.00  0.00     0.026 H 
ATOM     30  H   LIG d   1       3.521   1.826  -1.779  0.00  0.00     0.026 H 
ENDBRANCH  22  27
BRANCH  22  31
ATOM     31  O   LIG d   1       3.674   1.014  -4.117  0.00  0.00    -0.377 OA
BRANCH  31  32
ATOM     32  C   LIG d   1       2.648   0.411  -4.907  0.00  0.00     0.037 C 
ATOM     33  H   LIG d   1       2.603  -0.655  -4.692  0.00  0.00     0.052 H 
ATOM     34  H   LIG d   1       1.688   0.870  -4.667  0.00  0.00     0.052 H 
ATOM     35  H   LIG d   1       2.867   0.561  -5.964  0.00  0.00     0.052 H 
ENDBRANCH  31  32
ENDBRANCH  22  31
ENDBRANCH  19  22
ENDBRANCH   1  19
TORSDOF 11
ENDMDL
MODEL 8
REMARK VINA RESULT:      -3.8      2.960      4.485
REMARK  11 active torsions:
REMARK  status: ('A' for Active; 'I' for Inactive)
REMARK    1  A    between atoms: C_1  and  C_2 
REMARK    2  A    between atoms: C_2  and  C_4 
REMARK    3  A    between atoms: C_2  and  C_12 
REMARK    4  A    between atoms: C_4  and  C_5 
REMARK    5  A    between atoms: C_5  and  C_6 
REMARK    6  A    between atoms: C_6  and  C_7 
REMARK    7  A    between atoms: C_7  and  C_8 
REMARK    8  A    between atoms: C_7  and  C_9 
REMARK    9  A    between atoms: C_7  and  O_10 
REMARK   10  A    between atoms: O_10  and  C_11 
REMARK   11  A    between atoms: C_12  and  C_13 
ROOT
ATOM      1  C   LIG d   1       2.749   0.484  -5.244  0.00  0.00    -0.050 C 
ATOM      2  H   LIG d   1       1.683   0.641  -5.403  0.00  0.00     0.027 H 
ATOM      3  H   LIG d   1       3.236   1.441  -5.058  0.00  0.00     0.027 H 
ENDROOT
BRANCH   1   4
ATOM      4  C   LIG d   1       3.359  -0.165  -6.488  0.00  0.00    -0.050 C 
ATOM      5  H   LIG d   1       4.374   0.205  -6.630  0.00  0.00     0.027 H 
ATOM      6  H   LIG d   1       3.382  -1.247  -6.360  0.00  0.00     0.027 H 
BRANCH   4   7
ATOM      7  C   LIG d   1       2.512   0.187  -7.713  0.00  0.00    -0.037 C 
ATOM      8  H   LIG d   1       1.467   0.276  -7.419  0.00  0.00     0.030 H 
BRANCH   7   9
ATOM      9  C   LIG d   1       2.991   1.515  -8.300  0.00  0.00    -0.062 C 
ATOM     10  H   LIG d   1       2.370   1.781  -9.156  0.00  0.00     0.023 H 
ATOM     11  H   LIG d   1       2.918   2.295  -7.543  0.00  0.00     0.023 H 
ATOM     12  H   LIG d   1       4.028   1.417  -8.622  0.00  0.00     0.023 H 
ENDBRANCH   7   9
BRANCH   7  13
ATOM     13  C   LIG d   1       2.654  -0.915  -8.764  0.00  0.00     0.005 C 
ATOM     14  H   LIG d   1       3.544  -0.838  -9.212  0.00  0.00     0.034 H 
ATOM     15  H   LIG d   1       2.573  -1.890  -8.282  0.00  0.00     0.034 H 
BRANCH  13  16
ATOM     16  C   LIG d   1       1.560  -0.773  -9.793  0.00  0.00     0.121 C 
ATOM     17  O   LIG d   1       1.841  -0.679 -10.963  0.00  0.00    -0.301 OA
ATOM     18  H   LIG d   1       0.527  -0.755  -9.483  0.00  0.00     0.103 H 
ENDBRANCH  13  16
ENDBRANCH   7  13
ENDBRANCH   4   7
ENDBRANCH   1   4
BRANCH   1  19
ATOM     19  C   LIG d   1       2.954  -0.436  -4.038  0.00  0.00    -0.024 C 
ATOM     20  H   LIG d   1       2.025  -0.504  -3.471  0.00  0.00     0.029 H 
ATOM     21  H   LIG d   1       3.243  -1.429  -4.383  0.00  0.00     0.029 H 
BRANCH  19  22
ATOM     22  C   LIG d   1       4.056   0.134  -3.143  0.00  0.00     0.064 C 
BRANCH  22  23
ATOM     23  C   LIG d   1       3.539   1.386  -2.431  0.00  0.00    -0.036 C 
ATOM     24  H   LIG d   1       3.488   1.199  -1.359  0.00  0.00     0.026 H 
ATOM     25  H   LIG d   1       4.216   2.219  -2.624  0.00  0.00     0.026 H 
ATOM     26  H   LIG d   1       2.545   1.632  -2.805  0.00  0.00     0.026 H 
ENDBRANCH  22  23
BRANCH  22  27
ATOM     27  C   LIG d   1       4.461  -0.913  -2.103  0.00  0.00    -0.036 C 
ATOM     28  H   LIG d   1       5.442  -1.315  -2.356  0.00  0.00     0.026 H 
ATOM     29  H   LIG d   1       4.501  -0.450  -1.118  0.00  0.00     0.026 H 
ATOM     30  H   LIG d   1       3.729  -1.720  -2.097  0.00  0.00     0.026 H 
ENDBRANCH  22  27
BRANCH  22  31
ATOM     31  O   LIG d   1       5.191   0.475  -3.943  0.00  0.00    -0.377 OA
BRANCH  31  32
ATOM     32  C   LIG d   1       6.446   0.253  -3.296  0.00  0.00     0.037 C 
ATOM     33  H   LIG d   1       6.331   0.397  -2.222  0.00  0.00     0.052 H 
ATOM     34  H   LIG d   1       6.780  -0.766  -3.491  0.00  0.00     0.052 H 
ATOM     35  H   LIG d   1       7.183   0.957  -3.681  0.00  0.00     0.052 H 
ENDBRANCH  31  32
ENDBRANCH  22  31
ENDBRANCH  19  22
ENDBRANCH   1  19
TORSDOF 11
ENDMDL
MODEL 9
REMARK VINA RESULT:      -3.7      2.860      4.317
REMARK  11 active torsions:
REMARK  status: ('A' for Active; 'I' for Inactive)
REMARK    1  A    between atoms: C_1  and  C_2 
REMARK    2  A    between atoms: C_2  and  C_4 
REMARK    3  A    between atoms: C_2  and  C_12 
REMARK    4  A    between atoms: C_4  and  C_5 
REMARK    5  A    between atoms: C_5  and  C_6 
REMARK    6  A    between atoms: C_6  and  C_7 
REMARK    7  A    between atoms: C_7  and  C_8 
REMARK    8  A    between atoms: C_7  and  C_9 
REMARK    9  A    between atoms: C_7  and  O_10 
REMARK   10  A    between atoms: O_10  and  C_11 
REMARK   11  A    between atoms: C_12  and  C_13 
ROOT
ATOM      1  C   LIG d   1       3.694  -0.349  -5.710  0.00  0.00    -0.050 C 
ATOM      2  H   LIG d   1       3.779   0.736  -5.653  0.00  0.00     0.027 H 
ATOM      3  H   LIG d   1       2.642  -0.633  -5.733  0.00  0.00     0.027 H 
ENDROOT
BRANCH   1   4
ATOM      4  C   LIG d   1       4.366  -0.977  -4.488  0.00  0.00    -0.050 C 
ATOM      5  H   LIG d   1       4.699  -1.986  -4.734  0.00  0.00     0.027 H 
ATOM      6  H   LIG d   1       5.225  -0.374  -4.194  0.00  0.00     0.027 H 
BRANCH   4   7
ATOM      7  C   LIG d   1       3.365  -1.039  -3.332  0.00  0.00    -0.037 C 
ATOM      8  H   LIG d   1       2.381  -1.301  -3.717  0.00  0.00     0.030 H 
BRANCH   7   9
ATOM      9  C   LIG d   1       3.817  -2.095  -2.322  0.00  0.00    -0.062 C 
ATOM     10  H   LIG d   1       3.161  -2.964  -2.388  0.00  0.00     0.023 H 
ATOM     11  H   LIG d   1       4.840  -2.396  -2.544  0.00  0.00     0.023 H 
ATOM     12  H   LIG d   1       3.770  -1.680  -1.315  0.00  0.00     0.023 H 
ENDBRANCH   7   9
BRANCH   7  13
ATOM     13  C   LIG d   1       3.297   0.326  -2.644  0.00  0.00     0.005 C 
ATOM     14  H   LIG d   1       3.248   1.047  -3.335  0.00  0.00     0.034 H 
ATOM     15  H   LIG d   1       2.411   0.369  -2.010  0.00  0.00     0.034 H 
BRANCH  13  16
ATOM     16  C   LIG d   1       4.529   0.525  -1.798  0.00  0.00     0.121 C 
ATOM     17  O   LIG d   1       5.346   1.358  -2.108  0.00  0.00    -0.301 OA
ATOM     18  H   LIG d   1       4.681  -0.078  -0.916  0.00  0.00     0.103 H 
ENDBRANCH  13  16
ENDBRANCH   7  13
ENDBRANCH   4   7
ENDBRANCH   1   4
BRANCH   1  19
ATOM     19  C   LIG d   1       4.384  -0.847  -6.983  0.00  0.00    -0.024 C 
ATOM     20  H   LIG d   1       5.465  -0.770  -6.864  0.00  0.00     0.029 H 
ATOM     21  H   LIG d   1       4.111  -1.888  -7.160  0.00  0.00     0.029 H 
BRANCH  19  22
ATOM     22  C   LIG d   1       3.939   0.007  -8.171  0.00  0.00     0.064 C 
BRANCH  22  23
ATOM     23  C   LIG d   1       2.899   1.028  -7.706  0.00  0.00    -0.036 C 
ATOM     24  H   LIG d   1       2.238   0.565  -6.974  0.00  0.00     0.026 H 
ATOM     25  H   LIG d   1       3.405   1.881  -7.252  0.00  0.00     0.026 H 
ATOM     26  H   LIG d   1       2.314   1.366  -8.562  0.00  0.00     0.026 H 
ENDBRANCH  22  23
BRANCH  22  27
ATOM     27  C   LIG d   1       5.150   0.742  -8.752  0.00  0.00    -0.036 C 
ATOM     28  H   LIG d   1       6.055   0.170  -8.546  0.00  0.00     0.026 H 
ATOM     29  H   LIG d   1       5.026   0.852  -9.829  0.00  0.00     0.026 H 
ATOM     30  H   LIG d   1       5.231   1.727  -8.293  0.00  0.00     0.026 H 
ENDBRANCH  22  27
BRANCH  22  31
ATOM     31  O   LIG d   1       3.367  -0.834  -9.175  0.00  0.00    -0.377 OA
BRANCH  31  32
ATOM     32  C   LIG d   1       1.973  -0.608  -9.397  0.00  0.00     0.037 C 
ATOM     33  H   LIG d   1       1.392  -1.214  -8.703  0.00  0.00     0.052 H 
ATOM     34  H   LIG d   1       1.747   0.446  -9.235  0.00  0.00     0.052 H 
ATOM     35  H   LIG d   1       1.719  -0.881 -10.420  0.00  0.00     0.052 H 
ENDBRANCH  31  32
ENDBRANCH  22  31
ENDBRANCH  19  22
ENDBRANCH   1  19
TORSDOF 11
ENDMDL
MODEL 10
REMARK VINA RESULT:      -3.6      1.937      3.033
REMARK  11 active torsions:
REMARK  status: ('A' for Active; 'I' for Inactive)
REMARK    1  A    between atoms: C_1  and  C_2 
REMARK    2  A    between atoms: C_2  and  C_4 
REMARK    3  A    between atoms: C_2  and  C_12 
REMARK    4  A    between atoms: C_4  and  C_5 
REMARK    5  A    between atoms: C_5  and  C_6 
REMARK    6  A    between atoms: C_6  and  C_7 
REMARK    7  A    between atoms: C_7  and  C_8 
REMARK    8  A    between atoms: C_7  and  C_9 
REMARK    9  A    between atoms: C_7  and  O_10 
REMARK   10  A    between atoms: O_10  and  C_11 
REMARK   11  A    between atoms: C_12  and  C_13 
ROOT
ATOM      1  C   LIG d   1       6.666  -0.443  -3.278  0.00  0.00    -0.050 C 
ATOM      2  H   LIG d   1       5.990  -1.291  -3.380  0.00  0.00     0.027 H 
ATOM      3  H   LIG d   1       7.301  -0.586  -2.404  0.00  0.00     0.027 H 
ENDROOT
BRANCH   1   4
ATOM      4  C   LIG d   1       5.851   0.841  -3.112  0.00  0.00    -0.050 C 
ATOM      5  H   LIG d   1       6.515   1.660  -2.837  0.00  0.00     0.027 H 
ATOM      6  H   LIG d   1       5.351   1.079  -4.051  0.00  0.00     0.027 H 
BRANCH   4   7
ATOM      7  C   LIG d   1       4.804   0.641  -2.013  0.00  0.00    -0.037 C 
ATOM      8  H   LIG d   1       5.200   1.003  -1.065  0.00  0.00     0.030 H 
BRANCH   7   9
ATOM      9  C   LIG d   1       3.537   1.421  -2.369  0.00  0.00    -0.062 C 
ATOM     10  H   LIG d   1       2.662   0.871  -2.023  0.00  0.00     0.023 H 
ATOM     11  H   LIG d   1       3.564   2.398  -1.886  0.00  0.00     0.023 H 
ATOM     12  H   LIG d   1       3.482   1.551  -3.450  0.00  0.00     0.023 H 
ENDBRANCH   7   9
BRANCH   7  13
ATOM     13  C   LIG d   1       4.470  -0.846  -1.892  0.00  0.00     0.005 C 
ATOM     14  H   LIG d   1       5.245  -1.390  -2.209  0.00  0.00     0.034 H 
ATOM     15  H   LIG d   1       4.258  -1.087  -0.850  0.00  0.00     0.034 H 
BRANCH  13  16
ATOM     16  C   LIG d   1       3.259  -1.159  -2.734  0.00  0.00     0.121 C 
ATOM     17  O   LIG d   1       3.338  -1.968  -3.627  0.00  0.00    -0.301 OA
ATOM     18  H   LIG d   1       2.322  -0.660  -2.540  0.00  0.00     0.103 H 
ENDBRANCH  13  16
ENDBRANCH   7  13
ENDBRANCH   4   7
ENDBRANCH   1   4
BRANCH   1  19
ATOM     19  C   LIG d   1       7.539  -0.334  -4.530  0.00  0.00    -0.024 C 
ATOM     20  H   LIG d   1       7.036   0.288  -5.271  0.00  0.00     0.029 H 
ATOM     21  H   LIG d   1       8.496   0.118  -4.267  0.00  0.00     0.029 H 
BRANCH  19  22
ATOM     22  C   LIG d   1       7.776  -1.729  -5.111  0.00  0.00     0.064 C 
BRANCH  22  23
ATOM     23  C   LIG d   1       6.562  -2.614  -4.823  0.00  0.00    -0.036 C 
ATOM     24  H   LIG d   1       6.644  -3.029  -3.818  0.00  0.00     0.026 H 
ATOM     25  H   LIG d   1       5.652  -2.018  -4.897  0.00  0.00     0.026 H 
ATOM     26  H   LIG d   1       6.524  -3.426  -5.550  0.00  0.00     0.026 H 
ENDBRANCH  22  23
BRANCH  22  27
ATOM     27  C   LIG d   1       7.982  -1.623  -6.624  0.00  0.00    -0.036 C 
ATOM     28  H   LIG d   1       8.089  -2.622  -7.046  0.00  0.00     0.026 H 
ATOM     29  H   LIG d   1       7.121  -1.128  -7.073  0.00  0.00     0.026 H 
ATOM     30  H   LIG d   1       8.882  -1.044  -6.828  0.00  0.00     0.026 H 
ENDBRANCH  22  27
BRANCH  22  31
ATOM     31  O   LIG d   1       8.939  -2.304  -4.510  0.00  0.00    -0.377 OA
BRANCH  31  32
ATOM     32  C   LIG d   1       8.724  -3.604  -3.956  0.00  0.00     0.037 C 
ATOM     33  H   LIG d   1       8.420  -3.509  -2.915  0.00  0.00     0.052 H 
ATOM     34  H   LIG d   1       7.940  -4.113  -4.518  0.00  0.00     0.052 H 
ATOM     35  H   LIG d   1       9.646  -4.182  -4.016  0.00  0.00     0.052 H 
ENDBRANCH  31  32
ENDBRANCH  22  31
ENDBRANCH  19  22
ENDBRANCH   1  19
TORSDOF 11
ENDMDL
