MODEL 1
REMARK VINA RESULT:      -5.2      0.000      0.000
REMARK  6 active torsions:
REMARK  status: ('A' for Active; 'I' for Inactive)
REMARK    1  A    between atoms: C_1  and  O_2 
REMARK    2  A    between atoms: O_2  and  C_3 
REMARK    3  A    between atoms: C_4  and  O_17 
REMARK    4  A    between atoms: C_8  and  O_16 
REMARK    5  A    between atoms: C_11  and  O_15 
REMARK    6  A    between atoms: O_17  and  C_18 
ROOT
ATOM      1  C   LIG d   1       7.700  -1.010  -5.465  0.00  0.00     0.213 A 
ATOM      2  C   LIG d   1       7.835   0.196  -4.863  0.00  0.00     0.213 A 
ATOM      3  C   LIG d   1       6.919   0.607  -3.785  0.00  0.00     0.235 A 
ATOM      4  O   LIG d   1       7.051   1.692  -3.254  0.00  0.00    -0.283 OA
ATOM      5  C   LIG d   1       5.841  -0.303  -3.353  0.00  0.00     0.081 A 
ATOM      6  C   LIG d   1       4.966   0.062  -2.332  0.00  0.00     0.129 A 
ATOM      7  C   LIG d   1       3.948  -0.814  -1.943  0.00  0.00    -0.016 A 
ATOM      8  C   LIG d   1       3.812  -2.038  -2.554  0.00  0.00    -0.016 A 
ATOM      9  C   LIG d   1       4.683  -2.422  -3.576  0.00  0.00     0.129 A 
ATOM     10  C   LIG d   1       5.701  -1.558  -3.980  0.00  0.00     0.081 A 
ATOM     11  C   LIG d   1       6.633  -1.940  -5.056  0.00  0.00     0.235 A 
ATOM     12  O   LIG d   1       6.523  -3.020  -5.605  0.00  0.00    -0.283 OA
ATOM     13  H   LIG d   1       3.268  -0.530  -1.154  0.00  0.00     0.066 H 
ATOM     14  H   LIG d   1       3.024  -2.708  -2.240  0.00  0.00     0.066 H 
ENDROOT
BRANCH   1  15
ATOM     15  O   LIG d   1       8.556  -1.365  -6.456  0.00  0.00    -0.488 OA
BRANCH  15  16
ATOM     16  C   LIG d   1       9.737  -2.070  -6.072  0.00  0.00     0.079 C 
ATOM     17  H   LIG d   1      10.556  -1.363  -5.938  0.00  0.00     0.066 H 
ATOM     18  H   LIG d   1       9.557  -2.600  -5.137  0.00  0.00     0.066 H 
ATOM     19  H   LIG d   1      10.001  -2.786  -6.850  0.00  0.00     0.066 H 
ENDBRANCH  15  16
ENDBRANCH   1  15
BRANCH   2  20
ATOM     20  O   LIG d   1       8.826   1.035  -5.258  0.00  0.00    -0.488 OA
BRANCH  20  21
ATOM     21  C   LIG d   1       8.519   1.953  -6.309  0.00  0.00     0.079 C 
ATOM     22  H   LIG d   1       8.693   1.474  -7.272  0.00  0.00     0.066 H 
ATOM     23  H   LIG d   1       7.473   2.251  -6.236  0.00  0.00     0.066 H 
ATOM     24  H   LIG d   1       9.155   2.833  -6.220  0.00  0.00     0.066 H 
ENDBRANCH  20  21
ENDBRANCH   2  20
BRANCH   9  25
ATOM     25  O   LIG d   1       4.541  -3.630  -4.173  0.00  0.00    -0.506 OA
ATOM     26  H   LIG d   1       5.343  -3.950  -4.609  0.00  0.00     0.292 HD
ENDBRANCH   9  25
BRANCH   6  27
ATOM     27  O   LIG d   1       5.095   1.268  -1.724  0.00  0.00    -0.506 OA
ATOM     28  H   LIG d   1       5.096   2.017  -2.335  0.00  0.00     0.292 HD
ENDBRANCH   6  27
TORSDOF 6
ENDMDL
MODEL 2
REMARK VINA RESULT:      -5.2      1.720      3.879
REMARK  6 active torsions:
REMARK  status: ('A' for Active; 'I' for Inactive)
REMARK    1  A    between atoms: C_1  and  O_2 
REMARK    2  A    between atoms: O_2  and  C_3 
REMARK    3  A    between atoms: C_4  and  O_17 
REMARK    4  A    between atoms: C_8  and  O_16 
REMARK    5  A    between atoms: C_11  and  O_15 
REMARK    6  A    between atoms: O_17  and  C_18 
ROOT
ATOM      1  C   LIG d   1       6.371  -1.305  -6.333  0.00  0.00     0.213 A 
ATOM      2  C   LIG d   1       5.678  -2.435  -6.056  0.00  0.00     0.213 A 
ATOM      3  C   LIG d   1       4.943  -2.576  -4.788  0.00  0.00     0.235 A 
ATOM      4  O   LIG d   1       4.325  -3.597  -4.552  0.00  0.00    -0.283 OA
ATOM      5  C   LIG d   1       4.958  -1.476  -3.806  0.00  0.00     0.081 A 
ATOM      6  C   LIG d   1       4.265  -1.584  -2.602  0.00  0.00     0.129 A 
ATOM      7  C   LIG d   1       4.298  -0.530  -1.683  0.00  0.00    -0.016 A 
ATOM      8  C   LIG d   1       5.001   0.617  -1.965  0.00  0.00    -0.016 A 
ATOM      9  C   LIG d   1       5.697   0.745  -3.170  0.00  0.00     0.129 A 
ATOM     10  C   LIG d   1       5.679  -0.299  -4.094  0.00  0.00     0.081 A 
ATOM     11  C   LIG d   1       6.405  -0.189  -5.373  0.00  0.00     0.235 A 
ATOM     12  O   LIG d   1       7.032   0.821  -5.633  0.00  0.00    -0.283 OA
ATOM     13  H   LIG d   1       3.764  -0.616  -0.749  0.00  0.00     0.066 H 
ATOM     14  H   LIG d   1       5.014   1.425  -1.249  0.00  0.00     0.066 H 
ENDROOT
BRANCH   1  15
ATOM     15  O   LIG d   1       7.041  -1.199  -7.508  0.00  0.00    -0.488 OA
BRANCH  15  16
ATOM     16  C   LIG d   1       6.413  -0.451  -8.550  0.00  0.00     0.079 C 
ATOM     17  H   LIG d   1       5.396  -0.194  -8.252  0.00  0.00     0.066 H 
ATOM     18  H   LIG d   1       6.980   0.462  -8.735  0.00  0.00     0.066 H 
ATOM     19  H   LIG d   1       6.382  -1.050  -9.460  0.00  0.00     0.066 H 
ENDBRANCH  15  16
ENDBRANCH   1  15
BRANCH   2  20
ATOM     20  O   LIG d   1       5.662  -3.449  -6.958  0.00  0.00    -0.488 OA
BRANCH  20  21
ATOM     21  C   LIG d   1       4.532  -3.526  -7.829  0.00  0.00     0.079 C 
ATOM     22  H   LIG d   1       3.793  -2.781  -7.533  0.00  0.00     0.066 H 
ATOM     23  H   LIG d   1       4.850  -3.333  -8.854  0.00  0.00     0.066 H 
ATOM     24  H   LIG d   1       4.091  -4.520  -7.766  0.00  0.00     0.066 H 
ENDBRANCH  20  21
ENDBRANCH   2  20
BRANCH   9  25
ATOM     25  O   LIG d   1       6.388   1.879  -3.439  0.00  0.00    -0.506 OA
ATOM     26  H   LIG d   1       6.334   2.162  -4.362  0.00  0.00     0.292 HD
ENDBRANCH   9  25
BRANCH   6  27
ATOM     27  O   LIG d   1       3.568  -2.713  -2.317  0.00  0.00    -0.506 OA
ATOM     28  H   LIG d   1       3.411  -3.281  -3.083  0.00  0.00     0.292 HD
ENDBRANCH   6  27
TORSDOF 6
ENDMDL
MODEL 3
REMARK VINA RESULT:      -5.0      1.358      2.561
REMARK  6 active torsions:
REMARK  status: ('A' for Active; 'I' for Inactive)
REMARK    1  A    between atoms: C_1  and  O_2 
REMARK    2  A    between atoms: O_2  and  C_3 
REMARK    3  A    between atoms: C_4  and  O_17 
REMARK    4  A    between atoms: C_8  and  O_16 
REMARK    5  A    between atoms: C_11  and  O_15 
REMARK    6  A    between atoms: O_17  and  C_18 
ROOT
ATOM      1  C   LIG d   1       6.077  -2.699  -5.788  0.00  0.00     0.213 A 
ATOM      2  C   LIG d   1       6.831  -1.609  -6.065  0.00  0.00     0.213 A 
ATOM      3  C   LIG d   1       6.787  -0.421  -5.195  0.00  0.00     0.235 A 
ATOM      4  O   LIG d   1       7.468   0.552  -5.456  0.00  0.00    -0.283 OA
ATOM      5  C   LIG d   1       5.912  -0.416  -4.007  0.00  0.00     0.081 A 
ATOM      6  C   LIG d   1       5.858   0.694  -3.166  0.00  0.00     0.129 A 
ATOM      7  C   LIG d   1       5.017   0.679  -2.048  0.00  0.00    -0.016 A 
ATOM      8  C   LIG d   1       4.253  -0.429  -1.767  0.00  0.00    -0.016 A 
ATOM      9  C   LIG d   1       4.299  -1.552  -2.596  0.00  0.00     0.129 A 
ATOM     10  C   LIG d   1       5.128  -1.551  -3.718  0.00  0.00     0.081 A 
ATOM     11  C   LIG d   1       5.195  -2.724  -4.609  0.00  0.00     0.235 A 
ATOM     12  O   LIG d   1       4.522  -3.710  -4.372  0.00  0.00    -0.283 OA
ATOM     13  H   LIG d   1       4.973   1.540  -1.399  0.00  0.00     0.066 H 
ATOM     14  H   LIG d   1       3.612  -0.429  -0.898  0.00  0.00     0.066 H 
ENDROOT
BRANCH   1  15
ATOM     15  O   LIG d   1       6.135  -3.781  -6.605  0.00  0.00    -0.488 OA
BRANCH  15  16
ATOM     16  C   LIG d   1       5.172  -3.852  -7.657  0.00  0.00     0.079 C 
ATOM     17  H   LIG d   1       4.402  -3.097  -7.499  0.00  0.00     0.066 H 
ATOM     18  H   LIG d   1       5.664  -3.675  -8.614  0.00  0.00     0.066 H 
ATOM     19  H   LIG d   1       4.713  -4.841  -7.663  0.00  0.00     0.066 H 
ENDBRANCH  15  16
ENDBRANCH   1  15
BRANCH   2  20
ATOM     20  O   LIG d   1       7.636  -1.610  -7.157  0.00  0.00    -0.488 OA
BRANCH  20  21
ATOM     21  C   LIG d   1       9.008  -1.956  -6.953  0.00  0.00     0.079 C 
ATOM     22  H   LIG d   1       9.541  -1.901  -7.902  0.00  0.00     0.066 H 
ATOM     23  H   LIG d   1       9.456  -1.259  -6.245  0.00  0.00     0.066 H 
ATOM     24  H   LIG d   1       9.073  -2.969  -6.557  0.00  0.00     0.066 H 
ENDBRANCH  20  21
ENDBRANCH   2  20
BRANCH   9  25
ATOM     25  O   LIG d   1       3.542  -2.639  -2.312  0.00  0.00    -0.506 OA
ATOM     26  H   LIG d   1       3.627  -2.950  -1.401  0.00  0.00     0.292 HD
ENDBRANCH   9  25
BRANCH   6  27
ATOM     27  O   LIG d   1       6.609   1.790  -3.436  0.00  0.00    -0.506 OA
ATOM     28  H   LIG d   1       6.331   2.272  -4.228  0.00  0.00     0.292 HD
ENDBRANCH   6  27
TORSDOF 6
ENDMDL
MODEL 4
REMARK VINA RESULT:      -4.9      3.412      3.936
REMARK  6 active torsions:
REMARK  status: ('A' for Active; 'I' for Inactive)
REMARK    1  A    between atoms: C_1  and  O_2 
REMARK    2  A    between atoms: O_2  and  C_3 
REMARK    3  A    between atoms: C_4  and  O_17 
REMARK    4  A    between atoms: C_8  and  O_16 
REMARK    5  A    between atoms: C_11  and  O_15 
REMARK    6  A    between atoms: O_17  and  C_18 
ROOT
ATOM      1  C   LIG d   1       3.923  -1.132  -7.446  0.00  0.00     0.213 A 
ATOM      2  C   LIG d   1       3.211  -0.050  -7.051  0.00  0.00     0.213 A 
ATOM      3  C   LIG d   1       3.150   0.335  -5.631  0.00  0.00     0.235 A 
ATOM      4  O   LIG d   1       2.506   1.308  -5.290  0.00  0.00    -0.283 OA
ATOM      5  C   LIG d   1       3.872  -0.465  -4.623  0.00  0.00     0.081 A 
ATOM      6  C   LIG d   1       3.834  -0.117  -3.274  0.00  0.00     0.129 A 
ATOM      7  C   LIG d   1       4.522  -0.894  -2.337  0.00  0.00    -0.016 A 
ATOM      8  C   LIG d   1       5.245  -1.992  -2.738  0.00  0.00    -0.016 A 
ATOM      9  C   LIG d   1       5.299  -2.352  -4.087  0.00  0.00     0.129 A 
ATOM     10  C   LIG d   1       4.613  -1.591  -5.034  0.00  0.00     0.081 A 
ATOM     11  C   LIG d   1       4.655  -1.950  -6.464  0.00  0.00     0.235 A 
ATOM     12  O   LIG d   1       5.290  -2.920  -6.832  0.00  0.00    -0.283 OA
ATOM     13  H   LIG d   1       4.489  -0.626  -1.291  0.00  0.00     0.066 H 
ATOM     14  H   LIG d   1       5.776  -2.580  -2.004  0.00  0.00     0.066 H 
ENDROOT
BRANCH   1  15
ATOM     15  O   LIG d   1       3.963  -1.466  -8.760  0.00  0.00    -0.488 OA
BRANCH  15  16
ATOM     16  C   LIG d   1       2.972  -2.382  -9.228  0.00  0.00     0.079 C 
ATOM     17  H   LIG d   1       3.326  -3.404  -9.089  0.00  0.00     0.066 H 
ATOM     18  H   LIG d   1       2.049  -2.238  -8.667  0.00  0.00     0.066 H 
ATOM     19  H   LIG d   1       2.784  -2.205 -10.287  0.00  0.00     0.066 H 
ENDBRANCH  15  16
ENDBRANCH   1  15
BRANCH   2  20
ATOM     20  O   LIG d   1       2.546   0.689  -7.975  0.00  0.00    -0.488 OA
BRANCH  20  21
ATOM     21  C   LIG d   1       3.240   1.804  -8.539  0.00  0.00     0.079 C 
ATOM     22  H   LIG d   1       2.840   2.017  -9.530  0.00  0.00     0.066 H 
ATOM     23  H   LIG d   1       3.105   2.676  -7.899  0.00  0.00     0.066 H 
ATOM     24  H   LIG d   1       4.301   1.570  -8.617  0.00  0.00     0.066 H 
ENDBRANCH  20  21
ENDBRANCH   2  20
BRANCH   9  25
ATOM     25  O   LIG d   1       6.013  -3.436  -4.474  0.00  0.00    -0.506 OA
ATOM     26  H   LIG d   1       5.512  -4.067  -5.008  0.00  0.00     0.292 HD
ENDBRANCH   9  25
BRANCH   6  27
ATOM     27  O   LIG d   1       3.123   0.965  -2.871  0.00  0.00    -0.506 OA
ATOM     28  H   LIG d   1       3.370   1.786  -3.318  0.00  0.00     0.292 HD
ENDBRANCH   6  27
TORSDOF 6
ENDMDL
MODEL 5
REMARK VINA RESULT:      -4.8      2.994      3.568
REMARK  6 active torsions:
REMARK  status: ('A' for Active; 'I' for Inactive)
REMARK    1  A    between atoms: C_1  and  O_2 
REMARK    2  A    between atoms: O_2  and  C_3 
REMARK    3  A    between atoms: C_4  and  O_17 
REMARK    4  A    between atoms: C_8  and  O_16 
REMARK    5  A    between atoms: C_11  and  O_15 
REMARK    6  A    between atoms: O_17  and  C_18 
ROOT
ATOM      1  C   LIG d   1       5.983  -0.107  -7.100  0.00  0.00     0.213 A 
ATOM      2  C   LIG d   1       4.663   0.025  -7.375  0.00  0.00     0.213 A 
ATOM      3  C   LIG d   1       3.652  -0.166  -6.322  0.00  0.00     0.235 A 
ATOM      4  O   LIG d   1       2.470  -0.045  -6.583  0.00  0.00    -0.283 OA
ATOM      5  C   LIG d   1       4.076  -0.504  -4.951  0.00  0.00     0.081 A 
ATOM      6  C   LIG d   1       3.137  -0.684  -3.937  0.00  0.00     0.129 A 
ATOM      7  C   LIG d   1       3.563  -1.009  -2.645  0.00  0.00    -0.016 A 
ATOM      8  C   LIG d   1       4.902  -1.142  -2.366  0.00  0.00    -0.016 A 
ATOM      9  C   LIG d   1       5.858  -0.961  -3.369  0.00  0.00     0.129 A 
ATOM     10  C   LIG d   1       5.450  -0.641  -4.664  0.00  0.00     0.081 A 
ATOM     11  C   LIG d   1       6.438  -0.444  -5.740  0.00  0.00     0.235 A 
ATOM     12  O   LIG d   1       7.626  -0.560  -5.507  0.00  0.00    -0.283 OA
ATOM     13  H   LIG d   1       2.835  -1.151  -1.860  0.00  0.00     0.066 H 
ATOM     14  H   LIG d   1       5.218  -1.389  -1.363  0.00  0.00     0.066 H 
ENDROOT
BRANCH   1  15
ATOM     15  O   LIG d   1       6.896   0.072  -8.088  0.00  0.00    -0.488 OA
BRANCH  15  16
ATOM     16  C   LIG d   1       7.513   1.357  -8.176  0.00  0.00     0.079 C 
ATOM     17  H   LIG d   1       8.471   1.267  -8.687  0.00  0.00     0.066 H 
ATOM     18  H   LIG d   1       6.865   2.034  -8.734  0.00  0.00     0.066 H 
ATOM     19  H   LIG d   1       7.673   1.753  -7.173  0.00  0.00     0.066 H 
ENDBRANCH  15  16
ENDBRANCH   1  15
BRANCH   2  20
ATOM     20  O   LIG d   1       4.270   0.336  -8.636  0.00  0.00    -0.488 OA
BRANCH  20  21
ATOM     21  C   LIG d   1       3.952   1.704  -8.899  0.00  0.00     0.079 C 
ATOM     22  H   LIG d   1       2.920   1.779  -9.239  0.00  0.00     0.066 H 
ATOM     23  H   LIG d   1       4.076   2.287  -7.986  0.00  0.00     0.066 H 
ATOM     24  H   LIG d   1       4.618   2.090  -9.670  0.00  0.00     0.066 H 
ENDBRANCH  20  21
ENDBRANCH   2  20
BRANCH   9  25
ATOM     25  O   LIG d   1       7.176  -1.095  -3.086  0.00  0.00    -0.506 OA
ATOM     26  H   LIG d   1       7.359  -1.308  -2.161  0.00  0.00     0.292 HD
ENDBRANCH   9  25
BRANCH   6  27
ATOM     27  O   LIG d   1       1.814  -0.553  -4.204  0.00  0.00    -0.506 OA
ATOM     28  H   LIG d   1       1.255  -0.523  -3.415  0.00  0.00     0.292 HD
ENDBRANCH   6  27
TORSDOF 6
ENDMDL
MODEL 6
REMARK VINA RESULT:      -4.6      9.478     11.730
REMARK  6 active torsions:
REMARK  status: ('A' for Active; 'I' for Inactive)
REMARK    1  A    between atoms: C_1  and  O_2 
REMARK    2  A    between atoms: O_2  and  C_3 
REMARK    3  A    between atoms: C_4  and  O_17 
REMARK    4  A    between atoms: C_8  and  O_16 
REMARK    5  A    between atoms: C_11  and  O_15 
REMARK    6  A    between atoms: O_17  and  C_18 
ROOT
ATOM      1  C   LIG d   1      10.632   6.918  -0.431  0.00  0.00     0.213 A 
ATOM      2  C   LIG d   1      11.239   7.145   0.759  0.00  0.00     0.213 A 
ATOM      3  C   LIG d   1      11.425   8.517   1.260  0.00  0.00     0.235 A 
ATOM      4  O   LIG d   1      11.972   8.706   2.329  0.00  0.00    -0.283 OA
ATOM      5  C   LIG d   1      10.945   9.660   0.461  0.00  0.00     0.081 A 
ATOM      6  C   LIG d   1      11.104  10.967   0.918  0.00  0.00     0.129 A 
ATOM      7  C   LIG d   1      10.646  12.036   0.141  0.00  0.00    -0.016 A 
ATOM      8  C   LIG d   1      10.030  11.805  -1.066  0.00  0.00    -0.016 A 
ATOM      9  C   LIG d   1       9.857  10.501  -1.537  0.00  0.00     0.129 A 
ATOM     10  C   LIG d   1      10.313   9.424  -0.777  0.00  0.00     0.081 A 
ATOM     11  C   LIG d   1      10.143   8.039  -1.251  0.00  0.00     0.235 A 
ATOM     12  O   LIG d   1       9.600   7.822  -2.318  0.00  0.00    -0.283 OA
ATOM     13  H   LIG d   1      10.773  13.048   0.494  0.00  0.00     0.066 H 
ATOM     14  H   LIG d   1       9.676  12.639  -1.654  0.00  0.00     0.066 H 
ENDROOT
BRANCH   1  15
ATOM     15  O   LIG d   1      10.474   5.645  -0.872  0.00  0.00    -0.488 OA
BRANCH  15  16
ATOM     16  C   LIG d   1      11.529   5.095  -1.662  0.00  0.00     0.079 C 
ATOM     17  H   LIG d   1      11.355   4.030  -1.812  0.00  0.00     0.066 H 
ATOM     18  H   LIG d   1      11.561   5.599  -2.628  0.00  0.00     0.066 H 
ATOM     19  H   LIG d   1      12.480   5.237  -1.147  0.00  0.00     0.066 H 
ENDBRANCH  15  16
ENDBRANCH   1  15
BRANCH   2  20
ATOM     20  O   LIG d   1      11.681   6.095   1.496  0.00  0.00    -0.488 OA
BRANCH  20  21
ATOM     21  C   LIG d   1      10.779   5.553   2.463  0.00  0.00     0.079 C 
ATOM     22  H   LIG d   1      11.035   5.933   3.452  0.00  0.00     0.066 H 
ATOM     23  H   LIG d   1       9.760   5.850   2.214  0.00  0.00     0.066 H 
ATOM     24  H   LIG d   1      10.853   4.467   2.460  0.00  0.00     0.066 H 
ENDBRANCH  20  21
ENDBRANCH   2  20
BRANCH   9  25
ATOM     25  O   LIG d   1       9.249  10.283  -2.728  0.00  0.00    -0.506 OA
ATOM     26  H   LIG d   1       9.819  10.437  -3.494  0.00  0.00     0.292 HD
ENDBRANCH   9  25
BRANCH   6  27
ATOM     27  O   LIG d   1      11.711  11.202   2.108  0.00  0.00    -0.506 OA
ATOM     28  H   LIG d   1      12.609  10.851   2.168  0.00  0.00     0.292 HD
ENDBRANCH   6  27
TORSDOF 6
ENDMDL
MODEL 7
REMARK VINA RESULT:      -4.6      8.510     10.948
REMARK  6 active torsions:
REMARK  status: ('A' for Active; 'I' for Inactive)
REMARK    1  A    between atoms: C_1  and  O_2 
REMARK    2  A    between atoms: O_2  and  C_3 
REMARK    3  A    between atoms: C_4  and  O_17 
REMARK    4  A    between atoms: C_8  and  O_16 
REMARK    5  A    between atoms: C_11  and  O_15 
REMARK    6  A    between atoms: O_17  and  C_18 
ROOT
ATOM      1  C   LIG d   1      10.528   9.609  -0.426  0.00  0.00     0.213 A 
ATOM      2  C   LIG d   1      11.040   8.828   0.556  0.00  0.00     0.213 A 
ATOM      3  C   LIG d   1      11.157   7.372   0.377  0.00  0.00     0.235 A 
ATOM      4  O   LIG d   1      11.617   6.683   1.267  0.00  0.00    -0.283 OA
ATOM      5  C   LIG d   1      10.715   6.751  -0.886  0.00  0.00     0.081 A 
ATOM      6  C   LIG d   1      10.821   5.375  -1.080  0.00  0.00     0.129 A 
ATOM      7  C   LIG d   1      10.390   4.808  -2.284  0.00  0.00    -0.016 A 
ATOM      8  C   LIG d   1       9.872   5.600  -3.281  0.00  0.00    -0.016 A 
ATOM      9  C   LIG d   1       9.763   6.981  -3.104  0.00  0.00     0.129 A 
ATOM     10  C   LIG d   1      10.183   7.562  -1.908  0.00  0.00     0.081 A 
ATOM     11  C   LIG d   1      10.078   9.018  -1.698  0.00  0.00     0.235 A 
ATOM     12  O   LIG d   1       9.620   9.730  -2.572  0.00  0.00    -0.283 OA
ATOM     13  H   LIG d   1      10.470   3.741  -2.433  0.00  0.00     0.066 H 
ATOM     14  H   LIG d   1       9.547   5.150  -4.207  0.00  0.00     0.066 H 
ENDROOT
BRANCH   1  15
ATOM     15  O   LIG d   1      10.430  10.948  -0.236  0.00  0.00    -0.488 OA
BRANCH  15  16
ATOM     16  C   LIG d   1      11.444  11.764  -0.823  0.00  0.00     0.079 C 
ATOM     17  H   LIG d   1      12.389  11.221  -0.833  0.00  0.00     0.066 H 
ATOM     18  H   LIG d   1      11.160  12.019  -1.845  0.00  0.00     0.066 H 
ATOM     19  H   LIG d   1      11.558  12.678  -0.240  0.00  0.00     0.066 H 
ENDBRANCH  15  16
ENDBRANCH   1  15
BRANCH   2  20
ATOM     20  O   LIG d   1      11.448   9.396   1.719  0.00  0.00    -0.488 OA
BRANCH  20  21
ATOM     21  C   LIG d   1      12.832   9.738   1.826  0.00  0.00     0.079 C 
ATOM     22  H   LIG d   1      12.937  10.647   2.417  0.00  0.00     0.066 H 
ATOM     23  H   LIG d   1      13.369   8.924   2.313  0.00  0.00     0.066 H 
ATOM     24  H   LIG d   1      13.243   9.901   0.830  0.00  0.00     0.066 H 
ENDBRANCH  20  21
ENDBRANCH   2  20
BRANCH   9  25
ATOM     25  O   LIG d   1       9.250   7.755  -4.092  0.00  0.00    -0.506 OA
ATOM     26  H   LIG d   1       8.403   8.166  -3.870  0.00  0.00     0.292 HD
ENDBRANCH   9  25
BRANCH   6  27
ATOM     27  O   LIG d   1      11.332   4.587  -0.102  0.00  0.00    -0.506 OA
ATOM     28  H   LIG d   1      11.937   5.046   0.497  0.00  0.00     0.292 HD
ENDBRANCH   6  27
TORSDOF 6
ENDMDL
MODEL 8
REMARK VINA RESULT:      -4.6      8.537     10.846
REMARK  6 active torsions:
REMARK  status: ('A' for Active; 'I' for Inactive)
REMARK    1  A    between atoms: C_1  and  O_2 
REMARK    2  A    between atoms: O_2  and  C_3 
REMARK    3  A    between atoms: C_4  and  O_17 
REMARK    4  A    between atoms: C_8  and  O_16 
REMARK    5  A    between atoms: C_11  and  O_15 
REMARK    6  A    between atoms: O_17  and  C_18 
ROOT
ATOM      1  C   LIG d   1      11.081   8.824   0.590  0.00  0.00     0.213 A 
ATOM      2  C   LIG d   1      10.566   9.611  -0.383  0.00  0.00     0.213 A 
ATOM      3  C   LIG d   1      10.102   9.032  -1.655  0.00  0.00     0.235 A 
ATOM      4  O   LIG d   1       9.642   9.750  -2.521  0.00  0.00    -0.283 OA
ATOM      5  C   LIG d   1      10.198   7.576  -1.875  0.00  0.00     0.081 A 
ATOM      6  C   LIG d   1       9.760   7.004  -3.068  0.00  0.00     0.129 A 
ATOM      7  C   LIG d   1       9.865   5.622  -3.256  0.00  0.00    -0.016 A 
ATOM      8  C   LIG d   1      10.388   4.823  -2.267  0.00  0.00    -0.016 A 
ATOM      9  C   LIG d   1      10.827   5.379  -1.063  0.00  0.00     0.129 A 
ATOM     10  C   LIG d   1      10.734   6.756  -0.861  0.00  0.00     0.081 A 
ATOM     11  C   LIG d   1      11.190   7.367   0.401  0.00  0.00     0.235 A 
ATOM     12  O   LIG d   1      11.655   6.670   1.283  0.00  0.00    -0.283 OA
ATOM     13  H   LIG d   1       9.529   5.180  -4.182  0.00  0.00     0.066 H 
ATOM     14  H   LIG d   1      10.459   3.756  -2.423  0.00  0.00     0.066 H 
ENDROOT
BRANCH   1  15
ATOM     15  O   LIG d   1      11.503   9.382   1.753  0.00  0.00    -0.488 OA
BRANCH  15  16
ATOM     16  C   LIG d   1      12.885   9.729   1.843  0.00  0.00     0.079 C 
ATOM     17  H   LIG d   1      13.062  10.286   2.763  0.00  0.00     0.066 H 
ATOM     18  H   LIG d   1      13.489   8.822   1.845  0.00  0.00     0.066 H 
ATOM     19  H   LIG d   1      13.161  10.346   0.988  0.00  0.00     0.066 H 
ENDBRANCH  15  16
ENDBRANCH   1  15
BRANCH   2  20
ATOM     20  O   LIG d   1      10.477  10.951  -0.184  0.00  0.00    -0.488 OA
BRANCH  20  21
ATOM     21  C   LIG d   1      11.480  11.767  -0.793  0.00  0.00     0.079 C 
ATOM     22  H   LIG d   1      12.162  12.135  -0.027  0.00  0.00     0.066 H 
ATOM     23  H   LIG d   1      12.037  11.175  -1.520  0.00  0.00     0.066 H 
ATOM     24  H   LIG d   1      11.007  12.609  -1.296  0.00  0.00     0.066 H 
ENDBRANCH  20  21
ENDBRANCH   2  20
BRANCH   9  25
ATOM     25  O   LIG d   1      11.342   4.584  -0.094  0.00  0.00    -0.506 OA
ATOM     26  H   LIG d   1      11.097   4.849   0.803  0.00  0.00     0.292 HD
ENDBRANCH   9  25
BRANCH   6  27
ATOM     27  O   LIG d   1       9.242   7.786  -4.048  0.00  0.00    -0.506 OA
ATOM     28  H   LIG d   1       9.708   8.625  -4.168  0.00  0.00     0.292 HD
ENDBRANCH   6  27
TORSDOF 6
ENDMDL
MODEL 9
REMARK VINA RESULT:      -4.3      7.884     10.067
REMARK  6 active torsions:
REMARK  status: ('A' for Active; 'I' for Inactive)
REMARK    1  A    between atoms: C_1  and  O_2 
REMARK    2  A    between atoms: O_2  and  C_3 
REMARK    3  A    between atoms: C_4  and  O_17 
REMARK    4  A    between atoms: C_8  and  O_16 
REMARK    5  A    between atoms: C_11  and  O_15 
REMARK    6  A    between atoms: O_17  and  C_18 
ROOT
ATOM      1  C   LIG d   1      10.187   6.946  -1.042  0.00  0.00     0.213 A 
ATOM      2  C   LIG d   1      10.350   8.289  -0.978  0.00  0.00     0.213 A 
ATOM      3  C   LIG d   1      10.254   9.119  -2.191  0.00  0.00     0.235 A 
ATOM      4  O   LIG d   1      10.403  10.323  -2.120  0.00  0.00    -0.283 OA
ATOM      5  C   LIG d   1       9.977   8.483  -3.493  0.00  0.00     0.081 A 
ATOM      6  C   LIG d   1       9.876   9.248  -4.654  0.00  0.00     0.129 A 
ATOM      7  C   LIG d   1       9.619   8.623  -5.878  0.00  0.00    -0.016 A 
ATOM      8  C   LIG d   1       9.453   7.260  -5.943  0.00  0.00    -0.016 A 
ATOM      9  C   LIG d   1       9.545   6.479  -4.788  0.00  0.00     0.129 A 
ATOM     10  C   LIG d   1       9.808   7.086  -3.560  0.00  0.00     0.081 A 
ATOM     11  C   LIG d   1       9.910   6.283  -2.328  0.00  0.00     0.235 A 
ATOM     12  O   LIG d   1       9.766   5.076  -2.372  0.00  0.00    -0.283 OA
ATOM     13  H   LIG d   1       9.544   9.216  -6.777  0.00  0.00     0.066 H 
ATOM     14  H   LIG d   1       9.249   6.791  -6.894  0.00  0.00     0.066 H 
ENDROOT
BRANCH   1  15
ATOM     15  O   LIG d   1      10.281   6.204   0.089  0.00  0.00    -0.488 OA
BRANCH  15  16
ATOM     16  C   LIG d   1      11.540   5.584   0.357  0.00  0.00     0.079 C 
ATOM     17  H   LIG d   1      12.090   5.459  -0.576  0.00  0.00     0.066 H 
ATOM     18  H   LIG d   1      12.116   6.210   1.038  0.00  0.00     0.066 H 
ATOM     19  H   LIG d   1      11.374   4.608   0.813  0.00  0.00     0.066 H 
ENDBRANCH  15  16
ENDBRANCH   1  15
BRANCH   2  20
ATOM     20  O   LIG d   1      10.605   8.877   0.218  0.00  0.00    -0.488 OA
BRANCH  20  21
ATOM     21  C   LIG d   1      11.970   9.175   0.518  0.00  0.00     0.079 C 
ATOM     22  H   LIG d   1      12.615   8.428   0.056  0.00  0.00     0.066 H 
ATOM     23  H   LIG d   1      12.220  10.161   0.127  0.00  0.00     0.066 H 
ATOM     24  H   LIG d   1      12.116   9.164   1.598  0.00  0.00     0.066 H 
ENDBRANCH  20  21
ENDBRANCH   2  20
BRANCH   9  25
ATOM     25  O   LIG d   1       9.382   5.136  -4.861  0.00  0.00    -0.506 OA
ATOM     26  H   LIG d   1       8.625   4.860  -5.396  0.00  0.00     0.292 HD
ENDBRANCH   9  25
BRANCH   6  27
ATOM     27  O   LIG d   1      10.038  10.594  -4.598  0.00  0.00    -0.506 OA
ATOM     28  H   LIG d   1       9.528  11.022  -3.897  0.00  0.00     0.292 HD
ENDBRANCH   6  27
TORSDOF 6
ENDMDL
MODEL 10
REMARK VINA RESULT:      -4.2     11.852     13.226
REMARK  6 active torsions:
REMARK  status: ('A' for Active; 'I' for Inactive)
REMARK    1  A    between atoms: C_1  and  O_2 
REMARK    2  A    between atoms: O_2  and  C_3 
REMARK    3  A    between atoms: C_4  and  O_17 
REMARK    4  A    between atoms: C_8  and  O_16 
REMARK    5  A    between atoms: C_11  and  O_15 
REMARK    6  A    between atoms: O_17  and  C_18 
ROOT
ATOM      1  C   LIG d   1      11.533  -9.429   3.200  0.00  0.00     0.213 A 
ATOM      2  C   LIG d   1      11.623 -10.725   3.581  0.00  0.00     0.213 A 
ATOM      3  C   LIG d   1      11.188 -11.807   2.682  0.00  0.00     0.235 A 
ATOM      4  O   LIG d   1      11.273 -12.967   3.038  0.00  0.00    -0.283 OA
ATOM      5  C   LIG d   1      10.649 -11.479   1.349  0.00  0.00     0.081 A 
ATOM      6  C   LIG d   1      10.236 -12.487   0.478  0.00  0.00     0.129 A 
ATOM      7  C   LIG d   1       9.723 -12.151  -0.778  0.00  0.00    -0.016 A 
ATOM      8  C   LIG d   1       9.633 -10.836  -1.166  0.00  0.00    -0.016 A 
ATOM      9  C   LIG d   1      10.046  -9.814  -0.308  0.00  0.00     0.129 A 
ATOM     10  C   LIG d   1      10.555 -10.130   0.952  0.00  0.00     0.081 A 
ATOM     11  C   LIG d   1      10.999  -9.070   1.875  0.00  0.00     0.235 A 
ATOM     12  O   LIG d   1      10.923  -7.902   1.545  0.00  0.00    -0.283 OA
ATOM     13  H   LIG d   1       9.400 -12.932  -1.451  0.00  0.00     0.066 H 
ATOM     14  H   LIG d   1       9.239 -10.591  -2.141  0.00  0.00     0.066 H 
ENDROOT
BRANCH   1  15
ATOM     15  O   LIG d   1      11.939  -8.450   4.047  0.00  0.00    -0.488 OA
BRANCH  15  16
ATOM     16  C   LIG d   1      13.253  -7.925   3.851  0.00  0.00     0.079 C 
ATOM     17  H   LIG d   1      13.799  -8.560   3.153  0.00  0.00     0.066 H 
ATOM     18  H   LIG d   1      13.184  -6.915   3.446  0.00  0.00     0.066 H 
ATOM     19  H   LIG d   1      13.780  -7.898   4.804  0.00  0.00     0.066 H 
ENDBRANCH  15  16
ENDBRANCH   1  15
BRANCH   2  20
ATOM     20  O   LIG d   1      12.119 -11.030   4.807  0.00  0.00    -0.488 OA
BRANCH  20  21
ATOM     21  C   LIG d   1      13.494 -11.416   4.875  0.00  0.00     0.079 C 
ATOM     22  H   LIG d   1      13.831 -11.731   3.887  0.00  0.00     0.066 H 
ATOM     23  H   LIG d   1      14.092 -10.568   5.209  0.00  0.00     0.066 H 
ATOM     24  H   LIG d   1      13.606 -12.240   5.578  0.00  0.00     0.066 H 
ENDBRANCH  20  21
ENDBRANCH   2  20
BRANCH   9  25
ATOM     25  O   LIG d   1       9.953  -8.519  -0.697  0.00  0.00    -0.506 OA
ATOM     26  H   LIG d   1       9.851  -7.895   0.035  0.00  0.00     0.292 HD
ENDBRANCH   9  25
BRANCH   6  27
ATOM     27  O   LIG d   1      10.323 -13.787   0.853  0.00  0.00    -0.506 OA
ATOM     28  H   LIG d   1       9.616 -14.073   1.447  0.00  0.00     0.292 HD
ENDBRANCH   6  27
TORSDOF 6
ENDMDL
