MODEL 1
REMARK VINA RESULT:      -6.1      0.000      0.000
REMARK  3 active torsions:
REMARK  status: ('A' for Active; 'I' for Inactive)
REMARK    1  A    between atoms: C_7  and  N_11 
REMARK       I    between atoms: N_11  and  CA_12 
REMARK    2  A    between atoms: CA_12  and  CB_14 
REMARK       I    between atoms: CA_12  and  C_16 
REMARK    3  A    between atoms: CB_14  and  OG_15 
ROOT
ATOM      1  C   UNK d   0       4.562   0.378  -2.482  0.00  0.00    -0.061 A 
ATOM      2  C   UNK d   0       4.271  -0.763  -1.738  0.00  0.00    -0.060 A 
ATOM      3  C   UNK d   0       4.208  -1.989  -2.329  0.00  0.00    -0.036 A 
ATOM      4  C   UNK d   0       4.451  -2.108  -3.704  0.00  0.00     0.076 A 
ATOM      5  C   UNK d   0       4.752  -0.948  -4.458  0.00  0.00     0.040 A 
ATOM      6  C   UNK d   0       4.805   0.298  -3.822  0.00  0.00    -0.049 A 
ATOM      7  C   UNK d   0       4.994  -1.095  -5.846  0.00  0.00     0.130 A 
ATOM      8  N   UNK d   0       4.924  -2.313  -6.367  0.00  0.00    -0.220 NA
ATOM      9  C   UNK d   0       4.638  -3.369  -5.623  0.00  0.00     0.119 A 
ATOM     10  N   UNK d   0       4.406  -3.291  -4.334  0.00  0.00    -0.235 NA
ATOM     11  H   UNK d   0       4.602   1.339  -1.990  0.00  0.00     0.062 H 
ATOM     12  H   UNK d   0       4.087  -0.673  -0.678  0.00  0.00     0.062 H 
ATOM     13  H   UNK d   0       3.976  -2.864  -1.741  0.00  0.00     0.064 H 
ATOM     14  H   UNK d   0       5.033   1.188  -4.387  0.00  0.00     0.062 H 
ATOM     15  H   UNK d   0       4.593  -4.338  -6.097  0.00  0.00     0.105 H 
ENDROOT
BRANCH   7  16
ATOM     16  N   SER d   1       5.293  -0.004  -6.632  0.00  0.00    -0.318 N 
ATOM     17  CA  SER d   1       4.701   0.122  -7.967  0.00  0.00     0.084 C 
ATOM     18  HA  SER d   1       4.604  -0.866  -8.416  0.00  0.00     0.058 H 
ATOM     19  C   SER d   1       3.339   0.758  -7.854  0.00  0.00     0.064 C 
ATOM     20  O   SER d   1       2.907   1.074  -6.770  0.00  0.00    -0.548 OA
ATOM     21  OXT SER d   1       2.605   0.973  -8.957  0.00  0.00    -0.548 OA
ATOM     22  H   SER d   1       5.895   0.682  -6.303  0.00  0.00     0.148 HD
BRANCH  17  23
ATOM     23  CB  SER d   1       5.600   0.995  -8.844  0.00  0.00     0.068 C 
ATOM     24  HB1 SER d   1       6.616   0.981  -8.449  0.00  0.00     0.058 H 
ATOM     25  HB2 SER d   1       5.601   0.607  -9.863  0.00  0.00     0.058 H 
BRANCH  23  26
ATOM     26  OG  SER d   1       5.108   2.336  -8.845  0.00  0.00    -0.393 OA
ATOM     27  H   SER d   1       5.799   3.010  -8.787  0.00  0.00     0.209 HD
ENDBRANCH  23  26
ENDBRANCH  17  23
ENDBRANCH   7  16
TORSDOF 5
ENDMDL
MODEL 2
REMARK VINA RESULT:      -6.0      3.775      4.472
REMARK  3 active torsions:
REMARK  status: ('A' for Active; 'I' for Inactive)
REMARK    1  A    between atoms: C_7  and  N_11 
REMARK       I    between atoms: N_11  and  CA_12 
REMARK    2  A    between atoms: CA_12  and  CB_14 
REMARK       I    between atoms: CA_12  and  C_16 
REMARK    3  A    between atoms: CB_14  and  OG_15 
ROOT
ATOM      1  C   UNK d   0       2.796  -0.157  -3.133  0.00  0.00    -0.061 A 
ATOM      2  C   UNK d   0       3.696   0.378  -2.216  0.00  0.00    -0.060 A 
ATOM      3  C   UNK d   0       4.985  -0.062  -2.159  0.00  0.00    -0.036 A 
ATOM      4  C   UNK d   0       5.416  -1.059  -3.044  0.00  0.00     0.076 A 
ATOM      5  C   UNK d   0       4.501  -1.599  -3.980  0.00  0.00     0.040 A 
ATOM      6  C   UNK d   0       3.182  -1.129  -4.009  0.00  0.00    -0.049 A 
ATOM      7  C   UNK d   0       4.961  -2.605  -4.863  0.00  0.00     0.130 A 
ATOM      8  N   UNK d   0       6.227  -2.991  -4.767  0.00  0.00    -0.220 NA
ATOM      9  C   UNK d   0       7.047  -2.458  -3.875  0.00  0.00     0.119 A 
ATOM     10  N   UNK d   0       6.674  -1.523  -3.033  0.00  0.00    -0.235 NA
ATOM     11  H   UNK d   0       1.779   0.205  -3.155  0.00  0.00     0.062 H 
ATOM     12  H   UNK d   0       3.367   1.149  -1.536  0.00  0.00     0.062 H 
ATOM     13  H   UNK d   0       5.671   0.359  -1.439  0.00  0.00     0.064 H 
ATOM     14  H   UNK d   0       2.476  -1.534  -4.719  0.00  0.00     0.062 H 
ATOM     15  H   UNK d   0       8.067  -2.809  -3.838  0.00  0.00     0.105 H 
ENDROOT
BRANCH   7  16
ATOM     16  N   SER d   1       4.118  -3.168  -5.796  0.00  0.00    -0.318 N 
ATOM     17  CA  SER d   1       4.594  -4.258  -6.652  0.00  0.00     0.084 C 
ATOM     18  HA  SER d   1       5.646  -4.100  -6.889  0.00  0.00     0.058 H 
ATOM     19  C   SER d   1       4.435  -5.570  -5.928  0.00  0.00     0.064 C 
ATOM     20  O   SER d   1       3.970  -5.593  -4.812  0.00  0.00    -0.548 OA
ATOM     21  OXT SER d   1       4.809  -6.715  -6.522  0.00  0.00    -0.548 OA
ATOM     22  H   SER d   1       3.208  -2.843  -5.888  0.00  0.00     0.148 HD
BRANCH  17  23
ATOM     23  CB  SER d   1       3.778  -4.286  -7.945  0.00  0.00     0.068 C 
ATOM     24  HB1 SER d   1       3.264  -3.334  -8.071  0.00  0.00     0.058 H 
ATOM     25  HB2 SER d   1       4.445  -4.454  -8.792  0.00  0.00     0.058 H 
BRANCH  23  26
ATOM     26  OG  SER d   1       2.817  -5.341  -7.880  0.00  0.00    -0.393 OA
ATOM     27  H   SER d   1       3.075  -6.074  -7.303  0.00  0.00     0.209 HD
ENDBRANCH  23  26
ENDBRANCH  17  23
ENDBRANCH   7  16
TORSDOF 5
ENDMDL
MODEL 3
REMARK VINA RESULT:      -5.6      1.617      1.789
REMARK  3 active torsions:
REMARK  status: ('A' for Active; 'I' for Inactive)
REMARK    1  A    between atoms: C_7  and  N_11 
REMARK       I    between atoms: N_11  and  CA_12 
REMARK    2  A    between atoms: CA_12  and  CB_14 
REMARK       I    between atoms: CA_12  and  C_16 
REMARK    3  A    between atoms: CB_14  and  OG_15 
ROOT
ATOM      1  C   UNK d   0       2.760  -0.579  -3.043  0.00  0.00    -0.061 A 
ATOM      2  C   UNK d   0       3.501  -1.622  -2.494  0.00  0.00    -0.060 A 
ATOM      3  C   UNK d   0       4.451  -2.270  -3.225  0.00  0.00    -0.036 A 
ATOM      4  C   UNK d   0       4.695  -1.875  -4.547  0.00  0.00     0.076 A 
ATOM      5  C   UNK d   0       3.945  -0.810  -5.103  0.00  0.00     0.040 A 
ATOM      6  C   UNK d   0       2.972  -0.168  -4.327  0.00  0.00    -0.049 A 
ATOM      7  C   UNK d   0       4.211  -0.430  -6.441  0.00  0.00     0.130 A 
ATOM      8  N   UNK d   0       5.150  -1.092  -7.104  0.00  0.00    -0.220 NA
ATOM      9  C   UNK d   0       5.827  -2.081  -6.543  0.00  0.00     0.119 A 
ATOM     10  N   UNK d   0       5.622  -2.475  -5.308  0.00  0.00    -0.235 NA
ATOM     11  H   UNK d   0       2.010  -0.084  -2.444  0.00  0.00     0.062 H 
ATOM     12  H   UNK d   0       3.316  -1.925  -1.474  0.00  0.00     0.062 H 
ATOM     13  H   UNK d   0       5.014  -3.080  -2.787  0.00  0.00     0.064 H 
ATOM     14  H   UNK d   0       2.395   0.644  -4.741  0.00  0.00     0.062 H 
ATOM     15  H   UNK d   0       6.580  -2.588  -7.128  0.00  0.00     0.105 H 
ENDROOT
BRANCH   7  16
ATOM     16  N   SER d   1       3.514   0.599  -7.037  0.00  0.00    -0.318 N 
ATOM     17  CA  SER d   1       3.671   0.856  -8.471  0.00  0.00     0.084 C 
ATOM     18  HA  SER d   1       4.700   0.648  -8.767  0.00  0.00     0.058 H 
ATOM     19  C   SER d   1       2.736  -0.035  -9.246  0.00  0.00     0.064 C 
ATOM     20  O   SER d   1       2.011  -0.806  -8.662  0.00  0.00    -0.548 OA
ATOM     21  OXT SER d   1       2.706   0.027 -10.587  0.00  0.00    -0.548 OA
ATOM     22  H   SER d   1       2.920   1.153  -6.508  0.00  0.00     0.148 HD
BRANCH  17  23
ATOM     23  CB  SER d   1       3.343   2.321  -8.765  0.00  0.00     0.068 C 
ATOM     24  HB1 SER d   1       2.291   2.508  -8.551  0.00  0.00     0.058 H 
ATOM     25  HB2 SER d   1       3.961   2.965  -8.138  0.00  0.00     0.058 H 
BRANCH  23  26
ATOM     26  OG  SER d   1       3.606   2.601 -10.141  0.00  0.00    -0.393 OA
ATOM     27  H   SER d   1       3.242   3.442 -10.449  0.00  0.00     0.209 HD
ENDBRANCH  23  26
ENDBRANCH  17  23
ENDBRANCH   7  16
TORSDOF 5
ENDMDL
MODEL 4
REMARK VINA RESULT:      -5.6      2.701      4.013
REMARK  3 active torsions:
REMARK  status: ('A' for Active; 'I' for Inactive)
REMARK    1  A    between atoms: C_7  and  N_11 
REMARK       I    between atoms: N_11  and  CA_12 
REMARK    2  A    between atoms: CA_12  and  CB_14 
REMARK       I    between atoms: CA_12  and  C_16 
REMARK    3  A    between atoms: CB_14  and  OG_15 
ROOT
ATOM      1  C   UNK d   0       4.196  -1.372  -2.067  0.00  0.00    -0.061 A 
ATOM      2  C   UNK d   0       4.452  -0.053  -1.704  0.00  0.00    -0.060 A 
ATOM      3  C   UNK d   0       5.287   0.729  -2.445  0.00  0.00    -0.036 A 
ATOM      4  C   UNK d   0       5.889   0.203  -3.595  0.00  0.00     0.076 A 
ATOM      5  C   UNK d   0       5.623  -1.138  -3.966  0.00  0.00     0.040 A 
ATOM      6  C   UNK d   0       4.765  -1.917  -3.181  0.00  0.00    -0.049 A 
ATOM      7  C   UNK d   0       6.244  -1.646  -5.133  0.00  0.00     0.130 A 
ATOM      8  N   UNK d   0       7.043  -0.838  -5.818  0.00  0.00    -0.220 NA
ATOM      9  C   UNK d   0       7.262   0.409  -5.433  0.00  0.00     0.119 A 
ATOM     10  N   UNK d   0       6.714   0.931  -4.362  0.00  0.00    -0.235 NA
ATOM     11  H   UNK d   0       3.534  -1.973  -1.460  0.00  0.00     0.062 H 
ATOM     12  H   UNK d   0       3.986   0.355  -0.820  0.00  0.00     0.062 H 
ATOM     13  H   UNK d   0       5.480   1.750  -2.149  0.00  0.00     0.064 H 
ATOM     14  H   UNK d   0       4.556  -2.940  -3.454  0.00  0.00     0.062 H 
ATOM     15  H   UNK d   0       7.922   1.023  -6.027  0.00  0.00     0.105 H 
ENDROOT
BRANCH   7  16
ATOM     16  N   SER d   1       6.024  -2.942  -5.545  0.00  0.00    -0.318 N 
ATOM     17  CA  SER d   1       4.727  -3.322  -6.110  0.00  0.00     0.084 C 
ATOM     18  HA  SER d   1       3.935  -2.765  -5.608  0.00  0.00     0.058 H 
ATOM     19  C   SER d   1       4.708  -3.003  -7.583  0.00  0.00     0.064 C 
ATOM     20  O   SER d   1       5.679  -2.510  -8.107  0.00  0.00    -0.548 OA
ATOM     21  OXT SER d   1       3.613  -3.267  -8.313  0.00  0.00    -0.548 OA
ATOM     22  H   SER d   1       6.728  -3.604  -5.461  0.00  0.00     0.148 HD
BRANCH  17  23
ATOM     23  CB  SER d   1       4.502  -4.822  -5.909  0.00  0.00     0.068 C 
ATOM     24  HB1 SER d   1       5.171  -5.380  -6.563  0.00  0.00     0.058 H 
ATOM     25  HB2 SER d   1       4.706  -5.083  -4.871  0.00  0.00     0.058 H 
BRANCH  23  26
ATOM     26  OG  SER d   1       3.147  -5.146  -6.224  0.00  0.00    -0.393 OA
ATOM     27  H   SER d   1       2.794  -4.668  -6.987  0.00  0.00     0.209 HD
ENDBRANCH  23  26
ENDBRANCH  17  23
ENDBRANCH   7  16
TORSDOF 5
ENDMDL
MODEL 5
REMARK VINA RESULT:      -5.5      3.165      3.734
REMARK  3 active torsions:
REMARK  status: ('A' for Active; 'I' for Inactive)
REMARK    1  A    between atoms: C_7  and  N_11 
REMARK       I    between atoms: N_11  and  CA_12 
REMARK    2  A    between atoms: CA_12  and  CB_14 
REMARK       I    between atoms: CA_12  and  C_16 
REMARK    3  A    between atoms: CB_14  and  OG_15 
ROOT
ATOM      1  C   UNK d   0       4.678   1.101  -2.264  0.00  0.00    -0.061 A 
ATOM      2  C   UNK d   0       3.425   0.497  -2.223  0.00  0.00    -0.060 A 
ATOM      3  C   UNK d   0       3.221  -0.735  -2.768  0.00  0.00    -0.036 A 
ATOM      4  C   UNK d   0       4.290  -1.411  -3.370  0.00  0.00     0.076 A 
ATOM      5  C   UNK d   0       5.566  -0.798  -3.407  0.00  0.00     0.040 A 
ATOM      6  C   UNK d   0       5.741   0.471  -2.842  0.00  0.00    -0.049 A 
ATOM      7  C   UNK d   0       6.630  -1.502  -4.021  0.00  0.00     0.130 A 
ATOM      8  N   UNK d   0       6.376  -2.700  -4.531  0.00  0.00    -0.220 NA
ATOM      9  C   UNK d   0       5.167  -3.234  -4.473  0.00  0.00     0.119 A 
ATOM     10  N   UNK d   0       4.145  -2.627  -3.917  0.00  0.00    -0.235 NA
ATOM     11  H   UNK d   0       4.812   2.080  -1.829  0.00  0.00     0.062 H 
ATOM     12  H   UNK d   0       2.600   1.015  -1.756  0.00  0.00     0.062 H 
ATOM     13  H   UNK d   0       2.242  -1.190  -2.733  0.00  0.00     0.064 H 
ATOM     14  H   UNK d   0       6.709   0.948  -2.865  0.00  0.00     0.062 H 
ATOM     15  H   UNK d   0       5.014  -4.211  -4.905  0.00  0.00     0.105 H 
ENDROOT
BRANCH   7  16
ATOM     16  N   SER d   1       7.894  -0.957  -4.087  0.00  0.00    -0.318 N 
ATOM     17  CA  SER d   1       8.604  -0.905  -5.368  0.00  0.00     0.084 C 
ATOM     18  HA  SER d   1       8.358  -1.790  -5.956  0.00  0.00     0.058 H 
ATOM     19  C   SER d   1       8.189   0.331  -6.122  0.00  0.00     0.064 C 
ATOM     20  O   SER d   1       7.383   1.092  -5.640  0.00  0.00    -0.548 OA
ATOM     21  OXT SER d   1       8.714   0.589  -7.331  0.00  0.00    -0.548 OA
ATOM     22  H   SER d   1       8.315  -0.608  -3.286  0.00  0.00     0.148 HD
BRANCH  17  23
ATOM     23  CB  SER d   1      10.113  -0.866  -5.114  0.00  0.00     0.068 C 
ATOM     24  HB1 SER d   1      10.368  -1.579  -4.330  0.00  0.00     0.058 H 
ATOM     25  HB2 SER d   1      10.642  -1.129  -6.031  0.00  0.00     0.058 H 
BRANCH  23  26
ATOM     26  OG  SER d   1      10.493   0.449  -4.706  0.00  0.00    -0.393 OA
ATOM     27  H   SER d   1      10.315   0.639  -3.774  0.00  0.00     0.209 HD
ENDBRANCH  23  26
ENDBRANCH  17  23
ENDBRANCH   7  16
TORSDOF 5
ENDMDL
MODEL 6
REMARK VINA RESULT:      -5.5      2.328      5.520
REMARK  3 active torsions:
REMARK  status: ('A' for Active; 'I' for Inactive)
REMARK    1  A    between atoms: C_7  and  N_11 
REMARK       I    between atoms: N_11  and  CA_12 
REMARK    2  A    between atoms: CA_12  and  CB_14 
REMARK       I    between atoms: CA_12  and  C_16 
REMARK    3  A    between atoms: CB_14  and  OG_15 
ROOT
ATOM      1  C   UNK d   0       2.110  -0.121  -9.292  0.00  0.00    -0.061 A 
ATOM      2  C   UNK d   0       2.951   0.357 -10.292  0.00  0.00    -0.060 A 
ATOM      3  C   UNK d   0       4.268   0.607 -10.043  0.00  0.00    -0.036 A 
ATOM      4  C   UNK d   0       4.788   0.369  -8.764  0.00  0.00     0.076 A 
ATOM      5  C   UNK d   0       3.932  -0.123  -7.748  0.00  0.00     0.040 A 
ATOM      6  C   UNK d   0       2.583  -0.365  -8.035  0.00  0.00    -0.049 A 
ATOM      7  C   UNK d   0       4.481  -0.356  -6.464  0.00  0.00     0.130 A 
ATOM      8  N   UNK d   0       5.770  -0.100  -6.279  0.00  0.00    -0.220 NA
ATOM      9  C   UNK d   0       6.532   0.359  -7.259  0.00  0.00     0.119 A 
ATOM     10  N   UNK d   0       6.076   0.592  -8.467  0.00  0.00    -0.235 NA
ATOM     11  H   UNK d   0       1.070  -0.307  -9.514  0.00  0.00     0.062 H 
ATOM     12  H   UNK d   0       2.554   0.538 -11.279  0.00  0.00     0.062 H 
ATOM     13  H   UNK d   0       4.908   0.982 -10.828  0.00  0.00     0.064 H 
ATOM     14  H   UNK d   0       1.922  -0.739  -7.268  0.00  0.00     0.062 H 
ATOM     15  H   UNK d   0       7.574   0.551  -7.055  0.00  0.00     0.105 H 
ENDROOT
BRANCH   7  16
ATOM     16  N   SER d   1       3.699  -0.834  -5.435  0.00  0.00    -0.318 N 
ATOM     17  CA  SER d   1       4.010  -0.473  -4.049  0.00  0.00     0.084 C 
ATOM     18  HA  SER d   1       5.090  -0.399  -3.927  0.00  0.00     0.058 H 
ATOM     19  C   SER d   1       3.375   0.854  -3.723  0.00  0.00     0.064 C 
ATOM     20  O   SER d   1       2.729   1.439  -4.561  0.00  0.00    -0.548 OA
ATOM     21  OXT SER d   1       3.527   1.388  -2.500  0.00  0.00    -0.548 OA
ATOM     22  H   SER d   1       2.943  -1.410  -5.628  0.00  0.00     0.148 HD
BRANCH  17  23
ATOM     23  CB  SER d   1       3.462  -1.547  -3.107  0.00  0.00     0.068 C 
ATOM     24  HB1 SER d   1       2.399  -1.374  -2.938  0.00  0.00     0.058 H 
ATOM     25  HB2 SER d   1       3.603  -2.530  -3.557  0.00  0.00     0.058 H 
BRANCH  23  26
ATOM     26  OG  SER d   1       4.159  -1.488  -1.862  0.00  0.00    -0.393 OA
ATOM     27  H   SER d   1       3.795  -2.067  -1.179  0.00  0.00     0.209 HD
ENDBRANCH  23  26
ENDBRANCH  17  23
ENDBRANCH   7  16
TORSDOF 5
ENDMDL
MODEL 7
REMARK VINA RESULT:      -5.4      2.527      5.431
REMARK  3 active torsions:
REMARK  status: ('A' for Active; 'I' for Inactive)
REMARK    1  A    between atoms: C_7  and  N_11 
REMARK       I    between atoms: N_11  and  CA_12 
REMARK    2  A    between atoms: CA_12  and  CB_14 
REMARK       I    between atoms: CA_12  and  C_16 
REMARK    3  A    between atoms: CB_14  and  OG_15 
ROOT
ATOM      1  C   UNK d   0       3.109   2.295  -9.077  0.00  0.00    -0.061 A 
ATOM      2  C   UNK d   0       3.597   1.833 -10.296  0.00  0.00    -0.060 A 
ATOM      3  C   UNK d   0       4.154   0.594 -10.405  0.00  0.00    -0.036 A 
ATOM      4  C   UNK d   0       4.227  -0.234  -9.277  0.00  0.00     0.076 A 
ATOM      5  C   UNK d   0       3.725   0.236  -8.038  0.00  0.00     0.040 A 
ATOM      6  C   UNK d   0       3.164   1.516  -7.959  0.00  0.00    -0.049 A 
ATOM      7  C   UNK d   0       3.811  -0.620  -6.914  0.00  0.00     0.130 A 
ATOM      8  N   UNK d   0       4.358  -1.817  -7.079  0.00  0.00    -0.220 NA
ATOM      9  C   UNK d   0       4.814  -2.214  -8.256  0.00  0.00     0.119 A 
ATOM     10  N   UNK d   0       4.760  -1.463  -9.331  0.00  0.00    -0.235 NA
ATOM     11  H   UNK d   0       2.677   3.283  -9.016  0.00  0.00     0.062 H 
ATOM     12  H   UNK d   0       3.538   2.468 -11.167  0.00  0.00     0.062 H 
ATOM     13  H   UNK d   0       4.533   0.251 -11.356  0.00  0.00     0.064 H 
ATOM     14  H   UNK d   0       2.779   1.883  -7.020  0.00  0.00     0.062 H 
ATOM     15  H   UNK d   0       5.251  -3.198  -8.335  0.00  0.00     0.105 H 
ENDROOT
BRANCH   7  16
ATOM     16  N   SER d   1       3.340  -0.220  -5.682  0.00  0.00    -0.318 N 
ATOM     17  CA  SER d   1       3.789  -0.905  -4.467  0.00  0.00     0.084 C 
ATOM     18  HA  SER d   1       3.934  -1.965  -4.681  0.00  0.00     0.058 H 
ATOM     19  C   SER d   1       5.090  -0.304  -4.004  0.00  0.00     0.064 C 
ATOM     20  O   SER d   1       5.592   0.604  -4.624  0.00  0.00    -0.548 OA
ATOM     21  OXT SER d   1       5.694  -0.777  -2.902  0.00  0.00    -0.548 OA
ATOM     22  H   SER d   1       2.710   0.515  -5.619  0.00  0.00     0.148 HD
BRANCH  17  23
ATOM     23  CB  SER d   1       2.733  -0.745  -3.371  0.00  0.00     0.068 C 
ATOM     24  HB1 SER d   1       1.757  -0.589  -3.828  0.00  0.00     0.058 H 
ATOM     25  HB2 SER d   1       2.708  -1.647  -2.758  0.00  0.00     0.058 H 
BRANCH  23  26
ATOM     26  OG  SER d   1       3.063   0.378  -2.553  0.00  0.00    -0.393 OA
ATOM     27  H   SER d   1       3.548   1.074  -3.016  0.00  0.00     0.209 HD
ENDBRANCH  23  26
ENDBRANCH  17  23
ENDBRANCH   7  16
TORSDOF 5
ENDMDL
MODEL 8
REMARK VINA RESULT:      -5.1      1.907      2.920
REMARK  3 active torsions:
REMARK  status: ('A' for Active; 'I' for Inactive)
REMARK    1  A    between atoms: C_7  and  N_11 
REMARK       I    between atoms: N_11  and  CA_12 
REMARK    2  A    between atoms: CA_12  and  CB_14 
REMARK       I    between atoms: CA_12  and  C_16 
REMARK    3  A    between atoms: CB_14  and  OG_15 
ROOT
ATOM      1  C   UNK d   0       6.706  -2.473  -4.931  0.00  0.00    -0.061 A 
ATOM      2  C   UNK d   0       6.901  -2.123  -3.598  0.00  0.00    -0.060 A 
ATOM      3  C   UNK d   0       6.082  -1.224  -2.981  0.00  0.00    -0.036 A 
ATOM      4  C   UNK d   0       5.021  -0.652  -3.694  0.00  0.00     0.076 A 
ATOM      5  C   UNK d   0       4.820  -1.013  -5.049  0.00  0.00     0.040 A 
ATOM      6  C   UNK d   0       5.683  -1.935  -5.655  0.00  0.00    -0.049 A 
ATOM      7  C   UNK d   0       3.741  -0.420  -5.748  0.00  0.00     0.130 A 
ATOM      8  N   UNK d   0       2.973   0.444  -5.096  0.00  0.00    -0.220 NA
ATOM      9  C   UNK d   0       3.199   0.751  -3.829  0.00  0.00     0.119 A 
ATOM     10  N   UNK d   0       4.183   0.233  -3.134  0.00  0.00    -0.235 NA
ATOM     11  H   UNK d   0       7.372  -3.184  -5.398  0.00  0.00     0.062 H 
ATOM     12  H   UNK d   0       7.716  -2.566  -3.046  0.00  0.00     0.062 H 
ATOM     13  H   UNK d   0       6.248  -0.959  -1.947  0.00  0.00     0.064 H 
ATOM     14  H   UNK d   0       5.539  -2.217  -6.687  0.00  0.00     0.062 H 
ATOM     15  H   UNK d   0       2.544   1.461  -3.346  0.00  0.00     0.105 H 
ENDROOT
BRANCH   7  16
ATOM     16  N   SER d   1       3.495  -0.732  -7.067  0.00  0.00    -0.318 N 
ATOM     17  CA  SER d   1       2.661   0.152  -7.886  0.00  0.00     0.084 C 
ATOM     18  HA  SER d   1       1.872   0.581  -7.268  0.00  0.00     0.058 H 
ATOM     19  C   SER d   1       3.511   1.258  -8.456  0.00  0.00     0.064 C 
ATOM     20  O   SER d   1       4.692   1.304  -8.204  0.00  0.00    -0.548 OA
ATOM     21  OXT SER d   1       2.957   2.193  -9.243  0.00  0.00    -0.548 OA
ATOM     22  H   SER d   1       3.874  -1.537  -7.455  0.00  0.00     0.148 HD
BRANCH  17  23
ATOM     23  CB  SER d   1       2.035  -0.651  -9.028  0.00  0.00     0.068 C 
ATOM     24  HB1 SER d   1       1.973  -1.701  -8.743  0.00  0.00     0.058 H 
ATOM     25  HB2 SER d   1       1.034  -0.270  -9.233  0.00  0.00     0.058 H 
BRANCH  23  26
ATOM     26  OG  SER d   1       2.843  -0.522 -10.199  0.00  0.00    -0.393 OA
ATOM     27  H   SER d   1       2.673  -1.196 -10.871  0.00  0.00     0.209 HD
ENDBRANCH  23  26
ENDBRANCH  17  23
ENDBRANCH   7  16
TORSDOF 5
ENDMDL
MODEL 9
REMARK VINA RESULT:      -4.9     11.062     12.492
REMARK  3 active torsions:
REMARK  status: ('A' for Active; 'I' for Inactive)
REMARK    1  A    between atoms: C_7  and  N_11 
REMARK       I    between atoms: N_11  and  CA_12 
REMARK    2  A    between atoms: CA_12  and  CB_14 
REMARK       I    between atoms: CA_12  and  C_16 
REMARK    3  A    between atoms: CB_14  and  OG_15 
ROOT
ATOM      1  C   UNK d   0      10.108   5.939  -1.565  0.00  0.00    -0.061 A 
ATOM      2  C   UNK d   0      10.830   5.511  -0.455  0.00  0.00    -0.060 A 
ATOM      3  C   UNK d   0      11.274   6.398   0.479  0.00  0.00    -0.036 A 
ATOM      4  C   UNK d   0      10.991   7.762   0.328  0.00  0.00     0.076 A 
ATOM      5  C   UNK d   0      10.251   8.196  -0.799  0.00  0.00     0.040 A 
ATOM      6  C   UNK d   0       9.813   7.260  -1.744  0.00  0.00    -0.049 A 
ATOM      7  C   UNK d   0       9.978   9.580  -0.929  0.00  0.00     0.130 A 
ATOM      8  N   UNK d   0      10.430  10.397   0.013  0.00  0.00    -0.220 NA
ATOM      9  C   UNK d   0      11.118   9.946   1.049  0.00  0.00     0.119 A 
ATOM     10  N   UNK d   0      11.400   8.676   1.220  0.00  0.00    -0.235 NA
ATOM     11  H   UNK d   0       9.770   5.217  -2.294  0.00  0.00     0.062 H 
ATOM     12  H   UNK d   0      11.046   4.460  -0.336  0.00  0.00     0.062 H 
ATOM     13  H   UNK d   0      11.838   6.052   1.332  0.00  0.00     0.064 H 
ATOM     14  H   UNK d   0       9.249   7.580  -2.606  0.00  0.00     0.062 H 
ATOM     15  H   UNK d   0      11.464  10.655   1.787  0.00  0.00     0.105 H 
ENDROOT
BRANCH   7  16
ATOM     16  N   SER d   1       9.263  10.063  -2.003  0.00  0.00    -0.318 N 
ATOM     17  CA  SER d   1       9.712  11.270  -2.700  0.00  0.00     0.084 C 
ATOM     18  HA  SER d   1      10.154  11.961  -1.981  0.00  0.00     0.058 H 
ATOM     19  C   SER d   1      10.741  10.898  -3.736  0.00  0.00     0.064 C 
ATOM     20  O   SER d   1      11.065   9.743  -3.879  0.00  0.00    -0.548 OA
ATOM     21  OXT SER d   1      11.298  11.850  -4.502  0.00  0.00    -0.548 OA
ATOM     22  H   SER d   1       8.461   9.603  -2.298  0.00  0.00     0.148 HD
BRANCH  17  23
ATOM     23  CB  SER d   1       8.518  11.940  -3.383  0.00  0.00     0.068 C 
ATOM     24  HB1 SER d   1       8.538  13.011  -3.181  0.00  0.00     0.058 H 
ATOM     25  HB2 SER d   1       8.575  11.772  -4.459  0.00  0.00     0.058 H 
BRANCH  23  26
ATOM     26  OG  SER d   1       7.305  11.381  -2.877  0.00  0.00    -0.393 OA
ATOM     27  H   SER d   1       6.853  10.793  -3.497  0.00  0.00     0.209 HD
ENDBRANCH  23  26
ENDBRANCH  17  23
ENDBRANCH   7  16
TORSDOF 5
ENDMDL
MODEL 10
REMARK VINA RESULT:      -4.8      9.217     10.705
REMARK  3 active torsions:
REMARK  status: ('A' for Active; 'I' for Inactive)
REMARK    1  A    between atoms: C_7  and  N_11 
REMARK       I    between atoms: N_11  and  CA_12 
REMARK    2  A    between atoms: CA_12  and  CB_14 
REMARK       I    between atoms: CA_12  and  C_16 
REMARK    3  A    between atoms: CB_14  and  OG_15 
ROOT
ATOM      1  C   UNK d   0       9.318   5.077  -4.977  0.00  0.00    -0.061 A 
ATOM      2  C   UNK d   0      10.149   3.962  -4.919  0.00  0.00    -0.060 A 
ATOM      3  C   UNK d   0      10.910   3.709  -3.817  0.00  0.00    -0.036 A 
ATOM      4  C   UNK d   0      10.847   4.576  -2.719  0.00  0.00     0.076 A 
ATOM      5  C   UNK d   0       9.996   5.708  -2.776  0.00  0.00     0.040 A 
ATOM      6  C   UNK d   0       9.232   5.942  -3.925  0.00  0.00    -0.049 A 
ATOM      7  C   UNK d   0       9.950   6.569  -1.653  0.00  0.00     0.130 A 
ATOM      8  N   UNK d   0      10.708   6.271  -0.605  0.00  0.00    -0.220 NA
ATOM      9  C   UNK d   0      11.488   5.203  -0.597  0.00  0.00     0.119 A 
ATOM     10  N   UNK d   0      11.570   4.371  -1.608  0.00  0.00    -0.235 NA
ATOM     11  H   UNK d   0       8.729   5.257  -5.864  0.00  0.00     0.062 H 
ATOM     12  H   UNK d   0      10.197   3.290  -5.763  0.00  0.00     0.062 H 
ATOM     13  H   UNK d   0      11.554   2.843  -3.789  0.00  0.00     0.064 H 
ATOM     14  H   UNK d   0       8.580   6.801  -3.979  0.00  0.00     0.062 H 
ATOM     15  H   UNK d   0      12.085   5.007   0.281  0.00  0.00     0.105 H 
ENDROOT
BRANCH   7  16
ATOM     16  N   SER d   1       9.142   7.684  -1.649  0.00  0.00    -0.318 N 
ATOM     17  CA  SER d   1       9.668   8.969  -1.181  0.00  0.00     0.084 C 
ATOM     18  HA  SER d   1      10.369   8.799  -0.364  0.00  0.00     0.058 H 
ATOM     19  C   SER d   1      10.377   9.665  -2.314  0.00  0.00     0.064 C 
ATOM     20  O   SER d   1      10.436   9.141  -3.402  0.00  0.00    -0.548 OA
ATOM     21  OXT SER d   1      10.942  10.866  -2.116  0.00  0.00    -0.548 OA
ATOM     22  H   SER d   1       8.224   7.620  -1.956  0.00  0.00     0.148 HD
BRANCH  17  23
ATOM     23  CB  SER d   1       8.514   9.844  -0.687  0.00  0.00     0.068 C 
ATOM     24  HB1 SER d   1       7.740   9.213  -0.251  0.00  0.00     0.058 H 
ATOM     25  HB2 SER d   1       8.883  10.540   0.067  0.00  0.00     0.058 H 
BRANCH  23  26
ATOM     26  OG  SER d   1       7.968  10.576  -1.785  0.00  0.00    -0.393 OA
ATOM     27  H   SER d   1       7.176  11.086  -1.565  0.00  0.00     0.209 HD
ENDBRANCH  23  26
ENDBRANCH  17  23
ENDBRANCH   7  16
TORSDOF 5
ENDMDL
