MODEL 1
REMARK VINA RESULT:      -3.6      0.000      0.000
REMARK  0 active torsions:
REMARK  status: ('A' for Active; 'I' for Inactive)
ROOT
ATOM      1  C   LIG d   1       3.788   1.277  -2.812  0.00  0.00     0.035 A 
ATOM      2  C   LIG d   1       3.518   0.079  -3.382  0.00  0.00     0.051 A 
ATOM      3  C   LIG d   1       2.848   0.317  -4.587  0.00  0.00     0.062 A 
ATOM      4  N   LIG d   1       2.719   1.611  -4.735  0.00  0.00    -0.181 NA
ATOM      5  N   LIG d   1       3.305   2.238  -3.627  0.00  0.00    -0.284 N 
ATOM      6  H   LIG d   1       3.356   3.224  -3.468  0.00  0.00     0.188 HD
ATOM      7  I   LIG d   1       4.016  -1.799  -2.599  0.00  0.00    -0.041 I 
ATOM      8  H   LIG d   1       4.298   1.435  -1.873  0.00  0.00     0.083 H 
ATOM      9  H   LIG d   1       2.498  -0.436  -5.276  0.00  0.00     0.086 H 
ENDROOT
TORSDOF 0
ENDMDL
MODEL 2
REMARK VINA RESULT:      -3.5      3.200      3.617
REMARK  0 active torsions:
REMARK  status: ('A' for Active; 'I' for Inactive)
ROOT
ATOM      1  C   LIG d   1       4.072  -1.109  -4.541  0.00  0.00     0.035 A 
ATOM      2  C   LIG d   1       4.144  -0.871  -3.210  0.00  0.00     0.051 A 
ATOM      3  C   LIG d   1       4.119  -2.105  -2.550  0.00  0.00     0.062 A 
ATOM      4  N   LIG d   1       4.034  -3.049  -3.451  0.00  0.00    -0.181 NA
ATOM      5  N   LIG d   1       4.002  -2.446  -4.716  0.00  0.00    -0.284 N 
ATOM      6  H   LIG d   1       3.940  -2.922  -5.593  0.00  0.00     0.188 HD
ATOM      7  I   LIG d   1       4.272   1.011  -2.301  0.00  0.00    -0.041 I 
ATOM      8  H   LIG d   1       4.069  -0.364  -5.322  0.00  0.00     0.083 H 
ATOM      9  H   LIG d   1       4.163  -2.252  -1.481  0.00  0.00     0.086 H 
ENDROOT
TORSDOF 0
ENDMDL
MODEL 3
REMARK VINA RESULT:      -3.3      1.458      2.070
REMARK  0 active torsions:
REMARK  status: ('A' for Active; 'I' for Inactive)
ROOT
ATOM      1  C   LIG d   1       4.296  -0.682  -5.533  0.00  0.00     0.035 A 
ATOM      2  C   LIG d   1       3.678  -0.562  -4.335  0.00  0.00     0.051 A 
ATOM      3  C   LIG d   1       2.761   0.491  -4.426  0.00  0.00     0.062 A 
ATOM      4  N   LIG d   1       2.825   0.985  -5.636  0.00  0.00    -0.181 NA
ATOM      5  N   LIG d   1       3.787   0.261  -6.354  0.00  0.00    -0.284 N 
ATOM      6  H   LIG d   1       4.050   0.416  -7.306  0.00  0.00     0.188 HD
ATOM      7  I   LIG d   1       4.034  -1.743  -2.641  0.00  0.00    -0.041 I 
ATOM      8  H   LIG d   1       5.059  -1.403  -5.787  0.00  0.00     0.083 H 
ATOM      9  H   LIG d   1       2.111   0.835  -3.636  0.00  0.00     0.086 H 
ENDROOT
TORSDOF 0
ENDMDL
MODEL 4
REMARK VINA RESULT:      -3.3      2.469      2.910
REMARK  0 active torsions:
REMARK  status: ('A' for Active; 'I' for Inactive)
ROOT
ATOM      1  C   LIG d   1       6.008  -0.196  -4.319  0.00  0.00     0.035 A 
ATOM      2  C   LIG d   1       5.204  -0.219  -3.230  0.00  0.00     0.051 A 
ATOM      3  C   LIG d   1       5.350   1.001  -2.561  0.00  0.00     0.062 A 
ATOM      4  N   LIG d   1       6.210   1.731  -3.223  0.00  0.00    -0.181 NA
ATOM      5  N   LIG d   1       6.640   0.997  -4.337  0.00  0.00    -0.284 N 
ATOM      6  H   LIG d   1       7.298   1.303  -5.025  0.00  0.00     0.188 HD
ATOM      7  I   LIG d   1       3.963  -1.803  -2.649  0.00  0.00    -0.041 I 
ATOM      8  H   LIG d   1       6.124  -0.989  -5.043  0.00  0.00     0.083 H 
ATOM      9  H   LIG d   1       4.840   1.291  -1.654  0.00  0.00     0.086 H 
ENDROOT
TORSDOF 0
ENDMDL
MODEL 5
REMARK VINA RESULT:      -2.9      2.488      2.955
REMARK  0 active torsions:
REMARK  status: ('A' for Active; 'I' for Inactive)
ROOT
ATOM      1  C   LIG d   1       3.989  -0.514  -5.491  0.00  0.00     0.035 A 
ATOM      2  C   LIG d   1       4.710  -0.769  -4.374  0.00  0.00     0.051 A 
ATOM      3  C   LIG d   1       6.007  -0.288  -4.579  0.00  0.00     0.062 A 
ATOM      4  N   LIG d   1       6.065   0.237  -5.776  0.00  0.00    -0.181 NA
ATOM      5  N   LIG d   1       4.803   0.106  -6.372  0.00  0.00    -0.284 N 
ATOM      6  H   LIG d   1       4.550   0.417  -7.288  0.00  0.00     0.188 HD
ATOM      7  I   LIG d   1       4.005  -1.716  -2.643  0.00  0.00    -0.041 I 
ATOM      8  H   LIG d   1       2.950  -0.763  -5.650  0.00  0.00     0.083 H 
ATOM      9  H   LIG d   1       6.821  -0.339  -3.871  0.00  0.00     0.086 H 
ENDROOT
TORSDOF 0
ENDMDL
MODEL 6
REMARK VINA RESULT:      -2.8      4.834      5.330
REMARK  0 active torsions:
REMARK  status: ('A' for Active; 'I' for Inactive)
ROOT
ATOM      1  C   LIG d   1       2.775  -0.090  -7.659  0.00  0.00     0.035 A 
ATOM      2  C   LIG d   1       2.453   0.243  -8.931  0.00  0.00     0.051 A 
ATOM      3  C   LIG d   1       2.639   1.622  -9.076  0.00  0.00     0.062 A 
ATOM      4  N   LIG d   1       3.058   2.100  -7.933  0.00  0.00    -0.181 NA
ATOM      5  N   LIG d   1       3.151   1.039  -7.022  0.00  0.00    -0.284 N 
ATOM      6  H   LIG d   1       3.445   1.107  -6.069  0.00  0.00     0.188 HD
ATOM      7  I   LIG d   1       1.791  -1.075 -10.419  0.00  0.00    -0.041 I 
ATOM      8  H   LIG d   1       2.736  -1.080  -7.230  0.00  0.00     0.083 H 
ATOM      9  H   LIG d   1       2.468   2.193  -9.976  0.00  0.00     0.086 H 
ENDROOT
TORSDOF 0
ENDMDL
MODEL 7
REMARK VINA RESULT:      -2.8      2.268      2.623
REMARK  0 active torsions:
REMARK  status: ('A' for Active; 'I' for Inactive)
ROOT
ATOM      1  C   LIG d   1       3.917  -0.581  -4.791  0.00  0.00     0.035 A 
ATOM      2  C   LIG d   1       4.556  -1.137  -3.736  0.00  0.00     0.051 A 
ATOM      3  C   LIG d   1       3.625  -1.294  -2.702  0.00  0.00     0.062 A 
ATOM      4  N   LIG d   1       2.470  -0.848  -3.122  0.00  0.00    -0.181 NA
ATOM      5  N   LIG d   1       2.628  -0.392  -4.438  0.00  0.00    -0.284 N 
ATOM      6  H   LIG d   1       1.912   0.003  -5.013  0.00  0.00     0.188 HD
ATOM      7  I   LIG d   1       6.581  -1.669  -3.663  0.00  0.00    -0.041 I 
ATOM      8  H   LIG d   1       4.358  -0.332  -5.745  0.00  0.00     0.083 H 
ATOM      9  H   LIG d   1       3.827  -1.712  -1.727  0.00  0.00     0.086 H 
ENDROOT
TORSDOF 0
ENDMDL
MODEL 8
REMARK VINA RESULT:      -2.8     11.071     11.389
REMARK  0 active torsions:
REMARK  status: ('A' for Active; 'I' for Inactive)
ROOT
ATOM      1  C   LIG d   1       3.833 -10.050  -3.046  0.00  0.00     0.035 A 
ATOM      2  C   LIG d   1       4.595 -10.272  -4.143  0.00  0.00     0.051 A 
ATOM      3  C   LIG d   1       3.899 -11.148  -4.982  0.00  0.00     0.062 A 
ATOM      4  N   LIG d   1       2.760 -11.443  -4.410  0.00  0.00    -0.181 NA
ATOM      5  N   LIG d   1       2.695 -10.762  -3.186  0.00  0.00    -0.284 N 
ATOM      6  H   LIG d   1       1.939 -10.797  -2.533  0.00  0.00     0.188 HD
ATOM      7  I   LIG d   1       6.485  -9.448  -4.516  0.00  0.00    -0.041 I 
ATOM      8  H   LIG d   1       4.090  -9.419  -2.209  0.00  0.00     0.083 H 
ATOM      9  H   LIG d   1       4.241 -11.517  -5.937  0.00  0.00     0.086 H 
ENDROOT
TORSDOF 0
ENDMDL
MODEL 9
REMARK VINA RESULT:      -2.7      9.069      9.236
REMARK  0 active torsions:
REMARK  status: ('A' for Active; 'I' for Inactive)
ROOT
ATOM      1  C   LIG d   1      10.540   5.131  -1.874  0.00  0.00     0.035 A 
ATOM      2  C   LIG d   1       9.917   6.158  -2.498  0.00  0.00     0.051 A 
ATOM      3  C   LIG d   1       9.608   7.124  -1.533  0.00  0.00     0.062 A 
ATOM      4  N   LIG d   1      10.030   6.691  -0.372  0.00  0.00    -0.181 NA
ATOM      5  N   LIG d   1      10.621   5.435  -0.562  0.00  0.00    -0.284 N 
ATOM      6  H   LIG d   1      11.031   4.865   0.150  0.00  0.00     0.188 HD
ATOM      7  I   LIG d   1       9.491   6.281  -4.545  0.00  0.00    -0.041 I 
ATOM      8  H   LIG d   1      10.905   4.229  -2.343  0.00  0.00     0.083 H 
ATOM      9  H   LIG d   1       9.109   8.064  -1.715  0.00  0.00     0.086 H 
ENDROOT
TORSDOF 0
ENDMDL
MODEL 10
REMARK VINA RESULT:      -2.7     10.129     10.805
REMARK  0 active torsions:
REMARK  status: ('A' for Active; 'I' for Inactive)
ROOT
ATOM      1  C   LIG d   1      10.584   5.951  -0.662  0.00  0.00     0.035 A 
ATOM      2  C   LIG d   1      10.579   7.222  -0.198  0.00  0.00     0.051 A 
ATOM      3  C   LIG d   1      11.125   7.212   1.090  0.00  0.00     0.062 A 
ATOM      4  N   LIG d   1      11.446   5.980   1.389  0.00  0.00    -0.181 NA
ATOM      5  N   LIG d   1      11.113   5.164   0.299  0.00  0.00    -0.284 N 
ATOM      6  H   LIG d   1      11.246   4.175   0.243  0.00  0.00     0.188 HD
ATOM      7  I   LIG d   1       9.878   8.906  -1.228  0.00  0.00    -0.041 I 
ATOM      8  H   LIG d   1      10.227   5.623  -1.628  0.00  0.00     0.083 H 
ATOM      9  H   LIG d   1      11.259   8.074   1.727  0.00  0.00     0.086 H 
ENDROOT
TORSDOF 0
ENDMDL
