MODEL 1
REMARK VINA RESULT:      -5.3      0.000      0.000
REMARK  7 active torsions:
REMARK  status: ('A' for Active; 'I' for Inactive)
REMARK    1  A    between atoms: C_1  and  C_2 
REMARK    2  A    between atoms: C_2  and  O_3 
REMARK    3  A    between atoms: O_3  and  C_4 
REMARK    4  A    between atoms: C_4  and  C_6 
REMARK    5  A    between atoms: C_11  and  N_12 
REMARK    6  A    between atoms: C_14  and  C_17 
REMARK    7  A    between atoms: C_14  and  C_18 
ROOT
ATOM      1  C   LIG d   1       4.278  -0.935  -4.986  0.00  0.00     0.099 A 
ATOM      2  C   LIG d   1       5.186  -1.030  -6.045  0.00  0.00    -0.037 A 
ATOM      3  C   LIG d   1       4.831  -0.498  -7.276  0.00  0.00     0.000 A 
ATOM      4  C   LIG d   1       3.598   0.106  -7.426  0.00  0.00     0.051 A 
ATOM      5  N   LIG d   1       2.757   0.188  -6.408  0.00  0.00    -0.236 NA
ATOM      6  C   LIG d   1       3.041  -0.306  -5.215  0.00  0.00     0.131 A 
ATOM      7  C   LIG d   1       3.173   0.683  -8.755  0.00  0.00     0.019 C 
ATOM      8  C   LIG d   1       4.396   0.873  -9.653  0.00  0.00     0.070 C 
ATOM      9  O   LIG d   1       5.151  -0.344  -9.656  0.00  0.00    -0.369 OA
ATOM     10  C   LIG d   1       5.811  -0.596  -8.414  0.00  0.00     0.075 C 
ATOM     11  H   LIG d   1       6.145  -1.508  -5.909  0.00  0.00     0.063 H 
ATOM     12  H   LIG d   1       2.471   0.001  -9.237  0.00  0.00     0.036 H 
ATOM     13  H   LIG d   1       2.688   1.645  -8.594  0.00  0.00     0.036 H 
ATOM     14  H   LIG d   1       6.604   0.137  -8.272  0.00  0.00     0.061 H 
ATOM     15  H   LIG d   1       6.245  -1.595  -8.433  0.00  0.00     0.061 H 
ENDROOT
BRANCH   1  16
ATOM     16  C   LIG d   1       4.606  -1.487  -3.661  0.00  0.00     0.343 C 
ATOM     17  O   LIG d   1       3.966  -2.419  -3.214  0.00  0.00    -0.245 OA
BRANCH  16  18
ATOM     18  O   LIG d   1       5.617  -0.959  -2.943  0.00  0.00    -0.461 OA
BRANCH  18  19
ATOM     19  C   LIG d   1       5.604   0.458  -2.750  0.00  0.00     0.090 C 
ATOM     20  H   LIG d   1       5.356   0.950  -3.689  0.00  0.00     0.070 H 
ATOM     21  H   LIG d   1       6.587   0.788  -2.414  0.00  0.00     0.070 H 
BRANCH  19  22
ATOM     22  C   LIG d   1       4.558   0.818  -1.693  0.00  0.00    -0.031 C 
ATOM     23  H   LIG d   1       4.904   0.493  -0.712  0.00  0.00     0.026 H 
ATOM     24  H   LIG d   1       4.407   1.898  -1.684  0.00  0.00     0.026 H 
ATOM     25  H   LIG d   1       3.616   0.321  -1.929  0.00  0.00     0.026 H 
ENDBRANCH  19  22
ENDBRANCH  18  19
ENDBRANCH  16  18
ENDBRANCH   1  16
BRANCH   6  26
ATOM     26  N   LIG d   1       2.123  -0.198  -4.188  0.00  0.00    -0.343 N 
ATOM     27  H   LIG d   1       1.790   0.674  -3.924  0.00  0.00     0.144 HD
ATOM     28  H   LIG d   1       1.812  -0.995  -3.730  0.00  0.00     0.144 HD
ENDBRANCH   6  26
BRANCH   8  29
ATOM     29  C   LIG d   1       5.259   2.014  -9.111  0.00  0.00    -0.036 C 
ATOM     30  H   LIG d   1       4.874   2.966  -9.478  0.00  0.00     0.026 H 
ATOM     31  H   LIG d   1       5.231   2.006  -8.022  0.00  0.00     0.026 H 
ATOM     32  H   LIG d   1       6.287   1.883  -9.449  0.00  0.00     0.026 H 
ENDBRANCH   8  29
BRANCH   8  33
ATOM     33  C   LIG d   1       3.942   1.199 -11.078  0.00  0.00    -0.036 C 
ATOM     34  H   LIG d   1       3.515   2.202 -11.102  0.00  0.00     0.026 H 
ATOM     35  H   LIG d   1       4.798   1.152 -11.751  0.00  0.00     0.026 H 
ATOM     36  H   LIG d   1       3.190   0.476 -11.393  0.00  0.00     0.026 H 
ENDBRANCH   8  33
TORSDOF 7
ENDMDL
MODEL 2
REMARK VINA RESULT:      -5.2      1.954      2.553
REMARK  7 active torsions:
REMARK  status: ('A' for Active; 'I' for Inactive)
REMARK    1  A    between atoms: C_1  and  C_2 
REMARK    2  A    between atoms: C_2  and  O_3 
REMARK    3  A    between atoms: O_3  and  C_4 
REMARK    4  A    between atoms: C_4  and  C_6 
REMARK    5  A    between atoms: C_11  and  N_12 
REMARK    6  A    between atoms: C_14  and  C_17 
REMARK    7  A    between atoms: C_14  and  C_18 
ROOT
ATOM      1  C   LIG d   1       3.241   0.042  -5.810  0.00  0.00     0.099 A 
ATOM      2  C   LIG d   1       2.855   0.931  -6.817  0.00  0.00    -0.037 A 
ATOM      3  C   LIG d   1       3.224   0.655  -8.125  0.00  0.00     0.000 A 
ATOM      4  C   LIG d   1       3.963  -0.480  -8.399  0.00  0.00     0.051 A 
ATOM      5  N   LIG d   1       4.313  -1.309  -7.429  0.00  0.00    -0.236 NA
ATOM      6  C   LIG d   1       3.992  -1.093  -6.165  0.00  0.00     0.131 A 
ATOM      7  C   LIG d   1       4.395  -0.804  -9.809  0.00  0.00     0.019 C 
ATOM      8  C   LIG d   1       3.562   0.003 -10.805  0.00  0.00     0.070 C 
ATOM      9  O   LIG d   1       3.567   1.375 -10.396  0.00  0.00    -0.369 OA
ATOM     10  C   LIG d   1       2.804   1.609  -9.211  0.00  0.00     0.075 C 
ATOM     11  H   LIG d   1       2.279   1.814  -6.583  0.00  0.00     0.063 H 
ATOM     12  H   LIG d   1       5.449  -0.552  -9.930  0.00  0.00     0.036 H 
ATOM     13  H   LIG d   1       4.254  -1.868  -9.996  0.00  0.00     0.036 H 
ATOM     14  H   LIG d   1       1.746   1.464  -9.429  0.00  0.00     0.061 H 
ATOM     15  H   LIG d   1       2.965   2.633  -8.875  0.00  0.00     0.061 H 
ENDROOT
BRANCH   1  16
ATOM     16  C   LIG d   1       2.876   0.291  -4.404  0.00  0.00     0.343 C 
ATOM     17  O   LIG d   1       2.192  -0.513  -3.802  0.00  0.00    -0.245 OA
BRANCH  16  18
ATOM     18  O   LIG d   1       3.300   1.412  -3.788  0.00  0.00    -0.461 OA
BRANCH  18  19
ATOM     19  C   LIG d   1       3.668   1.295  -2.411  0.00  0.00     0.090 C 
ATOM     20  H   LIG d   1       3.016   0.572  -1.922  0.00  0.00     0.070 H 
ATOM     21  H   LIG d   1       3.567   2.265  -1.925  0.00  0.00     0.070 H 
BRANCH  19  22
ATOM     22  C   LIG d   1       5.120   0.823  -2.310  0.00  0.00    -0.031 C 
ATOM     23  H   LIG d   1       5.194  -0.205  -2.665  0.00  0.00     0.026 H 
ATOM     24  H   LIG d   1       5.754   1.464  -2.922  0.00  0.00     0.026 H 
ATOM     25  H   LIG d   1       5.447   0.872  -1.271  0.00  0.00     0.026 H 
ENDBRANCH  19  22
ENDBRANCH  18  19
ENDBRANCH  16  18
ENDBRANCH   1  16
BRANCH   6  26
ATOM     26  N   LIG d   1       4.389  -1.989  -5.190  0.00  0.00    -0.343 N 
ATOM     27  H   LIG d   1       3.726  -2.421  -4.629  0.00  0.00     0.144 HD
ATOM     28  H   LIG d   1       5.331  -2.185  -5.067  0.00  0.00     0.144 HD
ENDBRANCH   6  26
BRANCH   8  29
ATOM     29  C   LIG d   1       2.126  -0.524 -10.820  0.00  0.00    -0.036 C 
ATOM     30  H   LIG d   1       1.434   0.301 -10.643  0.00  0.00     0.026 H 
ATOM     31  H   LIG d   1       1.914  -0.974 -11.789  0.00  0.00     0.026 H 
ATOM     32  H   LIG d   1       2.006  -1.274 -10.037  0.00  0.00     0.026 H 
ENDBRANCH   8  29
BRANCH   8  33
ATOM     33  C   LIG d   1       4.172  -0.118 -12.203  0.00  0.00    -0.036 C 
ATOM     34  H   LIG d   1       3.386  -0.021 -12.952  0.00  0.00     0.026 H 
ATOM     35  H   LIG d   1       4.910   0.672 -12.347  0.00  0.00     0.026 H 
ATOM     36  H   LIG d   1       4.654  -1.090 -12.306  0.00  0.00     0.026 H 
ENDBRANCH   8  33
TORSDOF 7
ENDMDL
MODEL 3
REMARK VINA RESULT:      -5.1      1.744      2.249
REMARK  7 active torsions:
REMARK  status: ('A' for Active; 'I' for Inactive)
REMARK    1  A    between atoms: C_1  and  C_2 
REMARK    2  A    between atoms: C_2  and  O_3 
REMARK    3  A    between atoms: O_3  and  C_4 
REMARK    4  A    between atoms: C_4  and  C_6 
REMARK    5  A    between atoms: C_11  and  N_12 
REMARK    6  A    between atoms: C_14  and  C_17 
REMARK    7  A    between atoms: C_14  and  C_18 
ROOT
ATOM      1  C   LIG d   1       4.405  -0.552  -6.001  0.00  0.00     0.099 A 
ATOM      2  C   LIG d   1       4.811  -1.245  -7.146  0.00  0.00    -0.037 A 
ATOM      3  C   LIG d   1       3.989  -1.225  -8.263  0.00  0.00     0.000 A 
ATOM      4  C   LIG d   1       2.797  -0.528  -8.217  0.00  0.00     0.051 A 
ATOM      5  N   LIG d   1       2.435   0.124  -7.124  0.00  0.00    -0.236 NA
ATOM      6  C   LIG d   1       3.178   0.134  -6.030  0.00  0.00     0.131 A 
ATOM      7  C   LIG d   1       1.871  -0.496  -9.409  0.00  0.00     0.019 C 
ATOM      8  C   LIG d   1       2.628  -0.924 -10.666  0.00  0.00     0.070 C 
ATOM      9  O   LIG d   1       3.324  -2.144 -10.385  0.00  0.00    -0.369 OA
ATOM     10  C   LIG d   1       4.428  -1.966  -9.497  0.00  0.00     0.075 C 
ATOM     11  H   LIG d   1       5.746  -1.786  -7.161  0.00  0.00     0.063 H 
ATOM     12  H   LIG d   1       1.037  -1.178  -9.238  0.00  0.00     0.036 H 
ATOM     13  H   LIG d   1       1.488   0.515  -9.544  0.00  0.00     0.036 H 
ATOM     14  H   LIG d   1       5.209  -1.396 -10.001  0.00  0.00     0.061 H 
ATOM     15  H   LIG d   1       4.822  -2.941  -9.211  0.00  0.00     0.061 H 
ENDROOT
BRANCH   1  16
ATOM     16  C   LIG d   1       5.241  -0.546  -4.788  0.00  0.00     0.343 C 
ATOM     17  O   LIG d   1       5.654   0.505  -4.339  0.00  0.00    -0.245 OA
BRANCH  16  18
ATOM     18  O   LIG d   1       5.548  -1.707  -4.176  0.00  0.00    -0.461 OA
BRANCH  18  19
ATOM     19  C   LIG d   1       4.455  -2.506  -3.716  0.00  0.00     0.090 C 
ATOM     20  H   LIG d   1       4.786  -3.535  -3.587  0.00  0.00     0.070 H 
ATOM     21  H   LIG d   1       3.647  -2.471  -4.446  0.00  0.00     0.070 H 
BRANCH  19  22
ATOM     22  C   LIG d   1       3.955  -1.960  -2.376  0.00  0.00    -0.031 C 
ATOM     23  H   LIG d   1       3.847  -0.877  -2.442  0.00  0.00     0.026 H 
ATOM     24  H   LIG d   1       2.989  -2.407  -2.140  0.00  0.00     0.026 H 
ATOM     25  H   LIG d   1       4.672  -2.207  -1.593  0.00  0.00     0.026 H 
ENDBRANCH  19  22
ENDBRANCH  18  19
ENDBRANCH  16  18
ENDBRANCH   1  16
BRANCH   6  26
ATOM     26  N   LIG d   1       2.750   0.827  -4.913  0.00  0.00    -0.343 N 
ATOM     27  H   LIG d   1       3.333   1.478  -4.493  0.00  0.00     0.144 HD
ATOM     28  H   LIG d   1       1.866   0.661  -4.549  0.00  0.00     0.144 HD
ENDBRANCH   6  26
BRANCH   8  29
ATOM     29  C   LIG d   1       3.632   0.163 -11.057  0.00  0.00    -0.036 C 
ATOM     30  H   LIG d   1       3.135   1.134 -11.054  0.00  0.00     0.026 H 
ATOM     31  H   LIG d   1       4.453   0.173 -10.342  0.00  0.00     0.026 H 
ATOM     32  H   LIG d   1       4.021  -0.043 -12.054  0.00  0.00     0.026 H 
ENDBRANCH   8  29
BRANCH   8  33
ATOM     33  C   LIG d   1       1.639  -1.150 -11.811  0.00  0.00    -0.036 C 
ATOM     34  H   LIG d   1       2.185  -1.432 -12.712  0.00  0.00     0.026 H 
ATOM     35  H   LIG d   1       0.947  -1.949 -11.541  0.00  0.00     0.026 H 
ATOM     36  H   LIG d   1       1.081  -0.232 -11.997  0.00  0.00     0.026 H 
ENDBRANCH   8  33
TORSDOF 7
ENDMDL
MODEL 4
REMARK VINA RESULT:      -5.0      2.027      6.267
REMARK  7 active torsions:
REMARK  status: ('A' for Active; 'I' for Inactive)
REMARK    1  A    between atoms: C_1  and  C_2 
REMARK    2  A    between atoms: C_2  and  O_3 
REMARK    3  A    between atoms: O_3  and  C_4 
REMARK    4  A    between atoms: C_4  and  C_6 
REMARK    5  A    between atoms: C_11  and  N_12 
REMARK    6  A    between atoms: C_14  and  C_17 
REMARK    7  A    between atoms: C_14  and  C_18 
ROOT
ATOM      1  C   LIG d   1       3.536   0.422  -8.068  0.00  0.00     0.099 A 
ATOM      2  C   LIG d   1       2.740   0.604  -6.933  0.00  0.00    -0.037 A 
ATOM      3  C   LIG d   1       3.152   0.043  -5.733  0.00  0.00     0.000 A 
ATOM      4  C   LIG d   1       4.329  -0.679  -5.689  0.00  0.00     0.051 A 
ATOM      5  N   LIG d   1       5.068  -0.835  -6.776  0.00  0.00    -0.236 NA
ATOM      6  C   LIG d   1       4.720  -0.326  -7.945  0.00  0.00     0.131 A 
ATOM      7  C   LIG d   1       4.801  -1.316  -4.405  0.00  0.00     0.019 C 
ATOM      8  C   LIG d   1       4.074  -0.688  -3.216  0.00  0.00     0.070 C 
ATOM      9  O   LIG d   1       2.668  -0.687  -3.492  0.00  0.00    -0.369 OA
ATOM     10  C   LIG d   1       2.299   0.244  -4.510  0.00  0.00     0.075 C 
ATOM     11  H   LIG d   1       1.822   1.171  -6.987  0.00  0.00     0.063 H 
ATOM     12  H   LIG d   1       4.593  -2.386  -4.433  0.00  0.00     0.036 H 
ATOM     13  H   LIG d   1       5.874  -1.161  -4.296  0.00  0.00     0.036 H 
ATOM     14  H   LIG d   1       2.435   1.259  -4.137  0.00  0.00     0.061 H 
ATOM     15  H   LIG d   1       1.251   0.095  -4.772  0.00  0.00     0.061 H 
ENDROOT
BRANCH   1  16
ATOM     16  C   LIG d   1       3.139   0.995  -9.366  0.00  0.00     0.343 C 
ATOM     17  O   LIG d   1       3.101   2.201  -9.512  0.00  0.00    -0.245 OA
BRANCH  16  18
ATOM     18  O   LIG d   1       2.820   0.181 -10.391  0.00  0.00    -0.461 OA
BRANCH  18  19
ATOM     19  C   LIG d   1       1.711  -0.701 -10.198  0.00  0.00     0.090 C 
ATOM     20  H   LIG d   1       0.926  -0.182  -9.650  0.00  0.00     0.070 H 
ATOM     21  H   LIG d   1       2.036  -1.573  -9.632  0.00  0.00     0.070 H 
BRANCH  19  22
ATOM     22  C   LIG d   1       1.173  -1.148 -11.559  0.00  0.00    -0.031 C 
ATOM     23  H   LIG d   1       1.655  -0.571 -12.348  0.00  0.00     0.026 H 
ATOM     24  H   LIG d   1       1.386  -2.207 -11.703  0.00  0.00     0.026 H 
ATOM     25  H   LIG d   1       0.096  -0.985 -11.596  0.00  0.00     0.026 H 
ENDBRANCH  19  22
ENDBRANCH  18  19
ENDBRANCH  16  18
ENDBRANCH   1  16
BRANCH   6  26
ATOM     26  N   LIG d   1       5.527  -0.524  -9.051  0.00  0.00    -0.343 N 
ATOM     27  H   LIG d   1       6.069  -1.325  -9.118  0.00  0.00     0.144 HD
ATOM     28  H   LIG d   1       5.550   0.139  -9.759  0.00  0.00     0.144 HD
ENDBRANCH   6  26
BRANCH   8  29
ATOM     29  C   LIG d   1       4.560   0.749  -3.017  0.00  0.00    -0.036 C 
ATOM     30  H   LIG d   1       3.755   1.443  -3.266  0.00  0.00     0.026 H 
ATOM     31  H   LIG d   1       4.854   0.892  -1.978  0.00  0.00     0.026 H 
ATOM     32  H   LIG d   1       5.415   0.937  -3.666  0.00  0.00     0.026 H 
ENDBRANCH   8  29
BRANCH   8  33
ATOM     33  C   LIG d   1       4.348  -1.507  -1.953  0.00  0.00    -0.036 C 
ATOM     34  H   LIG d   1       3.908  -2.499  -2.062  0.00  0.00     0.026 H 
ATOM     35  H   LIG d   1       5.424  -1.601  -1.807  0.00  0.00     0.026 H 
ATOM     36  H   LIG d   1       3.905  -1.006  -1.092  0.00  0.00     0.026 H 
ENDBRANCH   8  33
TORSDOF 7
ENDMDL
MODEL 5
REMARK VINA RESULT:      -4.9      1.884      2.367
REMARK  7 active torsions:
REMARK  status: ('A' for Active; 'I' for Inactive)
REMARK    1  A    between atoms: C_1  and  C_2 
REMARK    2  A    between atoms: C_2  and  O_3 
REMARK    3  A    between atoms: O_3  and  C_4 
REMARK    4  A    between atoms: C_4  and  C_6 
REMARK    5  A    between atoms: C_11  and  N_12 
REMARK    6  A    between atoms: C_14  and  C_17 
REMARK    7  A    between atoms: C_14  and  C_18 
ROOT
ATOM      1  C   LIG d   1       4.334  -1.566  -5.085  0.00  0.00     0.099 A 
ATOM      2  C   LIG d   1       3.779  -0.427  -5.676  0.00  0.00    -0.037 A 
ATOM      3  C   LIG d   1       3.715  -0.359  -7.059  0.00  0.00     0.000 A 
ATOM      4  C   LIG d   1       4.201  -1.409  -7.815  0.00  0.00     0.051 A 
ATOM      5  N   LIG d   1       4.718  -2.479  -7.233  0.00  0.00    -0.236 NA
ATOM      6  C   LIG d   1       4.807  -2.595  -5.919  0.00  0.00     0.131 A 
ATOM      7  C   LIG d   1       4.161  -1.364  -9.323  0.00  0.00     0.019 C 
ATOM      8  C   LIG d   1       3.175  -0.289  -9.784  0.00  0.00     0.070 C 
ATOM      9  O   LIG d   1       3.463   0.924  -9.079  0.00  0.00    -0.369 OA
ATOM     10  C   LIG d   1       3.113   0.864  -7.696  0.00  0.00     0.075 C 
ATOM     11  H   LIG d   1       3.407   0.384  -5.068  0.00  0.00     0.063 H 
ATOM     12  H   LIG d   1       5.155  -1.131  -9.705  0.00  0.00     0.036 H 
ATOM     13  H   LIG d   1       3.845  -2.333  -9.708  0.00  0.00     0.036 H 
ATOM     14  H   LIG d   1       2.028   0.824  -7.600  0.00  0.00     0.061 H 
ATOM     15  H   LIG d   1       3.486   1.755  -7.191  0.00  0.00     0.061 H 
ENDROOT
BRANCH   1  16
ATOM     16  C   LIG d   1       4.427  -1.685  -3.619  0.00  0.00     0.343 C 
ATOM     17  O   LIG d   1       3.865  -2.597  -3.046  0.00  0.00    -0.245 OA
BRANCH  16  18
ATOM     18  O   LIG d   1       5.137  -0.781  -2.915  0.00  0.00    -0.461 OA
BRANCH  18  19
ATOM     19  C   LIG d   1       4.480  -0.161  -1.807  0.00  0.00     0.090 C 
ATOM     20  H   LIG d   1       5.205   0.039  -1.020  0.00  0.00     0.070 H 
ATOM     21  H   LIG d   1       3.703  -0.824  -1.429  0.00  0.00     0.070 H 
BRANCH  19  22
ATOM     22  C   LIG d   1       3.848   1.156  -2.264  0.00  0.00    -0.031 C 
ATOM     23  H   LIG d   1       3.130   1.494  -1.516  0.00  0.00     0.026 H 
ATOM     24  H   LIG d   1       4.626   1.910  -2.385  0.00  0.00     0.026 H 
ATOM     25  H   LIG d   1       3.336   1.004  -3.214  0.00  0.00     0.026 H 
ENDBRANCH  19  22
ENDBRANCH  18  19
ENDBRANCH  16  18
ENDBRANCH   1  16
BRANCH   6  26
ATOM     26  N   LIG d   1       5.362  -3.732  -5.363  0.00  0.00    -0.343 N 
ATOM     27  H   LIG d   1       5.794  -3.687  -4.496  0.00  0.00     0.144 HD
ATOM     28  H   LIG d   1       5.319  -4.576  -5.841  0.00  0.00     0.144 HD
ENDBRANCH   6  26
BRANCH   8  29
ATOM     29  C   LIG d   1       1.745  -0.736  -9.475  0.00  0.00    -0.036 C 
ATOM     30  H   LIG d   1       1.350  -1.300 -10.322  0.00  0.00     0.026 H 
ATOM     31  H   LIG d   1       1.745  -1.367  -8.587  0.00  0.00     0.026 H 
ATOM     32  H   LIG d   1       1.120   0.140  -9.300  0.00  0.00     0.026 H 
ENDBRANCH   8  29
BRANCH   8  33
ATOM     33  C   LIG d   1       3.332  -0.058 -11.288  0.00  0.00    -0.036 C 
ATOM     34  H   LIG d   1       3.739  -0.956 -11.753  0.00  0.00     0.026 H 
ATOM     35  H   LIG d   1       2.359   0.168 -11.725  0.00  0.00     0.026 H 
ATOM     36  H   LIG d   1       4.010   0.778 -11.459  0.00  0.00     0.026 H 
ENDBRANCH   8  33
TORSDOF 7
ENDMDL
MODEL 6
REMARK VINA RESULT:      -4.7      1.617      5.654
REMARK  7 active torsions:
REMARK  status: ('A' for Active; 'I' for Inactive)
REMARK    1  A    between atoms: C_1  and  C_2 
REMARK    2  A    between atoms: C_2  and  O_3 
REMARK    3  A    between atoms: O_3  and  C_4 
REMARK    4  A    between atoms: C_4  and  C_6 
REMARK    5  A    between atoms: C_11  and  N_12 
REMARK    6  A    between atoms: C_14  and  C_17 
REMARK    7  A    between atoms: C_14  and  C_18 
ROOT
ATOM      1  C   LIG d   1       3.900  -1.542  -7.721  0.00  0.00     0.099 A 
ATOM      2  C   LIG d   1       4.658  -2.043  -6.658  0.00  0.00    -0.037 A 
ATOM      3  C   LIG d   1       4.628  -1.371  -5.445  0.00  0.00     0.000 A 
ATOM      4  C   LIG d   1       3.859  -0.229  -5.318  0.00  0.00     0.051 A 
ATOM      5  N   LIG d   1       3.148   0.224  -6.337  0.00  0.00    -0.236 NA
ATOM      6  C   LIG d   1       3.143  -0.375  -7.516  0.00  0.00     0.131 A 
ATOM      7  C   LIG d   1       3.814   0.536  -4.017  0.00  0.00     0.019 C 
ATOM      8  C   LIG d   1       4.332  -0.345  -2.879  0.00  0.00     0.070 C 
ATOM      9  O   LIG d   1       5.581  -0.919  -3.282  0.00  0.00    -0.369 OA
ATOM     10  C   LIG d   1       5.438  -1.912  -4.298  0.00  0.00     0.075 C 
ATOM     11  H   LIG d   1       5.254  -2.935  -6.777  0.00  0.00     0.063 H 
ATOM     12  H   LIG d   1       4.438   1.426  -4.100  0.00  0.00     0.036 H 
ATOM     13  H   LIG d   1       2.788   0.833  -3.807  0.00  0.00     0.036 H 
ATOM     14  H   LIG d   1       4.936  -2.785  -3.882  0.00  0.00     0.061 H 
ATOM     15  H   LIG d   1       6.424  -2.204  -4.659  0.00  0.00     0.061 H 
ENDROOT
BRANCH   1  16
ATOM     16  C   LIG d   1       3.901  -2.217  -9.030  0.00  0.00     0.343 C 
ATOM     17  O   LIG d   1       3.507  -3.363  -9.123  0.00  0.00    -0.245 OA
BRANCH  16  18
ATOM     18  O   LIG d   1       4.339  -1.564 -10.125  0.00  0.00    -0.461 OA
BRANCH  18  19
ATOM     19  C   LIG d   1       5.731  -1.244 -10.175  0.00  0.00     0.090 C 
ATOM     20  H   LIG d   1       6.183  -1.727 -11.040  0.00  0.00     0.070 H 
ATOM     21  H   LIG d   1       6.217  -1.595  -9.266  0.00  0.00     0.070 H 
BRANCH  19  22
ATOM     22  C   LIG d   1       5.901   0.272 -10.291  0.00  0.00    -0.031 C 
ATOM     23  H   LIG d   1       5.531   0.607 -11.260  0.00  0.00     0.026 H 
ATOM     24  H   LIG d   1       5.337   0.763  -9.498  0.00  0.00     0.026 H 
ATOM     25  H   LIG d   1       6.957   0.528 -10.198  0.00  0.00     0.026 H 
ENDBRANCH  19  22
ENDBRANCH  18  19
ENDBRANCH  16  18
ENDBRANCH   1  16
BRANCH   6  26
ATOM     26  N   LIG d   1       2.385   0.144  -8.550  0.00  0.00    -0.343 N 
ATOM     27  H   LIG d   1       2.741   0.860  -9.099  0.00  0.00     0.144 HD
ATOM     28  H   LIG d   1       1.498  -0.207  -8.725  0.00  0.00     0.144 HD
ENDBRANCH   6  26
BRANCH   8  29
ATOM     29  C   LIG d   1       3.323  -1.457  -2.590  0.00  0.00    -0.036 C 
ATOM     30  H   LIG d   1       3.741  -2.143  -1.851  0.00  0.00     0.026 H 
ATOM     31  H   LIG d   1       2.404  -1.022  -2.201  0.00  0.00     0.026 H 
ATOM     32  H   LIG d   1       3.108  -2.001  -3.510  0.00  0.00     0.026 H 
ENDBRANCH   8  29
BRANCH   8  33
ATOM     33  C   LIG d   1       4.540   0.506  -1.625  0.00  0.00    -0.036 C 
ATOM     34  H   LIG d   1       5.062  -0.083  -0.870  0.00  0.00     0.026 H 
ATOM     35  H   LIG d   1       5.135   1.384  -1.875  0.00  0.00     0.026 H 
ATOM     36  H   LIG d   1       3.572   0.820  -1.234  0.00  0.00     0.026 H 
ENDBRANCH   8  33
TORSDOF 7
ENDMDL
MODEL 7
REMARK VINA RESULT:      -4.6      3.987      5.627
REMARK  7 active torsions:
REMARK  status: ('A' for Active; 'I' for Inactive)
REMARK    1  A    between atoms: C_1  and  C_2 
REMARK    2  A    between atoms: C_2  and  O_3 
REMARK    3  A    between atoms: O_3  and  C_4 
REMARK    4  A    between atoms: C_4  and  C_6 
REMARK    5  A    between atoms: C_11  and  N_12 
REMARK    6  A    between atoms: C_14  and  C_17 
REMARK    7  A    between atoms: C_14  and  C_18 
ROOT
ATOM      1  C   LIG d   1       6.444  -3.540  -4.806  0.00  0.00     0.099 A 
ATOM      2  C   LIG d   1       6.922  -2.287  -4.410  0.00  0.00    -0.037 A 
ATOM      3  C   LIG d   1       6.005  -1.297  -4.088  0.00  0.00     0.000 A 
ATOM      4  C   LIG d   1       4.653  -1.569  -4.169  0.00  0.00     0.051 A 
ATOM      5  N   LIG d   1       4.225  -2.764  -4.543  0.00  0.00    -0.236 NA
ATOM      6  C   LIG d   1       5.054  -3.742  -4.865  0.00  0.00     0.131 A 
ATOM      7  C   LIG d   1       3.627  -0.511  -3.841  0.00  0.00     0.019 C 
ATOM      8  C   LIG d   1       4.283   0.618  -3.045  0.00  0.00     0.070 C 
ATOM      9  O   LIG d   1       5.475   1.023  -3.728  0.00  0.00    -0.369 OA
ATOM     10  C   LIG d   1       6.518   0.050  -3.656  0.00  0.00     0.075 C 
ATOM     11  H   LIG d   1       7.982  -2.092  -4.354  0.00  0.00     0.063 H 
ATOM     12  H   LIG d   1       3.213  -0.110  -4.766  0.00  0.00     0.036 H 
ATOM     13  H   LIG d   1       2.827  -0.954  -3.249  0.00  0.00     0.036 H 
ATOM     14  H   LIG d   1       6.882  -0.013  -2.630  0.00  0.00     0.061 H 
ATOM     15  H   LIG d   1       7.337   0.351  -4.309  0.00  0.00     0.061 H 
ENDROOT
BRANCH   1  16
ATOM     16  C   LIG d   1       7.377  -4.623  -5.161  0.00  0.00     0.343 C 
ATOM     17  O   LIG d   1       8.219  -4.987  -4.363  0.00  0.00    -0.245 OA
BRANCH  16  18
ATOM     18  O   LIG d   1       7.296  -5.212  -6.371  0.00  0.00    -0.461 OA
BRANCH  18  19
ATOM     19  C   LIG d   1       7.495  -4.375  -7.513  0.00  0.00     0.090 C 
ATOM     20  H   LIG d   1       6.952  -3.441  -7.377  0.00  0.00     0.070 H 
ATOM     21  H   LIG d   1       7.127  -4.884  -8.404  0.00  0.00     0.070 H 
BRANCH  19  22
ATOM     22  C   LIG d   1       8.987  -4.079  -7.675  0.00  0.00    -0.031 C 
ATOM     23  H   LIG d   1       9.296  -4.313  -8.693  0.00  0.00     0.026 H 
ATOM     24  H   LIG d   1       9.172  -3.024  -7.473  0.00  0.00     0.026 H 
ATOM     25  H   LIG d   1       9.557  -4.689  -6.973  0.00  0.00     0.026 H 
ENDBRANCH  19  22
ENDBRANCH  18  19
ENDBRANCH  16  18
ENDBRANCH   1  16
BRANCH   6  26
ATOM     26  N   LIG d   1       4.553  -4.970  -5.254  0.00  0.00    -0.343 N 
ATOM     27  H   LIG d   1       4.999  -5.477  -5.950  0.00  0.00     0.144 HD
ATOM     28  H   LIG d   1       3.754  -5.324  -4.832  0.00  0.00     0.144 HD
ENDBRANCH   6  26
BRANCH   8  29
ATOM     29  C   LIG d   1       4.637   0.121  -1.643  0.00  0.00    -0.036 C 
ATOM     30  H   LIG d   1       5.673   0.377  -1.417  0.00  0.00     0.026 H 
ATOM     31  H   LIG d   1       3.979   0.592  -0.913  0.00  0.00     0.026 H 
ATOM     32  H   LIG d   1       4.513  -0.962  -1.599  0.00  0.00     0.026 H 
ENDBRANCH   8  29
BRANCH   8  33
ATOM     33  C   LIG d   1       3.321   1.804  -2.947  0.00  0.00    -0.036 C 
ATOM     34  H   LIG d   1       2.454   1.622  -3.583  0.00  0.00     0.026 H 
ATOM     35  H   LIG d   1       2.994   1.922  -1.913  0.00  0.00     0.026 H 
ATOM     36  H   LIG d   1       3.828   2.711  -3.274  0.00  0.00     0.026 H 
ENDBRANCH   8  33
TORSDOF 7
ENDMDL
MODEL 8
REMARK VINA RESULT:      -4.5      3.999      5.500
REMARK  7 active torsions:
REMARK  status: ('A' for Active; 'I' for Inactive)
REMARK    1  A    between atoms: C_1  and  C_2 
REMARK    2  A    between atoms: C_2  and  O_3 
REMARK    3  A    between atoms: O_3  and  C_4 
REMARK    4  A    between atoms: C_4  and  C_6 
REMARK    5  A    between atoms: C_11  and  N_12 
REMARK    6  A    between atoms: C_14  and  C_17 
REMARK    7  A    between atoms: C_14  and  C_18 
ROOT
ATOM      1  C   LIG d   1       5.926  -2.278  -4.575  0.00  0.00     0.099 A 
ATOM      2  C   LIG d   1       6.930  -3.168  -4.969  0.00  0.00    -0.037 A 
ATOM      3  C   LIG d   1       6.575  -4.467  -5.301  0.00  0.00     0.000 A 
ATOM      4  C   LIG d   1       5.249  -4.849  -5.231  0.00  0.00     0.051 A 
ATOM      5  N   LIG d   1       4.316  -3.988  -4.859  0.00  0.00    -0.236 NA
ATOM      6  C   LIG d   1       4.598  -2.740  -4.528  0.00  0.00     0.131 A 
ATOM      7  C   LIG d   1       4.829  -6.259  -5.570  0.00  0.00     0.019 C 
ATOM      8  C   LIG d   1       5.937  -6.954  -6.362  0.00  0.00     0.070 C 
ATOM      9  O   LIG d   1       7.176  -6.768  -5.669  0.00  0.00    -0.369 OA
ATOM     10  C   LIG d   1       7.655  -5.423  -5.730  0.00  0.00     0.075 C 
ATOM     11  H   LIG d   1       7.961  -2.851  -5.015  0.00  0.00     0.063 H 
ATOM     12  H   LIG d   1       4.640  -6.811  -4.649  0.00  0.00     0.036 H 
ATOM     13  H   LIG d   1       3.919  -6.232  -6.168  0.00  0.00     0.036 H 
ATOM     14  H   LIG d   1       7.955  -5.193  -6.752  0.00  0.00     0.061 H 
ATOM     15  H   LIG d   1       8.516  -5.317  -5.070  0.00  0.00     0.061 H 
ENDROOT
BRANCH   1  16
ATOM     16  C   LIG d   1       6.252  -0.888  -4.210  0.00  0.00     0.343 C 
ATOM     17  O   LIG d   1       6.690  -0.126  -5.049  0.00  0.00    -0.245 OA
BRANCH  16  18
ATOM     18  O   LIG d   1       6.063  -0.463  -2.945  0.00  0.00    -0.461 OA
BRANCH  18  19
ATOM     19  C   LIG d   1       5.576   0.870  -2.775  0.00  0.00     0.090 C 
ATOM     20  H   LIG d   1       5.180   1.235  -3.721  0.00  0.00     0.070 H 
ATOM     21  H   LIG d   1       6.390   1.515  -2.446  0.00  0.00     0.070 H 
BRANCH  19  22
ATOM     22  C   LIG d   1       4.465   0.875  -1.722  0.00  0.00    -0.031 C 
ATOM     23  H   LIG d   1       4.683   1.631  -0.967  0.00  0.00     0.026 H 
ATOM     24  H   LIG d   1       3.513   1.105  -2.200  0.00  0.00     0.026 H 
ATOM     25  H   LIG d   1       4.408  -0.105  -1.249  0.00  0.00     0.026 H 
ENDBRANCH  19  22
ENDBRANCH  18  19
ENDBRANCH  16  18
ENDBRANCH   1  16
BRANCH   6  26
ATOM     26  N   LIG d   1       3.585  -1.883  -4.141  0.00  0.00    -0.343 N 
ATOM     27  H   LIG d   1       3.742  -1.231  -3.441  0.00  0.00     0.144 HD
ATOM     28  H   LIG d   1       2.716  -1.935  -4.570  0.00  0.00     0.144 HD
ENDBRANCH   6  26
BRANCH   8  29
ATOM     29  C   LIG d   1       6.032  -6.341  -7.760  0.00  0.00    -0.036 C 
ATOM     30  H   LIG d   1       7.071  -6.090  -7.977  0.00  0.00     0.026 H 
ATOM     31  H   LIG d   1       5.671  -7.058  -8.497  0.00  0.00     0.026 H 
ATOM     32  H   LIG d   1       5.423  -5.438  -7.804  0.00  0.00     0.026 H 
ENDBRANCH   8  29
BRANCH   8  33
ATOM     33  C   LIG d   1       5.631  -8.449  -6.472  0.00  0.00    -0.036 C 
ATOM     34  H   LIG d   1       4.773  -8.691  -5.842  0.00  0.00     0.026 H 
ATOM     35  H   LIG d   1       5.403  -8.699  -7.508  0.00  0.00     0.026 H 
ATOM     36  H   LIG d   1       6.496  -9.022  -6.141  0.00  0.00     0.026 H 
ENDBRANCH   8  33
TORSDOF 7
ENDMDL
MODEL 9
REMARK VINA RESULT:      -4.4     11.570     14.251
REMARK  7 active torsions:
REMARK  status: ('A' for Active; 'I' for Inactive)
REMARK    1  A    between atoms: C_1  and  C_2 
REMARK    2  A    between atoms: C_2  and  O_3 
REMARK    3  A    between atoms: O_3  and  C_4 
REMARK    4  A    between atoms: C_4  and  C_6 
REMARK    5  A    between atoms: C_11  and  N_12 
REMARK    6  A    between atoms: C_14  and  C_17 
REMARK    7  A    between atoms: C_14  and  C_18 
ROOT
ATOM      1  C   LIG d   1      10.602   7.590   0.009  0.00  0.00     0.099 A 
ATOM      2  C   LIG d   1      10.741   8.980  -0.051  0.00  0.00    -0.037 A 
ATOM      3  C   LIG d   1      11.322   9.638   1.023  0.00  0.00     0.000 A 
ATOM      4  C   LIG d   1      11.742   8.910   2.120  0.00  0.00     0.051 A 
ATOM      5  N   LIG d   1      11.603   7.595   2.153  0.00  0.00    -0.236 NA
ATOM      6  C   LIG d   1      11.053   6.918   1.159  0.00  0.00     0.131 A 
ATOM      7  C   LIG d   1      12.365   9.594   3.313  0.00  0.00     0.019 C 
ATOM      8  C   LIG d   1      12.819  11.002   2.925  0.00  0.00     0.070 C 
ATOM      9  O   LIG d   1      11.737  11.661   2.258  0.00  0.00    -0.369 OA
ATOM     10  C   LIG d   1      11.477  11.133   0.957  0.00  0.00     0.075 C 
ATOM     11  H   LIG d   1      10.405   9.532  -0.916  0.00  0.00     0.063 H 
ATOM     12  H   LIG d   1      11.631   9.659   4.117  0.00  0.00     0.036 H 
ATOM     13  H   LIG d   1      13.224   9.018   3.654  0.00  0.00     0.036 H 
ATOM     14  H   LIG d   1      12.307  11.381   0.295  0.00  0.00     0.061 H 
ATOM     15  H   LIG d   1      10.561  11.575   0.565  0.00  0.00     0.061 H 
ENDROOT
BRANCH   1  16
ATOM     16  C   LIG d   1       9.989   6.846  -1.105  0.00  0.00     0.343 C 
ATOM     17  O   LIG d   1       8.881   7.149  -1.501  0.00  0.00    -0.245 OA
BRANCH  16  18
ATOM     18  O   LIG d   1      10.658   5.830  -1.684  0.00  0.00    -0.461 OA
BRANCH  18  19
ATOM     19  C   LIG d   1      11.863   6.159  -2.379  0.00  0.00     0.090 C 
ATOM     20  H   LIG d   1      12.064   7.224  -2.272  0.00  0.00     0.070 H 
ATOM     21  H   LIG d   1      11.751   5.914  -3.435  0.00  0.00     0.070 H 
BRANCH  19  22
ATOM     22  C   LIG d   1      13.026   5.359  -1.790  0.00  0.00    -0.031 C 
ATOM     23  H   LIG d   1      13.680   6.026  -1.229  0.00  0.00     0.026 H 
ATOM     24  H   LIG d   1      12.637   4.589  -1.124  0.00  0.00     0.026 H 
ATOM     25  H   LIG d   1      13.591   4.890  -2.597  0.00  0.00     0.026 H 
ENDBRANCH  19  22
ENDBRANCH  18  19
ENDBRANCH  16  18
ENDBRANCH   1  16
BRANCH   6  26
ATOM     26  N   LIG d   1      10.927   5.544   1.247  0.00  0.00    -0.343 N 
ATOM     27  H   LIG d   1      11.585   4.969   0.827  0.00  0.00     0.144 HD
ATOM     28  H   LIG d   1      10.180   5.156   1.729  0.00  0.00     0.144 HD
ENDBRANCH   6  26
BRANCH   8  29
ATOM     29  C   LIG d   1      14.024  10.913   1.987  0.00  0.00    -0.036 C 
ATOM     30  H   LIG d   1      14.588  11.847   2.030  0.00  0.00     0.026 H 
ATOM     31  H   LIG d   1      14.665  10.088   2.296  0.00  0.00     0.026 H 
ATOM     32  H   LIG d   1      13.679  10.744   0.967  0.00  0.00     0.026 H 
ENDBRANCH   8  29
BRANCH   8  33
ATOM     33  C   LIG d   1      13.199  11.785   4.184  0.00  0.00    -0.036 C 
ATOM     34  H   LIG d   1      14.071  12.406   3.975  0.00  0.00     0.026 H 
ATOM     35  H   LIG d   1      12.365  12.420   4.483  0.00  0.00     0.026 H 
ATOM     36  H   LIG d   1      13.433  11.088   4.988  0.00  0.00     0.026 H 
ENDBRANCH   8  33
TORSDOF 7
ENDMDL
MODEL 10
REMARK VINA RESULT:      -4.4      8.291      9.896
REMARK  7 active torsions:
REMARK  status: ('A' for Active; 'I' for Inactive)
REMARK    1  A    between atoms: C_1  and  C_2 
REMARK    2  A    between atoms: C_2  and  O_3 
REMARK    3  A    between atoms: O_3  and  C_4 
REMARK    4  A    between atoms: C_4  and  C_6 
REMARK    5  A    between atoms: C_11  and  N_12 
REMARK    6  A    between atoms: C_14  and  C_17 
REMARK    7  A    between atoms: C_14  and  C_18 
ROOT
ATOM      1  C   LIG d   1       9.866   6.738  -1.618  0.00  0.00     0.099 A 
ATOM      2  C   LIG d   1       9.465   6.339  -2.897  0.00  0.00    -0.037 A 
ATOM      3  C   LIG d   1       9.824   5.076  -3.343  0.00  0.00     0.000 A 
ATOM      4  C   LIG d   1      10.565   4.249  -2.521  0.00  0.00     0.051 A 
ATOM      5  N   LIG d   1      10.930   4.647  -1.313  0.00  0.00    -0.236 NA
ATOM      6  C   LIG d   1      10.619   5.841  -0.839  0.00  0.00     0.131 A 
ATOM      7  C   LIG d   1      10.986   2.874  -2.980  0.00  0.00     0.019 C 
ATOM      8  C   LIG d   1      10.139   2.445  -4.178  0.00  0.00     0.070 C 
ATOM      9  O   LIG d   1      10.141   3.507  -5.139  0.00  0.00    -0.369 OA
ATOM     10  C   LIG d   1       9.388   4.645  -4.717  0.00  0.00     0.075 C 
ATOM     11  H   LIG d   1       8.887   7.001  -3.525  0.00  0.00     0.063 H 
ATOM     12  H   LIG d   1      12.037   2.894  -3.268  0.00  0.00     0.036 H 
ATOM     13  H   LIG d   1      10.848   2.163  -2.166  0.00  0.00     0.036 H 
ATOM     14  H   LIG d   1       8.329   4.389  -4.697  0.00  0.00     0.061 H 
ATOM     15  H   LIG d   1       9.546   5.462  -5.420  0.00  0.00     0.061 H 
ENDROOT
BRANCH   1  16
ATOM     16  C   LIG d   1       9.513   8.071  -1.099  0.00  0.00     0.343 C 
ATOM     17  O   LIG d   1       8.371   8.307  -0.756  0.00  0.00    -0.245 OA
BRANCH  16  18
ATOM     18  O   LIG d   1      10.457   9.028  -1.006  0.00  0.00    -0.461 OA
BRANCH  18  19
ATOM     19  C   LIG d   1      10.310   9.983   0.049  0.00  0.00     0.090 C 
ATOM     20  H   LIG d   1       9.316   9.893   0.483  0.00  0.00     0.070 H 
ATOM     21  H   LIG d   1      10.444  10.988  -0.351  0.00  0.00     0.070 H 
BRANCH  19  22
ATOM     22  C   LIG d   1      11.364   9.718   1.126  0.00  0.00    -0.031 C 
ATOM     23  H   LIG d   1      11.327  10.511   1.873  0.00  0.00     0.026 H 
ATOM     24  H   LIG d   1      11.162   8.760   1.604  0.00  0.00     0.026 H 
ATOM     25  H   LIG d   1      12.353   9.695   0.669  0.00  0.00     0.026 H 
ENDBRANCH  19  22
ENDBRANCH  18  19
ENDBRANCH  16  18
ENDBRANCH   1  16
BRANCH   6  26
ATOM     26  N   LIG d   1      11.030   6.208   0.429  0.00  0.00    -0.343 N 
ATOM     27  H   LIG d   1      11.725   6.876   0.539  0.00  0.00     0.144 HD
ATOM     28  H   LIG d   1      10.625   5.797   1.208  0.00  0.00     0.144 HD
ENDBRANCH   6  26
BRANCH   8  29
ATOM     29  C   LIG d   1       8.705   2.166  -3.721  0.00  0.00    -0.036 C 
ATOM     30  H   LIG d   1       8.019   2.342  -4.551  0.00  0.00     0.026 H 
ATOM     31  H   LIG d   1       8.622   1.130  -3.395  0.00  0.00     0.026 H 
ATOM     32  H   LIG d   1       8.452   2.830  -2.894  0.00  0.00     0.026 H 
ENDBRANCH   8  29
BRANCH   8  33
ATOM     33  C   LIG d   1      10.736   1.184  -4.806  0.00  0.00    -0.036 C 
ATOM     34  H   LIG d   1      11.722   1.413  -5.212  0.00  0.00     0.026 H 
ATOM     35  H   LIG d   1      10.828   0.408  -4.045  0.00  0.00     0.026 H 
ATOM     36  H   LIG d   1      10.085   0.833  -5.607  0.00  0.00     0.026 H 
ENDBRANCH   8  33
TORSDOF 7
ENDMDL
