MODEL 1
REMARK VINA RESULT:      -5.8      0.000      0.000
REMARK  7 active torsions:
REMARK  status: ('A' for Active; 'I' for Inactive)
REMARK    1  A    between atoms: C_1  and  C_2 
REMARK    2  A    between atoms: C_2  and  O_3 
REMARK    3  A    between atoms: O_3  and  C_4 
REMARK    4  A    between atoms: C_4  and  C_6 
REMARK    5  A    between atoms: C_6  and  C_7 
REMARK    6  A    between atoms: C_7  and  C_8 
REMARK    7  A    between atoms: C_13  and  N_14 
ROOT
ATOM      1  C   LIG d   1       5.594  -1.872  -4.086  0.00  0.00     0.032 A 
ATOM      2  C   LIG d   1       4.826  -2.962  -4.447  0.00  0.00    -0.031 A 
ATOM      3  C   LIG d   1       4.619  -3.249  -5.789  0.00  0.00     0.037 A 
ATOM      4  C   LIG d   1       5.187  -2.440  -6.765  0.00  0.00    -0.019 A 
ATOM      5  C   LIG d   1       5.953  -1.352  -6.399  0.00  0.00     0.021 A 
ATOM      6  C   LIG d   1       6.158  -1.068  -5.060  0.00  0.00     0.277 A 
ATOM      7  C   LIG d   1       4.962  -2.752  -8.221  0.00  0.00    -0.018 C 
ATOM      8  C   LIG d   1       4.881  -4.270  -8.412  0.00  0.00     0.028 C 
ATOM      9  C   LIG d   1       3.930  -4.858  -7.405  0.00  0.00     0.217 C 
ATOM     10  O   LIG d   1       3.237  -5.804  -7.716  0.00  0.00    -0.276 OA
ATOM     11  N   LIG d   1       3.843  -4.351  -6.161  0.00  0.00    -0.285 N 
ATOM     12  H   LIG d   1       4.386  -3.590  -3.685  0.00  0.00     0.064 H 
ATOM     13  H   LIG d   1       6.395  -0.723  -7.157  0.00  0.00     0.069 H 
ATOM     14  H   LIG d   1       4.031  -2.291  -8.552  0.00  0.00     0.032 H 
ATOM     15  H   LIG d   1       5.791  -2.357  -8.810  0.00  0.00     0.032 H 
ATOM     16  H   LIG d   1       5.870  -4.707  -8.274  0.00  0.00     0.036 H 
ATOM     17  H   LIG d   1       4.526  -4.490  -9.418  0.00  0.00     0.036 H 
ATOM     18  H   LIG d   1       3.236  -4.751  -5.519  0.00  0.00     0.155 HD
ENDROOT
BRANCH   1  19
ATOM     19  C   LIG d   1       5.819  -1.559  -2.629  0.00  0.00    -0.011 C 
ATOM     20  H   LIG d   1       6.305  -2.406  -2.147  0.00  0.00     0.032 H 
ATOM     21  H   LIG d   1       6.455  -0.678  -2.542  0.00  0.00     0.032 H 
BRANCH  19  22
ATOM     22  C   LIG d   1       4.475  -1.287  -1.951  0.00  0.00     0.049 C 
ATOM     23  H   LIG d   1       3.689  -1.838  -2.468  0.00  0.00     0.038 H 
ATOM     24  H   LIG d   1       4.522  -1.610  -0.911  0.00  0.00     0.038 H 
BRANCH  22  25
ATOM     25  C   LIG d   1       4.174   0.189  -2.004  0.00  0.00     0.307 C 
ATOM     26  O   LIG d   1       4.922   0.977  -1.476  0.00  0.00    -0.251 OA
BRANCH  25  27
ATOM     27  O   LIG d   1       3.077   0.627  -2.640  0.00  0.00    -0.465 OA
BRANCH  27  28
ATOM     28  C   LIG d   1       2.491  -0.257  -3.631  0.00  0.00     0.090 C 
ATOM     29  H   LIG d   1       2.977  -1.231  -3.581  0.00  0.00     0.069 H 
ATOM     30  H   LIG d   1       1.425  -0.372  -3.430  0.00  0.00     0.069 H 
BRANCH  28  31
ATOM     31  C   LIG d   1       2.685   0.340  -5.027  0.00  0.00    -0.031 C 
ATOM     32  H   LIG d   1       2.554   1.422  -4.980  0.00  0.00     0.026 H 
ATOM     33  H   LIG d   1       3.689   0.111  -5.383  0.00  0.00     0.026 H 
ATOM     34  H   LIG d   1       1.951  -0.086  -5.709  0.00  0.00     0.026 H 
ENDBRANCH  28  31
ENDBRANCH  27  28
ENDBRANCH  25  27
ENDBRANCH  22  25
ENDBRANCH  19  22
ENDBRANCH   1  19
BRANCH   6  35
ATOM     35  N   LIG d   1       6.981   0.098  -4.669  0.00  0.00     0.080 N 
ATOM     36  O   LIG d   1       8.187  -0.021  -4.552  0.00  0.00     0.042 OA
ATOM     37  O   LIG d   1       6.452   1.177  -4.467  0.00  0.00    -0.576 OA
ENDBRANCH   6  35
TORSDOF 7
ENDMDL
MODEL 2
REMARK VINA RESULT:      -5.5      2.752      5.864
REMARK  7 active torsions:
REMARK  status: ('A' for Active; 'I' for Inactive)
REMARK    1  A    between atoms: C_1  and  C_2 
REMARK    2  A    between atoms: C_2  and  O_3 
REMARK    3  A    between atoms: O_3  and  C_4 
REMARK    4  A    between atoms: C_4  and  C_6 
REMARK    5  A    between atoms: C_6  and  C_7 
REMARK    6  A    between atoms: C_7  and  C_8 
REMARK    7  A    between atoms: C_13  and  N_14 
ROOT
ATOM      1  C   LIG d   1       4.514  -1.471  -6.788  0.00  0.00     0.032 A 
ATOM      2  C   LIG d   1       4.132  -0.386  -6.024  0.00  0.00    -0.031 A 
ATOM      3  C   LIG d   1       3.958  -0.529  -4.654  0.00  0.00     0.037 A 
ATOM      4  C   LIG d   1       4.172  -1.765  -4.056  0.00  0.00    -0.019 A 
ATOM      5  C   LIG d   1       4.556  -2.845  -4.824  0.00  0.00     0.021 A 
ATOM      6  C   LIG d   1       4.727  -2.699  -6.189  0.00  0.00     0.277 A 
ATOM      7  C   LIG d   1       3.984  -1.919  -2.570  0.00  0.00    -0.018 C 
ATOM      8  C   LIG d   1       4.399  -0.624  -1.865  0.00  0.00     0.028 C 
ATOM      9  C   LIG d   1       3.752   0.553  -2.543  0.00  0.00     0.217 C 
ATOM     10  O   LIG d   1       3.394   1.505  -1.881  0.00  0.00    -0.276 OA
ATOM     11  N   LIG d   1       3.570   0.565  -3.876  0.00  0.00    -0.285 N 
ATOM     12  H   LIG d   1       3.966   0.574  -6.493  0.00  0.00     0.064 H 
ATOM     13  H   LIG d   1       4.722  -3.805  -4.359  0.00  0.00     0.069 H 
ATOM     14  H   LIG d   1       2.936  -2.133  -2.356  0.00  0.00     0.032 H 
ATOM     15  H   LIG d   1       4.603  -2.741  -2.209  0.00  0.00     0.032 H 
ATOM     16  H   LIG d   1       5.482  -0.517  -1.908  0.00  0.00     0.036 H 
ATOM     17  H   LIG d   1       4.082  -0.662  -0.823  0.00  0.00     0.036 H 
ATOM     18  H   LIG d   1       3.166   1.339  -4.301  0.00  0.00     0.155 HD
ENDROOT
BRANCH   1  19
ATOM     19  C   LIG d   1       4.703  -1.317  -8.275  0.00  0.00    -0.011 C 
ATOM     20  H   LIG d   1       4.726  -2.301  -8.742  0.00  0.00     0.032 H 
ATOM     21  H   LIG d   1       3.875  -0.739  -8.687  0.00  0.00     0.032 H 
BRANCH  19  22
ATOM     22  C   LIG d   1       6.020  -0.589  -8.551  0.00  0.00     0.049 C 
ATOM     23  H   LIG d   1       6.530  -0.391  -7.608  0.00  0.00     0.038 H 
ATOM     24  H   LIG d   1       6.653  -1.213  -9.183  0.00  0.00     0.038 H 
BRANCH  22  25
ATOM     25  C   LIG d   1       5.738   0.713  -9.254  0.00  0.00     0.307 C 
ATOM     26  O   LIG d   1       5.954   0.820 -10.437  0.00  0.00    -0.251 OA
BRANCH  25  27
ATOM     27  O   LIG d   1       5.244   1.754  -8.565  0.00  0.00    -0.465 OA
BRANCH  27  28
ATOM     28  C   LIG d   1       4.178   2.514  -9.193  0.00  0.00     0.090 C 
ATOM     29  H   LIG d   1       4.316   3.575  -8.984  0.00  0.00     0.069 H 
ATOM     30  H   LIG d   1       4.201   2.350 -10.270  0.00  0.00     0.069 H 
BRANCH  28  31
ATOM     31  C   LIG d   1       2.828   2.056  -8.636  0.00  0.00    -0.031 C 
ATOM     32  H   LIG d   1       2.450   1.228  -9.237  0.00  0.00     0.026 H 
ATOM     33  H   LIG d   1       2.954   1.727  -7.604  0.00  0.00     0.026 H 
ATOM     34  H   LIG d   1       2.121   2.883  -8.670  0.00  0.00     0.026 H 
ENDBRANCH  28  31
ENDBRANCH  27  28
ENDBRANCH  25  27
ENDBRANCH  22  25
ENDBRANCH  19  22
ENDBRANCH   1  19
BRANCH   6  35
ATOM     35  N   LIG d   1       5.139  -3.860  -7.010  0.00  0.00     0.080 N 
ATOM     36  O   LIG d   1       6.322  -4.085  -7.196  0.00  0.00     0.042 OA
ATOM     37  O   LIG d   1       4.296  -4.590  -7.499  0.00  0.00    -0.576 OA
ENDBRANCH   6  35
TORSDOF 7
ENDMDL
MODEL 3
REMARK VINA RESULT:      -5.5      3.389      6.266
REMARK  7 active torsions:
REMARK  status: ('A' for Active; 'I' for Inactive)
REMARK    1  A    between atoms: C_1  and  C_2 
REMARK    2  A    between atoms: C_2  and  O_3 
REMARK    3  A    between atoms: O_3  and  C_4 
REMARK    4  A    between atoms: C_4  and  C_6 
REMARK    5  A    between atoms: C_6  and  C_7 
REMARK    6  A    between atoms: C_7  and  C_8 
REMARK    7  A    between atoms: C_13  and  N_14 
ROOT
ATOM      1  C   LIG d   1       3.088  -0.293  -7.510  0.00  0.00     0.032 A 
ATOM      2  C   LIG d   1       2.797   0.457  -6.388  0.00  0.00    -0.031 A 
ATOM      3  C   LIG d   1       3.335   0.101  -5.158  0.00  0.00     0.037 A 
ATOM      4  C   LIG d   1       4.166  -1.007  -5.062  0.00  0.00    -0.019 A 
ATOM      5  C   LIG d   1       4.455  -1.753  -6.187  0.00  0.00     0.021 A 
ATOM      6  C   LIG d   1       3.916  -1.396  -7.411  0.00  0.00     0.277 A 
ATOM      7  C   LIG d   1       4.750  -1.392  -3.728  0.00  0.00    -0.018 C 
ATOM      8  C   LIG d   1       5.031  -0.129  -2.910  0.00  0.00     0.028 C 
ATOM      9  C   LIG d   1       3.820   0.765  -2.923  0.00  0.00     0.217 C 
ATOM     10  O   LIG d   1       3.543   1.415  -1.936  0.00  0.00    -0.276 OA
ATOM     11  N   LIG d   1       3.043   0.856  -4.018  0.00  0.00    -0.285 N 
ATOM     12  H   LIG d   1       2.149   1.319  -6.466  0.00  0.00     0.064 H 
ATOM     13  H   LIG d   1       5.101  -2.614  -6.113  0.00  0.00     0.069 H 
ATOM     14  H   LIG d   1       4.044  -2.027  -3.192  0.00  0.00     0.032 H 
ATOM     15  H   LIG d   1       5.682  -1.937  -3.883  0.00  0.00     0.032 H 
ATOM     16  H   LIG d   1       5.878   0.404  -3.340  0.00  0.00     0.036 H 
ATOM     17  H   LIG d   1       5.264  -0.407  -1.883  0.00  0.00     0.036 H 
ATOM     18  H   LIG d   1       2.275   1.448  -4.016  0.00  0.00     0.155 HD
ENDROOT
BRANCH   1  19
ATOM     19  C   LIG d   1       2.504   0.091  -8.845  0.00  0.00    -0.011 C 
ATOM     20  H   LIG d   1       2.980  -0.493  -9.632  0.00  0.00     0.032 H 
ATOM     21  H   LIG d   1       1.432  -0.108  -8.843  0.00  0.00     0.032 H 
BRANCH  19  22
ATOM     22  C   LIG d   1       2.746   1.581  -9.099  0.00  0.00     0.049 C 
ATOM     23  H   LIG d   1       1.877   2.009  -9.600  0.00  0.00     0.038 H 
ATOM     24  H   LIG d   1       2.905   2.089  -8.148  0.00  0.00     0.038 H 
BRANCH  22  25
ATOM     25  C   LIG d   1       3.964   1.751  -9.969  0.00  0.00     0.307 C 
ATOM     26  O   LIG d   1       3.929   1.415 -11.129  0.00  0.00    -0.251 OA
BRANCH  25  27
ATOM     27  O   LIG d   1       5.087   2.278  -9.457  0.00  0.00    -0.465 OA
BRANCH  27  28
ATOM     28  C   LIG d   1       6.252   1.415  -9.397  0.00  0.00     0.090 C 
ATOM     29  H   LIG d   1       6.055   0.498  -9.953  0.00  0.00     0.069 H 
ATOM     30  H   LIG d   1       7.108   1.928  -9.837  0.00  0.00     0.069 H 
BRANCH  28  31
ATOM     31  C   LIG d   1       6.559   1.071  -7.938  0.00  0.00    -0.031 C 
ATOM     32  H   LIG d   1       6.144   1.842  -7.289  0.00  0.00     0.026 H 
ATOM     33  H   LIG d   1       6.112   0.108  -7.690  0.00  0.00     0.026 H 
ATOM     34  H   LIG d   1       7.638   1.017  -7.796  0.00  0.00     0.026 H 
ENDBRANCH  28  31
ENDBRANCH  27  28
ENDBRANCH  25  27
ENDBRANCH  22  25
ENDBRANCH  19  22
ENDBRANCH   1  19
BRANCH   6  35
ATOM     35  N   LIG d   1       4.228  -2.196  -8.617  0.00  0.00     0.080 N 
ATOM     36  O   LIG d   1       5.210  -1.931  -9.286  0.00  0.00     0.042 OA
ATOM     37  O   LIG d   1       3.503  -3.121  -8.938  0.00  0.00    -0.576 OA
ENDBRANCH   6  35
TORSDOF 7
ENDMDL
MODEL 4
REMARK VINA RESULT:      -5.4      1.627      1.954
REMARK  7 active torsions:
REMARK  status: ('A' for Active; 'I' for Inactive)
REMARK    1  A    between atoms: C_1  and  C_2 
REMARK    2  A    between atoms: C_2  and  O_3 
REMARK    3  A    between atoms: O_3  and  C_4 
REMARK    4  A    between atoms: C_4  and  C_6 
REMARK    5  A    between atoms: C_6  and  C_7 
REMARK    6  A    between atoms: C_7  and  C_8 
REMARK    7  A    between atoms: C_13  and  N_14 
ROOT
ATOM      1  C   LIG d   1       4.977  -1.660  -3.591  0.00  0.00     0.032 A 
ATOM      2  C   LIG d   1       4.396  -2.901  -3.763  0.00  0.00    -0.031 A 
ATOM      3  C   LIG d   1       4.875  -3.761  -4.742  0.00  0.00     0.037 A 
ATOM      4  C   LIG d   1       5.939  -3.370  -5.545  0.00  0.00    -0.019 A 
ATOM      5  C   LIG d   1       6.516  -2.129  -5.369  0.00  0.00     0.021 A 
ATOM      6  C   LIG d   1       6.036  -1.274  -4.392  0.00  0.00     0.277 A 
ATOM      7  C   LIG d   1       6.459  -4.303  -6.607  0.00  0.00    -0.018 C 
ATOM      8  C   LIG d   1       6.334  -5.751  -6.120  0.00  0.00     0.028 C 
ATOM      9  C   LIG d   1       4.949  -5.988  -5.582  0.00  0.00     0.217 C 
ATOM     10  O   LIG d   1       4.421  -7.069  -5.742  0.00  0.00    -0.276 OA
ATOM     11  N   LIG d   1       4.291  -5.019  -4.920  0.00  0.00    -0.285 N 
ATOM     12  H   LIG d   1       3.568  -3.203  -3.136  0.00  0.00     0.064 H 
ATOM     13  H   LIG d   1       7.343  -1.825  -5.992  0.00  0.00     0.069 H 
ATOM     14  H   LIG d   1       5.878  -4.173  -7.520  0.00  0.00     0.032 H 
ATOM     15  H   LIG d   1       7.506  -4.078  -6.807  0.00  0.00     0.032 H 
ATOM     16  H   LIG d   1       7.065  -5.934  -5.332  0.00  0.00     0.036 H 
ATOM     17  H   LIG d   1       6.522  -6.429  -6.951  0.00  0.00     0.036 H 
ATOM     18  H   LIG d   1       3.405  -5.193  -4.566  0.00  0.00     0.155 HD
ENDROOT
BRANCH   1  19
ATOM     19  C   LIG d   1       4.457  -0.726  -2.529  0.00  0.00    -0.011 C 
ATOM     20  H   LIG d   1       4.384  -1.258  -1.581  0.00  0.00     0.032 H 
ATOM     21  H   LIG d   1       5.142   0.116  -2.421  0.00  0.00     0.032 H 
BRANCH  19  22
ATOM     22  C   LIG d   1       3.075  -0.210  -2.933  0.00  0.00     0.049 C 
ATOM     23  H   LIG d   1       2.574  -0.958  -3.550  0.00  0.00     0.038 H 
ATOM     24  H   LIG d   1       2.482  -0.022  -2.038  0.00  0.00     0.038 H 
BRANCH  22  25
ATOM     25  C   LIG d   1       3.223   1.069  -3.714  0.00  0.00     0.307 C 
ATOM     26  O   LIG d   1       3.841   1.995  -3.245  0.00  0.00    -0.251 OA
BRANCH  25  27
ATOM     27  O   LIG d   1       2.671   1.180  -4.932  0.00  0.00    -0.465 OA
BRANCH  27  28
ATOM     28  C   LIG d   1       2.926   0.105  -5.873  0.00  0.00     0.090 C 
ATOM     29  H   LIG d   1       3.863  -0.389  -5.615  0.00  0.00     0.069 H 
ATOM     30  H   LIG d   1       2.111  -0.618  -5.829  0.00  0.00     0.069 H 
BRANCH  28  31
ATOM     31  C   LIG d   1       3.024   0.677  -7.289  0.00  0.00    -0.031 C 
ATOM     32  H   LIG d   1       2.030   0.708  -7.737  0.00  0.00     0.026 H 
ATOM     33  H   LIG d   1       3.434   1.686  -7.246  0.00  0.00     0.026 H 
ATOM     34  H   LIG d   1       3.675   0.046  -7.892  0.00  0.00     0.026 H 
ENDBRANCH  28  31
ENDBRANCH  27  28
ENDBRANCH  25  27
ENDBRANCH  22  25
ENDBRANCH  19  22
ENDBRANCH   1  19
BRANCH   6  35
ATOM     35  N   LIG d   1       6.657   0.056  -4.205  0.00  0.00     0.080 N 
ATOM     36  O   LIG d   1       6.491   0.929  -5.037  0.00  0.00     0.042 OA
ATOM     37  O   LIG d   1       7.335   0.278  -3.217  0.00  0.00    -0.576 OA
ENDBRANCH   6  35
TORSDOF 7
ENDMDL
MODEL 5
REMARK VINA RESULT:      -5.3      2.415      5.945
REMARK  7 active torsions:
REMARK  status: ('A' for Active; 'I' for Inactive)
REMARK    1  A    between atoms: C_1  and  C_2 
REMARK    2  A    between atoms: C_2  and  O_3 
REMARK    3  A    between atoms: O_3  and  C_4 
REMARK    4  A    between atoms: C_4  and  C_6 
REMARK    5  A    between atoms: C_6  and  C_7 
REMARK    6  A    between atoms: C_7  and  C_8 
REMARK    7  A    between atoms: C_13  and  N_14 
ROOT
ATOM      1  C   LIG d   1       4.654  -2.628  -6.127  0.00  0.00     0.032 A 
ATOM      2  C   LIG d   1       4.402  -1.290  -5.896  0.00  0.00    -0.031 A 
ATOM      3  C   LIG d   1       4.217  -0.833  -4.599  0.00  0.00     0.037 A 
ATOM      4  C   LIG d   1       4.288  -1.724  -3.535  0.00  0.00    -0.019 A 
ATOM      5  C   LIG d   1       4.542  -3.060  -3.771  0.00  0.00     0.021 A 
ATOM      6  C   LIG d   1       4.725  -3.512  -5.066  0.00  0.00     0.277 A 
ATOM      7  C   LIG d   1       4.088  -1.228  -2.127  0.00  0.00    -0.018 C 
ATOM      8  C   LIG d   1       4.652   0.190  -2.001  0.00  0.00     0.028 C 
ATOM      9  C   LIG d   1       4.143   1.042  -3.132  0.00  0.00     0.217 C 
ATOM     10  O   LIG d   1       3.900   2.215  -2.938  0.00  0.00    -0.276 OA
ATOM     11  N   LIG d   1       3.960   0.520  -4.359  0.00  0.00    -0.285 N 
ATOM     12  H   LIG d   1       4.346  -0.599  -6.726  0.00  0.00     0.064 H 
ATOM     13  H   LIG d   1       4.598  -3.753  -2.946  0.00  0.00     0.069 H 
ATOM     14  H   LIG d   1       3.023  -1.221  -1.893  0.00  0.00     0.032 H 
ATOM     15  H   LIG d   1       4.608  -1.887  -1.433  0.00  0.00     0.032 H 
ATOM     16  H   LIG d   1       5.740   0.154  -2.036  0.00  0.00     0.036 H 
ATOM     17  H   LIG d   1       4.335   0.622  -1.052  0.00  0.00     0.036 H 
ATOM     18  H   LIG d   1       3.647   1.086  -5.082  0.00  0.00     0.155 HD
ENDROOT
BRANCH   1  19
ATOM     19  C   LIG d   1       4.855  -3.125  -7.535  0.00  0.00    -0.011 C 
ATOM     20  H   LIG d   1       5.840  -3.581  -7.622  0.00  0.00     0.032 H 
ATOM     21  H   LIG d   1       4.090  -3.865  -7.771  0.00  0.00     0.032 H 
BRANCH  19  22
ATOM     22  C   LIG d   1       4.748  -1.952  -8.512  0.00  0.00     0.049 C 
ATOM     23  H   LIG d   1       4.994  -1.025  -7.993  0.00  0.00     0.038 H 
ATOM     24  H   LIG d   1       5.444  -2.103  -9.337  0.00  0.00     0.038 H 
BRANCH  22  25
ATOM     25  C   LIG d   1       3.343  -1.871  -9.049  0.00  0.00     0.307 C 
ATOM     26  O   LIG d   1       2.733  -2.883  -9.300  0.00  0.00    -0.251 OA
BRANCH  25  27
ATOM     27  O   LIG d   1       2.768  -0.675  -9.248  0.00  0.00    -0.465 OA
BRANCH  27  28
ATOM     28  C   LIG d   1       3.609   0.497  -9.081  0.00  0.00     0.090 C 
ATOM     29  H   LIG d   1       4.258   0.359  -8.217  0.00  0.00     0.069 H 
ATOM     30  H   LIG d   1       4.218   0.637  -9.974  0.00  0.00     0.069 H 
BRANCH  28  31
ATOM     31  C   LIG d   1       2.729   1.731  -8.866  0.00  0.00    -0.031 C 
ATOM     32  H   LIG d   1       2.969   2.183  -7.903  0.00  0.00     0.026 H 
ATOM     33  H   LIG d   1       2.914   2.452  -9.662  0.00  0.00     0.026 H 
ATOM     34  H   LIG d   1       1.681   1.436  -8.879  0.00  0.00     0.026 H 
ENDBRANCH  28  31
ENDBRANCH  27  28
ENDBRANCH  25  27
ENDBRANCH  22  25
ENDBRANCH  19  22
ENDBRANCH   1  19
BRANCH   6  35
ATOM     35  N   LIG d   1       4.998  -4.945  -5.317  0.00  0.00     0.080 N 
ATOM     36  O   LIG d   1       4.077  -5.740  -5.372  0.00  0.00     0.042 OA
ATOM     37  O   LIG d   1       6.144  -5.330  -5.467  0.00  0.00    -0.576 OA
ENDBRANCH   6  35
TORSDOF 7
ENDMDL
MODEL 6
REMARK VINA RESULT:      -5.3      3.999      5.029
REMARK  7 active torsions:
REMARK  status: ('A' for Active; 'I' for Inactive)
REMARK    1  A    between atoms: C_1  and  C_2 
REMARK    2  A    between atoms: C_2  and  O_3 
REMARK    3  A    between atoms: O_3  and  C_4 
REMARK    4  A    between atoms: C_4  and  C_6 
REMARK    5  A    between atoms: C_6  and  C_7 
REMARK    6  A    between atoms: C_7  and  C_8 
REMARK    7  A    between atoms: C_13  and  N_14 
ROOT
ATOM      1  C   LIG d   1       2.778   0.486  -8.601  0.00  0.00     0.032 A 
ATOM      2  C   LIG d   1       1.872  -0.478  -8.997  0.00  0.00    -0.031 A 
ATOM      3  C   LIG d   1       1.910  -0.975 -10.293  0.00  0.00     0.037 A 
ATOM      4  C   LIG d   1       2.862  -0.501 -11.187  0.00  0.00    -0.019 A 
ATOM      5  C   LIG d   1       3.766   0.462 -10.786  0.00  0.00     0.021 A 
ATOM      6  C   LIG d   1       3.725   0.955  -9.493  0.00  0.00     0.277 A 
ATOM      7  C   LIG d   1       2.904  -1.040 -12.592  0.00  0.00    -0.018 C 
ATOM      8  C   LIG d   1       2.503  -2.519 -12.584  0.00  0.00     0.028 C 
ATOM      9  C   LIG d   1       1.236  -2.697 -11.793  0.00  0.00     0.217 C 
ATOM     10  O   LIG d   1       0.423  -3.528 -12.141  0.00  0.00    -0.276 OA
ATOM     11  N   LIG d   1       0.995  -1.950 -10.700  0.00  0.00    -0.285 N 
ATOM     12  H   LIG d   1       1.132  -0.844  -8.299  0.00  0.00     0.064 H 
ATOM     13  H   LIG d   1       4.506   0.830 -11.480  0.00  0.00     0.069 H 
ATOM     14  H   LIG d   1       2.211  -0.477 -13.218  0.00  0.00     0.032 H 
ATOM     15  H   LIG d   1       3.914  -0.942 -12.990  0.00  0.00     0.032 H 
ATOM     16  H   LIG d   1       3.299  -3.109 -12.131  0.00  0.00     0.036 H 
ATOM     17  H   LIG d   1       2.342  -2.856 -13.608  0.00  0.00     0.036 H 
ATOM     18  H   LIG d   1       0.180  -2.088 -10.191  0.00  0.00     0.155 HD
ENDROOT
BRANCH   1  19
ATOM     19  C   LIG d   1       2.737   1.026  -7.195  0.00  0.00    -0.011 C 
ATOM     20  H   LIG d   1       3.450   1.844  -7.099  0.00  0.00     0.032 H 
ATOM     21  H   LIG d   1       1.734   1.392  -6.976  0.00  0.00     0.032 H 
BRANCH  19  22
ATOM     22  C   LIG d   1       3.101  -0.086  -6.209  0.00  0.00     0.049 C 
ATOM     23  H   LIG d   1       2.488  -0.964  -6.410  0.00  0.00     0.038 H 
ATOM     24  H   LIG d   1       4.154  -0.343  -6.326  0.00  0.00     0.038 H 
BRANCH  22  25
ATOM     25  C   LIG d   1       2.854   0.390  -4.801  0.00  0.00     0.307 C 
ATOM     26  O   LIG d   1       2.840   1.573  -4.557  0.00  0.00    -0.251 OA
BRANCH  25  27
ATOM     27  O   LIG d   1       2.647  -0.501  -3.819  0.00  0.00    -0.465 OA
BRANCH  27  28
ATOM     28  C   LIG d   1       3.433  -0.341  -2.608  0.00  0.00     0.090 C 
ATOM     29  H   LIG d   1       4.233   0.377  -2.786  0.00  0.00     0.069 H 
ATOM     30  H   LIG d   1       2.792   0.022  -1.805  0.00  0.00     0.069 H 
BRANCH  28  31
ATOM     31  C   LIG d   1       4.036  -1.690  -2.209  0.00  0.00    -0.031 C 
ATOM     32  H   LIG d   1       5.076  -1.731  -2.533  0.00  0.00     0.026 H 
ATOM     33  H   LIG d   1       3.988  -1.803  -1.126  0.00  0.00     0.026 H 
ATOM     34  H   LIG d   1       3.475  -2.494  -2.683  0.00  0.00     0.026 H 
ENDBRANCH  28  31
ENDBRANCH  27  28
ENDBRANCH  25  27
ENDBRANCH  22  25
ENDBRANCH  19  22
ENDBRANCH   1  19
BRANCH   6  35
ATOM     35  N   LIG d   1       4.696   1.987  -9.065  0.00  0.00     0.080 N 
ATOM     36  O   LIG d   1       4.463   3.165  -9.270  0.00  0.00     0.042 OA
ATOM     37  O   LIG d   1       5.728   1.658  -8.508  0.00  0.00    -0.576 OA
ENDBRANCH   6  35
TORSDOF 7
ENDMDL
MODEL 7
REMARK VINA RESULT:      -5.1      3.054      4.280
REMARK  7 active torsions:
REMARK  status: ('A' for Active; 'I' for Inactive)
REMARK    1  A    between atoms: C_1  and  C_2 
REMARK    2  A    between atoms: C_2  and  O_3 
REMARK    3  A    between atoms: O_3  and  C_4 
REMARK    4  A    between atoms: C_4  and  C_6 
REMARK    5  A    between atoms: C_6  and  C_7 
REMARK    6  A    between atoms: C_7  and  C_8 
REMARK    7  A    between atoms: C_13  and  N_14 
ROOT
ATOM      1  C   LIG d   1       4.396  -0.478  -6.523  0.00  0.00     0.032 A 
ATOM      2  C   LIG d   1       4.960  -1.020  -7.662  0.00  0.00    -0.031 A 
ATOM      3  C   LIG d   1       4.228  -1.072  -8.840  0.00  0.00     0.037 A 
ATOM      4  C   LIG d   1       2.930  -0.577  -8.870  0.00  0.00    -0.019 A 
ATOM      5  C   LIG d   1       2.372  -0.036  -7.730  0.00  0.00     0.021 A 
ATOM      6  C   LIG d   1       3.104   0.014  -6.557  0.00  0.00     0.277 A 
ATOM      7  C   LIG d   1       2.137  -0.633 -10.149  0.00  0.00    -0.018 C 
ATOM      8  C   LIG d   1       3.077  -0.441 -11.343  0.00  0.00     0.028 C 
ATOM      9  C   LIG d   1       4.266  -1.353 -11.205  0.00  0.00     0.217 C 
ATOM     10  O   LIG d   1       4.759  -1.849 -12.196  0.00  0.00    -0.276 OA
ATOM     11  N   LIG d   1       4.793  -1.619  -9.996  0.00  0.00    -0.285 N 
ATOM     12  H   LIG d   1       5.970  -1.404  -7.635  0.00  0.00     0.064 H 
ATOM     13  H   LIG d   1       1.364   0.349  -7.753  0.00  0.00     0.069 H 
ATOM     14  H   LIG d   1       1.640  -1.601 -10.226  0.00  0.00     0.032 H 
ATOM     15  H   LIG d   1       1.388   0.159 -10.147  0.00  0.00     0.032 H 
ATOM     16  H   LIG d   1       3.416   0.594 -11.376  0.00  0.00     0.036 H 
ATOM     17  H   LIG d   1       2.545  -0.676 -12.264  0.00  0.00     0.036 H 
ATOM     18  H   LIG d   1       5.570  -2.197  -9.925  0.00  0.00     0.155 HD
ENDROOT
BRANCH   1  19
ATOM     19  C   LIG d   1       5.190  -0.421  -5.244  0.00  0.00    -0.011 C 
ATOM     20  H   LIG d   1       6.045   0.241  -5.376  0.00  0.00     0.032 H 
ATOM     21  H   LIG d   1       4.557  -0.040  -4.442  0.00  0.00     0.032 H 
BRANCH  19  22
ATOM     22  C   LIG d   1       5.681  -1.824  -4.884  0.00  0.00     0.049 C 
ATOM     23  H   LIG d   1       6.081  -2.308  -5.775  0.00  0.00     0.038 H 
ATOM     24  H   LIG d   1       6.463  -1.751  -4.127  0.00  0.00     0.038 H 
BRANCH  22  25
ATOM     25  C   LIG d   1       4.533  -2.636  -4.342  0.00  0.00     0.307 C 
ATOM     26  O   LIG d   1       4.307  -3.735  -4.788  0.00  0.00    -0.251 OA
BRANCH  25  27
ATOM     27  O   LIG d   1       3.762  -2.138  -3.363  0.00  0.00    -0.465 OA
BRANCH  27  28
ATOM     28  C   LIG d   1       4.412  -1.837  -2.100  0.00  0.00     0.090 C 
ATOM     29  H   LIG d   1       3.927  -2.396  -1.300  0.00  0.00     0.069 H 
ATOM     30  H   LIG d   1       5.463  -2.120  -2.156  0.00  0.00     0.069 H 
BRANCH  28  31
ATOM     31  C   LIG d   1       4.303  -0.337  -1.814  0.00  0.00    -0.031 C 
ATOM     32  H   LIG d   1       5.189   0.170  -2.197  0.00  0.00     0.026 H 
ATOM     33  H   LIG d   1       3.415   0.062  -2.304  0.00  0.00     0.026 H 
ATOM     34  H   LIG d   1       4.227  -0.177  -0.740  0.00  0.00     0.026 H 
ENDBRANCH  28  31
ENDBRANCH  27  28
ENDBRANCH  25  27
ENDBRANCH  22  25
ENDBRANCH  19  22
ENDBRANCH   1  19
BRANCH   6  35
ATOM     35  N   LIG d   1       2.503   0.596  -5.336  0.00  0.00     0.080 N 
ATOM     36  O   LIG d   1       2.616   1.787  -5.110  0.00  0.00     0.042 OA
ATOM     37  O   LIG d   1       1.896  -0.117  -4.556  0.00  0.00    -0.576 OA
ENDBRANCH   6  35
TORSDOF 7
ENDMDL
MODEL 8
REMARK VINA RESULT:      -5.0      3.242      5.528
REMARK  7 active torsions:
REMARK  status: ('A' for Active; 'I' for Inactive)
REMARK    1  A    between atoms: C_1  and  C_2 
REMARK    2  A    between atoms: C_2  and  O_3 
REMARK    3  A    between atoms: O_3  and  C_4 
REMARK    4  A    between atoms: C_4  and  C_6 
REMARK    5  A    between atoms: C_6  and  C_7 
REMARK    6  A    between atoms: C_7  and  C_8 
REMARK    7  A    between atoms: C_13  and  N_14 
ROOT
ATOM      1  C   LIG d   1       7.267   0.368  -5.662  0.00  0.00     0.032 A 
ATOM      2  C   LIG d   1       6.050  -0.268  -5.516  0.00  0.00    -0.031 A 
ATOM      3  C   LIG d   1       5.321  -0.109  -4.345  0.00  0.00     0.037 A 
ATOM      4  C   LIG d   1       5.818   0.692  -3.325  0.00  0.00    -0.019 A 
ATOM      5  C   LIG d   1       7.034   1.327  -3.477  0.00  0.00     0.021 A 
ATOM      6  C   LIG d   1       7.759   1.165  -4.645  0.00  0.00     0.277 A 
ATOM      7  C   LIG d   1       5.027   0.865  -2.055  0.00  0.00    -0.018 C 
ATOM      8  C   LIG d   1       3.530   0.848  -2.380  0.00  0.00     0.028 C 
ATOM      9  C   LIG d   1       3.214  -0.333  -3.258  0.00  0.00     0.217 C 
ATOM     10  O   LIG d   1       2.156  -0.912  -3.126  0.00  0.00    -0.276 OA
ATOM     11  N   LIG d   1       4.089  -0.751  -4.191  0.00  0.00    -0.285 N 
ATOM     12  H   LIG d   1       5.666  -0.891  -6.312  0.00  0.00     0.064 H 
ATOM     13  H   LIG d   1       7.421   1.949  -2.685  0.00  0.00     0.069 H 
ATOM     14  H   LIG d   1       5.262   0.052  -1.367  0.00  0.00     0.032 H 
ATOM     15  H   LIG d   1       5.286   1.818  -1.593  0.00  0.00     0.032 H 
ATOM     16  H   LIG d   1       3.259   1.767  -2.898  0.00  0.00     0.036 H 
ATOM     17  H   LIG d   1       2.960   0.774  -1.454  0.00  0.00     0.036 H 
ATOM     18  H   LIG d   1       3.864  -1.504  -4.760  0.00  0.00     0.155 HD
ENDROOT
BRANCH   1  19
ATOM     19  C   LIG d   1       8.059   0.196  -6.932  0.00  0.00    -0.011 C 
ATOM     20  H   LIG d   1       8.830   0.964  -6.987  0.00  0.00     0.032 H 
ATOM     21  H   LIG d   1       8.527  -0.788  -6.937  0.00  0.00     0.032 H 
BRANCH  19  22
ATOM     22  C   LIG d   1       7.126   0.323  -8.138  0.00  0.00     0.049 C 
ATOM     23  H   LIG d   1       7.446  -0.367  -8.919  0.00  0.00     0.038 H 
ATOM     24  H   LIG d   1       6.107   0.082  -7.835  0.00  0.00     0.038 H 
BRANCH  22  25
ATOM     25  C   LIG d   1       7.173   1.734  -8.664  0.00  0.00     0.307 C 
ATOM     26  O   LIG d   1       8.068   2.473  -8.331  0.00  0.00    -0.251 OA
BRANCH  25  27
ATOM     27  O   LIG d   1       6.220   2.170  -9.502  0.00  0.00    -0.465 OA
BRANCH  27  28
ATOM     28  C   LIG d   1       4.906   1.564  -9.380  0.00  0.00     0.090 C 
ATOM     29  H   LIG d   1       4.673   1.014 -10.292  0.00  0.00     0.069 H 
ATOM     30  H   LIG d   1       4.899   0.880  -8.532  0.00  0.00     0.069 H 
BRANCH  28  31
ATOM     31  C   LIG d   1       3.857   2.657  -9.162  0.00  0.00    -0.031 C 
ATOM     32  H   LIG d   1       3.094   2.295  -8.473  0.00  0.00     0.026 H 
ATOM     33  H   LIG d   1       4.337   3.541  -8.740  0.00  0.00     0.026 H 
ATOM     34  H   LIG d   1       3.396   2.914 -10.115  0.00  0.00     0.026 H 
ENDBRANCH  28  31
ENDBRANCH  27  28
ENDBRANCH  25  27
ENDBRANCH  22  25
ENDBRANCH  19  22
ENDBRANCH   1  19
BRANCH   6  35
ATOM     35  N   LIG d   1       9.062   1.848  -4.806  0.00  0.00     0.080 N 
ATOM     36  O   LIG d   1       9.107   2.974  -5.267  0.00  0.00     0.042 OA
ATOM     37  O   LIG d   1      10.090   1.283  -4.476  0.00  0.00    -0.576 OA
ENDBRANCH   6  35
TORSDOF 7
ENDMDL
MODEL 9
REMARK VINA RESULT:      -5.0      3.732      4.637
REMARK  7 active torsions:
REMARK  status: ('A' for Active; 'I' for Inactive)
REMARK    1  A    between atoms: C_1  and  C_2 
REMARK    2  A    between atoms: C_2  and  O_3 
REMARK    3  A    between atoms: O_3  and  C_4 
REMARK    4  A    between atoms: C_4  and  C_6 
REMARK    5  A    between atoms: C_6  and  C_7 
REMARK    6  A    between atoms: C_7  and  C_8 
REMARK    7  A    between atoms: C_13  and  N_14 
ROOT
ATOM      1  C   LIG d   1       3.637  -0.531  -8.320  0.00  0.00     0.032 A 
ATOM      2  C   LIG d   1       3.251  -1.834  -8.566  0.00  0.00    -0.031 A 
ATOM      3  C   LIG d   1       2.391  -2.115  -9.619  0.00  0.00     0.037 A 
ATOM      4  C   LIG d   1       1.923  -1.084 -10.423  0.00  0.00    -0.019 A 
ATOM      5  C   LIG d   1       2.312   0.217 -10.173  0.00  0.00     0.021 A 
ATOM      6  C   LIG d   1       3.169   0.493  -9.122  0.00  0.00     0.277 A 
ATOM      7  C   LIG d   1       0.990  -1.389 -11.565  0.00  0.00    -0.018 C 
ATOM      8  C   LIG d   1       1.349  -2.751 -12.168  0.00  0.00     0.028 C 
ATOM      9  C   LIG d   1       1.484  -3.772 -11.070  0.00  0.00     0.217 C 
ATOM     10  O   LIG d   1       1.132  -4.916 -11.268  0.00  0.00    -0.276 OA
ATOM     11  N   LIG d   1       1.997  -3.432  -9.873  0.00  0.00    -0.285 N 
ATOM     12  H   LIG d   1       3.618  -2.635  -7.939  0.00  0.00     0.064 H 
ATOM     13  H   LIG d   1       1.948   1.019 -10.797  0.00  0.00     0.069 H 
ATOM     14  H   LIG d   1      -0.037  -1.409 -11.200  0.00  0.00     0.032 H 
ATOM     15  H   LIG d   1       1.088  -0.618 -12.330  0.00  0.00     0.032 H 
ATOM     16  H   LIG d   1       2.291  -2.673 -12.708  0.00  0.00     0.036 H 
ATOM     17  H   LIG d   1       0.563  -3.061 -12.855  0.00  0.00     0.036 H 
ATOM     18  H   LIG d   1       2.093  -4.105  -9.181  0.00  0.00     0.155 HD
ENDROOT
BRANCH   1  19
ATOM     19  C   LIG d   1       4.570  -0.225  -7.177  0.00  0.00    -0.011 C 
ATOM     20  H   LIG d   1       5.578  -0.548  -7.435  0.00  0.00     0.032 H 
ATOM     21  H   LIG d   1       4.570   0.848  -6.986  0.00  0.00     0.032 H 
BRANCH  19  22
ATOM     22  C   LIG d   1       4.103  -0.966  -5.922  0.00  0.00     0.049 C 
ATOM     23  H   LIG d   1       3.342  -1.698  -6.195  0.00  0.00     0.038 H 
ATOM     24  H   LIG d   1       4.951  -1.476  -5.466  0.00  0.00     0.038 H 
BRANCH  22  25
ATOM     25  C   LIG d   1       3.524   0.021  -4.942  0.00  0.00     0.307 C 
ATOM     26  O   LIG d   1       2.798   0.905  -5.332  0.00  0.00    -0.251 OA
BRANCH  25  27
ATOM     27  O   LIG d   1       3.813  -0.083  -3.636  0.00  0.00    -0.465 OA
BRANCH  27  28
ATOM     28  C   LIG d   1       3.004  -0.998  -2.852  0.00  0.00     0.090 C 
ATOM     29  H   LIG d   1       2.612  -0.480  -1.976  0.00  0.00     0.069 H 
ATOM     30  H   LIG d   1       2.175  -1.362  -3.459  0.00  0.00     0.069 H 
BRANCH  28  31
ATOM     31  C   LIG d   1       3.863  -2.182  -2.401  0.00  0.00    -0.031 C 
ATOM     32  H   LIG d   1       3.696  -3.026  -3.070  0.00  0.00     0.026 H 
ATOM     33  H   LIG d   1       4.915  -1.898  -2.430  0.00  0.00     0.026 H 
ATOM     34  H   LIG d   1       3.591  -2.463  -1.385  0.00  0.00     0.026 H 
ENDBRANCH  28  31
ENDBRANCH  27  28
ENDBRANCH  25  27
ENDBRANCH  22  25
ENDBRANCH  19  22
ENDBRANCH   1  19
BRANCH   6  35
ATOM     35  N   LIG d   1       3.585   1.889  -8.856  0.00  0.00     0.080 N 
ATOM     36  O   LIG d   1       4.578   2.341  -9.398  0.00  0.00     0.042 OA
ATOM     37  O   LIG d   1       2.935   2.584  -8.097  0.00  0.00    -0.576 OA
ENDBRANCH   6  35
TORSDOF 7
ENDMDL
MODEL 10
REMARK VINA RESULT:      -4.9      2.830      3.960
REMARK  7 active torsions:
REMARK  status: ('A' for Active; 'I' for Inactive)
REMARK    1  A    between atoms: C_1  and  C_2 
REMARK    2  A    between atoms: C_2  and  O_3 
REMARK    3  A    between atoms: O_3  and  C_4 
REMARK    4  A    between atoms: C_4  and  C_6 
REMARK    5  A    between atoms: C_6  and  C_7 
REMARK    6  A    between atoms: C_7  and  C_8 
REMARK    7  A    between atoms: C_13  and  N_14 
ROOT
ATOM      1  C   LIG d   1       5.925  -1.078  -5.664  0.00  0.00     0.032 A 
ATOM      2  C   LIG d   1       5.861   0.018  -6.502  0.00  0.00    -0.031 A 
ATOM      3  C   LIG d   1       4.928   0.052  -7.529  0.00  0.00     0.037 A 
ATOM      4  C   LIG d   1       4.059  -1.018  -7.709  0.00  0.00    -0.019 A 
ATOM      5  C   LIG d   1       4.127  -2.110  -6.868  0.00  0.00     0.021 A 
ATOM      6  C   LIG d   1       5.059  -2.140  -5.845  0.00  0.00     0.277 A 
ATOM      7  C   LIG d   1       3.047  -0.981  -8.823  0.00  0.00    -0.018 C 
ATOM      8  C   LIG d   1       2.570   0.460  -9.033  0.00  0.00     0.028 C 
ATOM      9  C   LIG d   1       3.758   1.379  -9.123  0.00  0.00     0.217 C 
ATOM     10  O   LIG d   1       3.721   2.336  -9.869  0.00  0.00    -0.276 OA
ATOM     11  N   LIG d   1       4.859   1.158  -8.381  0.00  0.00    -0.285 N 
ATOM     12  H   LIG d   1       6.538   0.849  -6.359  0.00  0.00     0.064 H 
ATOM     13  H   LIG d   1       3.452  -2.941  -7.007  0.00  0.00     0.069 H 
ATOM     14  H   LIG d   1       3.503  -1.353  -9.741  0.00  0.00     0.032 H 
ATOM     15  H   LIG d   1       2.195  -1.609  -8.561  0.00  0.00     0.032 H 
ATOM     16  H   LIG d   1       1.942   0.761  -8.196  0.00  0.00     0.036 H 
ATOM     17  H   LIG d   1       1.995   0.520  -9.956  0.00  0.00     0.036 H 
ATOM     18  H   LIG d   1       5.610   1.769  -8.438  0.00  0.00     0.155 HD
ENDROOT
BRANCH   1  19
ATOM     19  C   LIG d   1       6.938  -1.115  -4.549  0.00  0.00    -0.011 C 
ATOM     20  H   LIG d   1       7.323  -2.129  -4.441  0.00  0.00     0.032 H 
ATOM     21  H   LIG d   1       7.760  -0.438  -4.782  0.00  0.00     0.032 H 
BRANCH  19  22
ATOM     22  C   LIG d   1       6.275  -0.680  -3.240  0.00  0.00     0.049 C 
ATOM     23  H   LIG d   1       5.324  -1.201  -3.125  0.00  0.00     0.038 H 
ATOM     24  H   LIG d   1       6.928  -0.926  -2.403  0.00  0.00     0.038 H 
BRANCH  22  25
ATOM     25  C   LIG d   1       6.034   0.807  -3.269  0.00  0.00     0.307 C 
ATOM     26  O   LIG d   1       6.968   1.571  -3.221  0.00  0.00    -0.251 OA
BRANCH  25  27
ATOM     27  O   LIG d   1       4.781   1.283  -3.349  0.00  0.00    -0.465 OA
BRANCH  27  28
ATOM     28  C   LIG d   1       3.719   0.431  -2.846  0.00  0.00     0.090 C 
ATOM     29  H   LIG d   1       4.148  -0.487  -2.445  0.00  0.00     0.069 H 
ATOM     30  H   LIG d   1       3.177   0.953  -2.058  0.00  0.00     0.069 H 
BRANCH  28  31
ATOM     31  C   LIG d   1       2.755   0.089  -3.985  0.00  0.00    -0.031 C 
ATOM     32  H   LIG d   1       1.752   0.429  -3.726  0.00  0.00     0.026 H 
ATOM     33  H   LIG d   1       3.082   0.586  -4.899  0.00  0.00     0.026 H 
ATOM     34  H   LIG d   1       2.745  -0.989  -4.142  0.00  0.00     0.026 H 
ENDBRANCH  28  31
ENDBRANCH  27  28
ENDBRANCH  25  27
ENDBRANCH  22  25
ENDBRANCH  19  22
ENDBRANCH   1  19
BRANCH   6  35
ATOM     35  N   LIG d   1       5.128  -3.312  -4.944  0.00  0.00     0.080 N 
ATOM     36  O   LIG d   1       4.332  -3.426  -4.030  0.00  0.00     0.042 OA
ATOM     37  O   LIG d   1       5.983  -4.164  -5.117  0.00  0.00    -0.576 OA
ENDBRANCH   6  35
TORSDOF 7
ENDMDL
