MODEL 1
REMARK VINA RESULT:      -6.1      0.000      0.000
REMARK  7 active torsions:
REMARK  status: ('A' for Active; 'I' for Inactive)
REMARK    1  A    between atoms: C_1  and  C_2 
REMARK    2  A    between atoms: C_4  and  C_22 
REMARK    3  A    between atoms: C_7  and  O_8 
REMARK    4  A    between atoms: C_9  and  C_21 
REMARK    5  A    between atoms: C_14  and  C_17 
REMARK    6  A    between atoms: C_17  and  C_19 
REMARK    7  A    between atoms: C_22  and  C_24 
ROOT
ATOM      1  C   LIG d   1       5.951  -5.246  -6.137  0.00  0.00    -0.015 A 
ATOM      2  C   LIG d   1       7.265  -5.398  -5.733  0.00  0.00    -0.088 A 
ATOM      3  C   LIG d   1       7.821  -4.505  -4.801  0.00  0.00     0.052 A 
ATOM      4  C   LIG d   1       7.045  -3.439  -4.296  0.00  0.00     0.146 A 
ATOM      5  C   LIG d   1       5.726  -3.321  -4.709  0.00  0.00     0.053 A 
ATOM      6  C   LIG d   1       5.185  -4.207  -5.625  0.00  0.00     0.127 A 
ATOM      7  C   LIG d   1       5.173  -2.148  -3.950  0.00  0.00     0.070 C 
ATOM      8  C   LIG d   1       6.426  -1.507  -3.369  0.00  0.00     0.123 C 
ATOM      9  C   LIG d   1       6.504  -0.192  -3.065  0.00  0.00     0.025 C 
ATOM     10  C   LIG d   1       5.457   0.682  -3.406  0.00  0.00     0.192 C 
ATOM     11  O   LIG d   1       5.536   1.848  -3.071  0.00  0.00    -0.287 OA
ATOM     12  C   LIG d   1       4.242   0.229  -4.170  0.00  0.00     0.053 C 
ATOM     13  C   LIG d   1       4.525  -1.109  -4.833  0.00  0.00    -0.100 C 
ATOM     14  O   LIG d   1       4.249  -1.328  -5.989  0.00  0.00    -0.875 OA
ATOM     15  O   LIG d   1       7.372  -2.447  -3.429  0.00  0.00    -0.458 OA
ATOM     16  O   LIG d   1       8.015  -6.412  -6.230  0.00  0.00    -0.873 OA
ATOM     17  H   LIG d   1       7.390   0.201  -2.546  0.00  0.00     0.069 H 
ENDROOT
BRANCH   3  18
ATOM     18  C   LIG d   1       9.204  -4.675  -4.360  0.00  0.00     0.163 C 
ATOM     19  O   LIG d   1      10.109  -4.167  -4.989  0.00  0.00    -0.292 OA
BRANCH  18  20
ATOM     20  C   LIG d   1       9.506  -5.480  -3.122  0.00  0.00    -0.001 C 
ATOM     21  H   LIG d   1      10.529  -5.880  -3.186  0.00  0.00     0.031 H 
ATOM     22  H   LIG d   1       8.791  -6.312  -3.044  0.00  0.00     0.031 H 
ATOM     23  H   LIG d   1       9.419  -4.837  -2.235  0.00  0.00     0.031 H 
ENDBRANCH  18  20
ENDBRANCH   3  18
BRANCH   1  24
ATOM     24  C   LIG d   1       5.355  -6.204  -7.137  0.00  0.00    -0.037 C 
ATOM     25  H   LIG d   1       5.068  -7.134  -6.627  0.00  0.00     0.028 H 
ATOM     26  H   LIG d   1       6.096  -6.426  -7.918  0.00  0.00     0.028 H 
ATOM     27  H   LIG d   1       4.465  -5.747  -7.596  0.00  0.00     0.028 H 
ENDBRANCH   1  24
BRANCH   6  28
ATOM     28  O   LIG d   1       3.897  -4.059  -6.026  0.00  0.00    -0.506 OA
ATOM     29  H   LIG d   1       3.668  -3.874  -7.085  0.00  0.00     0.292 HD
ENDBRANCH   6  28
BRANCH   7  30
ATOM     30  C   LIG d   1       4.219  -2.604  -2.844  0.00  0.00    -0.045 C 
ATOM     31  H   LIG d   1       3.808  -1.725  -2.327  0.00  0.00     0.025 H 
ATOM     32  H   LIG d   1       4.765  -3.231  -2.124  0.00  0.00     0.025 H 
ATOM     33  H   LIG d   1       3.396  -3.186  -3.287  0.00  0.00     0.025 H 
ENDBRANCH   7  30
BRANCH  12  34
ATOM     34  C   LIG d   1       2.836   0.663  -4.495  0.00  0.00     0.163 C 
ATOM     35  O   LIG d   1       2.638   1.752  -4.981  0.00  0.00    -0.292 OA
BRANCH  34  36
ATOM     36  C   LIG d   1       1.678  -0.260  -4.217  0.00  0.00    -0.001 C 
ATOM     37  H   LIG d   1       2.060  -1.251  -3.934  0.00  0.00     0.031 H 
ATOM     38  H   LIG d   1       1.056  -0.350  -5.119  0.00  0.00     0.031 H 
ATOM     39  H   LIG d   1       1.073   0.150  -3.395  0.00  0.00     0.031 H 
ENDBRANCH  34  36
ENDBRANCH  12  34
TORSDOF 7
ENDMDL
MODEL 2
REMARK VINA RESULT:      -5.7      8.847     11.789
REMARK  7 active torsions:
REMARK  status: ('A' for Active; 'I' for Inactive)
REMARK    1  A    between atoms: C_1  and  C_2 
REMARK    2  A    between atoms: C_4  and  C_22 
REMARK    3  A    between atoms: C_7  and  O_8 
REMARK    4  A    between atoms: C_9  and  C_21 
REMARK    5  A    between atoms: C_14  and  C_17 
REMARK    6  A    between atoms: C_17  and  C_19 
REMARK    7  A    between atoms: C_22  and  C_24 
ROOT
ATOM      1  C   LIG d   1       9.713   6.956  -5.022  0.00  0.00    -0.015 A 
ATOM      2  C   LIG d   1       9.793   5.589  -4.824  0.00  0.00    -0.088 A 
ATOM      3  C   LIG d   1       9.924   5.073  -3.524  0.00  0.00     0.052 A 
ATOM      4  C   LIG d   1       9.998   5.952  -2.421  0.00  0.00     0.146 A 
ATOM      5  C   LIG d   1       9.900   7.317  -2.648  0.00  0.00     0.053 A 
ATOM      6  C   LIG d   1       9.768   7.817  -3.934  0.00  0.00     0.127 A 
ATOM      7  C   LIG d   1       9.946   7.953  -1.288  0.00  0.00     0.070 C 
ATOM      8  C   LIG d   1      10.395   6.803  -0.397  0.00  0.00     0.123 C 
ATOM      9  C   LIG d   1      11.061   6.991   0.764  0.00  0.00     0.025 C 
ATOM     10  C   LIG d   1      11.495   8.274   1.137  0.00  0.00     0.192 C 
ATOM     11  O   LIG d   1      12.045   8.416   2.212  0.00  0.00    -0.287 OA
ATOM     12  C   LIG d   1      11.306   9.480   0.256  0.00  0.00     0.053 C 
ATOM     13  C   LIG d   1      10.994   9.033  -1.163  0.00  0.00    -0.100 C 
ATOM     14  O   LIG d   1      11.548   9.509  -2.125  0.00  0.00    -0.875 OA
ATOM     15  O   LIG d   1      10.158   5.692  -1.098  0.00  0.00    -0.458 OA
ATOM     16  O   LIG d   1       9.738   4.746  -5.885  0.00  0.00    -0.873 OA
ATOM     17  H   LIG d   1      11.266   6.136   1.425  0.00  0.00     0.069 H 
ENDROOT
BRANCH   3  18
ATOM     18  C   LIG d   1       9.991   3.628  -3.313  0.00  0.00     0.163 C 
ATOM     19  O   LIG d   1       8.970   2.989  -3.166  0.00  0.00    -0.292 OA
BRANCH  18  20
ATOM     20  C   LIG d   1      11.327   2.933  -3.278  0.00  0.00    -0.001 C 
ATOM     21  H   LIG d   1      11.853   3.196  -2.348  0.00  0.00     0.031 H 
ATOM     22  H   LIG d   1      11.929   3.252  -4.142  0.00  0.00     0.031 H 
ATOM     23  H   LIG d   1      11.177   1.845  -3.318  0.00  0.00     0.031 H 
ENDBRANCH  18  20
ENDBRANCH   3  18
BRANCH   1  24
ATOM     24  C   LIG d   1       9.573   7.509  -6.417  0.00  0.00    -0.037 C 
ATOM     25  H   LIG d   1      10.418   7.168  -7.032  0.00  0.00     0.028 H 
ATOM     26  H   LIG d   1       9.568   8.607  -6.376  0.00  0.00     0.028 H 
ATOM     27  H   LIG d   1       8.630   7.154  -6.859  0.00  0.00     0.028 H 
ENDBRANCH   1  24
BRANCH   6  28
ATOM     28  O   LIG d   1       9.692   9.157  -4.130  0.00  0.00    -0.506 OA
ATOM     29  H   LIG d   1       8.719   9.667  -4.077  0.00  0.00     0.292 HD
ENDBRANCH   6  28
BRANCH   7  30
ATOM     30  C   LIG d   1       8.568   8.472  -0.873  0.00  0.00    -0.045 C 
ATOM     31  H   LIG d   1       8.080   7.736  -0.218  0.00  0.00     0.025 H 
ATOM     32  H   LIG d   1       7.951   8.632  -1.769  0.00  0.00     0.025 H 
ATOM     33  H   LIG d   1       8.683   9.424  -0.332  0.00  0.00     0.025 H 
ENDBRANCH   7  30
BRANCH  12  34
ATOM     34  C   LIG d   1      11.323  10.986   0.316  0.00  0.00     0.163 C 
ATOM     35  O   LIG d   1      10.290  11.605   0.221  0.00  0.00    -0.292 OA
BRANCH  34  36
ATOM     36  C   LIG d   1      12.627  11.718   0.495  0.00  0.00    -0.001 C 
ATOM     37  H   LIG d   1      12.612  12.266   1.448  0.00  0.00     0.031 H 
ATOM     38  H   LIG d   1      12.765  12.429  -0.334  0.00  0.00     0.031 H 
ATOM     39  H   LIG d   1      13.456  10.995   0.500  0.00  0.00     0.031 H 
ENDBRANCH  34  36
ENDBRANCH  12  34
TORSDOF 7
ENDMDL
MODEL 3
REMARK VINA RESULT:      -5.4      1.907      6.506
REMARK  7 active torsions:
REMARK  status: ('A' for Active; 'I' for Inactive)
REMARK    1  A    between atoms: C_1  and  C_2 
REMARK    2  A    between atoms: C_4  and  C_22 
REMARK    3  A    between atoms: C_7  and  O_8 
REMARK    4  A    between atoms: C_9  and  C_21 
REMARK    5  A    between atoms: C_14  and  C_17 
REMARK    6  A    between atoms: C_17  and  C_19 
REMARK    7  A    between atoms: C_22  and  C_24 
ROOT
ATOM      1  C   LIG d   1       3.735  -0.467  -3.841  0.00  0.00    -0.015 A 
ATOM      2  C   LIG d   1       3.386   0.115  -5.046  0.00  0.00    -0.088 A 
ATOM      3  C   LIG d   1       3.940  -0.364  -6.245  0.00  0.00     0.052 A 
ATOM      4  C   LIG d   1       4.872  -1.424  -6.217  0.00  0.00     0.146 A 
ATOM      5  C   LIG d   1       5.192  -1.998  -4.995  0.00  0.00     0.053 A 
ATOM      6  C   LIG d   1       4.639  -1.522  -3.818  0.00  0.00     0.127 A 
ATOM      7  C   LIG d   1       6.139  -3.119  -5.317  0.00  0.00     0.070 C 
ATOM      8  C   LIG d   1       6.503  -2.843  -6.769  0.00  0.00     0.123 C 
ATOM      9  C   LIG d   1       7.671  -3.241  -7.321  0.00  0.00     0.025 C 
ATOM     10  C   LIG d   1       8.675  -3.819  -6.527  0.00  0.00     0.192 C 
ATOM     11  O   LIG d   1       9.692  -4.213  -7.064  0.00  0.00    -0.287 OA
ATOM     12  C   LIG d   1       8.540  -3.968  -5.034  0.00  0.00     0.053 C 
ATOM     13  C   LIG d   1       7.427  -3.065  -4.530  0.00  0.00    -0.100 C 
ATOM     14  O   LIG d   1       7.562  -2.353  -3.563  0.00  0.00    -0.875 OA
ATOM     15  O   LIG d   1       5.555  -2.022  -7.227  0.00  0.00    -0.458 OA
ATOM     16  O   LIG d   1       2.503   1.144  -5.071  0.00  0.00    -0.873 OA
ATOM     17  H   LIG d   1       7.840  -3.115  -8.401  0.00  0.00     0.069 H 
ENDROOT
BRANCH   3  18
ATOM     18  C   LIG d   1       3.558   0.239  -7.521  0.00  0.00     0.163 C 
ATOM     19  O   LIG d   1       4.188   1.177  -7.962  0.00  0.00    -0.292 OA
BRANCH  18  20
ATOM     20  C   LIG d   1       2.381  -0.305  -8.288  0.00  0.00    -0.001 C 
ATOM     21  H   LIG d   1       1.848   0.523  -8.777  0.00  0.00     0.031 H 
ATOM     22  H   LIG d   1       1.699  -0.821  -7.596  0.00  0.00     0.031 H 
ATOM     23  H   LIG d   1       2.735  -1.014  -9.050  0.00  0.00     0.031 H 
ENDBRANCH  18  20
ENDBRANCH   3  18
BRANCH   1  24
ATOM     24  C   LIG d   1       3.142   0.048  -2.555  0.00  0.00    -0.037 C 
ATOM     25  H   LIG d   1       2.083   0.297  -2.714  0.00  0.00     0.028 H 
ATOM     26  H   LIG d   1       3.687   0.947  -2.234  0.00  0.00     0.028 H 
ATOM     27  H   LIG d   1       3.223  -0.727  -1.778  0.00  0.00     0.028 H 
ENDBRANCH   1  24
BRANCH   6  28
ATOM     28  O   LIG d   1       4.982  -2.090  -2.635  0.00  0.00    -0.506 OA
ATOM     29  H   LIG d   1       4.464  -2.995  -2.288  0.00  0.00     0.292 HD
ENDBRANCH   6  28
BRANCH   7  30
ATOM     30  C   LIG d   1       5.457  -4.481  -5.164  0.00  0.00    -0.045 C 
ATOM     31  H   LIG d   1       5.703  -5.114  -6.030  0.00  0.00     0.025 H 
ATOM     32  H   LIG d   1       4.368  -4.341  -5.110  0.00  0.00     0.025 H 
ATOM     33  H   LIG d   1       5.811  -4.967  -4.243  0.00  0.00     0.025 H 
ENDBRANCH   7  30
BRANCH  12  34
ATOM     34  C   LIG d   1       9.145  -4.717  -3.875  0.00  0.00     0.163 C 
ATOM     35  O   LIG d   1       8.769  -5.835  -3.616  0.00  0.00    -0.292 OA
BRANCH  34  36
ATOM     36  C   LIG d   1      10.219  -4.071  -3.039  0.00  0.00    -0.001 C 
ATOM     37  H   LIG d   1      11.093  -4.736  -2.988  0.00  0.00     0.031 H 
ATOM     38  H   LIG d   1       9.835  -3.892  -2.023  0.00  0.00     0.031 H 
ATOM     39  H   LIG d   1      10.512  -3.113  -3.494  0.00  0.00     0.031 H 
ENDBRANCH  34  36
ENDBRANCH  12  34
TORSDOF 7
ENDMDL
MODEL 4
REMARK VINA RESULT:      -5.3     10.441     13.565
REMARK  7 active torsions:
REMARK  status: ('A' for Active; 'I' for Inactive)
REMARK    1  A    between atoms: C_1  and  C_2 
REMARK    2  A    between atoms: C_4  and  C_22 
REMARK    3  A    between atoms: C_7  and  O_8 
REMARK    4  A    between atoms: C_9  and  C_21 
REMARK    5  A    between atoms: C_14  and  C_17 
REMARK    6  A    between atoms: C_17  and  C_19 
REMARK    7  A    between atoms: C_22  and  C_24 
ROOT
ATOM      1  C   LIG d   1       9.603   9.233  -1.482  0.00  0.00    -0.015 A 
ATOM      2  C   LIG d   1       9.897   7.883  -1.546  0.00  0.00    -0.088 A 
ATOM      3  C   LIG d   1      10.490   7.346  -2.701  0.00  0.00     0.052 A 
ATOM      4  C   LIG d   1      10.765   8.181  -3.806  0.00  0.00     0.146 A 
ATOM      5  C   LIG d   1      10.473   9.534  -3.708  0.00  0.00     0.053 A 
ATOM      6  C   LIG d   1       9.891  10.056  -2.564  0.00  0.00     0.127 A 
ATOM      7  C   LIG d   1      10.939  10.138  -5.002  0.00  0.00     0.070 C 
ATOM      8  C   LIG d   1      11.193   8.913  -5.869  0.00  0.00     0.123 C 
ATOM      9  C   LIG d   1      11.120   8.941  -7.219  0.00  0.00     0.025 C 
ATOM     10  C   LIG d   1      10.665  10.092  -7.885  0.00  0.00     0.192 C 
ATOM     11  O   LIG d   1      10.662  10.102  -9.100  0.00  0.00    -0.287 OA
ATOM     12  C   LIG d   1      10.181  11.314  -7.149  0.00  0.00     0.053 C 
ATOM     13  C   LIG d   1       9.879  10.953  -5.703  0.00  0.00    -0.100 C 
ATOM     14  O   LIG d   1       8.861  11.296  -5.152  0.00  0.00    -0.875 OA
ATOM     15  O   LIG d   1      11.293   7.887  -5.021  0.00  0.00    -0.458 OA
ATOM     16  O   LIG d   1       9.618   7.078  -0.491  0.00  0.00    -0.873 OA
ATOM     17  H   LIG d   1      11.420   8.060  -7.805  0.00  0.00     0.069 H 
ENDROOT
BRANCH   3  18
ATOM     18  C   LIG d   1      10.816   5.923  -2.762  0.00  0.00     0.163 C 
ATOM     19  O   LIG d   1      11.901   5.532  -2.385  0.00  0.00    -0.292 OA
BRANCH  18  20
ATOM     20  C   LIG d   1       9.805   4.940  -3.293  0.00  0.00    -0.001 C 
ATOM     21  H   LIG d   1       9.744   5.032  -4.387  0.00  0.00     0.031 H 
ATOM     22  H   LIG d   1       8.820   5.154  -2.852  0.00  0.00     0.031 H 
ATOM     23  H   LIG d   1      10.111   3.918  -3.028  0.00  0.00     0.031 H 
ENDBRANCH  18  20
ENDBRANCH   3  18
BRANCH   1  24
ATOM     24  C   LIG d   1       8.967   9.809  -0.244  0.00  0.00    -0.037 C 
ATOM     25  H   LIG d   1       8.176  10.515  -0.533  0.00  0.00     0.028 H 
ATOM     26  H   LIG d   1       9.729  10.334   0.349  0.00  0.00     0.028 H 
ATOM     27  H   LIG d   1       8.532   8.996   0.357  0.00  0.00     0.028 H 
ENDBRANCH   1  24
BRANCH   6  28
ATOM     28  O   LIG d   1       9.600  11.380  -2.501  0.00  0.00    -0.506 OA
ATOM     29  H   LIG d   1      10.380  12.101  -2.218  0.00  0.00     0.292 HD
ENDBRANCH   6  28
BRANCH   7  30
ATOM     30  C   LIG d   1      12.219  10.953  -4.803  0.00  0.00    -0.045 C 
ATOM     31  H   LIG d   1      12.378  11.132  -3.729  0.00  0.00     0.025 H 
ATOM     32  H   LIG d   1      12.125  11.916  -5.326  0.00  0.00     0.025 H 
ATOM     33  H   LIG d   1      13.076  10.396  -5.212  0.00  0.00     0.025 H 
ENDBRANCH   7  30
BRANCH  12  34
ATOM     34  C   LIG d   1       9.896  12.776  -7.372  0.00  0.00     0.163 C 
ATOM     35  O   LIG d   1       8.971  13.111  -8.073  0.00  0.00    -0.292 OA
BRANCH  34  36
ATOM     36  C   LIG d   1      10.765  13.821  -6.720  0.00  0.00    -0.001 C 
ATOM     37  H   LIG d   1      11.729  13.876  -7.245  0.00  0.00     0.031 H 
ATOM     38  H   LIG d   1      10.935  13.551  -5.667  0.00  0.00     0.031 H 
ATOM     39  H   LIG d   1      10.263  14.798  -6.771  0.00  0.00     0.031 H 
ENDBRANCH  34  36
ENDBRANCH  12  34
TORSDOF 7
ENDMDL
MODEL 5
REMARK VINA RESULT:      -5.3      2.725      6.708
REMARK  7 active torsions:
REMARK  status: ('A' for Active; 'I' for Inactive)
REMARK    1  A    between atoms: C_1  and  C_2 
REMARK    2  A    between atoms: C_4  and  C_22 
REMARK    3  A    between atoms: C_7  and  O_8 
REMARK    4  A    between atoms: C_9  and  C_21 
REMARK    5  A    between atoms: C_14  and  C_17 
REMARK    6  A    between atoms: C_17  and  C_19 
REMARK    7  A    between atoms: C_22  and  C_24 
ROOT
ATOM      1  C   LIG d   1       3.310  -0.270  -8.152  0.00  0.00    -0.015 A 
ATOM      2  C   LIG d   1       3.318   0.214  -6.856  0.00  0.00    -0.088 A 
ATOM      3  C   LIG d   1       3.799  -0.589  -5.808  0.00  0.00     0.052 A 
ATOM      4  C   LIG d   1       4.252  -1.900  -6.075  0.00  0.00     0.146 A 
ATOM      5  C   LIG d   1       4.246  -2.353  -7.386  0.00  0.00     0.053 A 
ATOM      6  C   LIG d   1       3.773  -1.553  -8.414  0.00  0.00     0.127 A 
ATOM      7  C   LIG d   1       4.839  -3.732  -7.335  0.00  0.00     0.070 C 
ATOM      8  C   LIG d   1       4.843  -4.038  -5.844  0.00  0.00     0.123 C 
ATOM      9  C   LIG d   1       4.791  -5.296  -5.353  0.00  0.00     0.025 C 
ATOM     10  C   LIG d   1       4.591  -6.390  -6.212  0.00  0.00     0.192 C 
ATOM     11  O   LIG d   1       4.602  -7.512  -5.745  0.00  0.00    -0.287 OA
ATOM     12  C   LIG d   1       4.362  -6.224  -7.692  0.00  0.00     0.053 C 
ATOM     13  C   LIG d   1       3.978  -4.784  -7.991  0.00  0.00    -0.100 C 
ATOM     14  O   LIG d   1       3.047  -4.501  -8.706  0.00  0.00    -0.875 OA
ATOM     15  O   LIG d   1       4.719  -2.857  -5.234  0.00  0.00    -0.458 OA
ATOM     16  O   LIG d   1       2.869   1.467  -6.598  0.00  0.00    -0.873 OA
ATOM     17  H   LIG d   1       4.908  -5.471  -4.273  0.00  0.00     0.069 H 
ENDROOT
BRANCH   3  18
ATOM     18  C   LIG d   1       3.825  -0.071  -4.441  0.00  0.00     0.163 C 
ATOM     19  O   LIG d   1       4.740   0.637  -4.078  0.00  0.00    -0.292 OA
BRANCH  18  20
ATOM     20  C   LIG d   1       2.713  -0.417  -3.484  0.00  0.00    -0.001 C 
ATOM     21  H   LIG d   1       2.605  -1.511  -3.428  0.00  0.00     0.031 H 
ATOM     22  H   LIG d   1       1.772   0.026  -3.840  0.00  0.00     0.031 H 
ATOM     23  H   LIG d   1       2.951  -0.021  -2.486  0.00  0.00     0.031 H 
ENDBRANCH  18  20
ENDBRANCH   3  18
BRANCH   1  24
ATOM     24  C   LIG d   1       2.794   0.591  -9.275  0.00  0.00    -0.037 C 
ATOM     25  H   LIG d   1       2.163  -0.014  -9.941  0.00  0.00     0.028 H 
ATOM     26  H   LIG d   1       3.642   0.999  -9.843  0.00  0.00     0.028 H 
ATOM     27  H   LIG d   1       2.200   1.419  -8.859  0.00  0.00     0.028 H 
ENDBRANCH   1  24
BRANCH   6  28
ATOM     28  O   LIG d   1       3.761  -2.028  -9.685  0.00  0.00    -0.506 OA
ATOM     29  H   LIG d   1       2.875  -1.879 -10.319  0.00  0.00     0.292 HD
ENDBRANCH   6  28
BRANCH   7  30
ATOM     30  C   LIG d   1       6.258  -3.745  -7.908  0.00  0.00    -0.045 C 
ATOM     31  H   LIG d   1       6.227  -3.470  -8.973  0.00  0.00     0.025 H 
ATOM     32  H   LIG d   1       6.686  -4.753  -7.803  0.00  0.00     0.025 H 
ATOM     33  H   LIG d   1       6.881  -3.022  -7.361  0.00  0.00     0.025 H 
ENDBRANCH   7  30
BRANCH  12  34
ATOM     34  C   LIG d   1       4.389  -7.014  -8.974  0.00  0.00     0.163 C 
ATOM     35  O   LIG d   1       5.257  -6.812  -9.790  0.00  0.00    -0.292 OA
BRANCH  34  36
ATOM     36  C   LIG d   1       3.333  -8.057  -9.239  0.00  0.00    -0.001 C 
ATOM     37  H   LIG d   1       2.411  -7.565  -9.581  0.00  0.00     0.031 H 
ATOM     38  H   LIG d   1       3.130  -8.616  -8.314  0.00  0.00     0.031 H 
ATOM     39  H   LIG d   1       3.690  -8.750 -10.015  0.00  0.00     0.031 H 
ENDBRANCH  34  36
ENDBRANCH  12  34
TORSDOF 7
ENDMDL
MODEL 6
REMARK VINA RESULT:      -4.9      6.461      8.453
REMARK  7 active torsions:
REMARK  status: ('A' for Active; 'I' for Inactive)
REMARK    1  A    between atoms: C_1  and  C_2 
REMARK    2  A    between atoms: C_4  and  C_22 
REMARK    3  A    between atoms: C_7  and  O_8 
REMARK    4  A    between atoms: C_9  and  C_21 
REMARK    5  A    between atoms: C_14  and  C_17 
REMARK    6  A    between atoms: C_17  and  C_19 
REMARK    7  A    between atoms: C_22  and  C_24 
ROOT
ATOM      1  C   LIG d   1       3.666  -1.461 -13.738  0.00  0.00    -0.015 A 
ATOM      2  C   LIG d   1       2.382  -1.972 -13.688  0.00  0.00    -0.088 A 
ATOM      3  C   LIG d   1       1.577  -1.743 -12.560  0.00  0.00     0.052 A 
ATOM      4  C   LIG d   1       2.088  -1.008 -11.467  0.00  0.00     0.146 A 
ATOM      5  C   LIG d   1       3.374  -0.495 -11.552  0.00  0.00     0.053 A 
ATOM      6  C   LIG d   1       4.160  -0.724 -12.669  0.00  0.00     0.127 A 
ATOM      7  C   LIG d   1       3.581   0.274 -10.278  0.00  0.00     0.070 C 
ATOM      8  C   LIG d   1       2.403  -0.172  -9.423  0.00  0.00     0.123 C 
ATOM      9  C   LIG d   1       2.434  -0.169  -8.072  0.00  0.00     0.025 C 
ATOM     10  C   LIG d   1       3.626   0.122  -7.386  0.00  0.00     0.192 C 
ATOM     11  O   LIG d   1       3.607   0.168  -6.172  0.00  0.00    -0.287 OA
ATOM     12  C   LIG d   1       4.927   0.381  -8.100  0.00  0.00     0.053 C 
ATOM     13  C   LIG d   1       4.833  -0.121  -9.531  0.00  0.00    -0.100 C 
ATOM     14  O   LIG d   1       5.701  -0.791 -10.038  0.00  0.00    -0.875 OA
ATOM     15  O   LIG d   1       1.519  -0.694 -10.275  0.00  0.00    -0.458 OA
ATOM     16  O   LIG d   1       1.897  -2.691 -14.731  0.00  0.00    -0.873 OA
ATOM     17  H   LIG d   1       1.523  -0.395  -7.500  0.00  0.00     0.069 H 
ENDROOT
BRANCH   3  18
ATOM     18  C   LIG d   1       0.214  -2.268 -12.514  0.00  0.00     0.163 C 
ATOM     19  O   LIG d   1      -0.007  -3.337 -11.985  0.00  0.00    -0.292 OA
BRANCH  18  20
ATOM     20  C   LIG d   1      -0.917  -1.480 -13.122  0.00  0.00    -0.001 C 
ATOM     21  H   LIG d   1      -1.803  -2.125 -13.217  0.00  0.00     0.031 H 
ATOM     22  H   LIG d   1      -0.619  -1.120 -14.118  0.00  0.00     0.031 H 
ATOM     23  H   LIG d   1      -1.156  -0.622 -12.478  0.00  0.00     0.031 H 
ENDBRANCH  18  20
ENDBRANCH   3  18
BRANCH   1  24
ATOM     24  C   LIG d   1       4.530  -1.708 -14.948  0.00  0.00    -0.037 C 
ATOM     25  H   LIG d   1       4.670  -2.790 -15.083  0.00  0.00     0.028 H 
ATOM     26  H   LIG d   1       5.507  -1.226 -14.805  0.00  0.00     0.028 H 
ATOM     27  H   LIG d   1       4.041  -1.287 -15.840  0.00  0.00     0.028 H 
ENDBRANCH   1  24
BRANCH   6  28
ATOM     28  O   LIG d   1       5.421  -0.225 -12.719  0.00  0.00    -0.506 OA
ATOM     29  H   LIG d   1       5.674   0.686 -12.158  0.00  0.00     0.292 HD
ENDBRANCH   6  28
BRANCH   7  30
ATOM     30  C   LIG d   1       3.545   1.783 -10.531  0.00  0.00    -0.045 C 
ATOM     31  H   LIG d   1       2.607   2.048 -11.042  0.00  0.00     0.025 H 
ATOM     32  H   LIG d   1       4.400   2.070 -11.160  0.00  0.00     0.025 H 
ATOM     33  H   LIG d   1       3.600   2.317  -9.570  0.00  0.00     0.025 H 
ENDBRANCH   7  30
BRANCH  12  34
ATOM     34  C   LIG d   1       6.292   0.973  -7.864  0.00  0.00     0.163 C 
ATOM     35  O   LIG d   1       6.925   0.660  -6.883  0.00  0.00    -0.292 OA
BRANCH  34  36
ATOM     36  C   LIG d   1       6.869   1.954  -8.851  0.00  0.00    -0.001 C 
ATOM     37  H   LIG d   1       6.541   2.971  -8.591  0.00  0.00     0.031 H 
ATOM     38  H   LIG d   1       6.520   1.704  -9.863  0.00  0.00     0.031 H 
ATOM     39  H   LIG d   1       7.967   1.903  -8.819  0.00  0.00     0.031 H 
ENDBRANCH  34  36
ENDBRANCH  12  34
TORSDOF 7
ENDMDL
MODEL 7
REMARK VINA RESULT:      -4.9      8.526     11.422
REMARK  7 active torsions:
REMARK  status: ('A' for Active; 'I' for Inactive)
REMARK    1  A    between atoms: C_1  and  C_2 
REMARK    2  A    between atoms: C_4  and  C_22 
REMARK    3  A    between atoms: C_7  and  O_8 
REMARK    4  A    between atoms: C_9  and  C_21 
REMARK    5  A    between atoms: C_14  and  C_17 
REMARK    6  A    between atoms: C_17  and  C_19 
REMARK    7  A    between atoms: C_22  and  C_24 
ROOT
ATOM      1  C   LIG d   1       9.518   7.558  -6.347  0.00  0.00    -0.015 A 
ATOM      2  C   LIG d   1       9.717   6.224  -6.656  0.00  0.00    -0.088 A 
ATOM      3  C   LIG d   1      10.044   5.309  -5.641  0.00  0.00     0.052 A 
ATOM      4  C   LIG d   1      10.192   5.755  -4.310  0.00  0.00     0.146 A 
ATOM      5  C   LIG d   1       9.972   7.096  -4.028  0.00  0.00     0.053 A 
ATOM      6  C   LIG d   1       9.647   7.991  -5.034  0.00  0.00     0.127 A 
ATOM      7  C   LIG d   1      10.142   7.224  -2.541  0.00  0.00     0.070 C 
ATOM      8  C   LIG d   1      10.777   5.894  -2.161  0.00  0.00     0.123 C 
ATOM      9  C   LIG d   1      11.567   5.741  -1.075  0.00  0.00     0.025 C 
ATOM     10  C   LIG d   1      11.954   6.855  -0.312  0.00  0.00     0.192 C 
ATOM     11  O   LIG d   1      12.621   6.676   0.688  0.00  0.00    -0.287 OA
ATOM     12  C   LIG d   1      11.572   8.263  -0.686  0.00  0.00     0.053 C 
ATOM     13  C   LIG d   1      11.120   8.302  -2.136  0.00  0.00    -0.100 C 
ATOM     14  O   LIG d   1      11.514   9.138  -2.913  0.00  0.00    -0.875 OA
ATOM     15  O   LIG d   1      10.533   5.074  -3.186  0.00  0.00    -0.458 OA
ATOM     16  O   LIG d   1       9.590   5.798  -7.937  0.00  0.00    -0.873 OA
ATOM     17  H   LIG d   1      11.912   4.738  -0.782  0.00  0.00     0.069 H 
ENDROOT
BRANCH   3  18
ATOM     18  C   LIG d   1      10.237   3.896  -5.964  0.00  0.00     0.163 C 
ATOM     19  O   LIG d   1      11.321   3.503  -6.342  0.00  0.00    -0.292 OA
BRANCH  18  20
ATOM     20  C   LIG d   1       9.090   2.929  -5.825  0.00  0.00    -0.001 C 
ATOM     21  H   LIG d   1       8.612   3.066  -4.844  0.00  0.00     0.031 H 
ATOM     22  H   LIG d   1       9.468   1.899  -5.908  0.00  0.00     0.031 H 
ATOM     23  H   LIG d   1       8.355   3.114  -6.621  0.00  0.00     0.031 H 
ENDBRANCH  18  20
ENDBRANCH   3  18
BRANCH   1  24
ATOM     24  C   LIG d   1       9.168   8.539  -7.436  0.00  0.00    -0.037 C 
ATOM     25  H   LIG d   1       9.711   9.480  -7.269  0.00  0.00     0.028 H 
ATOM     26  H   LIG d   1       8.086   8.732  -7.421  0.00  0.00     0.028 H 
ATOM     27  H   LIG d   1       9.451   8.120  -8.413  0.00  0.00     0.028 H 
ENDBRANCH   1  24
BRANCH   6  28
ATOM     28  O   LIG d   1       9.454   9.300  -4.734  0.00  0.00    -0.506 OA
ATOM     29  H   LIG d   1       9.839   9.710  -3.788  0.00  0.00     0.292 HD
ENDBRANCH   6  28
BRANCH   7  30
ATOM     30  C   LIG d   1       8.793   7.415  -1.844  0.00  0.00    -0.045 C 
ATOM     31  H   LIG d   1       8.026   7.667  -2.591  0.00  0.00     0.025 H 
ATOM     32  H   LIG d   1       8.872   8.230  -1.110  0.00  0.00     0.025 H 
ATOM     33  H   LIG d   1       8.511   6.483  -1.330  0.00  0.00     0.025 H 
ENDBRANCH   7  30
BRANCH  12  34
ATOM     34  C   LIG d   1      11.491   9.648  -0.097  0.00  0.00     0.163 C 
ATOM     35  O   LIG d   1      12.503  10.241   0.192  0.00  0.00    -0.292 OA
BRANCH  34  36
ATOM     36  C   LIG d   1      10.148  10.293   0.130  0.00  0.00    -0.001 C 
ATOM     37  H   LIG d   1      10.087  11.225  -0.451  0.00  0.00     0.031 H 
ATOM     38  H   LIG d   1      10.026  10.518   1.199  0.00  0.00     0.031 H 
ATOM     39  H   LIG d   1       9.353   9.606  -0.193  0.00  0.00     0.031 H 
ENDBRANCH  34  36
ENDBRANCH  12  34
TORSDOF 7
ENDMDL
MODEL 8
REMARK VINA RESULT:      -4.7     11.032     14.524
REMARK  7 active torsions:
REMARK  status: ('A' for Active; 'I' for Inactive)
REMARK    1  A    between atoms: C_1  and  C_2 
REMARK    2  A    between atoms: C_4  and  C_22 
REMARK    3  A    between atoms: C_7  and  O_8 
REMARK    4  A    between atoms: C_9  and  C_21 
REMARK    5  A    between atoms: C_14  and  C_17 
REMARK    6  A    between atoms: C_17  and  C_19 
REMARK    7  A    between atoms: C_22  and  C_24 
ROOT
ATOM      1  C   LIG d   1       9.368  11.168  -4.710  0.00  0.00    -0.015 A 
ATOM      2  C   LIG d   1       9.557  12.294  -5.491  0.00  0.00    -0.088 A 
ATOM      3  C   LIG d   1       9.918  12.159  -6.843  0.00  0.00     0.052 A 
ATOM      4  C   LIG d   1      10.110  10.875  -7.397  0.00  0.00     0.146 A 
ATOM      5  C   LIG d   1       9.899   9.764  -6.593  0.00  0.00     0.053 A 
ATOM      6  C   LIG d   1       9.541   9.906  -5.262  0.00  0.00     0.127 A 
ATOM      7  C   LIG d   1      10.118   8.577  -7.487  0.00  0.00     0.070 C 
ATOM      8  C   LIG d   1      10.766   9.199  -8.716  0.00  0.00     0.123 C 
ATOM      9  C   LIG d   1      11.592   8.514  -9.538  0.00  0.00     0.025 C 
ATOM     10  C   LIG d   1      12.003   7.211  -9.210  0.00  0.00     0.192 C 
ATOM     11  O   LIG d   1      12.703   6.603  -9.996  0.00  0.00    -0.287 OA
ATOM     12  C   LIG d   1      11.609   6.539  -7.921  0.00  0.00     0.053 C 
ATOM     13  C   LIG d   1      11.109   7.580  -6.934  0.00  0.00    -0.100 C 
ATOM     14  O   LIG d   1      11.477   7.608  -5.784  0.00  0.00    -0.875 OA
ATOM     15  O   LIG d   1      10.487  10.503  -8.647  0.00  0.00    -0.458 OA
ATOM     16  O   LIG d   1       9.388  13.528  -4.955  0.00  0.00    -0.873 OA
ATOM     17  H   LIG d   1      11.945   8.975 -10.471  0.00  0.00     0.069 H 
ENDROOT
BRANCH   3  18
ATOM     18  C   LIG d   1      10.100  13.348  -7.674  0.00  0.00     0.163 C 
ATOM     19  O   LIG d   1       9.168  13.791  -8.312  0.00  0.00    -0.292 OA
BRANCH  18  20
ATOM     20  C   LIG d   1      11.445  14.024  -7.736  0.00  0.00    -0.001 C 
ATOM     21  H   LIG d   1      12.235  13.287  -7.529  0.00  0.00     0.031 H 
ATOM     22  H   LIG d   1      11.487  14.827  -6.987  0.00  0.00     0.031 H 
ATOM     23  H   LIG d   1      11.596  14.450  -8.739  0.00  0.00     0.031 H 
ENDBRANCH  18  20
ENDBRANCH   3  18
BRANCH   1  24
ATOM     24  C   LIG d   1       8.982  11.313  -3.260  0.00  0.00    -0.037 C 
ATOM     25  H   LIG d   1       8.274  10.517  -2.989  0.00  0.00     0.028 H 
ATOM     26  H   LIG d   1       8.511  12.294  -3.103  0.00  0.00     0.028 H 
ATOM     27  H   LIG d   1       9.882  11.234  -2.632  0.00  0.00     0.028 H 
ENDBRANCH   1  24
BRANCH   6  28
ATOM     28  O   LIG d   1       9.358   8.803  -4.493  0.00  0.00    -0.506 OA
ATOM     29  H   LIG d   1       9.812   7.845  -4.788  0.00  0.00     0.292 HD
ENDBRANCH   6  28
BRANCH   7  30
ATOM     30  C   LIG d   1       8.793   7.898  -7.841  0.00  0.00    -0.045 C 
ATOM     31  H   LIG d   1       8.439   7.312  -6.980  0.00  0.00     0.025 H 
ATOM     32  H   LIG d   1       8.942   7.230  -8.702  0.00  0.00     0.025 H 
ATOM     33  H   LIG d   1       8.045   8.664  -8.094  0.00  0.00     0.025 H 
ENDBRANCH   7  30
BRANCH  12  34
ATOM     34  C   LIG d   1      11.548   5.174  -7.286  0.00  0.00     0.163 C 
ATOM     35  O   LIG d   1      12.568   4.600  -6.987  0.00  0.00    -0.292 OA
BRANCH  34  36
ATOM     36  C   LIG d   1      10.214   4.524  -7.024  0.00  0.00    -0.001 C 
ATOM     37  H   LIG d   1      10.360   3.451  -6.832  0.00  0.00     0.031 H 
ATOM     38  H   LIG d   1       9.563   4.654  -7.901  0.00  0.00     0.031 H 
ATOM     39  H   LIG d   1       9.744   4.993  -6.147  0.00  0.00     0.031 H 
ENDBRANCH  34  36
ENDBRANCH  12  34
TORSDOF 7
ENDMDL
MODEL 9
REMARK VINA RESULT:      -4.6     10.889     13.660
REMARK  7 active torsions:
REMARK  status: ('A' for Active; 'I' for Inactive)
REMARK    1  A    between atoms: C_1  and  C_2 
REMARK    2  A    between atoms: C_4  and  C_22 
REMARK    3  A    between atoms: C_7  and  O_8 
REMARK    4  A    between atoms: C_9  and  C_21 
REMARK    5  A    between atoms: C_14  and  C_17 
REMARK    6  A    between atoms: C_17  and  C_19 
REMARK    7  A    between atoms: C_22  and  C_24 
ROOT
ATOM      1  C   LIG d   1       9.353  11.356  -4.082  0.00  0.00    -0.015 A 
ATOM      2  C   LIG d   1       9.541  11.313  -5.452  0.00  0.00    -0.088 A 
ATOM      3  C   LIG d   1      10.066  10.156  -6.053  0.00  0.00     0.052 A 
ATOM      4  C   LIG d   1      10.422   9.047  -5.256  0.00  0.00     0.146 A 
ATOM      5  C   LIG d   1      10.208   9.113  -3.887  0.00  0.00     0.053 A 
ATOM      6  C   LIG d   1       9.687  10.257  -3.303  0.00  0.00     0.127 A 
ATOM      7  C   LIG d   1      10.622   7.772  -3.352  0.00  0.00     0.070 C 
ATOM      8  C   LIG d   1      11.357   7.154  -4.533  0.00  0.00     0.123 C 
ATOM      9  C   LIG d   1      12.324   6.221  -4.390  0.00  0.00     0.025 C 
ATOM     10  C   LIG d   1      12.796   5.874  -3.113  0.00  0.00     0.192 C 
ATOM     11  O   LIG d   1      13.629   4.994  -3.016  0.00  0.00    -0.287 OA
ATOM     12  C   LIG d   1      12.310   6.552  -1.859  0.00  0.00     0.053 C 
ATOM     13  C   LIG d   1      11.618   7.856  -2.219  0.00  0.00    -0.100 C 
ATOM     14  O   LIG d   1      11.847   8.890  -1.639  0.00  0.00    -0.875 OA
ATOM     15  O   LIG d   1      10.970   7.854  -5.603  0.00  0.00    -0.458 OA
ATOM     16  O   LIG d   1       9.214  12.384  -6.216  0.00  0.00    -0.873 OA
ATOM     17  H   LIG d   1      12.746   5.726  -5.276  0.00  0.00     0.069 H 
ENDROOT
BRANCH   3  18
ATOM     18  C   LIG d   1      10.249  10.103  -7.502  0.00  0.00     0.163 C 
ATOM     19  O   LIG d   1       9.396   9.600  -8.204  0.00  0.00    -0.292 OA
BRANCH  18  20
ATOM     20  C   LIG d   1      11.496  10.675  -8.126  0.00  0.00    -0.001 C 
ATOM     21  H   LIG d   1      12.319  10.641  -7.397  0.00  0.00     0.031 H 
ATOM     22  H   LIG d   1      11.312  11.719  -8.421  0.00  0.00     0.031 H 
ATOM     23  H   LIG d   1      11.767  10.086  -9.013  0.00  0.00     0.031 H 
ENDBRANCH  18  20
ENDBRANCH   3  18
BRANCH   1  24
ATOM     24  C   LIG d   1       8.791  12.597  -3.438  0.00  0.00    -0.037 C 
ATOM     25  H   LIG d   1       8.121  12.311  -2.614  0.00  0.00     0.028 H 
ATOM     26  H   LIG d   1       8.229  13.175  -4.185  0.00  0.00     0.028 H 
ATOM     27  H   LIG d   1       9.615  13.211  -3.044  0.00  0.00     0.028 H 
ENDBRANCH   1  24
BRANCH   6  28
ATOM     28  O   LIG d   1       9.504  10.302  -1.959  0.00  0.00    -0.506 OA
ATOM     29  H   LIG d   1      10.064   9.619  -1.304  0.00  0.00     0.292 HD
ENDBRANCH   6  28
BRANCH   7  30
ATOM     30  C   LIG d   1       9.405   6.935  -2.954  0.00  0.00    -0.045 C 
ATOM     31  H   LIG d   1       9.249   7.006  -1.868  0.00  0.00     0.025 H 
ATOM     32  H   LIG d   1       9.577   5.884  -3.232  0.00  0.00     0.025 H 
ATOM     33  H   LIG d   1       8.514   7.312  -3.478  0.00  0.00     0.025 H 
ENDBRANCH   7  30
BRANCH  12  34
ATOM     34  C   LIG d   1      12.284   6.365  -0.364  0.00  0.00     0.163 C 
ATOM     35  O   LIG d   1      13.262   6.627   0.295  0.00  0.00    -0.292 OA
BRANCH  34  36
ATOM     36  C   LIG d   1      11.037   5.853   0.309  0.00  0.00    -0.001 C 
ATOM     37  H   LIG d   1      11.282   5.515   1.326  0.00  0.00     0.031 H 
ATOM     38  H   LIG d   1      10.628   5.011  -0.268  0.00  0.00     0.031 H 
ATOM     39  H   LIG d   1      10.290   6.659   0.360  0.00  0.00     0.031 H 
ENDBRANCH  34  36
ENDBRANCH  12  34
TORSDOF 7
ENDMDL
MODEL 10
REMARK VINA RESULT:      -4.6     10.549     12.189
REMARK  7 active torsions:
REMARK  status: ('A' for Active; 'I' for Inactive)
REMARK    1  A    between atoms: C_1  and  C_2 
REMARK    2  A    between atoms: C_4  and  C_22 
REMARK    3  A    between atoms: C_7  and  O_8 
REMARK    4  A    between atoms: C_9  and  C_21 
REMARK    5  A    between atoms: C_14  and  C_17 
REMARK    6  A    between atoms: C_17  and  C_19 
REMARK    7  A    between atoms: C_22  and  C_24 
ROOT
ATOM      1  C   LIG d   1      13.119   5.350  -3.227  0.00  0.00    -0.015 A 
ATOM      2  C   LIG d   1      13.122   5.751  -1.903  0.00  0.00    -0.088 A 
ATOM      3  C   LIG d   1      12.279   6.793  -1.481  0.00  0.00     0.052 A 
ATOM      4  C   LIG d   1      11.445   7.446  -2.414  0.00  0.00     0.146 A 
ATOM      5  C   LIG d   1      11.451   7.012  -3.732  0.00  0.00     0.053 A 
ATOM      6  C   LIG d   1      12.283   5.982  -4.139  0.00  0.00     0.127 A 
ATOM      7  C   LIG d   1      10.424   7.854  -4.435  0.00  0.00     0.070 C 
ATOM      8  C   LIG d   1      10.142   8.953  -3.419  0.00  0.00     0.123 C 
ATOM      9  C   LIG d   1       9.707  10.183  -3.771  0.00  0.00     0.025 C 
ATOM     10  C   LIG d   1       9.626  10.551  -5.124  0.00  0.00     0.192 C 
ATOM     11  O   LIG d   1       9.182  11.647  -5.407  0.00  0.00    -0.287 OA
ATOM     12  C   LIG d   1      10.069   9.639  -6.238  0.00  0.00     0.053 C 
ATOM     13  C   LIG d   1      10.950   8.536  -5.675  0.00  0.00    -0.100 C 
ATOM     14  O   LIG d   1      11.999   8.225  -6.186  0.00  0.00    -0.875 OA
ATOM     15  O   LIG d   1      10.585   8.484  -2.250  0.00  0.00    -0.458 OA
ATOM     16  O   LIG d   1      13.935   5.134  -1.010  0.00  0.00    -0.873 OA
ATOM     17  H   LIG d   1       9.413  10.905  -2.995  0.00  0.00     0.069 H 
ENDROOT
BRANCH   3  18
ATOM     18  C   LIG d   1      12.270   7.205  -0.079  0.00  0.00     0.163 C 
ATOM     19  O   LIG d   1      13.101   7.989   0.329  0.00  0.00    -0.292 OA
BRANCH  18  20
ATOM     20  C   LIG d   1      11.227   6.656   0.860  0.00  0.00    -0.001 C 
ATOM     21  H   LIG d   1      11.285   5.558   0.871  0.00  0.00     0.031 H 
ATOM     22  H   LIG d   1      10.228   6.966   0.520  0.00  0.00     0.031 H 
ATOM     23  H   LIG d   1      11.405   7.042   1.874  0.00  0.00     0.031 H 
ENDBRANCH  18  20
ENDBRANCH   3  18
BRANCH   1  24
ATOM     24  C   LIG d   1      14.024   4.233  -3.679  0.00  0.00    -0.037 C 
ATOM     25  H   LIG d   1      13.965   3.401  -2.963  0.00  0.00     0.028 H 
ATOM     26  H   LIG d   1      15.059   4.600  -3.732  0.00  0.00     0.028 H 
ATOM     27  H   LIG d   1      13.707   3.885  -4.674  0.00  0.00     0.028 H 
ENDBRANCH   1  24
BRANCH   6  28
ATOM     28  O   LIG d   1      12.283   5.590  -5.438  0.00  0.00    -0.506 OA
ATOM     29  H   LIG d   1      12.957   6.074  -6.159  0.00  0.00     0.292 HD
ENDBRANCH   6  28
BRANCH   7  30
ATOM     30  C   LIG d   1       9.162   7.045  -4.743  0.00  0.00    -0.045 C 
ATOM     31  H   LIG d   1       9.431   6.153  -5.327  0.00  0.00     0.025 H 
ATOM     32  H   LIG d   1       8.463   7.665  -5.323  0.00  0.00     0.025 H 
ATOM     33  H   LIG d   1       8.686   6.736  -3.801  0.00  0.00     0.025 H 
ENDBRANCH   7  30
BRANCH  12  34
ATOM     34  C   LIG d   1       9.928   9.459  -7.727  0.00  0.00     0.163 C 
ATOM     35  O   LIG d   1      10.526  10.188  -8.483  0.00  0.00    -0.292 OA
BRANCH  34  36
ATOM     36  C   LIG d   1       9.041   8.370  -8.274  0.00  0.00    -0.001 C 
ATOM     37  H   LIG d   1       8.903   7.592  -7.510  0.00  0.00     0.031 H 
ATOM     38  H   LIG d   1       9.510   7.929  -9.166  0.00  0.00     0.031 H 
ATOM     39  H   LIG d   1       8.064   8.796  -8.546  0.00  0.00     0.031 H 
ENDBRANCH  34  36
ENDBRANCH  12  34
TORSDOF 7
ENDMDL
