MODEL 1
REMARK VINA RESULT:      -6.8      0.000      0.000
REMARK  6 active torsions:
REMARK  status: ('A' for Active; 'I' for Inactive)
REMARK    1  A    between atoms: C_1  and  C_2 
REMARK    2  A    between atoms: C_4  and  O_31 
REMARK    3  A    between atoms: C_5  and  C_23 
REMARK    4  A    between atoms: C_11  and  C_12 
REMARK    5  A    between atoms: C_23  and  N_24 
REMARK    6  A    between atoms: N_27  and  C_30 
ROOT
ATOM      1  C   LIG d   1       5.033  -0.784  -3.223  0.00  0.00    -0.033 A 
ATOM      2  C   LIG d   1       6.053  -1.665  -3.000  0.00  0.00    -0.016 A 
ATOM      3  C   LIG d   1       6.589  -2.397  -4.055  0.00  0.00     0.125 A 
ATOM      4  C   LIG d   1       6.103  -2.235  -5.343  0.00  0.00     0.051 A 
ATOM      5  C   LIG d   1       5.066  -1.344  -5.587  0.00  0.00     0.148 A 
ATOM      6  C   LIG d   1       4.530  -0.615  -4.514  0.00  0.00     0.071 A 
ATOM      7  C   LIG d   1       3.464   0.232  -5.078  0.00  0.00     0.232 A 
ATOM      8  O   LIG d   1       2.745   1.021  -4.487  0.00  0.00    -0.283 OA
ATOM      9  C   LIG d   1       3.461  -0.085  -6.512  0.00  0.00     0.179 A 
ATOM     10  C   LIG d   1       2.638   0.455  -7.453  0.00  0.00     0.027 C 
ATOM     11  O   LIG d   1       4.423  -1.012  -6.728  0.00  0.00    -0.451 OA
ATOM     12  H   LIG d   1       6.442  -1.797  -2.000  0.00  0.00     0.066 H 
ATOM     13  H   LIG d   1       1.887   1.205  -7.163  0.00  0.00     0.069 H 
ENDROOT
BRANCH   4  14
ATOM     14  C   LIG d   1       6.696  -3.030  -6.477  0.00  0.00     0.031 C 
ATOM     15  H   LIG d   1       6.933  -2.356  -7.314  0.00  0.00     0.048 H 
ATOM     16  H   LIG d   1       7.616  -3.527  -6.136  0.00  0.00     0.048 H 
BRANCH  14  17
ATOM     17  N   LIG d   1       5.730  -4.042  -6.924  0.00  0.00    -0.288 N 
ATOM     18  C   LIG d   1       5.839  -5.266  -6.118  0.00  0.00     0.040 C 
ATOM     19  C   LIG d   1       4.765  -6.264  -6.561  0.00  0.00    -0.019 C 
ATOM     20  H   LIG d   1       6.835  -5.711  -6.259  0.00  0.00     0.048 H 
ATOM     21  H   LIG d   1       5.694  -5.019  -5.055  0.00  0.00     0.048 H 
ATOM     22  N   LIG d   1       4.937  -6.561  -7.990  0.00  0.00     0.235 N 
ATOM     23  H   LIG d   1       3.768  -5.829  -6.394  0.00  0.00     0.083 H 
ATOM     24  H   LIG d   1       4.862  -7.191  -5.979  0.00  0.00     0.083 H 
ATOM     25  C   LIG d   1       4.829  -5.338  -8.797  0.00  0.00    -0.019 C 
ATOM     26  H   LIG d   1       5.947  -6.974  -8.132  0.00  0.00     0.203 HD
ATOM     27  C   LIG d   1       5.902  -4.341  -8.353  0.00  0.00     0.040 C 
ATOM     28  H   LIG d   1       3.833  -4.891  -8.656  0.00  0.00     0.083 H 
ATOM     29  H   LIG d   1       4.973  -5.583  -9.859  0.00  0.00     0.083 H 
ATOM     30  H   LIG d   1       5.805  -3.412  -8.935  0.00  0.00     0.048 H 
ATOM     31  H   LIG d   1       6.898  -4.775  -8.520  0.00  0.00     0.048 H 
BRANCH  22  32
ATOM     32  C   LIG d   1       3.970  -7.574  -8.437  0.00  0.00    -0.043 C 
ATOM     33  H   LIG d   1       4.389  -8.128  -9.290  0.00  0.00     0.078 H 
ATOM     34  H   LIG d   1       3.037  -7.079  -8.743  0.00  0.00     0.078 H 
ATOM     35  H   LIG d   1       3.763  -8.271  -7.611  0.00  0.00     0.078 H 
ENDBRANCH  22  32
ENDBRANCH  14  17
ENDBRANCH   4  14
BRANCH   3  36
ATOM     36  O   LIG d   1       7.598  -3.274  -3.822  0.00  0.00    -0.506 OA
ATOM     37  H   LIG d   1       7.936  -3.949  -4.622  0.00  0.00     0.292 HD
ENDBRANCH   3  36
BRANCH   1  38
ATOM     38  C   LIG d   1       4.450   0.003  -2.077  0.00  0.00    -0.039 C 
ATOM     39  H   LIG d   1       3.554  -0.510  -1.698  0.00  0.00     0.028 H 
ATOM     40  H   LIG d   1       4.176   1.010  -2.426  0.00  0.00     0.028 H 
ATOM     41  H   LIG d   1       5.195   0.084  -1.272  0.00  0.00     0.028 H 
ENDBRANCH   1  38
BRANCH  10  42
ATOM     42  C   LIG d   1       2.748   0.052  -8.805  0.00  0.00     0.133 A 
ATOM     43  O   LIG d   1       3.766   0.371  -9.634  0.00  0.00    -0.455 OA
ATOM     44  C   LIG d   1       3.558  -0.179 -10.849  0.00  0.00     0.136 A 
ATOM     45  C   LIG d   1       2.337  -0.878 -10.795  0.00  0.00     0.022 A 
ATOM     46  C   LIG d   1       4.281  -0.164 -12.034  0.00  0.00    -0.018 A 
ATOM     47  C   LIG d   1       1.841  -0.714  -9.477  0.00  0.00    -0.009 A 
ATOM     48  C   LIG d   1       1.865  -1.547 -11.930  0.00  0.00    -0.037 A 
ATOM     49  H   LIG d   1       0.921  -1.117  -9.081  0.00  0.00     0.066 H 
ATOM     50  C   LIG d   1       2.594  -1.517 -13.085  0.00  0.00     0.019 A 
ATOM     51  H   LIG d   1       0.930  -2.084 -11.892  0.00  0.00     0.064 H 
ATOM     52  C   LIG d   1       3.799  -0.830 -13.142  0.00  0.00    -0.044 A 
ATOM     53 BR   LIG d   1       1.957  -2.422 -14.619  0.00  0.00    -0.050 Br
ATOM     54  H   LIG d   1       4.364  -0.816 -14.062  0.00  0.00     0.063 H 
ATOM     55  H   LIG d   1       5.220   0.368 -12.089  0.00  0.00     0.066 H 
ENDBRANCH  10  42
TORSDOF 6
ENDMDL
MODEL 2
REMARK VINA RESULT:      -6.4      2.510      3.631
REMARK  6 active torsions:
REMARK  status: ('A' for Active; 'I' for Inactive)
REMARK    1  A    between atoms: C_1  and  C_2 
REMARK    2  A    between atoms: C_4  and  O_31 
REMARK    3  A    between atoms: C_5  and  C_23 
REMARK    4  A    between atoms: C_11  and  C_12 
REMARK    5  A    between atoms: C_23  and  N_24 
REMARK    6  A    between atoms: N_27  and  C_30 
ROOT
ATOM      1  C   LIG d   1       5.119  -0.468  -3.180  0.00  0.00    -0.033 A 
ATOM      2  C   LIG d   1       6.352  -1.022  -2.978  0.00  0.00    -0.016 A 
ATOM      3  C   LIG d   1       7.073  -1.532  -4.054  0.00  0.00     0.125 A 
ATOM      4  C   LIG d   1       6.556  -1.477  -5.338  0.00  0.00     0.051 A 
ATOM      5  C   LIG d   1       5.305  -0.917  -5.560  0.00  0.00     0.148 A 
ATOM      6  C   LIG d   1       4.584  -0.410  -4.467  0.00  0.00     0.071 A 
ATOM      7  C   LIG d   1       3.316   0.109  -5.010  0.00  0.00     0.232 A 
ATOM      8  O   LIG d   1       2.402   0.636  -4.398  0.00  0.00    -0.283 OA
ATOM      9  C   LIG d   1       3.400  -0.149  -6.453  0.00  0.00     0.179 A 
ATOM     10  C   LIG d   1       2.452   0.158  -7.381  0.00  0.00     0.027 C 
ATOM     11  O   LIG d   1       4.588  -0.750  -6.693  0.00  0.00    -0.451 OA
ATOM     12  H   LIG d   1       6.766  -1.066  -1.982  0.00  0.00     0.066 H 
ATOM     13  H   LIG d   1       1.517   0.649  -7.072  0.00  0.00     0.069 H 
ENDROOT
BRANCH   4  14
ATOM     14  C   LIG d   1       7.350  -2.029  -6.494  0.00  0.00     0.031 C 
ATOM     15  H   LIG d   1       8.265  -2.509  -6.115  0.00  0.00     0.048 H 
ATOM     16  H   LIG d   1       6.745  -2.771  -7.035  0.00  0.00     0.048 H 
BRANCH  14  17
ATOM     17  N   LIG d   1       7.713  -0.936  -7.406  0.00  0.00    -0.288 N 
ATOM     18  C   LIG d   1       7.335  -1.257  -8.789  0.00  0.00     0.040 C 
ATOM     19  C   LIG d   1       7.656  -0.064  -9.693  0.00  0.00    -0.019 C 
ATOM     20  H   LIG d   1       7.899  -2.138  -9.129  0.00  0.00     0.048 H 
ATOM     21  H   LIG d   1       6.256  -1.471  -8.834  0.00  0.00     0.048 H 
ATOM     22  N   LIG d   1       9.089   0.246  -9.601  0.00  0.00     0.235 N 
ATOM     23  H   LIG d   1       7.070   0.811  -9.370  0.00  0.00     0.083 H 
ATOM     24  H   LIG d   1       7.400  -0.311 -10.734  0.00  0.00     0.083 H 
ATOM     25  C   LIG d   1       9.468   0.566  -8.218  0.00  0.00    -0.019 C 
ATOM     26  H   LIG d   1       9.650  -0.650  -9.908  0.00  0.00     0.203 HD
ATOM     27  C   LIG d   1       9.147  -0.627  -7.314  0.00  0.00     0.040 C 
ATOM     28  H   LIG d   1       8.904   1.446  -7.876  0.00  0.00     0.083 H 
ATOM     29  H   LIG d   1      10.546   0.780  -8.171  0.00  0.00     0.083 H 
ATOM     30  H   LIG d   1       9.402  -0.380  -6.273  0.00  0.00     0.048 H 
ATOM     31  H   LIG d   1       9.732  -1.500  -7.637  0.00  0.00     0.048 H 
BRANCH  22  32
ATOM     32  C   LIG d   1       9.452   1.339 -10.513  0.00  0.00    -0.043 C 
ATOM     33  H   LIG d   1      10.173   0.971 -11.257  0.00  0.00     0.078 H 
ATOM     34  H   LIG d   1       9.905   2.160  -9.938  0.00  0.00     0.078 H 
ATOM     35  H   LIG d   1       8.549   1.703 -11.024  0.00  0.00     0.078 H 
ENDBRANCH  22  32
ENDBRANCH  14  17
ENDBRANCH   4  14
BRANCH   3  36
ATOM     36  O   LIG d   1       8.294  -2.086  -3.843  0.00  0.00    -0.506 OA
ATOM     37  H   LIG d   1       9.162  -1.744  -4.427  0.00  0.00     0.292 HD
ENDBRANCH   3  36
BRANCH   1  38
ATOM     38  C   LIG d   1       4.338   0.080  -2.012  0.00  0.00    -0.039 C 
ATOM     39  H   LIG d   1       5.024   0.583  -1.315  0.00  0.00     0.028 H 
ATOM     40  H   LIG d   1       3.827  -0.744  -1.494  0.00  0.00     0.028 H 
ATOM     41  H   LIG d   1       3.592   0.802  -2.377  0.00  0.00     0.028 H 
ENDBRANCH   1  38
BRANCH  10  42
ATOM     42  C   LIG d   1       2.669  -0.152  -8.745  0.00  0.00     0.133 A 
ATOM     43  O   LIG d   1       1.971  -1.064  -9.458  0.00  0.00    -0.455 OA
ATOM     44  C   LIG d   1       2.433  -1.106 -10.725  0.00  0.00     0.136 A 
ATOM     45  C   LIG d   1       3.489  -0.179 -10.822  0.00  0.00     0.022 A 
ATOM     46  C   LIG d   1       2.076  -1.849 -11.842  0.00  0.00    -0.018 A 
ATOM     47  C   LIG d   1       3.618   0.417  -9.542  0.00  0.00    -0.009 A 
ATOM     48  C   LIG d   1       4.165  -0.017 -12.038  0.00  0.00    -0.037 A 
ATOM     49  H   LIG d   1       4.330   1.174  -9.254  0.00  0.00     0.066 H 
ATOM     50  C   LIG d   1       3.795  -0.760 -13.123  0.00  0.00     0.019 A 
ATOM     51  H   LIG d   1       4.974   0.693 -12.117  0.00  0.00     0.064 H 
ATOM     52  C   LIG d   1       2.754  -1.674 -13.030  0.00  0.00    -0.044 A 
ATOM     53 BR   LIG d   1       4.708  -0.540 -14.765  0.00  0.00    -0.050 Br
ATOM     54  H   LIG d   1       2.473  -2.255 -13.896  0.00  0.00     0.063 H 
ATOM     55  H   LIG d   1       1.268  -2.564 -11.780  0.00  0.00     0.066 H 
ENDBRANCH  10  42
TORSDOF 6
ENDMDL
MODEL 3
REMARK VINA RESULT:      -6.4      3.636      8.070
REMARK  6 active torsions:
REMARK  status: ('A' for Active; 'I' for Inactive)
REMARK    1  A    between atoms: C_1  and  C_2 
REMARK    2  A    between atoms: C_4  and  O_31 
REMARK    3  A    between atoms: C_5  and  C_23 
REMARK    4  A    between atoms: C_11  and  C_12 
REMARK    5  A    between atoms: C_23  and  N_24 
REMARK    6  A    between atoms: N_27  and  C_30 
ROOT
ATOM      1  C   LIG d   1       3.406  -5.907 -11.249  0.00  0.00    -0.033 A 
ATOM      2  C   LIG d   1       2.540  -5.241 -12.069  0.00  0.00    -0.016 A 
ATOM      3  C   LIG d   1       1.945  -4.057 -11.644  0.00  0.00     0.125 A 
ATOM      4  C   LIG d   1       2.229  -3.536 -10.391  0.00  0.00     0.051 A 
ATOM      5  C   LIG d   1       3.107  -4.202  -9.545  0.00  0.00     0.148 A 
ATOM      6  C   LIG d   1       3.697  -5.398  -9.983  0.00  0.00     0.071 A 
ATOM      7  C   LIG d   1       4.565  -5.860  -8.885  0.00  0.00     0.232 A 
ATOM      8  O   LIG d   1       5.260  -6.861  -8.854  0.00  0.00    -0.283 OA
ATOM      9  C   LIG d   1       4.405  -4.844  -7.836  0.00  0.00     0.179 A 
ATOM     10  C   LIG d   1       5.016  -4.842  -6.620  0.00  0.00     0.027 C 
ATOM     11  O   LIG d   1       3.539  -3.912  -8.299  0.00  0.00    -0.451 OA
ATOM     12  H   LIG d   1       2.314  -5.635 -13.049  0.00  0.00     0.066 H 
ATOM     13  H   LIG d   1       5.704  -5.655  -6.347  0.00  0.00     0.069 H 
ENDROOT
BRANCH   4  14
ATOM     14  C   LIG d   1       1.582  -2.251  -9.945  0.00  0.00     0.031 C 
ATOM     15  H   LIG d   1       0.864  -1.917 -10.709  0.00  0.00     0.048 H 
ATOM     16  H   LIG d   1       1.055  -2.415  -8.994  0.00  0.00     0.048 H 
BRANCH  14  17
ATOM     17  N   LIG d   1       2.614  -1.221  -9.760  0.00  0.00    -0.288 N 
ATOM     18  C   LIG d   1       2.394  -0.473  -8.515  0.00  0.00     0.040 C 
ATOM     19  C   LIG d   1       3.531   0.533  -8.319  0.00  0.00    -0.019 C 
ATOM     20  H   LIG d   1       1.435   0.062  -8.571  0.00  0.00     0.048 H 
ATOM     21  H   LIG d   1       2.374  -1.174  -7.665  0.00  0.00     0.048 H 
ATOM     22  N   LIG d   1       3.581   1.442  -9.473  0.00  0.00     0.235 N 
ATOM     23  H   LIG d   1       4.488  -0.005  -8.234  0.00  0.00     0.083 H 
ATOM     24  H   LIG d   1       3.356   1.114  -7.402  0.00  0.00     0.083 H 
ATOM     25  C   LIG d   1       3.800   0.695 -10.719  0.00  0.00    -0.019 C 
ATOM     26  H   LIG d   1       2.608   1.950  -9.547  0.00  0.00     0.203 HD
ATOM     27  C   LIG d   1       2.663  -0.311 -10.914  0.00  0.00     0.040 C 
ATOM     28  H   LIG d   1       4.758   0.158 -10.663  0.00  0.00     0.083 H 
ATOM     29  H   LIG d   1       3.820   1.394 -11.568  0.00  0.00     0.083 H 
ATOM     30  H   LIG d   1       2.839  -0.893 -11.831  0.00  0.00     0.048 H 
ATOM     31  H   LIG d   1       1.708   0.226 -10.999  0.00  0.00     0.048 H 
BRANCH  22  32
ATOM     32  C   LIG d   1       4.613   2.471  -9.288  0.00  0.00    -0.043 C 
ATOM     33  H   LIG d   1       4.544   2.879  -8.268  0.00  0.00     0.078 H 
ATOM     34  H   LIG d   1       4.458   3.280 -10.017  0.00  0.00     0.078 H 
ATOM     35  H   LIG d   1       5.607   2.025  -9.439  0.00  0.00     0.078 H 
ENDBRANCH  22  32
ENDBRANCH  14  17
ENDBRANCH   4  14
BRANCH   3  36
ATOM     36  O   LIG d   1       1.082  -3.404 -12.463  0.00  0.00    -0.506 OA
ATOM     37  H   LIG d   1       0.359  -3.973 -13.067  0.00  0.00     0.292 HD
ENDBRANCH   3  36
BRANCH   1  38
ATOM     38  C   LIG d   1       4.045  -7.193 -11.710  0.00  0.00    -0.039 C 
ATOM     39  H   LIG d   1       4.900  -6.963 -12.363  0.00  0.00     0.028 H 
ATOM     40  H   LIG d   1       3.308  -7.789 -12.268  0.00  0.00     0.028 H 
ATOM     41  H   LIG d   1       4.392  -7.763 -10.837  0.00  0.00     0.028 H 
ENDBRANCH   1  38
BRANCH  10  42
ATOM     42  C   LIG d   1       4.765  -3.793  -5.703  0.00  0.00     0.133 A 
ATOM     43  O   LIG d   1       4.452  -3.954  -4.399  0.00  0.00    -0.455 OA
ATOM     44  C   LIG d   1       4.283  -2.749  -3.815  0.00  0.00     0.136 A 
ATOM     45  C   LIG d   1       4.488  -1.767  -4.803  0.00  0.00     0.022 A 
ATOM     46  C   LIG d   1       3.962  -2.357  -2.523  0.00  0.00    -0.018 A 
ATOM     47  C   LIG d   1       4.795  -2.462  -6.000  0.00  0.00    -0.009 A 
ATOM     48  C   LIG d   1       4.367  -0.411  -4.475  0.00  0.00    -0.037 A 
ATOM     49  H   LIG d   1       5.011  -2.022  -6.962  0.00  0.00     0.066 H 
ATOM     50  C   LIG d   1       4.050  -0.050  -3.196  0.00  0.00     0.019 A 
ATOM     51  H   LIG d   1       4.525   0.344  -5.229  0.00  0.00     0.064 H 
ATOM     52  C   LIG d   1       3.848  -1.016  -2.219  0.00  0.00    -0.044 A 
ATOM     53 BR   LIG d   1       3.888   1.781  -2.752  0.00  0.00    -0.050 Br
ATOM     54  H   LIG d   1       3.598  -0.715  -1.213  0.00  0.00     0.063 H 
ATOM     55  H   LIG d   1       3.802  -3.100  -1.755  0.00  0.00     0.066 H 
ENDBRANCH  10  42
TORSDOF 6
ENDMDL
MODEL 4
REMARK VINA RESULT:      -6.0      7.839     10.499
REMARK  6 active torsions:
REMARK  status: ('A' for Active; 'I' for Inactive)
REMARK    1  A    between atoms: C_1  and  C_2 
REMARK    2  A    between atoms: C_4  and  O_31 
REMARK    3  A    between atoms: C_5  and  C_23 
REMARK    4  A    between atoms: C_11  and  C_12 
REMARK    5  A    between atoms: C_23  and  N_24 
REMARK    6  A    between atoms: N_27  and  C_30 
ROOT
ATOM      1  C   LIG d   1      11.487   5.705  -7.927  0.00  0.00    -0.033 A 
ATOM      2  C   LIG d   1      11.498   6.890  -7.248  0.00  0.00    -0.016 A 
ATOM      3  C   LIG d   1      10.714   7.050  -6.108  0.00  0.00     0.125 A 
ATOM      4  C   LIG d   1       9.925   6.009  -5.645  0.00  0.00     0.051 A 
ATOM      5  C   LIG d   1       9.903   4.798  -6.324  0.00  0.00     0.148 A 
ATOM      6  C   LIG d   1      10.693   4.650  -7.475  0.00  0.00     0.071 A 
ATOM      7  C   LIG d   1      10.462   3.280  -7.965  0.00  0.00     0.232 A 
ATOM      8  O   LIG d   1      10.956   2.743  -8.943  0.00  0.00    -0.283 OA
ATOM      9  C   LIG d   1       9.505   2.704  -7.012  0.00  0.00     0.179 A 
ATOM     10  C   LIG d   1       8.988   1.445  -7.053  0.00  0.00     0.027 C 
ATOM     11  O   LIG d   1       9.229   3.652  -6.086  0.00  0.00    -0.451 OA
ATOM     12  H   LIG d   1      12.112   7.707  -7.598  0.00  0.00     0.066 H 
ATOM     13  H   LIG d   1       9.284   0.754  -7.856  0.00  0.00     0.069 H 
ENDROOT
BRANCH   4  14
ATOM     14  C   LIG d   1       9.086   6.194  -4.407  0.00  0.00     0.031 C 
ATOM     15  H   LIG d   1       8.569   7.164  -4.456  0.00  0.00     0.048 H 
ATOM     16  H   LIG d   1       8.343   5.386  -4.342  0.00  0.00     0.048 H 
BRANCH  14  17
ATOM     17  N   LIG d   1       9.951   6.160  -3.220  0.00  0.00    -0.288 N 
ATOM     18  C   LIG d   1      10.111   4.786  -2.725  0.00  0.00     0.040 C 
ATOM     19  C   LIG d   1      11.080   4.783  -1.539  0.00  0.00    -0.019 C 
ATOM     20  H   LIG d   1       9.135   4.395  -2.403  0.00  0.00     0.048 H 
ATOM     21  H   LIG d   1      10.514   4.151  -3.529  0.00  0.00     0.048 H 
ATOM     22  N   LIG d   1      10.559   5.663  -0.483  0.00  0.00     0.235 N 
ATOM     23  H   LIG d   1      12.065   5.149  -1.867  0.00  0.00     0.083 H 
ATOM     24  H   LIG d   1      11.180   3.760  -1.148  0.00  0.00     0.083 H 
ATOM     25  C   LIG d   1      10.397   7.037  -0.977  0.00  0.00    -0.019 C 
ATOM     26  H   LIG d   1       9.567   5.288  -0.188  0.00  0.00     0.203 HD
ATOM     27  C   LIG d   1       9.429   7.039  -2.163  0.00  0.00     0.040 C 
ATOM     28  H   LIG d   1      11.373   7.429  -1.300  0.00  0.00     0.083 H 
ATOM     29  H   LIG d   1       9.995   7.672  -0.175  0.00  0.00     0.083 H 
ATOM     30  H   LIG d   1       9.329   8.062  -2.555  0.00  0.00     0.048 H 
ATOM     31  H   LIG d   1       8.445   6.675  -1.835  0.00  0.00     0.048 H 
BRANCH  22  32
ATOM     32  C   LIG d   1      11.423   5.628   0.705  0.00  0.00    -0.043 C 
ATOM     33  H   LIG d   1      12.460   5.426   0.397  0.00  0.00     0.078 H 
ATOM     34  H   LIG d   1      11.081   4.834   1.384  0.00  0.00     0.078 H 
ATOM     35  H   LIG d   1      11.375   6.599   1.220  0.00  0.00     0.078 H 
ENDBRANCH  22  32
ENDBRANCH  14  17
ENDBRANCH   4  14
BRANCH   3  36
ATOM     36  O   LIG d   1      10.727   8.233  -5.444  0.00  0.00    -0.506 OA
ATOM     37  H   LIG d   1       9.980   8.432  -4.661  0.00  0.00     0.292 HD
ENDBRANCH   3  36
BRANCH   1  38
ATOM     38  C   LIG d   1      12.333   5.536  -9.165  0.00  0.00    -0.039 C 
ATOM     39  H   LIG d   1      12.779   6.504  -9.438  0.00  0.00     0.028 H 
ATOM     40  H   LIG d   1      11.704   5.176  -9.992  0.00  0.00     0.028 H 
ATOM     41  H   LIG d   1      13.131   4.806  -8.966  0.00  0.00     0.028 H 
ENDBRANCH   1  38
BRANCH  10  42
ATOM     42  C   LIG d   1       8.069   1.024  -6.062  0.00  0.00     0.133 A 
ATOM     43  O   LIG d   1       7.707   1.743  -4.977  0.00  0.00    -0.455 OA
ATOM     44  C   LIG d   1       6.813   1.049  -4.243  0.00  0.00     0.136 A 
ATOM     45  C   LIG d   1       6.599  -0.183  -4.890  0.00  0.00     0.022 A 
ATOM     46  C   LIG d   1       6.136   1.323  -3.062  0.00  0.00    -0.018 A 
ATOM     47  C   LIG d   1       7.414  -0.172  -6.050  0.00  0.00    -0.009 A 
ATOM     48  C   LIG d   1       5.712  -1.116  -4.339  0.00  0.00    -0.037 A 
ATOM     49  H   LIG d   1       7.501  -0.960  -6.783  0.00  0.00     0.066 H 
ATOM     50  C   LIG d   1       5.058  -0.823  -3.175  0.00  0.00     0.019 A 
ATOM     51  H   LIG d   1       5.545  -2.061  -4.832  0.00  0.00     0.064 H 
ATOM     52  C   LIG d   1       5.266   0.392  -2.536  0.00  0.00    -0.044 A 
ATOM     53 BR   LIG d   1       3.860  -2.083  -2.432  0.00  0.00    -0.050 Br
ATOM     54  H   LIG d   1       4.742   0.609  -1.617  0.00  0.00     0.063 H 
ATOM     55  H   LIG d   1       6.291   2.266  -2.556  0.00  0.00     0.066 H 
ENDBRANCH  10  42
TORSDOF 6
ENDMDL
MODEL 5
REMARK VINA RESULT:      -5.9     10.631     11.973
REMARK  6 active torsions:
REMARK  status: ('A' for Active; 'I' for Inactive)
REMARK    1  A    between atoms: C_1  and  C_2 
REMARK    2  A    between atoms: C_4  and  O_31 
REMARK    3  A    between atoms: C_5  and  C_23 
REMARK    4  A    between atoms: C_11  and  C_12 
REMARK    5  A    between atoms: C_23  and  N_24 
REMARK    6  A    between atoms: N_27  and  C_30 
ROOT
ATOM      1  C   LIG d   1      10.711   9.648  -0.154  0.00  0.00    -0.033 A 
ATOM      2  C   LIG d   1      11.397   8.627   0.441  0.00  0.00    -0.016 A 
ATOM      3  C   LIG d   1      11.877   7.568  -0.325  0.00  0.00     0.125 A 
ATOM      4  C   LIG d   1      11.673   7.540  -1.695  0.00  0.00     0.051 A 
ATOM      5  C   LIG d   1      10.978   8.570  -2.315  0.00  0.00     0.148 A 
ATOM      6  C   LIG d   1      10.495   9.631  -1.533  0.00  0.00     0.071 A 
ATOM      7  C   LIG d   1       9.812  10.552  -2.458  0.00  0.00     0.232 A 
ATOM      8  O   LIG d   1       9.251  11.602  -2.188  0.00  0.00    -0.283 OA
ATOM      9  C   LIG d   1       9.957   9.925  -3.778  0.00  0.00     0.179 A 
ATOM     10  C   LIG d   1       9.482  10.413  -4.957  0.00  0.00     0.027 C 
ATOM     11  O   LIG d   1      10.648   8.773  -3.609  0.00  0.00    -0.451 OA
ATOM     12  H   LIG d   1      11.565   8.640   1.508  0.00  0.00     0.066 H 
ATOM     13  H   LIG d   1       8.930  11.364  -4.977  0.00  0.00     0.069 H 
ENDROOT
BRANCH   4  14
ATOM     14  C   LIG d   1      12.203   6.390  -2.512  0.00  0.00     0.031 C 
ATOM     15  H   LIG d   1      12.839   6.776  -3.322  0.00  0.00     0.048 H 
ATOM     16  H   LIG d   1      12.794   5.723  -1.868  0.00  0.00     0.048 H 
BRANCH  14  17
ATOM     17  N   LIG d   1      11.078   5.640  -3.088  0.00  0.00    -0.288 N 
ATOM     18  C   LIG d   1      10.970   4.305  -2.484  0.00  0.00     0.040 C 
ATOM     19  C   LIG d   1       9.742   3.588  -3.052  0.00  0.00    -0.019 C 
ATOM     20  H   LIG d   1      11.875   3.723  -2.713  0.00  0.00     0.048 H 
ATOM     21  H   LIG d   1      10.864   4.405  -1.393  0.00  0.00     0.048 H 
ATOM     22  N   LIG d   1       9.868   3.493  -4.513  0.00  0.00     0.235 N 
ATOM     23  H   LIG d   1       8.834   4.156  -2.799  0.00  0.00     0.083 H 
ATOM     24  H   LIG d   1       9.674   2.578  -2.623  0.00  0.00     0.083 H 
ATOM     25  C   LIG d   1       9.977   4.827  -5.119  0.00  0.00    -0.019 C 
ATOM     26  H   LIG d   1      10.792   2.940  -4.739  0.00  0.00     0.203 HD
ATOM     27  C   LIG d   1      11.204   5.543  -4.550  0.00  0.00     0.040 C 
ATOM     28  H   LIG d   1       9.073   5.410  -4.889  0.00  0.00     0.083 H 
ATOM     29  H   LIG d   1      10.083   4.729  -6.209  0.00  0.00     0.083 H 
ATOM     30  H   LIG d   1      11.272   6.554  -4.979  0.00  0.00     0.048 H 
ATOM     31  H   LIG d   1      12.111   4.976  -4.804  0.00  0.00     0.048 H 
BRANCH  22  32
ATOM     32  C   LIG d   1       8.743   2.743  -5.090  0.00  0.00    -0.043 C 
ATOM     33  H   LIG d   1       8.837   1.680  -4.824  0.00  0.00     0.078 H 
ATOM     34  H   LIG d   1       8.755   2.850  -6.185  0.00  0.00     0.078 H 
ATOM     35  H   LIG d   1       7.797   3.139  -4.692  0.00  0.00     0.078 H 
ENDBRANCH  22  32
ENDBRANCH  14  17
ENDBRANCH   4  14
BRANCH   3  36
ATOM     36  O   LIG d   1      12.552   6.556   0.276  0.00  0.00    -0.506 OA
ATOM     37  H   LIG d   1      12.179   5.524   0.201  0.00  0.00     0.292 HD
ENDBRANCH   3  36
BRANCH   1  38
ATOM     38  C   LIG d   1      10.188  10.792   0.677  0.00  0.00    -0.039 C 
ATOM     39  H   LIG d   1      10.926  11.607   0.685  0.00  0.00     0.028 H 
ATOM     40  H   LIG d   1      10.012  10.446   1.707  0.00  0.00     0.028 H 
ATOM     41  H   LIG d   1       9.244  11.156   0.247  0.00  0.00     0.028 H 
ENDBRANCH   1  38
BRANCH  10  42
ATOM     42  C   LIG d   1       9.698   9.696  -6.158  0.00  0.00     0.133 A 
ATOM     43  O   LIG d   1      10.521  10.079  -7.159  0.00  0.00    -0.455 OA
ATOM     44  C   LIG d   1      10.493   9.166  -8.151  0.00  0.00     0.136 A 
ATOM     45  C   LIG d   1       9.596   8.150  -7.768  0.00  0.00     0.022 A 
ATOM     46  C   LIG d   1      11.139   9.076  -9.377  0.00  0.00    -0.018 A 
ATOM     47  C   LIG d   1       9.103   8.515  -6.490  0.00  0.00    -0.009 A 
ATOM     48  C   LIG d   1       9.365   7.065  -8.621  0.00  0.00    -0.037 A 
ATOM     49  H   LIG d   1       8.392   7.963  -5.893  0.00  0.00     0.066 H 
ATOM     50  C   LIG d   1      10.013   6.999  -9.823  0.00  0.00     0.019 A 
ATOM     51  H   LIG d   1       8.679   6.284  -8.331  0.00  0.00     0.064 H 
ATOM     52  C   LIG d   1      10.898   7.998 -10.203  0.00  0.00    -0.044 A 
ATOM     53 BR   LIG d   1       9.700   5.532 -10.976  0.00  0.00    -0.050 Br
ATOM     54  H   LIG d   1      11.402   7.932 -11.156  0.00  0.00     0.063 H 
ATOM     55  H   LIG d   1      11.830   9.848  -9.683  0.00  0.00     0.066 H 
ENDBRANCH  10  42
TORSDOF 6
ENDMDL
MODEL 6
REMARK VINA RESULT:      -5.8      4.140      6.014
REMARK  6 active torsions:
REMARK  status: ('A' for Active; 'I' for Inactive)
REMARK    1  A    between atoms: C_1  and  C_2 
REMARK    2  A    between atoms: C_4  and  O_31 
REMARK    3  A    between atoms: C_5  and  C_23 
REMARK    4  A    between atoms: C_11  and  C_12 
REMARK    5  A    between atoms: C_23  and  N_24 
REMARK    6  A    between atoms: N_27  and  C_30 
ROOT
ATOM      1  C   LIG d   1       3.983  -1.231  -3.049  0.00  0.00    -0.033 A 
ATOM      2  C   LIG d   1       2.684  -1.005  -3.410  0.00  0.00    -0.016 A 
ATOM      3  C   LIG d   1       2.395  -0.310  -4.580  0.00  0.00     0.125 A 
ATOM      4  C   LIG d   1       3.415   0.153  -5.396  0.00  0.00     0.051 A 
ATOM      5  C   LIG d   1       4.740  -0.068  -5.044  0.00  0.00     0.148 A 
ATOM      6  C   LIG d   1       5.021  -0.767  -3.858  0.00  0.00     0.071 A 
ATOM      7  C   LIG d   1       6.489  -0.843  -3.758  0.00  0.00     0.232 A 
ATOM      8  O   LIG d   1       7.151  -1.367  -2.878  0.00  0.00    -0.283 OA
ATOM      9  C   LIG d   1       6.977  -0.145  -4.955  0.00  0.00     0.179 A 
ATOM     10  C   LIG d   1       8.280   0.044  -5.300  0.00  0.00     0.027 C 
ATOM     11  O   LIG d   1       5.896   0.276  -5.652  0.00  0.00    -0.451 OA
ATOM     12  H   LIG d   1       1.881  -1.365  -2.783  0.00  0.00     0.066 H 
ATOM     13  H   LIG d   1       9.083  -0.344  -4.655  0.00  0.00     0.069 H 
ENDROOT
BRANCH   4  14
ATOM     14  C   LIG d   1       3.086   0.900  -6.662  0.00  0.00     0.031 C 
ATOM     15  H   LIG d   1       2.001   1.068  -6.718  0.00  0.00     0.048 H 
ATOM     16  H   LIG d   1       3.607   1.868  -6.664  0.00  0.00     0.048 H 
BRANCH  14  17
ATOM     17  N   LIG d   1       3.519   0.110  -7.823  0.00  0.00    -0.288 N 
ATOM     18  C   LIG d   1       4.282   0.938  -8.768  0.00  0.00     0.040 C 
ATOM     19  C   LIG d   1       4.781   0.063  -9.921  0.00  0.00    -0.019 C 
ATOM     20  H   LIG d   1       3.635   1.734  -9.164  0.00  0.00     0.048 H 
ATOM     21  H   LIG d   1       5.142   1.388  -8.249  0.00  0.00     0.048 H 
ATOM     22  N   LIG d   1       3.632  -0.568 -10.586  0.00  0.00     0.235 N 
ATOM     23  H   LIG d   1       5.451  -0.717  -9.528  0.00  0.00     0.083 H 
ATOM     24  H   LIG d   1       5.329   0.684 -10.644  0.00  0.00     0.083 H 
ATOM     25  C   LIG d   1       2.869  -1.395  -9.642  0.00  0.00    -0.019 C 
ATOM     26  H   LIG d   1       2.970   0.232 -10.951  0.00  0.00     0.203 HD
ATOM     27  C   LIG d   1       2.370  -0.520  -8.490  0.00  0.00     0.040 C 
ATOM     28  H   LIG d   1       3.515  -2.191  -9.245  0.00  0.00     0.083 H 
ATOM     29  H   LIG d   1       2.009  -1.845 -10.159  0.00  0.00     0.083 H 
ATOM     30  H   LIG d   1       1.823  -1.142  -7.765  0.00  0.00     0.048 H 
ATOM     31  H   LIG d   1       1.701   0.259  -8.882  0.00  0.00     0.048 H 
BRANCH  22  32
ATOM     32  C   LIG d   1       4.065  -1.357 -11.748  0.00  0.00    -0.043 C 
ATOM     33  H   LIG d   1       3.977  -0.747 -12.659  0.00  0.00     0.078 H 
ATOM     34  H   LIG d   1       3.429  -2.249 -11.841  0.00  0.00     0.078 H 
ATOM     35  H   LIG d   1       5.112  -1.665 -11.611  0.00  0.00     0.078 H 
ENDBRANCH  22  32
ENDBRANCH  14  17
ENDBRANCH   4  14
BRANCH   3  36
ATOM     36  O   LIG d   1       1.102  -0.085  -4.926  0.00  0.00    -0.506 OA
ATOM     37  H   LIG d   1       0.288  -0.513  -4.323  0.00  0.00     0.292 HD
ENDBRANCH   3  36
BRANCH   1  38
ATOM     38  C   LIG d   1       4.295  -1.981  -1.778  0.00  0.00    -0.039 C 
ATOM     39  H   LIG d   1       3.470  -2.671  -1.548  0.00  0.00     0.028 H 
ATOM     40  H   LIG d   1       4.417  -1.265  -0.952  0.00  0.00     0.028 H 
ATOM     41  H   LIG d   1       5.225  -2.552  -1.909  0.00  0.00     0.028 H 
ENDBRANCH   1  38
BRANCH  10  42
ATOM     42  C   LIG d   1       8.604   0.739  -6.490  0.00  0.00     0.133 A 
ATOM     43  O   LIG d   1       8.886   0.162  -7.679  0.00  0.00    -0.455 OA
ATOM     44  C   LIG d   1       9.147   1.114  -8.600  0.00  0.00     0.136 A 
ATOM     45  C   LIG d   1       9.034   2.364  -7.962  0.00  0.00     0.022 A 
ATOM     46  C   LIG d   1       9.482   1.065  -9.946  0.00  0.00    -0.018 A 
ATOM     47  C   LIG d   1       8.687   2.095  -6.614  0.00  0.00    -0.009 A 
ATOM     48  C   LIG d   1       9.261   3.540  -8.687  0.00  0.00    -0.037 A 
ATOM     49  H   LIG d   1       8.519   2.823  -5.835  0.00  0.00     0.066 H 
ATOM     50  C   LIG d   1       9.590   3.466 -10.011  0.00  0.00     0.019 A 
ATOM     51  H   LIG d   1       9.175   4.500  -8.201  0.00  0.00     0.064 H 
ATOM     52  C   LIG d   1       9.701   2.235 -10.643  0.00  0.00    -0.044 A 
ATOM     53 BR   LIG d   1       9.896   5.055 -10.990  0.00  0.00    -0.050 Br
ATOM     54  H   LIG d   1       9.962   2.193 -11.690  0.00  0.00     0.063 H 
ATOM     55  H   LIG d   1       9.571   0.112 -10.448  0.00  0.00     0.066 H 
ENDBRANCH  10  42
TORSDOF 6
ENDMDL
MODEL 7
REMARK VINA RESULT:      -5.8      3.382      7.397
REMARK  6 active torsions:
REMARK  status: ('A' for Active; 'I' for Inactive)
REMARK    1  A    between atoms: C_1  and  C_2 
REMARK    2  A    between atoms: C_4  and  O_31 
REMARK    3  A    between atoms: C_5  and  C_23 
REMARK    4  A    between atoms: C_11  and  C_12 
REMARK    5  A    between atoms: C_23  and  N_24 
REMARK    6  A    between atoms: N_27  and  C_30 
ROOT
ATOM      1  C   LIG d   1       1.922  -0.852 -10.338  0.00  0.00    -0.033 A 
ATOM      2  C   LIG d   1       2.417   0.320  -9.840  0.00  0.00    -0.016 A 
ATOM      3  C   LIG d   1       3.422   0.302  -8.877  0.00  0.00     0.125 A 
ATOM      4  C   LIG d   1       3.936  -0.900  -8.419  0.00  0.00     0.051 A 
ATOM      5  C   LIG d   1       3.444  -2.101  -8.914  0.00  0.00     0.148 A 
ATOM      6  C   LIG d   1       2.427  -2.070  -9.882  0.00  0.00     0.071 A 
ATOM      7  C   LIG d   1       2.119  -3.474 -10.206  0.00  0.00     0.232 A 
ATOM      8  O   LIG d   1       1.295  -3.894 -11.001  0.00  0.00    -0.283 OA
ATOM      9  C   LIG d   1       3.028  -4.257  -9.357  0.00  0.00     0.179 A 
ATOM     10  C   LIG d   1       3.111  -5.615  -9.307  0.00  0.00     0.027 C 
ATOM     11  O   LIG d   1       3.766  -3.382  -8.634  0.00  0.00    -0.451 OA
ATOM     12  H   LIG d   1       2.026   1.263 -10.193  0.00  0.00     0.066 H 
ATOM     13  H   LIG d   1       2.458  -6.231  -9.942  0.00  0.00     0.069 H 
ENDROOT
BRANCH   4  14
ATOM     14  C   LIG d   1       5.027  -0.905  -7.379  0.00  0.00     0.031 C 
ATOM     15  H   LIG d   1       5.842  -1.569  -7.705  0.00  0.00     0.048 H 
ATOM     16  H   LIG d   1       5.416   0.115  -7.249  0.00  0.00     0.048 H 
BRANCH  14  17
ATOM     17  N   LIG d   1       4.484  -1.387  -6.102  0.00  0.00    -0.288 N 
ATOM     18  C   LIG d   1       4.068  -0.265  -5.249  0.00  0.00     0.040 C 
ATOM     19  C   LIG d   1       3.437  -0.809  -3.965  0.00  0.00    -0.019 C 
ATOM     20  H   LIG d   1       4.945   0.349  -4.996  0.00  0.00     0.048 H 
ATOM     21  H   LIG d   1       3.331   0.351  -5.788  0.00  0.00     0.048 H 
ATOM     22  N   LIG d   1       4.410  -1.663  -3.268  0.00  0.00     0.235 N 
ATOM     23  H   LIG d   1       2.543  -1.401  -4.216  0.00  0.00     0.083 H 
ATOM     24  H   LIG d   1       3.150   0.028  -3.312  0.00  0.00     0.083 H 
ATOM     25  C   LIG d   1       4.827  -2.785  -4.120  0.00  0.00    -0.019 C 
ATOM     26  H   LIG d   1       5.299  -1.054  -3.048  0.00  0.00     0.203 HD
ATOM     27  C   LIG d   1       5.458  -2.240  -5.404  0.00  0.00     0.040 C 
ATOM     28  H   LIG d   1       3.951  -3.400  -4.375  0.00  0.00     0.083 H 
ATOM     29  H   LIG d   1       5.563  -3.401  -3.583  0.00  0.00     0.083 H 
ATOM     30  H   LIG d   1       5.744  -3.078  -6.058  0.00  0.00     0.048 H 
ATOM     31  H   LIG d   1       6.350  -1.650  -5.153  0.00  0.00     0.048 H 
BRANCH  22  32
ATOM     32  C   LIG d   1       3.867  -2.145  -1.991  0.00  0.00    -0.043 C 
ATOM     33  H   LIG d   1       3.065  -1.471  -1.656  0.00  0.00     0.078 H 
ATOM     34  H   LIG d   1       4.668  -2.165  -1.237  0.00  0.00     0.078 H 
ATOM     35  H   LIG d   1       3.463  -3.160  -2.125  0.00  0.00     0.078 H 
ENDBRANCH  22  32
ENDBRANCH  14  17
ENDBRANCH   4  14
BRANCH   3  36
ATOM     36  O   LIG d   1       3.903   1.471  -8.385  0.00  0.00    -0.506 OA
ATOM     37  H   LIG d   1       3.323   2.398  -8.500  0.00  0.00     0.292 HD
ENDBRANCH   3  36
BRANCH   1  38
ATOM     38  C   LIG d   1       0.830  -0.830 -11.377  0.00  0.00    -0.039 C 
ATOM     39  H   LIG d   1       1.053  -0.056 -12.127  0.00  0.00     0.028 H 
ATOM     40  H   LIG d   1      -0.132  -0.606 -10.894  0.00  0.00     0.028 H 
ATOM     41  H   LIG d   1       0.773  -1.812 -11.869  0.00  0.00     0.028 H 
ENDBRANCH   1  38
BRANCH  10  42
ATOM     42  C   LIG d   1       4.038  -6.235  -8.436  0.00  0.00     0.133 A 
ATOM     43  O   LIG d   1       3.815  -6.524  -7.135  0.00  0.00    -0.455 OA
ATOM     44  C   LIG d   1       4.904  -7.115  -6.602  0.00  0.00     0.136 A 
ATOM     45  C   LIG d   1       5.879  -7.199  -7.615  0.00  0.00     0.022 A 
ATOM     46  C   LIG d   1       5.196  -7.603  -5.335  0.00  0.00    -0.018 A 
ATOM     47  C   LIG d   1       5.299  -6.630  -8.776  0.00  0.00    -0.009 A 
ATOM     48  C   LIG d   1       7.126  -7.770  -7.336  0.00  0.00    -0.037 A 
ATOM     49  H   LIG d   1       5.765  -6.528  -9.744  0.00  0.00     0.066 H 
ATOM     50  C   LIG d   1       7.390  -8.242  -6.082  0.00  0.00     0.019 A 
ATOM     51  H   LIG d   1       7.876  -7.837  -8.110  0.00  0.00     0.064 H 
ATOM     52  C   LIG d   1       6.431  -8.162  -5.081  0.00  0.00    -0.044 A 
ATOM     53 BR   LIG d   1       9.076  -9.014  -5.706  0.00  0.00    -0.050 Br
ATOM     54  H   LIG d   1       6.654  -8.540  -4.094  0.00  0.00     0.063 H 
ATOM     55  H   LIG d   1       4.456  -7.545  -4.549  0.00  0.00     0.066 H 
ENDBRANCH  10  42
TORSDOF 6
ENDMDL
MODEL 8
REMARK VINA RESULT:      -5.8      3.312      6.783
REMARK  6 active torsions:
REMARK  status: ('A' for Active; 'I' for Inactive)
REMARK    1  A    between atoms: C_1  and  C_2 
REMARK    2  A    between atoms: C_4  and  O_31 
REMARK    3  A    between atoms: C_5  and  C_23 
REMARK    4  A    between atoms: C_11  and  C_12 
REMARK    5  A    between atoms: C_23  and  N_24 
REMARK    6  A    between atoms: N_27  and  C_30 
ROOT
ATOM      1  C   LIG d   1       3.099   0.772  -8.970  0.00  0.00    -0.033 A 
ATOM      2  C   LIG d   1       2.908   0.593 -10.311  0.00  0.00    -0.016 A 
ATOM      3  C   LIG d   1       3.201  -0.634 -10.901  0.00  0.00     0.125 A 
ATOM      4  C   LIG d   1       3.678  -1.687 -10.138  0.00  0.00     0.051 A 
ATOM      5  C   LIG d   1       3.878  -1.521  -8.773  0.00  0.00     0.148 A 
ATOM      6  C   LIG d   1       3.584  -0.278  -8.190  0.00  0.00     0.071 A 
ATOM      7  C   LIG d   1       3.893  -0.410  -6.755  0.00  0.00     0.232 A 
ATOM      8  O   LIG d   1       3.779   0.439  -5.886  0.00  0.00    -0.283 OA
ATOM      9  C   LIG d   1       4.368  -1.792  -6.605  0.00  0.00     0.179 A 
ATOM     10  C   LIG d   1       4.774  -2.380  -5.446  0.00  0.00     0.027 C 
ATOM     11  O   LIG d   1       4.329  -2.372  -7.826  0.00  0.00    -0.451 OA
ATOM     12  H   LIG d   1       2.533   1.405 -10.915  0.00  0.00     0.066 H 
ATOM     13  H   LIG d   1       4.764  -1.810  -4.505  0.00  0.00     0.069 H 
ENDROOT
BRANCH   4  14
ATOM     14  C   LIG d   1       3.986  -3.011 -10.789  0.00  0.00     0.031 C 
ATOM     15  H   LIG d   1       3.954  -2.898 -11.883  0.00  0.00     0.048 H 
ATOM     16  H   LIG d   1       4.987  -3.346 -10.484  0.00  0.00     0.048 H 
BRANCH  14  17
ATOM     17  N   LIG d   1       2.989  -4.006 -10.371  0.00  0.00    -0.288 N 
ATOM     18  C   LIG d   1       3.566  -5.357 -10.359  0.00  0.00     0.040 C 
ATOM     19  C   LIG d   1       2.522  -6.351  -9.843  0.00  0.00    -0.019 C 
ATOM     20  H   LIG d   1       3.867  -5.637 -11.379  0.00  0.00     0.048 H 
ATOM     21  H   LIG d   1       4.447  -5.374  -9.699  0.00  0.00     0.048 H 
ATOM     22  N   LIG d   1       1.332  -6.298 -10.704  0.00  0.00     0.235 N 
ATOM     23  H   LIG d   1       2.241  -6.088  -8.812  0.00  0.00     0.083 H 
ATOM     24  H   LIG d   1       2.942  -7.367  -9.860  0.00  0.00     0.083 H 
ATOM     25  C   LIG d   1       0.755  -4.947 -10.716  0.00  0.00    -0.019 C 
ATOM     26  H   LIG d   1       1.644  -6.544 -11.730  0.00  0.00     0.203 HD
ATOM     27  C   LIG d   1       1.799  -3.953 -11.232  0.00  0.00     0.040 C 
ATOM     28  H   LIG d   1       0.454  -4.666  -9.696  0.00  0.00     0.083 H 
ATOM     29  H   LIG d   1      -0.125  -4.928 -11.376  0.00  0.00     0.083 H 
ATOM     30  H   LIG d   1       1.379  -2.936 -11.215  0.00  0.00     0.048 H 
ATOM     31  H   LIG d   1       2.079  -4.216 -12.262  0.00  0.00     0.048 H 
BRANCH  22  32
ATOM     32  C   LIG d   1       0.335  -7.293 -10.285  0.00  0.00    -0.043 C 
ATOM     33  H   LIG d   1      -0.573  -6.778  -9.937  0.00  0.00     0.078 H 
ATOM     34  H   LIG d   1       0.747  -7.902  -9.467  0.00  0.00     0.078 H 
ATOM     35  H   LIG d   1       0.086  -7.942 -11.138  0.00  0.00     0.078 H 
ENDBRANCH  22  32
ENDBRANCH  14  17
ENDBRANCH   4  14
BRANCH   3  36
ATOM     36  O   LIG d   1       3.013  -0.801 -12.235  0.00  0.00    -0.506 OA
ATOM     37  H   LIG d   1       3.637  -1.513 -12.794  0.00  0.00     0.292 HD
ENDBRANCH   3  36
BRANCH   1  38
ATOM     38  C   LIG d   1       2.787   2.103  -8.334  0.00  0.00    -0.039 C 
ATOM     39  H   LIG d   1       1.733   2.121  -8.021  0.00  0.00     0.028 H 
ATOM     40  H   LIG d   1       2.968   2.908  -9.061  0.00  0.00     0.028 H 
ATOM     41  H   LIG d   1       3.433   2.249  -7.457  0.00  0.00     0.028 H 
ENDBRANCH   1  38
BRANCH  10  42
ATOM     42  C   LIG d   1       5.209  -3.727  -5.451  0.00  0.00     0.133 A 
ATOM     43  O   LIG d   1       4.400  -4.809  -5.475  0.00  0.00    -0.455 OA
ATOM     44  C   LIG d   1       5.141  -5.936  -5.477  0.00  0.00     0.136 A 
ATOM     45  C   LIG d   1       6.496  -5.553  -5.442  0.00  0.00     0.022 A 
ATOM     46  C   LIG d   1       4.816  -7.286  -5.498  0.00  0.00    -0.018 A 
ATOM     47  C   LIG d   1       6.510  -4.136  -5.426  0.00  0.00    -0.009 A 
ATOM     48  C   LIG d   1       7.497  -6.532  -5.429  0.00  0.00    -0.037 A 
ATOM     49  H   LIG d   1       7.383  -3.502  -5.400  0.00  0.00     0.066 H 
ATOM     50  C   LIG d   1       7.152  -7.854  -5.451  0.00  0.00     0.019 A 
ATOM     51  H   LIG d   1       8.536  -6.242  -5.404  0.00  0.00     0.064 H 
ATOM     52  C   LIG d   1       5.818  -8.234  -5.486  0.00  0.00    -0.044 A 
ATOM     53 BR   LIG d   1       8.505  -9.175  -5.434  0.00  0.00    -0.050 Br
ATOM     54  H   LIG d   1       5.561  -9.284  -5.502  0.00  0.00     0.063 H 
ATOM     55  H   LIG d   1       3.780  -7.593  -5.525  0.00  0.00     0.066 H 
ENDBRANCH  10  42
TORSDOF 6
ENDMDL
MODEL 9
REMARK VINA RESULT:      -5.7     10.306     11.675
REMARK  6 active torsions:
REMARK  status: ('A' for Active; 'I' for Inactive)
REMARK    1  A    between atoms: C_1  and  C_2 
REMARK    2  A    between atoms: C_4  and  O_31 
REMARK    3  A    between atoms: C_5  and  C_23 
REMARK    4  A    between atoms: C_11  and  C_12 
REMARK    5  A    between atoms: C_23  and  N_24 
REMARK    6  A    between atoms: N_27  and  C_30 
ROOT
ATOM      1  C   LIG d   1      10.047   9.143  -1.115  0.00  0.00    -0.033 A 
ATOM      2  C   LIG d   1      10.138   7.973  -0.414  0.00  0.00    -0.016 A 
ATOM      3  C   LIG d   1      10.173   6.756  -1.088  0.00  0.00     0.125 A 
ATOM      4  C   LIG d   1      10.125   6.715  -2.472  0.00  0.00     0.051 A 
ATOM      5  C   LIG d   1      10.033   7.895  -3.199  0.00  0.00     0.148 A 
ATOM      6  C   LIG d   1       9.993   9.117  -2.509  0.00  0.00     0.071 A 
ATOM      7  C   LIG d   1       9.896  10.170  -3.535  0.00  0.00     0.232 A 
ATOM      8  O   LIG d   1       9.838  11.376  -3.363  0.00  0.00    -0.283 OA
ATOM      9  C   LIG d   1       9.886   9.443  -4.811  0.00  0.00     0.179 A 
ATOM     10  C   LIG d   1       9.806   9.998  -6.052  0.00  0.00     0.027 C 
ATOM     11  O   LIG d   1       9.968   8.122  -4.529  0.00  0.00    -0.451 OA
ATOM     12  H   LIG d   1      10.180   7.994   0.665  0.00  0.00     0.066 H 
ATOM     13  H   LIG d   1       9.742  11.091  -6.164  0.00  0.00     0.069 H 
ENDROOT
BRANCH   4  14
ATOM     14  C   LIG d   1      10.169   5.390  -3.189  0.00  0.00     0.031 C 
ATOM     15  H   LIG d   1       9.924   4.583  -2.483  0.00  0.00     0.048 H 
ATOM     16  H   LIG d   1       9.439   5.392  -4.011  0.00  0.00     0.048 H 
BRANCH  14  17
ATOM     17  N   LIG d   1      11.517   5.171  -3.732  0.00  0.00    -0.288 N 
ATOM     18  C   LIG d   1      11.473   4.988  -5.189  0.00  0.00     0.040 C 
ATOM     19  C   LIG d   1      12.900   4.843  -5.726  0.00  0.00    -0.019 C 
ATOM     20  H   LIG d   1      10.896   4.083  -5.429  0.00  0.00     0.048 H 
ATOM     21  H   LIG d   1      10.994   5.863  -5.655  0.00  0.00     0.048 H 
ATOM     22  N   LIG d   1      13.551   3.698  -5.074  0.00  0.00     0.235 N 
ATOM     23  H   LIG d   1      13.469   5.760  -5.510  0.00  0.00     0.083 H 
ATOM     24  H   LIG d   1      12.870   4.678  -6.813  0.00  0.00     0.083 H 
ATOM     25  C   LIG d   1      13.594   3.880  -3.617  0.00  0.00    -0.019 C 
ATOM     26  H   LIG d   1      12.952   2.800  -5.287  0.00  0.00     0.203 HD
ATOM     27  C   LIG d   1      12.168   4.025  -3.081  0.00  0.00     0.040 C 
ATOM     28  H   LIG d   1      14.170   4.785  -3.376  0.00  0.00     0.083 H 
ATOM     29  H   LIG d   1      14.073   3.006  -3.151  0.00  0.00     0.083 H 
ATOM     30  H   LIG d   1      12.198   4.191  -1.994  0.00  0.00     0.048 H 
ATOM     31  H   LIG d   1      11.599   3.109  -3.296  0.00  0.00     0.048 H 
BRANCH  22  32
ATOM     32  C   LIG d   1      14.898   3.479  -5.618  0.00  0.00    -0.043 C 
ATOM     33  H   LIG d   1      15.209   2.443  -5.420  0.00  0.00     0.078 H 
ATOM     34  H   LIG d   1      15.604   4.172  -5.136  0.00  0.00     0.078 H 
ATOM     35  H   LIG d   1      14.889   3.660  -6.703  0.00  0.00     0.078 H 
ENDBRANCH  22  32
ENDBRANCH  14  17
ENDBRANCH   4  14
BRANCH   3  36
ATOM     36  O   LIG d   1      10.258   5.599  -0.383  0.00  0.00    -0.506 OA
ATOM     37  H   LIG d   1      10.504   5.624   0.688  0.00  0.00     0.292 HD
ENDBRANCH   3  36
BRANCH   1  38
ATOM     38  C   LIG d   1      10.004  10.460  -0.383  0.00  0.00    -0.039 C 
ATOM     39  H   LIG d   1      10.286  11.271  -1.071  0.00  0.00     0.028 H 
ATOM     40  H   LIG d   1      10.709  10.434   0.461  0.00  0.00     0.028 H 
ATOM     41  H   LIG d   1       8.986  10.636  -0.006  0.00  0.00     0.028 H 
ENDBRANCH   1  38
BRANCH  10  42
ATOM     42  C   LIG d   1       9.805   9.170  -7.199  0.00  0.00     0.133 A 
ATOM     43  O   LIG d   1       8.909   8.191  -7.455  0.00  0.00    -0.455 OA
ATOM     44  C   LIG d   1       9.197   7.602  -8.634  0.00  0.00     0.136 A 
ATOM     45  C   LIG d   1      10.345   8.231  -9.153  0.00  0.00     0.022 A 
ATOM     46  C   LIG d   1       8.606   6.568  -9.348  0.00  0.00    -0.018 A 
ATOM     47  C   LIG d   1      10.712   9.230  -8.216  0.00  0.00    -0.009 A 
ATOM     48  C   LIG d   1      10.876   7.811 -10.379  0.00  0.00    -0.037 A 
ATOM     49  H   LIG d   1      11.548   9.907  -8.293  0.00  0.00     0.066 H 
ATOM     50  C   LIG d   1      10.277   6.792 -11.063  0.00  0.00     0.019 A 
ATOM     51  H   LIG d   1      11.755   8.292 -10.781  0.00  0.00     0.064 H 
ATOM     52  C   LIG d   1       9.145   6.170 -10.554  0.00  0.00    -0.044 A 
ATOM     53 BR   LIG d   1      10.995   6.225 -12.718  0.00  0.00    -0.050 Br
ATOM     54  H   LIG d   1       8.683   5.365 -11.106  0.00  0.00     0.063 H 
ATOM     55  H   LIG d   1       7.725   6.077  -8.961  0.00  0.00     0.066 H 
ENDBRANCH  10  42
TORSDOF 6
ENDMDL
