MODEL 1
REMARK VINA RESULT:      -5.7      0.000      0.000
REMARK  4 active torsions:
REMARK  status: ('A' for Active; 'I' for Inactive)
REMARK    1  A    between atoms: C_5  and  C_7 
REMARK    2  A    between atoms: C_9  and  C_12 
REMARK    3  A    between atoms: C_12  and  C_13 
REMARK    4  A    between atoms: C_13  and  N_17 
ROOT
ATOM      1  C   LIG d   1       3.307   0.177  -5.518  0.00  0.00     0.185 A 
ATOM      2  C   LIG d   1       3.376  -0.447  -6.725  0.00  0.00     0.010 A 
ATOM      3  C   LIG d   1       2.919   0.450  -7.703  0.00  0.00     0.090 A 
ATOM      4  N   LIG d   1       2.588   1.564  -7.113  0.00  0.00    -0.082 NA
ATOM      5  O   LIG d   1       2.820   1.415  -5.724  0.00  0.00    -0.353 OA
ATOM      6  H   LIG d   1       3.723  -1.454  -6.901  0.00  0.00     0.068 H 
ENDROOT
BRANCH   3   7
ATOM      7  C   LIG d   1       2.826   0.171  -9.181  0.00  0.00     0.043 C 
ATOM      8  H   LIG d   1       3.015  -0.888  -9.363  0.00  0.00     0.039 H 
ATOM      9  H   LIG d   1       1.829   0.428  -9.538  0.00  0.00     0.039 H 
BRANCH   7  10
ATOM     10  C   LIG d   1       3.866   1.010  -9.926  0.00  0.00     0.040 C 
ATOM     11  C   LIG d   1       5.322   0.639  -9.589  0.00  0.00     0.096 C 
ATOM     12  O   LIG d   1       5.560   0.749 -11.006  0.00  0.00    -0.368 OA
ATOM     13  H   LIG d   1       5.842   1.391  -8.994  0.00  0.00     0.062 H 
ATOM     14  H   LIG d   1       5.441  -0.372  -9.199  0.00  0.00     0.062 H 
ATOM     15  C   LIG d   1       4.182   0.493 -11.343  0.00  0.00     0.096 C 
ATOM     16  H   LIG d   1       3.952  -0.562 -11.488  0.00  0.00     0.062 H 
ATOM     17  H   LIG d   1       3.797   1.129 -12.140  0.00  0.00     0.062 H 
BRANCH  10  18
ATOM     18  N   LIG d   1       3.592   2.452  -9.866  0.00  0.00     0.227 N 
ATOM     19  H   LIG d   1       2.783   2.665 -10.430  0.00  0.00     0.200 HD
ATOM     20  H   LIG d   1       3.415   2.720  -8.910  0.00  0.00     0.200 HD
ATOM     21  H   LIG d   1       4.390   2.961 -10.215  0.00  0.00     0.200 HD
ENDBRANCH  10  18
ENDBRANCH   7  10
ENDBRANCH   3   7
BRANCH   1  22
ATOM     22  C   LIG d   1       3.692  -0.404  -4.214  0.00  0.00     0.109 A 
ATOM     23  N   LIG d   1       3.844  -1.717  -4.096  0.00  0.00    -0.252 NA
ATOM     24  C   LIG d   1       4.186  -2.272  -2.952  0.00  0.00     0.028 A 
ATOM     25  C   LIG d   1       4.402  -1.502  -1.824  0.00  0.00    -0.044 A 
ATOM     26  H   LIG d   1       4.302  -3.345  -2.894  0.00  0.00     0.083 H 
ATOM     27  C   LIG d   1       4.253  -0.124  -1.902  0.00  0.00    -0.058 A 
ATOM     28  H   LIG d   1       4.683  -1.967  -0.891  0.00  0.00     0.063 H 
ATOM     29  C   LIG d   1       3.893   0.434  -3.116  0.00  0.00    -0.033 A 
ATOM     30  H   LIG d   1       4.412   0.498  -1.034  0.00  0.00     0.062 H 
ATOM     31  H   LIG d   1       3.769   1.502  -3.212  0.00  0.00     0.064 H 
ENDBRANCH   1  22
TORSDOF 4
ENDMDL
MODEL 2
REMARK VINA RESULT:      -5.7      1.709      6.596
REMARK  4 active torsions:
REMARK  status: ('A' for Active; 'I' for Inactive)
REMARK    1  A    between atoms: C_5  and  C_7 
REMARK    2  A    between atoms: C_9  and  C_12 
REMARK    3  A    between atoms: C_12  and  C_13 
REMARK    4  A    between atoms: C_13  and  N_17 
ROOT
ATOM      1  C   LIG d   1       2.946   0.634  -7.613  0.00  0.00     0.185 A 
ATOM      2  C   LIG d   1       3.062  -0.294  -6.624  0.00  0.00     0.010 A 
ATOM      3  C   LIG d   1       2.840   0.350  -5.398  0.00  0.00     0.090 A 
ATOM      4  N   LIG d   1       2.602   1.610  -5.635  0.00  0.00    -0.082 NA
ATOM      5  O   LIG d   1       2.668   1.817  -7.034  0.00  0.00    -0.353 OA
ATOM      6  H   LIG d   1       3.285  -1.342  -6.760  0.00  0.00     0.068 H 
ENDROOT
BRANCH   3   7
ATOM      7  C   LIG d   1       2.874  -0.302  -4.040  0.00  0.00     0.043 C 
ATOM      8  H   LIG d   1       1.957  -0.063  -3.500  0.00  0.00     0.039 H 
ATOM      9  H   LIG d   1       2.955  -1.383  -4.157  0.00  0.00     0.039 H 
BRANCH   7  10
ATOM     10  C   LIG d   1       4.079   0.217  -3.253  0.00  0.00     0.040 C 
ATOM     11  C   LIG d   1       3.740   1.360  -2.278  0.00  0.00     0.096 C 
ATOM     12  O   LIG d   1       4.589   0.664  -1.344  0.00  0.00    -0.368 OA
ATOM     13  H   LIG d   1       4.127   2.331  -2.586  0.00  0.00     0.062 H 
ATOM     14  H   LIG d   1       2.692   1.391  -1.983  0.00  0.00     0.062 H 
ATOM     15  C   LIG d   1       4.403  -0.610  -1.994  0.00  0.00     0.096 C 
ATOM     16  H   LIG d   1       3.556  -1.180  -1.612  0.00  0.00     0.062 H 
ATOM     17  H   LIG d   1       5.315  -1.200  -2.077  0.00  0.00     0.062 H 
BRANCH  10  18
ATOM     18  N   LIG d   1       5.246   0.489  -4.103  0.00  0.00     0.227 N 
ATOM     19  H   LIG d   1       4.936   0.736  -5.031  0.00  0.00     0.200 HD
ATOM     20  H   LIG d   1       5.777   1.252  -3.711  0.00  0.00     0.200 HD
ATOM     21  H   LIG d   1       5.826  -0.334  -4.151  0.00  0.00     0.200 HD
ENDBRANCH  10  18
ENDBRANCH   7  10
ENDBRANCH   3   7
BRANCH   1  22
ATOM     22  C   LIG d   1       3.102   0.387  -9.062  0.00  0.00     0.109 A 
ATOM     23  N   LIG d   1       4.107   0.950  -9.722  0.00  0.00    -0.252 NA
ATOM     24  C   LIG d   1       4.280   0.755 -11.013  0.00  0.00     0.028 A 
ATOM     25  C   LIG d   1       3.416  -0.050 -11.733  0.00  0.00    -0.044 A 
ATOM     26  H   LIG d   1       5.110   1.229 -11.517  0.00  0.00     0.083 H 
ATOM     27  C   LIG d   1       2.351  -0.659 -11.083  0.00  0.00    -0.058 A 
ATOM     28  H   LIG d   1       3.568  -0.205 -12.791  0.00  0.00     0.063 H 
ATOM     29  C   LIG d   1       2.192  -0.437  -9.726  0.00  0.00    -0.033 A 
ATOM     30  H   LIG d   1       1.661  -1.288 -11.624  0.00  0.00     0.062 H 
ATOM     31  H   LIG d   1       1.375  -0.894  -9.189  0.00  0.00     0.064 H 
ENDBRANCH   1  22
TORSDOF 4
ENDMDL
MODEL 3
REMARK VINA RESULT:      -5.6      1.685      2.091
REMARK  4 active torsions:
REMARK  status: ('A' for Active; 'I' for Inactive)
REMARK    1  A    between atoms: C_5  and  C_7 
REMARK    2  A    between atoms: C_9  and  C_12 
REMARK    3  A    between atoms: C_12  and  C_13 
REMARK    4  A    between atoms: C_13  and  N_17 
ROOT
ATOM      1  C   LIG d   1       3.861  -0.549  -5.742  0.00  0.00     0.185 A 
ATOM      2  C   LIG d   1       3.263   0.311  -6.610  0.00  0.00     0.010 A 
ATOM      3  C   LIG d   1       3.282  -0.277  -7.884  0.00  0.00     0.090 A 
ATOM      4  N   LIG d   1       3.866  -1.438  -7.790  0.00  0.00    -0.082 NA
ATOM      5  O   LIG d   1       4.248  -1.632  -6.440  0.00  0.00    -0.353 OA
ATOM      6  H   LIG d   1       2.847   1.276  -6.363  0.00  0.00     0.068 H 
ENDROOT
BRANCH   3   7
ATOM      7  C   LIG d   1       2.725   0.332  -9.145  0.00  0.00     0.043 C 
ATOM      8  H   LIG d   1       2.376  -0.461  -9.807  0.00  0.00     0.039 H 
ATOM      9  H   LIG d   1       1.893   0.989  -8.896  0.00  0.00     0.039 H 
BRANCH   7  10
ATOM     10  C   LIG d   1       3.819   1.138  -9.850  0.00  0.00     0.040 C 
ATOM     11  C   LIG d   1       3.829   2.632  -9.477  0.00  0.00     0.096 C 
ATOM     12  O   LIG d   1       5.260   2.488  -9.401  0.00  0.00    -0.368 OA
ATOM     13  H   LIG d   1       3.493   3.289 -10.280  0.00  0.00     0.062 H 
ATOM     14  H   LIG d   1       3.356   2.851  -8.520  0.00  0.00     0.062 H 
ATOM     15  C   LIG d   1       5.189   1.070  -9.150  0.00  0.00     0.096 C 
ATOM     16  H   LIG d   1       5.132   0.812  -8.092  0.00  0.00     0.062 H 
ATOM     17  H   LIG d   1       5.934   0.488  -9.693  0.00  0.00     0.062 H 
BRANCH  10  18
ATOM     18  N   LIG d   1       3.875   0.887 -11.296  0.00  0.00     0.227 N 
ATOM     19  H   LIG d   1       3.893   1.767 -11.790  0.00  0.00     0.200 HD
ATOM     20  H   LIG d   1       4.709   0.362 -11.513  0.00  0.00     0.200 HD
ATOM     21  H   LIG d   1       3.063   0.359 -11.578  0.00  0.00     0.200 HD
ENDBRANCH  10  18
ENDBRANCH   7  10
ENDBRANCH   3   7
BRANCH   1  22
ATOM     22  C   LIG d   1       4.056  -0.329  -4.293  0.00  0.00     0.109 A 
ATOM     23  N   LIG d   1       4.193   0.906  -3.826  0.00  0.00    -0.252 NA
ATOM     24  C   LIG d   1       4.368   1.144  -2.543  0.00  0.00     0.028 A 
ATOM     25  C   LIG d   1       4.416   0.108  -1.628  0.00  0.00    -0.044 A 
ATOM     26  H   LIG d   1       4.475   2.163  -2.200  0.00  0.00     0.083 H 
ATOM     27  C   LIG d   1       4.278  -1.200  -2.072  0.00  0.00    -0.058 A 
ATOM     28  H   LIG d   1       4.559   0.313  -0.577  0.00  0.00     0.063 H 
ATOM     29  C   LIG d   1       4.095  -1.422  -3.426  0.00  0.00    -0.033 A 
ATOM     30  H   LIG d   1       4.316  -2.026  -1.378  0.00  0.00     0.062 H 
ATOM     31  H   LIG d   1       3.984  -2.426  -3.806  0.00  0.00     0.064 H 
ENDBRANCH   1  22
TORSDOF 4
ENDMDL
MODEL 4
REMARK VINA RESULT:      -5.6      1.913      2.320
REMARK  4 active torsions:
REMARK  status: ('A' for Active; 'I' for Inactive)
REMARK    1  A    between atoms: C_5  and  C_7 
REMARK    2  A    between atoms: C_9  and  C_12 
REMARK    3  A    between atoms: C_12  and  C_13 
REMARK    4  A    between atoms: C_13  and  N_17 
ROOT
ATOM      1  C   LIG d   1       4.118  -0.052  -5.770  0.00  0.00     0.185 A 
ATOM      2  C   LIG d   1       2.979  -0.042  -6.514  0.00  0.00     0.010 A 
ATOM      3  C   LIG d   1       3.324   0.298  -7.831  0.00  0.00     0.090 A 
ATOM      4  N   LIG d   1       4.614   0.485  -7.880  0.00  0.00    -0.082 NA
ATOM      5  O   LIG d   1       5.140   0.274  -6.583  0.00  0.00    -0.353 OA
ATOM      6  H   LIG d   1       1.983  -0.257  -6.155  0.00  0.00     0.068 H 
ENDROOT
BRANCH   3   7
ATOM      7  C   LIG d   1       2.368   0.426  -8.989  0.00  0.00     0.043 C 
ATOM      8  H   LIG d   1       1.352   0.230  -8.644  0.00  0.00     0.039 H 
ATOM      9  H   LIG d   1       2.424   1.435  -9.397  0.00  0.00     0.039 H 
BRANCH   7  10
ATOM     10  C   LIG d   1       2.742  -0.585 -10.074  0.00  0.00     0.040 C 
ATOM     11  C   LIG d   1       1.598  -0.894 -11.058  0.00  0.00     0.096 C 
ATOM     12  O   LIG d   1       2.606  -0.801 -12.084  0.00  0.00    -0.368 OA
ATOM     13  H   LIG d   1       1.176  -1.893 -10.943  0.00  0.00     0.062 H 
ATOM     14  H   LIG d   1       0.840  -0.113 -11.112  0.00  0.00     0.062 H 
ATOM     15  C   LIG d   1       3.463   0.039 -11.284  0.00  0.00     0.096 C 
ATOM     16  H   LIG d   1       3.274   1.106 -11.408  0.00  0.00     0.062 H 
ATOM     17  H   LIG d   1       4.520  -0.219 -11.350  0.00  0.00     0.062 H 
BRANCH  10  18
ATOM     18  N   LIG d   1       3.405  -1.783  -9.540  0.00  0.00     0.227 N 
ATOM     19  H   LIG d   1       4.113  -1.508  -8.877  0.00  0.00     0.200 HD
ATOM     20  H   LIG d   1       2.723  -2.368  -9.081  0.00  0.00     0.200 HD
ATOM     21  H   LIG d   1       3.833  -2.296 -10.296  0.00  0.00     0.200 HD
ENDBRANCH  10  18
ENDBRANCH   7  10
ENDBRANCH   3   7
BRANCH   1  22
ATOM     22  C   LIG d   1       4.213  -0.361  -4.327  0.00  0.00     0.109 A 
ATOM     23  N   LIG d   1       4.553   0.594  -3.470  0.00  0.00    -0.252 NA
ATOM     24  C   LIG d   1       4.649   0.359  -2.178  0.00  0.00     0.028 A 
ATOM     25  C   LIG d   1       4.397  -0.899  -1.663  0.00  0.00    -0.044 A 
ATOM     26  H   LIG d   1       4.928   1.162  -1.510  0.00  0.00     0.083 H 
ATOM     27  C   LIG d   1       4.038  -1.928  -2.524  0.00  0.00    -0.058 A 
ATOM     28  H   LIG d   1       4.477  -1.081  -0.602  0.00  0.00     0.063 H 
ATOM     29  C   LIG d   1       3.945  -1.654  -3.877  0.00  0.00    -0.033 A 
ATOM     30  H   LIG d   1       3.840  -2.920  -2.146  0.00  0.00     0.062 H 
ATOM     31  H   LIG d   1       3.669  -2.431  -4.575  0.00  0.00     0.064 H 
ENDBRANCH   1  22
TORSDOF 4
ENDMDL
MODEL 5
REMARK VINA RESULT:      -5.4      2.238      6.536
REMARK  4 active torsions:
REMARK  status: ('A' for Active; 'I' for Inactive)
REMARK    1  A    between atoms: C_5  and  C_7 
REMARK    2  A    between atoms: C_9  and  C_12 
REMARK    3  A    between atoms: C_12  and  C_13 
REMARK    4  A    between atoms: C_13  and  N_17 
ROOT
ATOM      1  C   LIG d   1       4.342  -0.234  -7.657  0.00  0.00     0.185 A 
ATOM      2  C   LIG d   1       4.058  -0.805  -6.455  0.00  0.00     0.010 A 
ATOM      3  C   LIG d   1       5.036  -0.391  -5.538  0.00  0.00     0.090 A 
ATOM      4  N   LIG d   1       5.872   0.393  -6.158  0.00  0.00    -0.082 NA
ATOM      5  O   LIG d   1       5.457   0.505  -7.506  0.00  0.00    -0.353 OA
ATOM      6  H   LIG d   1       3.227  -1.461  -6.244  0.00  0.00     0.068 H 
ENDROOT
BRANCH   3   7
ATOM      7  C   LIG d   1       5.107  -0.787  -4.085  0.00  0.00     0.043 C 
ATOM      8  H   LIG d   1       4.321  -1.512  -3.868  0.00  0.00     0.039 H 
ATOM      9  H   LIG d   1       6.079  -1.233  -3.876  0.00  0.00     0.039 H 
BRANCH   7  10
ATOM     10  C   LIG d   1       4.914   0.452  -3.208  0.00  0.00     0.040 C 
ATOM     11  C   LIG d   1       3.513   1.082  -3.320  0.00  0.00     0.096 C 
ATOM     12  O   LIG d   1       3.576   1.202  -1.885  0.00  0.00    -0.368 OA
ATOM     13  H   LIG d   1       3.502   2.039  -3.843  0.00  0.00     0.062 H 
ATOM     14  H   LIG d   1       2.746   0.393  -3.672  0.00  0.00     0.062 H 
ATOM     15  C   LIG d   1       4.528   0.128  -1.752  0.00  0.00     0.096 C 
ATOM     16  H   LIG d   1       4.070  -0.853  -1.625  0.00  0.00     0.062 H 
ATOM     17  H   LIG d   1       5.320   0.327  -1.031  0.00  0.00     0.062 H 
BRANCH  10  18
ATOM     18  N   LIG d   1       6.012   1.420  -3.331  0.00  0.00     0.227 N 
ATOM     19  H   LIG d   1       6.892   0.953  -3.169  0.00  0.00     0.200 HD
ATOM     20  H   LIG d   1       6.007   1.817  -4.258  0.00  0.00     0.200 HD
ATOM     21  H   LIG d   1       5.891   2.154  -2.651  0.00  0.00     0.200 HD
ENDBRANCH  10  18
ENDBRANCH   7  10
ENDBRANCH   3   7
BRANCH   1  22
ATOM     22  C   LIG d   1       3.568  -0.402  -8.906  0.00  0.00     0.109 A 
ATOM     23  N   LIG d   1       4.201  -0.469 -10.070  0.00  0.00    -0.252 NA
ATOM     24  C   LIG d   1       3.547  -0.617 -11.204  0.00  0.00     0.028 A 
ATOM     25  C   LIG d   1       2.168  -0.711 -11.222  0.00  0.00    -0.044 A 
ATOM     26  H   LIG d   1       4.097  -0.669 -12.133  0.00  0.00     0.083 H 
ATOM     27  C   LIG d   1       1.464  -0.645 -10.027  0.00  0.00    -0.058 A 
ATOM     28  H   LIG d   1       1.641  -0.834 -12.157  0.00  0.00     0.063 H 
ATOM     29  C   LIG d   1       2.176  -0.488  -8.850  0.00  0.00    -0.033 A 
ATOM     30  H   LIG d   1       0.387  -0.711 -10.016  0.00  0.00     0.062 H 
ATOM     31  H   LIG d   1       1.661  -0.433  -7.902  0.00  0.00     0.064 H 
ENDBRANCH   1  22
TORSDOF 4
ENDMDL
MODEL 6
REMARK VINA RESULT:      -5.0     10.905     11.918
REMARK  4 active torsions:
REMARK  status: ('A' for Active; 'I' for Inactive)
REMARK    1  A    between atoms: C_5  and  C_7 
REMARK    2  A    between atoms: C_9  and  C_12 
REMARK    3  A    between atoms: C_12  and  C_13 
REMARK    4  A    between atoms: C_13  and  N_17 
ROOT
ATOM      1  C   LIG d   1       9.559   7.828  -1.740  0.00  0.00     0.185 A 
ATOM      2  C   LIG d   1      10.157   8.972  -2.168  0.00  0.00     0.010 A 
ATOM      3  C   LIG d   1       9.553  10.051  -1.505  0.00  0.00     0.090 A 
ATOM      4  N   LIG d   1       8.631   9.579  -0.713  0.00  0.00    -0.082 NA
ATOM      5  O   LIG d   1       8.612   8.170  -0.848  0.00  0.00    -0.353 OA
ATOM      6  H   LIG d   1      10.957   9.039  -2.891  0.00  0.00     0.068 H 
ENDROOT
BRANCH   3   7
ATOM      7  C   LIG d   1       9.907  11.505  -1.680  0.00  0.00     0.043 C 
ATOM      8  H   LIG d   1       9.695  12.044  -0.756  0.00  0.00     0.039 H 
ATOM      9  H   LIG d   1      10.967  11.596  -1.918  0.00  0.00     0.039 H 
BRANCH   7  10
ATOM     10  C   LIG d   1       9.075  12.100  -2.818  0.00  0.00     0.040 C 
ATOM     11  C   LIG d   1       9.099  13.639  -2.868  0.00  0.00     0.096 C 
ATOM     12  O   LIG d   1       9.254  13.478  -4.292  0.00  0.00    -0.368 OA
ATOM     13  H   LIG d   1       8.156  14.103  -2.577  0.00  0.00     0.062 H 
ATOM     14  H   LIG d   1       9.964  14.083  -2.377  0.00  0.00     0.062 H 
ATOM     15  C   LIG d   1       9.819  12.158  -4.167  0.00  0.00     0.096 C 
ATOM     16  H   LIG d   1      10.904  12.150  -4.072  0.00  0.00     0.062 H 
ATOM     17  H   LIG d   1       9.448  11.447  -4.906  0.00  0.00     0.062 H 
BRANCH  10  18
ATOM     18  N   LIG d   1       7.727  11.524  -2.906  0.00  0.00     0.227 N 
ATOM     19  H   LIG d   1       7.795  10.536  -3.099  0.00  0.00     0.200 HD
ATOM     20  H   LIG d   1       7.244  11.664  -2.032  0.00  0.00     0.200 HD
ATOM     21  H   LIG d   1       7.215  11.976  -3.649  0.00  0.00     0.200 HD
ENDBRANCH  10  18
ENDBRANCH   7  10
ENDBRANCH   3   7
BRANCH   1  22
ATOM     22  C   LIG d   1       9.889   6.455  -2.181  0.00  0.00     0.109 A 
ATOM     23  N   LIG d   1      10.618   5.669  -1.400  0.00  0.00    -0.252 NA
ATOM     24  C   LIG d   1      10.933   4.441  -1.757  0.00  0.00     0.028 A 
ATOM     25  C   LIG d   1      10.511   3.922  -2.967  0.00  0.00    -0.044 A 
ATOM     26  H   LIG d   1      11.529   3.830  -1.094  0.00  0.00     0.083 H 
ATOM     27  C   LIG d   1       9.745   4.710  -3.816  0.00  0.00    -0.058 A 
ATOM     28  H   LIG d   1      10.773   2.913  -3.250  0.00  0.00     0.063 H 
ATOM     29  C   LIG d   1       9.429   5.997  -3.416  0.00  0.00    -0.033 A 
ATOM     30  H   LIG d   1       9.407   4.329  -4.767  0.00  0.00     0.062 H 
ATOM     31  H   LIG d   1       8.836   6.637  -4.052  0.00  0.00     0.064 H 
ENDBRANCH   1  22
TORSDOF 4
ENDMDL
MODEL 7
REMARK VINA RESULT:      -5.0      4.967      5.880
REMARK  4 active torsions:
REMARK  status: ('A' for Active; 'I' for Inactive)
REMARK    1  A    between atoms: C_5  and  C_7 
REMARK    2  A    between atoms: C_9  and  C_12 
REMARK    3  A    between atoms: C_12  and  C_13 
REMARK    4  A    between atoms: C_13  and  N_17 
ROOT
ATOM      1  C   LIG d   1       6.640   0.252  -3.923  0.00  0.00     0.185 A 
ATOM      2  C   LIG d   1       7.211   1.432  -3.555  0.00  0.00     0.010 A 
ATOM      3  C   LIG d   1       8.529   1.444  -4.036  0.00  0.00     0.090 A 
ATOM      4  N   LIG d   1       8.745   0.323  -4.665  0.00  0.00    -0.082 NA
ATOM      5  O   LIG d   1       7.563  -0.454  -4.603  0.00  0.00    -0.353 OA
ATOM      6  H   LIG d   1       6.733   2.220  -2.992  0.00  0.00     0.068 H 
ENDROOT
BRANCH   3   7
ATOM      7  C   LIG d   1       9.524   2.561  -3.855  0.00  0.00     0.043 C 
ATOM      8  H   LIG d   1       9.171   3.238  -3.075  0.00  0.00     0.039 H 
ATOM      9  H   LIG d   1      10.489   2.146  -3.566  0.00  0.00     0.039 H 
BRANCH   7  10
ATOM     10  C   LIG d   1       9.672   3.332  -5.169  0.00  0.00     0.040 C 
ATOM     11  C   LIG d   1       9.459   4.850  -5.027  0.00  0.00     0.096 C 
ATOM     12  O   LIG d   1      10.610   4.977  -5.885  0.00  0.00    -0.368 OA
ATOM     13  H   LIG d   1       8.532   5.209  -5.476  0.00  0.00     0.062 H 
ATOM     14  H   LIG d   1       9.618   5.225  -4.017  0.00  0.00     0.062 H 
ATOM     15  C   LIG d   1      11.130   3.682  -5.522  0.00  0.00     0.096 C 
ATOM     16  H   LIG d   1      11.799   3.702  -4.662  0.00  0.00     0.062 H 
ATOM     17  H   LIG d   1      11.529   3.115  -6.363  0.00  0.00     0.062 H 
BRANCH  10  18
ATOM     18  N   LIG d   1       8.920   2.727  -6.277  0.00  0.00     0.227 N 
ATOM     19  H   LIG d   1       9.303   1.819  -6.488  0.00  0.00     0.200 HD
ATOM     20  H   LIG d   1       7.951   2.631  -6.012  0.00  0.00     0.200 HD
ATOM     21  H   LIG d   1       8.988   3.319  -7.091  0.00  0.00     0.200 HD
ENDBRANCH  10  18
ENDBRANCH   7  10
ENDBRANCH   3   7
BRANCH   1  22
ATOM     22  C   LIG d   1       5.258  -0.177  -3.623  0.00  0.00     0.109 A 
ATOM     23  N   LIG d   1       4.235   0.442  -4.200  0.00  0.00    -0.252 NA
ATOM     24  C   LIG d   1       2.989   0.089  -3.958  0.00  0.00     0.028 A 
ATOM     25  C   LIG d   1       2.700  -0.948  -3.090  0.00  0.00    -0.044 A 
ATOM     26  H   LIG d   1       2.183   0.616  -4.447  0.00  0.00     0.083 H 
ATOM     27  C   LIG d   1       3.739  -1.623  -2.465  0.00  0.00    -0.058 A 
ATOM     28  H   LIG d   1       1.674  -1.230  -2.900  0.00  0.00     0.063 H 
ATOM     29  C   LIG d   1       5.038  -1.232  -2.735  0.00  0.00    -0.033 A 
ATOM     30  H   LIG d   1       3.537  -2.433  -1.780  0.00  0.00     0.062 H 
ATOM     31  H   LIG d   1       5.870  -1.735  -2.266  0.00  0.00     0.064 H 
ENDBRANCH   1  22
TORSDOF 4
ENDMDL
MODEL 8
REMARK VINA RESULT:      -4.9      4.359      4.990
REMARK  4 active torsions:
REMARK  status: ('A' for Active; 'I' for Inactive)
REMARK    1  A    between atoms: C_5  and  C_7 
REMARK    2  A    between atoms: C_9  and  C_12 
REMARK    3  A    between atoms: C_12  and  C_13 
REMARK    4  A    between atoms: C_13  and  N_17 
ROOT
ATOM      1  C   LIG d   1       7.464   1.172  -3.963  0.00  0.00     0.185 A 
ATOM      2  C   LIG d   1       7.913   0.779  -5.186  0.00  0.00     0.010 A 
ATOM      3  C   LIG d   1       8.988   1.608  -5.540  0.00  0.00     0.090 A 
ATOM      4  N   LIG d   1       9.179   2.464  -4.575  0.00  0.00    -0.082 NA
ATOM      5  O   LIG d   1       8.221   2.211  -3.564  0.00  0.00    -0.353 OA
ATOM      6  H   LIG d   1       7.513  -0.029  -5.780  0.00  0.00     0.068 H 
ENDROOT
BRANCH   3   7
ATOM      7  C   LIG d   1       9.784   1.525  -6.817  0.00  0.00     0.043 C 
ATOM      8  H   LIG d   1      10.845   1.632  -6.590  0.00  0.00     0.039 H 
ATOM      9  H   LIG d   1       9.610   0.560  -7.292  0.00  0.00     0.039 H 
BRANCH   7  10
ATOM     10  C   LIG d   1       9.349   2.645  -7.763  0.00  0.00     0.040 C 
ATOM     11  C   LIG d   1       9.958   2.541  -9.174  0.00  0.00     0.096 C 
ATOM     12  O   LIG d   1       8.639   2.875  -9.646  0.00  0.00    -0.368 OA
ATOM     13  H   LIG d   1      10.709   3.302  -9.387  0.00  0.00     0.062 H 
ATOM     14  H   LIG d   1      10.281   1.535  -9.441  0.00  0.00     0.062 H 
ATOM     15  C   LIG d   1       7.995   2.387  -8.451  0.00  0.00     0.096 C 
ATOM     16  H   LIG d   1       7.719   1.334  -8.499  0.00  0.00     0.062 H 
ATOM     17  H   LIG d   1       7.189   3.027  -8.092  0.00  0.00     0.062 H 
BRANCH  10  18
ATOM     18  N   LIG d   1       9.467   3.982  -7.164  0.00  0.00     0.227 N 
ATOM     19  H   LIG d   1       9.726   3.893  -6.193  0.00  0.00     0.200 HD
ATOM     20  H   LIG d   1      10.173   4.509  -7.654  0.00  0.00     0.200 HD
ATOM     21  H   LIG d   1       8.582   4.460  -7.233  0.00  0.00     0.200 HD
ENDBRANCH  10  18
ENDBRANCH   7  10
ENDBRANCH   3   7
BRANCH   1  22
ATOM     22  C   LIG d   1       6.343   0.569  -3.211  0.00  0.00     0.109 A 
ATOM     23  N   LIG d   1       5.542   1.342  -2.489  0.00  0.00    -0.252 NA
ATOM     24  C   LIG d   1       4.533   0.843  -1.805  0.00  0.00     0.028 A 
ATOM     25  C   LIG d   1       4.268  -0.514  -1.816  0.00  0.00    -0.044 A 
ATOM     26  H   LIG d   1       3.901   1.504  -1.229  0.00  0.00     0.083 H 
ATOM     27  C   LIG d   1       5.081  -1.360  -2.559  0.00  0.00    -0.058 A 
ATOM     28  H   LIG d   1       3.437  -0.913  -1.254  0.00  0.00     0.063 H 
ATOM     29  C   LIG d   1       6.135  -0.810  -3.267  0.00  0.00    -0.033 A 
ATOM     30  H   LIG d   1       4.897  -2.424  -2.580  0.00  0.00     0.062 H 
ATOM     31  H   LIG d   1       6.787  -1.439  -3.855  0.00  0.00     0.064 H 
ENDBRANCH   1  22
TORSDOF 4
ENDMDL
MODEL 9
REMARK VINA RESULT:      -4.8      5.189      7.315
REMARK  4 active torsions:
REMARK  status: ('A' for Active; 'I' for Inactive)
REMARK    1  A    between atoms: C_5  and  C_7 
REMARK    2  A    between atoms: C_9  and  C_12 
REMARK    3  A    between atoms: C_12  and  C_13 
REMARK    4  A    between atoms: C_13  and  N_17 
ROOT
ATOM      1  C   LIG d   1       6.274  -1.878  -3.757  0.00  0.00     0.185 A 
ATOM      2  C   LIG d   1       7.619  -1.700  -3.854  0.00  0.00     0.010 A 
ATOM      3  C   LIG d   1       8.178  -2.887  -4.355  0.00  0.00     0.090 A 
ATOM      4  N   LIG d   1       7.213  -3.742  -4.549  0.00  0.00    -0.082 NA
ATOM      5  O   LIG d   1       5.995  -3.128  -4.172  0.00  0.00    -0.353 OA
ATOM      6  H   LIG d   1       8.162  -0.804  -3.594  0.00  0.00     0.068 H 
ENDROOT
BRANCH   3   7
ATOM      7  C   LIG d   1       9.641  -3.130  -4.619  0.00  0.00     0.043 C 
ATOM      8  H   LIG d   1       9.758  -3.621  -5.587  0.00  0.00     0.039 H 
ATOM      9  H   LIG d   1      10.173  -2.179  -4.628  0.00  0.00     0.039 H 
BRANCH   7  10
ATOM     10  C   LIG d   1      10.217  -4.026  -3.521  0.00  0.00     0.040 C 
ATOM     11  C   LIG d   1      10.386  -5.497  -3.943  0.00  0.00     0.096 C 
ATOM     12  O   LIG d   1      11.664  -5.422  -3.281  0.00  0.00    -0.368 OA
ATOM     13  H   LIG d   1       9.680  -6.177  -3.465  0.00  0.00     0.062 H 
ATOM     14  H   LIG d   1      10.455  -5.642  -5.021  0.00  0.00     0.062 H 
ATOM     15  C   LIG d   1      11.754  -3.992  -3.433  0.00  0.00     0.096 C 
ATOM     16  H   LIG d   1      12.241  -3.676  -4.356  0.00  0.00     0.062 H 
ATOM     17  H   LIG d   1      12.134  -3.477  -2.550  0.00  0.00     0.062 H 
BRANCH  10  18
ATOM     18  N   LIG d   1       9.542  -3.854  -2.227  0.00  0.00     0.227 N 
ATOM     19  H   LIG d   1      10.100  -3.259  -1.633  0.00  0.00     0.200 HD
ATOM     20  H   LIG d   1       8.638  -3.432  -2.373  0.00  0.00     0.200 HD
ATOM     21  H   LIG d   1       9.425  -4.754  -1.787  0.00  0.00     0.200 HD
ENDBRANCH  10  18
ENDBRANCH   7  10
ENDBRANCH   3   7
BRANCH   1  22
ATOM     22  C   LIG d   1       5.296  -0.879  -3.275  0.00  0.00     0.109 A 
ATOM     23  N   LIG d   1       5.705   0.341  -2.951  0.00  0.00    -0.252 NA
ATOM     24  C   LIG d   1       4.866   1.259  -2.518  0.00  0.00     0.028 A 
ATOM     25  C   LIG d   1       3.517   0.982  -2.385  0.00  0.00    -0.044 A 
ATOM     26  H   LIG d   1       5.236   2.242  -2.264  0.00  0.00     0.083 H 
ATOM     27  C   LIG d   1       3.045  -0.282  -2.712  0.00  0.00    -0.058 A 
ATOM     28  H   LIG d   1       2.836   1.742  -2.030  0.00  0.00     0.063 H 
ATOM     29  C   LIG d   1       3.949  -1.227  -3.164  0.00  0.00    -0.033 A 
ATOM     30  H   LIG d   1       1.998  -0.523  -2.613  0.00  0.00     0.062 H 
ATOM     31  H   LIG d   1       3.617  -2.220  -3.428  0.00  0.00     0.064 H 
ENDBRANCH   1  22
TORSDOF 4
ENDMDL
MODEL 10
REMARK VINA RESULT:      -4.8     13.204     14.839
REMARK  4 active torsions:
REMARK  status: ('A' for Active; 'I' for Inactive)
REMARK    1  A    between atoms: C_5  and  C_7 
REMARK    2  A    between atoms: C_9  and  C_12 
REMARK    3  A    between atoms: C_12  and  C_13 
REMARK    4  A    between atoms: C_13  and  N_17 
ROOT
ATOM      1  C   LIG d   1       0.118   9.613 -15.758  0.00  0.00     0.185 A 
ATOM      2  C   LIG d   1      -1.241   9.641 -15.700  0.00  0.00     0.010 A 
ATOM      3  C   LIG d   1      -1.670   8.485 -15.031  0.00  0.00     0.090 A 
ATOM      4  N   LIG d   1      -0.619   7.789 -14.701  0.00  0.00    -0.082 NA
ATOM      5  O   LIG d   1       0.530   8.481 -15.156  0.00  0.00    -0.353 OA
ATOM      6  H   LIG d   1      -1.877  10.418 -16.098  0.00  0.00     0.068 H 
ENDROOT
BRANCH   3   7
ATOM      7  C   LIG d   1      -3.102   8.112 -14.745  0.00  0.00     0.043 C 
ATOM      8  H   LIG d   1      -3.247   8.027 -13.667  0.00  0.00     0.039 H 
ATOM      9  H   LIG d   1      -3.765   8.881 -15.141  0.00  0.00     0.039 H 
BRANCH   7  10
ATOM     10  C   LIG d   1      -3.423   6.772 -15.409  0.00  0.00     0.040 C 
ATOM     11  C   LIG d   1      -4.901   6.613 -15.811  0.00  0.00     0.096 C 
ATOM     12  O   LIG d   1      -4.391   6.059 -17.039  0.00  0.00    -0.368 OA
ATOM     13  H   LIG d   1      -5.450   5.898 -15.198  0.00  0.00     0.062 H 
ATOM     14  H   LIG d   1      -5.427   7.559 -15.939  0.00  0.00     0.062 H 
ATOM     15  C   LIG d   1      -3.125   6.740 -16.920  0.00  0.00     0.096 C 
ATOM     16  H   LIG d   1      -3.110   7.725 -17.387  0.00  0.00     0.062 H 
ATOM     17  H   LIG d   1      -2.266   6.125 -17.188  0.00  0.00     0.062 H 
BRANCH  10  18
ATOM     18  N   LIG d   1      -2.882   5.622 -14.672  0.00  0.00     0.227 N 
ATOM     19  H   LIG d   1      -3.637   5.123 -14.225  0.00  0.00     0.200 HD
ATOM     20  H   LIG d   1      -2.404   5.006 -15.312  0.00  0.00     0.200 HD
ATOM     21  H   LIG d   1      -2.233   5.947 -13.971  0.00  0.00     0.200 HD
ENDBRANCH  10  18
ENDBRANCH   7  10
ENDBRANCH   3   7
BRANCH   1  22
ATOM     22  C   LIG d   1       0.986  10.637 -16.377  0.00  0.00     0.109 A 
ATOM     23  N   LIG d   1       0.550  11.325 -17.425  0.00  0.00    -0.252 NA
ATOM     24  C   LIG d   1       1.292  12.245 -18.005  0.00  0.00     0.028 A 
ATOM     25  C   LIG d   1       2.562  12.532 -17.538  0.00  0.00    -0.044 A 
ATOM     26  H   LIG d   1       0.903  12.785 -18.856  0.00  0.00     0.083 H 
ATOM     27  C   LIG d   1       3.059  11.837 -16.443  0.00  0.00    -0.058 A 
ATOM     28  H   LIG d   1       3.163  13.290 -18.019  0.00  0.00     0.063 H 
ATOM     29  C   LIG d   1       2.258  10.874 -15.854  0.00  0.00    -0.033 A 
ATOM     30  H   LIG d   1       4.048  12.040 -16.063  0.00  0.00     0.062 H 
ATOM     31  H   LIG d   1       2.612  10.315 -15.001  0.00  0.00     0.064 H 
ENDBRANCH   1  22
TORSDOF 4
ENDMDL
