MODEL 1
REMARK VINA RESULT:      -4.3      0.000      0.000
REMARK  6 active torsions:
REMARK  status: ('A' for Active; 'I' for Inactive)
REMARK    1  A    between atoms: C_1  and  C_2 
REMARK    2  A    between atoms: C_2  and  C_3 
REMARK    3  A    between atoms: C_3  and  C_4 
REMARK    4  A    between atoms: C_3  and  C_6 
REMARK    5  A    between atoms: C_3  and  O_8 
REMARK    6  A    between atoms: C_4  and  C_5 
ROOT
ATOM      1  C   LIG d   1       4.238  -0.108  -3.540  0.00  0.00     0.104 C 
ENDROOT
BRANCH   1   2
ATOM      2  C   LIG d   1       2.734  -0.320  -3.736  0.00  0.00    -0.022 C 
ATOM      3  H   LIG d   1       2.531  -1.384  -3.854  0.00  0.00     0.029 H 
ATOM      4  H   LIG d   1       2.197   0.059  -2.868  0.00  0.00     0.029 H 
BRANCH   2   5
ATOM      5  C   LIG d   1       2.273   0.429  -4.989  0.00  0.00    -0.062 C 
ATOM      6  H   LIG d   1       1.819   1.376  -4.698  0.00  0.00     0.023 H 
ATOM      7  H   LIG d   1       3.131   0.619  -5.634  0.00  0.00     0.023 H 
ATOM      8  H   LIG d   1       1.541  -0.177  -5.525  0.00  0.00     0.023 H 
ENDBRANCH   2   5
ENDBRANCH   1   2
BRANCH   1   9
ATOM      9  C   LIG d   1       4.866  -1.391  -2.989  0.00  0.00    -0.022 C 
ATOM     10  H   LIG d   1       5.306  -1.960  -3.808  0.00  0.00     0.029 H 
ATOM     11  H   LIG d   1       5.639  -1.135  -2.266  0.00  0.00     0.029 H 
BRANCH   9  12
ATOM     12  C   LIG d   1       3.786  -2.232  -2.305  0.00  0.00    -0.062 C 
ATOM     13  H   LIG d   1       3.306  -2.876  -3.042  0.00  0.00     0.023 H 
ATOM     14  H   LIG d   1       4.241  -2.846  -1.529  0.00  0.00     0.023 H 
ATOM     15  H   LIG d   1       3.041  -1.573  -1.858  0.00  0.00     0.023 H 
ENDBRANCH   9  12
ENDBRANCH   1   9
BRANCH   1  16
ATOM     16  C   LIG d   1       4.462   1.020  -2.567  0.00  0.00     0.073 C 
ATOM     17  O   LIG d   1       3.539   1.447  -1.913  0.00  0.00    -0.547 OA
ATOM     18  O   LIG d   1       5.686   1.552  -2.426  0.00  0.00    -0.547 OA
ENDBRANCH   1  16
BRANCH   1  19
ATOM     19  O   LIG d   1       4.841   0.217  -4.793  0.00  0.00    -0.383 OA
ATOM     20  H   LIG d   1       5.564  -0.374  -5.047  0.00  0.00     0.211 HD
ENDBRANCH   1  19
TORSDOF 6
ENDMDL
MODEL 2
REMARK VINA RESULT:      -4.3      1.519      3.028
REMARK  6 active torsions:
REMARK  status: ('A' for Active; 'I' for Inactive)
REMARK    1  A    between atoms: C_1  and  C_2 
REMARK    2  A    between atoms: C_2  and  C_3 
REMARK    3  A    between atoms: C_3  and  C_4 
REMARK    4  A    between atoms: C_3  and  C_6 
REMARK    5  A    between atoms: C_3  and  O_8 
REMARK    6  A    between atoms: C_4  and  C_5 
ROOT
ATOM      1  C   LIG d   1       3.678   0.044  -3.563  0.00  0.00     0.104 C 
ENDROOT
BRANCH   1   2
ATOM      2  C   LIG d   1       2.879  -1.146  -3.025  0.00  0.00    -0.022 C 
ATOM      3  H   LIG d   1       2.240  -0.815  -2.207  0.00  0.00     0.029 H 
ATOM      4  H   LIG d   1       2.264  -1.561  -3.823  0.00  0.00     0.029 H 
BRANCH   2   5
ATOM      5  C   LIG d   1       3.845  -2.218  -2.515  0.00  0.00    -0.062 C 
ATOM      6  H   LIG d   1       3.543  -3.191  -2.901  0.00  0.00     0.023 H 
ATOM      7  H   LIG d   1       4.855  -1.989  -2.855  0.00  0.00     0.023 H 
ATOM      8  H   LIG d   1       3.823  -2.237  -1.425  0.00  0.00     0.023 H 
ENDBRANCH   2   5
ENDBRANCH   1   2
BRANCH   1   9
ATOM      9  C   LIG d   1       3.584   1.209  -2.574  0.00  0.00    -0.022 C 
ATOM     10  H   LIG d   1       3.717   2.150  -3.108  0.00  0.00     0.029 H 
ATOM     11  H   LIG d   1       2.607   1.198  -2.092  0.00  0.00     0.029 H 
BRANCH   9  12
ATOM     12  C   LIG d   1       4.678   1.065  -1.514  0.00  0.00    -0.062 C 
ATOM     13  H   LIG d   1       4.416   0.260  -0.828  0.00  0.00     0.023 H 
ATOM     14  H   LIG d   1       5.626   0.835  -2.000  0.00  0.00     0.023 H 
ATOM     15  H   LIG d   1       4.771   1.999  -0.960  0.00  0.00     0.023 H 
ENDBRANCH   9  12
ENDBRANCH   1   9
BRANCH   1  16
ATOM     16  C   LIG d   1       3.112   0.468  -4.894  0.00  0.00     0.073 C 
ATOM     17  O   LIG d   1       3.221  -0.257  -5.855  0.00  0.00    -0.547 OA
ATOM     18  O   LIG d   1       2.487   1.650  -5.012  0.00  0.00    -0.547 OA
ENDBRANCH   1  16
BRANCH   1  19
ATOM     19  O   LIG d   1       5.046  -0.334  -3.726  0.00  0.00    -0.383 OA
ATOM     20  H   LIG d   1       5.643   0.062  -3.076  0.00  0.00     0.211 HD
ENDBRANCH   1  19
TORSDOF 6
ENDMDL
MODEL 3
REMARK VINA RESULT:      -4.3      1.692      2.825
REMARK  6 active torsions:
REMARK  status: ('A' for Active; 'I' for Inactive)
REMARK    1  A    between atoms: C_1  and  C_2 
REMARK    2  A    between atoms: C_2  and  C_3 
REMARK    3  A    between atoms: C_3  and  C_4 
REMARK    4  A    between atoms: C_3  and  C_6 
REMARK    5  A    between atoms: C_3  and  O_8 
REMARK    6  A    between atoms: C_4  and  C_5 
ROOT
ATOM      1  C   LIG d   1       3.530  -0.224  -3.523  0.00  0.00     0.104 C 
ENDROOT
BRANCH   1   2
ATOM      2  C   LIG d   1       3.451   1.047  -2.674  0.00  0.00    -0.022 C 
ATOM      3  H   LIG d   1       3.557   1.920  -3.317  0.00  0.00     0.029 H 
ATOM      4  H   LIG d   1       2.489   1.084  -2.164  0.00  0.00     0.029 H 
BRANCH   2   5
ATOM      5  C   LIG d   1       4.577   1.038  -1.637  0.00  0.00    -0.062 C 
ATOM      6  H   LIG d   1       4.192   1.388  -0.680  0.00  0.00     0.023 H 
ATOM      7  H   LIG d   1       4.960   0.023  -1.526  0.00  0.00     0.023 H 
ATOM      8  H   LIG d   1       5.381   1.696  -1.969  0.00  0.00     0.023 H 
ENDBRANCH   2   5
ENDBRANCH   1   2
BRANCH   1   9
ATOM      9  C   LIG d   1       4.535  -1.194  -2.896  0.00  0.00    -0.022 C 
ATOM     10  H   LIG d   1       5.260  -1.503  -3.649  0.00  0.00     0.029 H 
ATOM     11  H   LIG d   1       5.051  -0.701  -2.073  0.00  0.00     0.029 H 
BRANCH   9  12
ATOM     12  C   LIG d   1       3.793  -2.424  -2.369  0.00  0.00    -0.062 C 
ATOM     13  H   LIG d   1       3.407  -2.216  -1.372  0.00  0.00     0.023 H 
ATOM     14  H   LIG d   1       2.966  -2.663  -3.036  0.00  0.00     0.023 H 
ATOM     15  H   LIG d   1       4.480  -3.270  -2.324  0.00  0.00     0.023 H 
ENDBRANCH   9  12
ENDBRANCH   1   9
BRANCH   1  16
ATOM     16  C   LIG d   1       3.977   0.131  -4.917  0.00  0.00     0.073 C 
ATOM     17  O   LIG d   1       5.140   0.016  -5.227  0.00  0.00    -0.547 OA
ATOM     18  O   LIG d   1       3.085   0.577  -5.815  0.00  0.00    -0.547 OA
ENDBRANCH   1  16
BRANCH   1  19
ATOM     19  O   LIG d   1       2.243  -0.841  -3.578  0.00  0.00    -0.383 OA
ATOM     20  H   LIG d   1       1.530  -0.299  -3.213  0.00  0.00     0.211 HD
ENDBRANCH   1  19
TORSDOF 6
ENDMDL
MODEL 4
REMARK VINA RESULT:      -4.2      1.652      3.348
REMARK  6 active torsions:
REMARK  status: ('A' for Active; 'I' for Inactive)
REMARK    1  A    between atoms: C_1  and  C_2 
REMARK    2  A    between atoms: C_2  and  C_3 
REMARK    3  A    between atoms: C_3  and  C_4 
REMARK    4  A    between atoms: C_3  and  C_6 
REMARK    5  A    between atoms: C_3  and  O_8 
REMARK    6  A    between atoms: C_4  and  C_5 
ROOT
ATOM      1  C   LIG d   1       4.065  -0.678  -3.470  0.00  0.00     0.104 C 
ENDROOT
BRANCH   1   2
ATOM      2  C   LIG d   1       4.416  -0.530  -1.988  0.00  0.00    -0.022 C 
ATOM      3  H   LIG d   1       3.628  -0.978  -1.382  0.00  0.00     0.029 H 
ATOM      4  H   LIG d   1       5.361  -1.032  -1.786  0.00  0.00     0.029 H 
BRANCH   2   5
ATOM      5  C   LIG d   1       4.542   0.955  -1.640  0.00  0.00    -0.062 C 
ATOM      6  H   LIG d   1       5.413   1.105  -1.002  0.00  0.00     0.023 H 
ATOM      7  H   LIG d   1       4.659   1.534  -2.556  0.00  0.00     0.023 H 
ATOM      8  H   LIG d   1       3.645   1.282  -1.114  0.00  0.00     0.023 H 
ENDBRANCH   2   5
ENDBRANCH   1   2
BRANCH   1   9
ATOM      9  C   LIG d   1       2.563  -0.457  -3.663  0.00  0.00    -0.022 C 
ATOM     10  H   LIG d   1       2.076  -1.414  -3.852  0.00  0.00     0.029 H 
ATOM     11  H   LIG d   1       2.144  -0.006  -2.764  0.00  0.00     0.029 H 
BRANCH   9  12
ATOM     12  C   LIG d   1       2.334   0.475  -4.855  0.00  0.00    -0.062 C 
ATOM     13  H   LIG d   1       2.759   0.026  -5.753  0.00  0.00     0.023 H 
ATOM     14  H   LIG d   1       1.265   0.629  -4.996  0.00  0.00     0.023 H 
ATOM     15  H   LIG d   1       2.818   1.433  -4.664  0.00  0.00     0.023 H 
ENDBRANCH   9  12
ENDBRANCH   1   9
BRANCH   1  16
ATOM     16  C   LIG d   1       4.433  -2.062  -3.937  0.00  0.00     0.073 C 
ATOM     17  O   LIG d   1       4.077  -3.028  -3.304  0.00  0.00    -0.547 OA
ATOM     18  O   LIG d   1       5.159  -2.223  -5.055  0.00  0.00    -0.547 OA
ENDBRANCH   1  16
BRANCH   1  19
ATOM     19  O   LIG d   1       4.790   0.290  -4.231  0.00  0.00    -0.383 OA
ATOM     20  H   LIG d   1       5.706   0.040  -4.415  0.00  0.00     0.211 HD
ENDBRANCH   1  19
TORSDOF 6
ENDMDL
MODEL 5
REMARK VINA RESULT:      -4.1      1.769      2.323
REMARK  6 active torsions:
REMARK  status: ('A' for Active; 'I' for Inactive)
REMARK    1  A    between atoms: C_1  and  C_2 
REMARK    2  A    between atoms: C_2  and  C_3 
REMARK    3  A    between atoms: C_3  and  C_4 
REMARK    4  A    between atoms: C_3  and  C_6 
REMARK    5  A    between atoms: C_3  and  O_8 
REMARK    6  A    between atoms: C_4  and  C_5 
ROOT
ATOM      1  C   LIG d   1       5.171  -0.109  -3.195  0.00  0.00     0.104 C 
ENDROOT
BRANCH   1   2
ATOM      2  C   LIG d   1       4.606   0.568  -1.944  0.00  0.00    -0.022 C 
ATOM      3  H   LIG d   1       4.210  -0.190  -1.269  0.00  0.00     0.029 H 
ATOM      4  H   LIG d   1       5.397   1.125  -1.443  0.00  0.00     0.029 H 
BRANCH   2   5
ATOM      5  C   LIG d   1       3.483   1.528  -2.347  0.00  0.00    -0.062 C 
ATOM      6  H   LIG d   1       2.606   0.955  -2.644  0.00  0.00     0.023 H 
ATOM      7  H   LIG d   1       3.232   2.168  -1.502  0.00  0.00     0.023 H 
ATOM      8  H   LIG d   1       3.816   2.144  -3.184  0.00  0.00     0.023 H 
ENDBRANCH   2   5
ENDBRANCH   1   2
BRANCH   1   9
ATOM      9  C   LIG d   1       5.221  -1.623  -2.976  0.00  0.00    -0.022 C 
ATOM     10  H   LIG d   1       5.423  -2.120  -3.925  0.00  0.00     0.029 H 
ATOM     11  H   LIG d   1       6.011  -1.861  -2.265  0.00  0.00     0.029 H 
BRANCH   9  12
ATOM     12  C   LIG d   1       3.877  -2.102  -2.425  0.00  0.00    -0.062 C 
ATOM     13  H   LIG d   1       3.561  -2.995  -2.963  0.00  0.00     0.023 H 
ATOM     14  H   LIG d   1       3.980  -2.333  -1.365  0.00  0.00     0.023 H 
ATOM     15  H   LIG d   1       3.131  -1.317  -2.555  0.00  0.00     0.023 H 
ENDBRANCH   9  12
ENDBRANCH   1   9
BRANCH   1  16
ATOM     16  C   LIG d   1       6.562   0.407  -3.459  0.00  0.00     0.073 C 
ATOM     17  O   LIG d   1       7.460  -0.367  -3.693  0.00  0.00    -0.547 OA
ATOM     18  O   LIG d   1       6.804   1.727  -3.434  0.00  0.00    -0.547 OA
ENDBRANCH   1  16
BRANCH   1  19
ATOM     19  O   LIG d   1       4.334   0.183  -4.315  0.00  0.00    -0.383 OA
ATOM     20  H   LIG d   1       3.513   0.640  -4.084  0.00  0.00     0.211 HD
ENDBRANCH   1  19
TORSDOF 6
ENDMDL
MODEL 6
REMARK VINA RESULT:      -4.1      1.810      2.550
REMARK  6 active torsions:
REMARK  status: ('A' for Active; 'I' for Inactive)
REMARK    1  A    between atoms: C_1  and  C_2 
REMARK    2  A    between atoms: C_2  and  C_3 
REMARK    3  A    between atoms: C_3  and  C_4 
REMARK    4  A    between atoms: C_3  and  C_6 
REMARK    5  A    between atoms: C_3  and  O_8 
REMARK    6  A    between atoms: C_4  and  C_5 
ROOT
ATOM      1  C   LIG d   1       3.941  -0.623  -3.498  0.00  0.00     0.104 C 
ENDROOT
BRANCH   1   2
ATOM      2  C   LIG d   1       3.207   0.672  -3.855  0.00  0.00    -0.022 C 
ATOM      3  H   LIG d   1       2.673   1.040  -2.979  0.00  0.00     0.029 H 
ATOM      4  H   LIG d   1       3.928   1.420  -4.182  0.00  0.00     0.029 H 
BRANCH   2   5
ATOM      5  C   LIG d   1       2.209   0.398  -4.982  0.00  0.00    -0.062 C 
ATOM      6  H   LIG d   1       1.451  -0.302  -4.633  0.00  0.00     0.023 H 
ATOM      7  H   LIG d   1       1.731   1.332  -5.279  0.00  0.00     0.023 H 
ATOM      8  H   LIG d   1       2.734  -0.030  -5.836  0.00  0.00     0.023 H 
ENDBRANCH   2   5
ENDBRANCH   1   2
BRANCH   1   9
ATOM      9  C   LIG d   1       4.325  -0.598  -2.017  0.00  0.00    -0.022 C 
ATOM     10  H   LIG d   1       3.513  -1.019  -1.424  0.00  0.00     0.029 H 
ATOM     11  H   LIG d   1       5.229  -1.188  -1.866  0.00  0.00     0.029 H 
BRANCH   9  12
ATOM     12  C   LIG d   1       4.579   0.846  -1.580  0.00  0.00    -0.062 C 
ATOM     13  H   LIG d   1       5.621   1.105  -1.770  0.00  0.00     0.023 H 
ATOM     14  H   LIG d   1       3.930   1.515  -2.144  0.00  0.00     0.023 H 
ATOM     15  H   LIG d   1       4.368   0.946  -0.515  0.00  0.00     0.023 H 
ENDBRANCH   9  12
ENDBRANCH   1   9
BRANCH   1  16
ATOM     16  C   LIG d   1       5.185  -0.742  -4.339  0.00  0.00     0.073 C 
ATOM     17  O   LIG d   1       5.707  -1.821  -4.496  0.00  0.00    -0.547 OA
ATOM     18  O   LIG d   1       5.716   0.349  -4.912  0.00  0.00    -0.547 OA
ENDBRANCH   1  16
BRANCH   1  19
ATOM     19  O   LIG d   1       3.086  -1.740  -3.750  0.00  0.00    -0.383 OA
ATOM     20  H   LIG d   1       2.275  -1.741  -3.224  0.00  0.00     0.211 HD
ENDBRANCH   1  19
TORSDOF 6
ENDMDL
MODEL 7
REMARK VINA RESULT:      -4.0      1.205      2.047
REMARK  6 active torsions:
REMARK  status: ('A' for Active; 'I' for Inactive)
REMARK    1  A    between atoms: C_1  and  C_2 
REMARK    2  A    between atoms: C_2  and  C_3 
REMARK    3  A    between atoms: C_3  and  C_4 
REMARK    4  A    between atoms: C_3  and  C_6 
REMARK    5  A    between atoms: C_3  and  O_8 
REMARK    6  A    between atoms: C_4  and  C_5 
ROOT
ATOM      1  C   LIG d   1       4.437  -0.097  -3.450  0.00  0.00     0.104 C 
ENDROOT
BRANCH   1   2
ATOM      2  C   LIG d   1       3.266  -1.009  -3.075  0.00  0.00    -0.022 C 
ATOM      3  H   LIG d   1       2.570  -0.462  -2.441  0.00  0.00     0.029 H 
ATOM      4  H   LIG d   1       2.755  -1.334  -3.981  0.00  0.00     0.029 H 
BRANCH   2   5
ATOM      5  C   LIG d   1       3.793  -2.230  -2.319  0.00  0.00    -0.062 C 
ATOM      6  H   LIG d   1       4.172  -2.962  -3.032  0.00  0.00     0.023 H 
ATOM      7  H   LIG d   1       4.597  -1.924  -1.650  0.00  0.00     0.023 H 
ATOM      8  H   LIG d   1       2.984  -2.674  -1.737  0.00  0.00     0.023 H 
ENDBRANCH   2   5
ENDBRANCH   1   2
BRANCH   1   9
ATOM      9  C   LIG d   1       5.755  -0.787  -3.090  0.00  0.00    -0.022 C 
ATOM     10  H   LIG d   1       6.255  -0.226  -2.300  0.00  0.00     0.029 H 
ATOM     11  H   LIG d   1       5.553  -1.800  -2.745  0.00  0.00     0.029 H 
BRANCH   9  12
ATOM     12  C   LIG d   1       6.657  -0.839  -4.325  0.00  0.00    -0.062 C 
ATOM     13  H   LIG d   1       6.118  -1.308  -5.148  0.00  0.00     0.023 H 
ATOM     14  H   LIG d   1       6.944   0.173  -4.608  0.00  0.00     0.023 H 
ATOM     15  H   LIG d   1       7.550  -1.421  -4.098  0.00  0.00     0.023 H 
ENDBRANCH   9  12
ENDBRANCH   1   9
BRANCH   1  16
ATOM     16  C   LIG d   1       4.325   1.200  -2.693  0.00  0.00     0.073 C 
ATOM     17  O   LIG d   1       3.842   2.172  -3.226  0.00  0.00    -0.547 OA
ATOM     18  O   LIG d   1       4.763   1.279  -1.426  0.00  0.00    -0.547 OA
ENDBRANCH   1  16
BRANCH   1  19
ATOM     19  O   LIG d   1       4.406   0.166  -4.854  0.00  0.00    -0.383 OA
ATOM     20  H   LIG d   1       4.865   0.978  -5.112  0.00  0.00     0.211 HD
ENDBRANCH   1  19
TORSDOF 6
ENDMDL
MODEL 8
REMARK VINA RESULT:      -4.0      1.388      2.750
REMARK  6 active torsions:
REMARK  status: ('A' for Active; 'I' for Inactive)
REMARK    1  A    between atoms: C_1  and  C_2 
REMARK    2  A    between atoms: C_2  and  C_3 
REMARK    3  A    between atoms: C_3  and  C_4 
REMARK    4  A    between atoms: C_3  and  C_6 
REMARK    5  A    between atoms: C_3  and  O_8 
REMARK    6  A    between atoms: C_4  and  C_5 
ROOT
ATOM      1  C   LIG d   1       4.610   0.473  -3.145  0.00  0.00     0.104 C 
ENDROOT
BRANCH   1   2
ATOM      2  C   LIG d   1       4.349  -0.299  -1.849  0.00  0.00    -0.022 C 
ATOM      3  H   LIG d   1       5.237  -0.258  -1.219  0.00  0.00     0.029 H 
ATOM      4  H   LIG d   1       3.507   0.149  -1.323  0.00  0.00     0.029 H 
BRANCH   2   5
ATOM      5  C   LIG d   1       4.027  -1.758  -2.181  0.00  0.00    -0.062 C 
ATOM      6  H   LIG d   1       4.940  -2.350  -2.138  0.00  0.00     0.023 H 
ATOM      7  H   LIG d   1       3.307  -2.144  -1.459  0.00  0.00     0.023 H 
ATOM      8  H   LIG d   1       3.603  -1.816  -3.185  0.00  0.00     0.023 H 
ENDBRANCH   2   5
ENDBRANCH   1   2
BRANCH   1   9
ATOM      9  C   LIG d   1       4.021  -0.301  -4.327  0.00  0.00    -0.022 C 
ATOM     10  H   LIG d   1       4.752  -0.345  -5.133  0.00  0.00     0.029 H 
ATOM     11  H   LIG d   1       3.768  -1.313  -4.009  0.00  0.00     0.029 H 
BRANCH   9  12
ATOM     12  C   LIG d   1       2.758   0.408  -4.821  0.00  0.00    -0.062 C 
ATOM     13  H   LIG d   1       2.460  -0.010  -5.783  0.00  0.00     0.023 H 
ATOM     14  H   LIG d   1       1.955   0.266  -4.099  0.00  0.00     0.023 H 
ATOM     15  H   LIG d   1       2.962   1.473  -4.935  0.00  0.00     0.023 H 
ENDBRANCH   9  12
ENDBRANCH   1   9
BRANCH   1  16
ATOM     16  C   LIG d   1       6.094   0.638  -3.342  0.00  0.00     0.073 C 
ATOM     17  O   LIG d   1       6.578   1.744  -3.390  0.00  0.00    -0.547 OA
ATOM     18  O   LIG d   1       6.879  -0.444  -3.464  0.00  0.00    -0.547 OA
ENDBRANCH   1  16
BRANCH   1  19
ATOM     19  O   LIG d   1       3.994   1.760  -3.065  0.00  0.00    -0.383 OA
ATOM     20  H   LIG d   1       4.584   2.459  -2.752  0.00  0.00     0.211 HD
ENDBRANCH   1  19
TORSDOF 6
ENDMDL
MODEL 9
REMARK VINA RESULT:      -3.9      1.642      2.966
REMARK  6 active torsions:
REMARK  status: ('A' for Active; 'I' for Inactive)
REMARK    1  A    between atoms: C_1  and  C_2 
REMARK    2  A    between atoms: C_2  and  C_3 
REMARK    3  A    between atoms: C_3  and  C_4 
REMARK    4  A    between atoms: C_3  and  C_6 
REMARK    5  A    between atoms: C_3  and  O_8 
REMARK    6  A    between atoms: C_4  and  C_5 
ROOT
ATOM      1  C   LIG d   1       4.722   0.012  -3.831  0.00  0.00     0.104 C 
ENDROOT
BRANCH   1   2
ATOM      2  C   LIG d   1       4.944  -1.368  -3.206  0.00  0.00    -0.022 C 
ATOM      3  H   LIG d   1       4.659  -1.340  -2.155  0.00  0.00     0.029 H 
ATOM      4  H   LIG d   1       4.337  -2.105  -3.729  0.00  0.00     0.029 H 
BRANCH   2   5
ATOM      5  C   LIG d   1       6.422  -1.748  -3.323  0.00  0.00    -0.062 C 
ATOM      6  H   LIG d   1       7.039  -0.874  -3.118  0.00  0.00     0.023 H 
ATOM      7  H   LIG d   1       6.653  -2.534  -2.603  0.00  0.00     0.023 H 
ATOM      8  H   LIG d   1       6.625  -2.109  -4.332  0.00  0.00     0.023 H 
ENDBRANCH   2   5
ENDBRANCH   1   2
BRANCH   1   9
ATOM      9  C   LIG d   1       5.264   1.091  -2.890  0.00  0.00    -0.022 C 
ATOM     10  H   LIG d   1       6.339   0.958  -2.766  0.00  0.00     0.029 H 
ATOM     11  H   LIG d   1       5.064   2.075  -3.312  0.00  0.00     0.029 H 
BRANCH   9  12
ATOM     12  C   LIG d   1       4.576   0.970  -1.529  0.00  0.00    -0.062 C 
ATOM     13  H   LIG d   1       4.524   1.952  -1.060  0.00  0.00     0.023 H 
ATOM     14  H   LIG d   1       3.568   0.579  -1.665  0.00  0.00     0.023 H 
ATOM     15  H   LIG d   1       5.146   0.293  -0.893  0.00  0.00     0.023 H 
ENDBRANCH   9  12
ENDBRANCH   1   9
BRANCH   1  16
ATOM     16  C   LIG d   1       3.249   0.231  -4.052  0.00  0.00     0.073 C 
ATOM     17  O   LIG d   1       2.866   1.210  -4.648  0.00  0.00    -0.547 OA
ATOM     18  O   LIG d   1       2.360  -0.660  -3.587  0.00  0.00    -0.547 OA
ENDBRANCH   1  16
BRANCH   1  19
ATOM     19  O   LIG d   1       5.408   0.084  -5.083  0.00  0.00    -0.383 OA
ATOM     20  H   LIG d   1       5.287   0.922  -5.550  0.00  0.00     0.211 HD
ENDBRANCH   1  19
TORSDOF 6
ENDMDL
MODEL 10
REMARK VINA RESULT:      -3.7      1.417      2.686
REMARK  6 active torsions:
REMARK  status: ('A' for Active; 'I' for Inactive)
REMARK    1  A    between atoms: C_1  and  C_2 
REMARK    2  A    between atoms: C_2  and  C_3 
REMARK    3  A    between atoms: C_3  and  C_4 
REMARK    4  A    between atoms: C_3  and  C_6 
REMARK    5  A    between atoms: C_3  and  O_8 
REMARK    6  A    between atoms: C_4  and  C_5 
ROOT
ATOM      1  C   LIG d   1       4.281  -0.546  -2.841  0.00  0.00     0.104 C 
ENDROOT
BRANCH   1   2
ATOM      2  C   LIG d   1       4.888  -1.075  -4.143  0.00  0.00    -0.022 C 
ATOM      3  H   LIG d   1       4.091  -1.291  -4.854  0.00  0.00     0.029 H 
ATOM      4  H   LIG d   1       5.557  -0.324  -4.564  0.00  0.00     0.029 H 
BRANCH   2   5
ATOM      5  C   LIG d   1       5.675  -2.355  -3.856  0.00  0.00    -0.062 C 
ATOM      6  H   LIG d   1       6.649  -2.299  -4.340  0.00  0.00     0.023 H 
ATOM      7  H   LIG d   1       5.809  -2.465  -2.779  0.00  0.00     0.023 H 
ATOM      8  H   LIG d   1       5.125  -3.214  -4.243  0.00  0.00     0.023 H 
ENDBRANCH   2   5
ENDBRANCH   1   2
BRANCH   1   9
ATOM      9  C   LIG d   1       2.777  -0.332  -3.030  0.00  0.00    -0.022 C 
ATOM     10  H   LIG d   1       2.254  -1.275  -2.873  0.00  0.00     0.029 H 
ATOM     11  H   LIG d   1       2.422   0.406  -2.312  0.00  0.00     0.029 H 
BRANCH   9  12
ATOM     12  C   LIG d   1       2.509   0.168  -4.451  0.00  0.00    -0.062 C 
ATOM     13  H   LIG d   1       1.573   0.725  -4.469  0.00  0.00     0.023 H 
ATOM     14  H   LIG d   1       3.325   0.817  -4.768  0.00  0.00     0.023 H 
ATOM     15  H   LIG d   1       2.438  -0.684  -5.128  0.00  0.00     0.023 H 
ENDBRANCH   9  12
ENDBRANCH   1   9
BRANCH   1  16
ATOM     16  C   LIG d   1       4.933   0.763  -2.479  0.00  0.00     0.073 C 
ATOM     17  O   LIG d   1       5.597   1.354  -3.298  0.00  0.00    -0.547 OA
ATOM     18  O   LIG d   1       4.779   1.272  -1.247  0.00  0.00    -0.547 OA
ENDBRANCH   1  16
BRANCH   1  19
ATOM     19  O   LIG d   1       4.499  -1.493  -1.794  0.00  0.00    -0.383 OA
ATOM     20  H   LIG d   1       4.157  -1.215  -0.934  0.00  0.00     0.211 HD
ENDBRANCH   1  19
TORSDOF 6
ENDMDL
