MODEL 1
REMARK VINA RESULT:      -5.5      0.000      0.000
REMARK  6 active torsions:
REMARK  status: ('A' for Active; 'I' for Inactive)
REMARK    1  A    between atoms: C_1  and  C_2 
REMARK    2  A    between atoms: C_2  and  C_20 
REMARK    3  A    between atoms: C_7  and  C_8 
REMARK    4  A    between atoms: C_11  and  N_14 
REMARK    5  A    between atoms: N_14  and  C_15 
REMARK    6  A    between atoms: N_14  and  C_16 
ROOT
ATOM      1  C   LIG d   1       2.753   0.351  -8.804  0.00  0.00    -0.024 A 
ATOM      2  C   LIG d   1       2.075  -0.802  -9.233  0.00  0.00    -0.053 A 
ATOM      3  C   LIG d   1       2.230  -1.244 -10.515  0.00  0.00    -0.040 A 
ATOM      4  C   LIG d   1       3.060  -0.554 -11.397  0.00  0.00     0.029 A 
ATOM      5  C   LIG d   1       3.736   0.590 -10.977  0.00  0.00    -0.040 A 
ATOM      6  C   LIG d   1       3.584   1.044  -9.699  0.00  0.00    -0.053 A 
ATOM      7  H   LIG d   1       1.431  -1.336  -8.550  0.00  0.00     0.062 H 
ATOM      8  H   LIG d   1       1.709  -2.131 -10.846  0.00  0.00     0.064 H 
ATOM      9  H   LIG d   1       4.378   1.120 -11.665  0.00  0.00     0.064 H 
ATOM     10  H   LIG d   1       4.103   1.934  -9.375  0.00  0.00     0.062 H 
ENDROOT
BRANCH   1  11
ATOM     11  C   LIG d   1       2.590   0.829  -7.433  0.00  0.00    -0.034 C 
ATOM     12  C   LIG d   1       3.263   0.209  -6.399  0.00  0.00     0.143 C 
ATOM     13  C   LIG d   1       3.017   0.526  -4.966  0.00  0.00     0.349 C 
ATOM     14  C   LIG d   1       4.300  -0.836  -6.621  0.00  0.00     0.349 C 
ATOM     15  O   LIG d   1       3.140  -0.531  -4.115  0.00  0.00    -0.419 OA
ATOM     16  O   LIG d   1       2.729   1.643  -4.584  0.00  0.00    -0.245 OA
ATOM     17  C   LIG d   1       4.298  -1.351  -4.314  0.00  0.00     0.255 C 
ATOM     18  O   LIG d   1       4.346  -1.811  -5.670  0.00  0.00    -0.419 OA
ATOM     19  O   LIG d   1       5.049  -0.822  -7.577  0.00  0.00    -0.245 OA
ATOM     20  H   LIG d   1       1.942   1.669  -7.227  0.00  0.00     0.063 H 
BRANCH  17  21
ATOM     21  C   LIG d   1       5.556  -0.534  -4.011  0.00  0.00     0.013 C 
ATOM     22  H   LIG d   1       6.173  -0.471  -4.907  0.00  0.00     0.030 H 
ATOM     23  H   LIG d   1       5.272   0.469  -3.693  0.00  0.00     0.030 H 
ATOM     24  H   LIG d   1       6.121  -1.021  -3.215  0.00  0.00     0.030 H 
ENDBRANCH  17  21
BRANCH  17  25
ATOM     25  C   LIG d   1       4.234  -2.553  -3.371  0.00  0.00     0.013 C 
ATOM     26  H   LIG d   1       3.213  -2.682  -3.014  0.00  0.00     0.030 H 
ATOM     27  H   LIG d   1       4.549  -3.450  -3.905  0.00  0.00     0.030 H 
ATOM     28  H   LIG d   1       4.898  -2.385  -2.522  0.00  0.00     0.030 H 
ENDBRANCH  17  25
ENDBRANCH   1  11
BRANCH   4  29
ATOM     29  N   LIG d   1       3.215  -1.009 -12.699  0.00  0.00    -0.336 N 
BRANCH  29  30
ATOM     30  C   LIG d   1       2.237  -1.938 -13.271  0.00  0.00     0.000 C 
ATOM     31  H   LIG d   1       2.393  -2.932 -12.854  0.00  0.00     0.043 H 
ATOM     32  H   LIG d   1       1.229  -1.597 -13.031  0.00  0.00     0.043 H 
ATOM     33  H   LIG d   1       2.360  -1.975 -14.353  0.00  0.00     0.043 H 
ENDBRANCH  29  30
BRANCH  29  34
ATOM     34  C   LIG d   1       4.355  -0.561 -13.501  0.00  0.00     0.000 C 
ATOM     35  H   LIG d   1       4.963   0.131 -12.916  0.00  0.00     0.043 H 
ATOM     36  H   LIG d   1       4.960  -1.421 -13.787  0.00  0.00     0.043 H 
ATOM     37  H   LIG d   1       3.994  -0.057 -14.397  0.00  0.00     0.043 H 
ENDBRANCH  29  34
ENDBRANCH   4  29
TORSDOF 6
ENDMDL
MODEL 2
REMARK VINA RESULT:      -5.0      4.773      7.342
REMARK  6 active torsions:
REMARK  status: ('A' for Active; 'I' for Inactive)
REMARK    1  A    between atoms: C_1  and  C_2 
REMARK    2  A    between atoms: C_2  and  C_20 
REMARK    3  A    between atoms: C_7  and  C_8 
REMARK    4  A    between atoms: C_11  and  N_14 
REMARK    5  A    between atoms: N_14  and  C_15 
REMARK    6  A    between atoms: N_14  and  C_16 
ROOT
ATOM      1  C   LIG d   1       5.669  -3.165  -5.263  0.00  0.00    -0.024 A 
ATOM      2  C   LIG d   1       5.317  -3.030  -3.910  0.00  0.00    -0.053 A 
ATOM      3  C   LIG d   1       4.525  -1.991  -3.515  0.00  0.00    -0.040 A 
ATOM      4  C   LIG d   1       4.066  -1.066  -4.450  0.00  0.00     0.029 A 
ATOM      5  C   LIG d   1       4.412  -1.196  -5.795  0.00  0.00    -0.040 A 
ATOM      6  C   LIG d   1       5.208  -2.227  -6.200  0.00  0.00    -0.053 A 
ATOM      7  H   LIG d   1       5.673  -3.747  -3.184  0.00  0.00     0.062 H 
ATOM      8  H   LIG d   1       4.253  -1.886  -2.474  0.00  0.00     0.064 H 
ATOM      9  H   LIG d   1       4.053  -0.476  -6.515  0.00  0.00     0.064 H 
ATOM     10  H   LIG d   1       5.480  -2.324  -7.240  0.00  0.00     0.062 H 
ENDROOT
BRANCH   1  11
ATOM     11  C   LIG d   1       6.518  -4.275  -5.691  0.00  0.00    -0.034 C 
ATOM     12  C   LIG d   1       6.001  -5.554  -5.761  0.00  0.00     0.143 C 
ATOM     13  C   LIG d   1       6.841  -6.754  -6.022  0.00  0.00     0.349 C 
ATOM     14  C   LIG d   1       4.554  -5.852  -5.583  0.00  0.00     0.349 C 
ATOM     15  O   LIG d   1       6.432  -7.889  -5.388  0.00  0.00    -0.419 OA
ATOM     16  O   LIG d   1       7.818  -6.725  -6.744  0.00  0.00    -0.245 OA
ATOM     17  C   LIG d   1       5.029  -8.164  -5.462  0.00  0.00     0.255 C 
ATOM     18  O   LIG d   1       4.283  -7.042  -4.977  0.00  0.00    -0.419 OA
ATOM     19  O   LIG d   1       3.679  -5.093  -5.951  0.00  0.00    -0.245 OA
ATOM     20  H   LIG d   1       7.550  -4.095  -5.954  0.00  0.00     0.063 H 
BRANCH  17  21
ATOM     21  C   LIG d   1       4.642  -8.440  -6.916  0.00  0.00     0.013 C 
ATOM     22  H   LIG d   1       5.055  -9.400  -7.226  0.00  0.00     0.030 H 
ATOM     23  H   LIG d   1       3.556  -8.466  -7.005  0.00  0.00     0.030 H 
ATOM     24  H   LIG d   1       5.040  -7.651  -7.555  0.00  0.00     0.030 H 
ENDBRANCH  17  21
BRANCH  17  25
ATOM     25  C   LIG d   1       4.709  -9.394  -4.610  0.00  0.00     0.013 C 
ATOM     26  H   LIG d   1       3.714  -9.761  -4.860  0.00  0.00     0.030 H 
ATOM     27  H   LIG d   1       5.445 -10.173  -4.807  0.00  0.00     0.030 H 
ATOM     28  H   LIG d   1       4.742  -9.123  -3.554  0.00  0.00     0.030 H 
ENDBRANCH  17  25
ENDBRANCH   1  11
BRANCH   4  29
ATOM     29  N   LIG d   1       3.259  -0.012  -4.043  0.00  0.00    -0.336 N 
BRANCH  29  30
ATOM     30  C   LIG d   1       3.308   0.451  -2.654  0.00  0.00     0.000 C 
ATOM     31  H   LIG d   1       2.312   0.766  -2.341  0.00  0.00     0.043 H 
ATOM     32  H   LIG d   1       3.650  -0.361  -2.012  0.00  0.00     0.043 H 
ATOM     33  H   LIG d   1       3.996   1.291  -2.574  0.00  0.00     0.043 H 
ENDBRANCH  29  30
BRANCH  29  34
ATOM     34  C   LIG d   1       2.361   0.636  -5.000  0.00  0.00     0.000 C 
ATOM     35  H   LIG d   1       2.545   1.711  -5.001  0.00  0.00     0.043 H 
ATOM     36  H   LIG d   1       2.540   0.236  -5.997  0.00  0.00     0.043 H 
ATOM     37  H   LIG d   1       1.326   0.446  -4.713  0.00  0.00     0.043 H 
ENDBRANCH  29  34
ENDBRANCH   4  29
TORSDOF 6
ENDMDL
MODEL 3
REMARK VINA RESULT:      -5.0      2.075      3.037
REMARK  6 active torsions:
REMARK  status: ('A' for Active; 'I' for Inactive)
REMARK    1  A    between atoms: C_1  and  C_2 
REMARK    2  A    between atoms: C_2  and  C_20 
REMARK    3  A    between atoms: C_7  and  C_8 
REMARK    4  A    between atoms: C_11  and  N_14 
REMARK    5  A    between atoms: N_14  and  C_15 
REMARK    6  A    between atoms: N_14  and  C_16 
ROOT
ATOM      1  C   LIG d   1       4.840  -2.137  -7.609  0.00  0.00    -0.024 A 
ATOM      2  C   LIG d   1       3.769  -2.284  -8.507  0.00  0.00    -0.053 A 
ATOM      3  C   LIG d   1       3.867  -1.778  -9.770  0.00  0.00    -0.040 A 
ATOM      4  C   LIG d   1       5.027  -1.117 -10.171  0.00  0.00     0.029 A 
ATOM      5  C   LIG d   1       6.093  -0.969  -9.285  0.00  0.00    -0.040 A 
ATOM      6  C   LIG d   1       6.003  -1.466  -8.017  0.00  0.00    -0.053 A 
ATOM      7  H   LIG d   1       2.870  -2.796  -8.197  0.00  0.00     0.062 H 
ATOM      8  H   LIG d   1       3.044  -1.890 -10.461  0.00  0.00     0.064 H 
ATOM      9  H   LIG d   1       6.989  -0.456  -9.601  0.00  0.00     0.064 H 
ATOM     10  H   LIG d   1       6.827  -1.346  -7.330  0.00  0.00     0.062 H 
ENDROOT
BRANCH   1  11
ATOM     11  C   LIG d   1       4.739  -2.677  -6.255  0.00  0.00    -0.034 C 
ATOM     12  C   LIG d   1       4.436  -1.841  -5.198  0.00  0.00     0.143 C 
ATOM     13  C   LIG d   1       4.485  -2.281  -3.777  0.00  0.00     0.349 C 
ATOM     14  C   LIG d   1       4.031  -0.420  -5.381  0.00  0.00     0.349 C 
ATOM     15  O   LIG d   1       4.876  -1.321  -2.892  0.00  0.00    -0.419 OA
ATOM     16  O   LIG d   1       4.198  -3.410  -3.432  0.00  0.00    -0.245 OA
ATOM     17  C   LIG d   1       4.256  -0.041  -3.059  0.00  0.00     0.255 C 
ATOM     18  O   LIG d   1       4.448   0.427  -4.399  0.00  0.00    -0.419 OA
ATOM     19  O   LIG d   1       3.376  -0.044  -6.333  0.00  0.00    -0.245 OA
ATOM     20  H   LIG d   1       4.902  -3.730  -6.080  0.00  0.00     0.063 H 
BRANCH  17  21
ATOM     21  C   LIG d   1       2.757  -0.162  -2.774  0.00  0.00     0.013 C 
ATOM     22  H   LIG d   1       2.526  -1.184  -2.473  0.00  0.00     0.030 H 
ATOM     23  H   LIG d   1       2.483   0.524  -1.973  0.00  0.00     0.030 H 
ATOM     24  H   LIG d   1       2.195   0.088  -3.674  0.00  0.00     0.030 H 
ENDBRANCH  17  21
BRANCH  17  25
ATOM     25  C   LIG d   1       4.880   0.954  -2.079  0.00  0.00     0.013 C 
ATOM     26  H   LIG d   1       4.913   1.942  -2.535  0.00  0.00     0.030 H 
ATOM     27  H   LIG d   1       4.279   0.993  -1.170  0.00  0.00     0.030 H 
ATOM     28  H   LIG d   1       5.892   0.633  -1.830  0.00  0.00     0.030 H 
ENDBRANCH  17  25
ENDBRANCH   1  11
BRANCH   4  29
ATOM     29  N   LIG d   1       5.121  -0.605 -11.458  0.00  0.00    -0.336 N 
BRANCH  29  30
ATOM     30  C   LIG d   1       4.055   0.249 -11.986  0.00  0.00     0.000 C 
ATOM     31  H   LIG d   1       4.202   1.272 -11.638  0.00  0.00     0.043 H 
ATOM     32  H   LIG d   1       4.080   0.229 -13.076  0.00  0.00     0.043 H 
ATOM     33  H   LIG d   1       3.090  -0.117 -11.638  0.00  0.00     0.043 H 
ENDBRANCH  29  30
BRANCH  29  34
ATOM     34  C   LIG d   1       6.287  -0.918 -12.287  0.00  0.00     0.000 C 
ATOM     35  H   LIG d   1       6.012  -0.851 -13.341  0.00  0.00     0.043 H 
ATOM     36  H   LIG d   1       7.087  -0.210 -12.075  0.00  0.00     0.043 H 
ATOM     37  H   LIG d   1       6.628  -1.930 -12.067  0.00  0.00     0.043 H 
ENDBRANCH  29  34
ENDBRANCH   4  29
TORSDOF 6
ENDMDL
MODEL 4
REMARK VINA RESULT:      -4.9      4.750      6.701
REMARK  6 active torsions:
REMARK  status: ('A' for Active; 'I' for Inactive)
REMARK    1  A    between atoms: C_1  and  C_2 
REMARK    2  A    between atoms: C_2  and  C_20 
REMARK    3  A    between atoms: C_7  and  C_8 
REMARK    4  A    between atoms: C_11  and  N_14 
REMARK    5  A    between atoms: N_14  and  C_15 
REMARK    6  A    between atoms: N_14  and  C_16 
ROOT
ATOM      1  C   LIG d   1       7.902  -1.993  -4.260  0.00  0.00    -0.024 A 
ATOM      2  C   LIG d   1       8.161  -1.977  -5.641  0.00  0.00    -0.053 A 
ATOM      3  C   LIG d   1       8.729  -3.064  -6.238  0.00  0.00    -0.040 A 
ATOM      4  C   LIG d   1       9.051  -4.189  -5.481  0.00  0.00     0.029 A 
ATOM      5  C   LIG d   1       8.796  -4.211  -4.111  0.00  0.00    -0.040 A 
ATOM      6  C   LIG d   1       8.233  -3.127  -3.503  0.00  0.00    -0.053 A 
ATOM      7  H   LIG d   1       7.912  -1.105  -6.227  0.00  0.00     0.062 H 
ATOM      8  H   LIG d   1       8.929  -3.053  -7.300  0.00  0.00     0.064 H 
ATOM      9  H   LIG d   1       9.048  -5.086  -3.530  0.00  0.00     0.064 H 
ATOM     10  H   LIG d   1       8.041  -3.142  -2.440  0.00  0.00     0.062 H 
ENDROOT
BRANCH   1  11
ATOM     11  C   LIG d   1       7.295  -0.830  -3.615  0.00  0.00    -0.034 C 
ATOM     12  C   LIG d   1       5.929  -0.638  -3.682  0.00  0.00     0.143 C 
ATOM     13  C   LIG d   1       5.261   0.602  -3.201  0.00  0.00     0.349 C 
ATOM     14  C   LIG d   1       4.995  -1.652  -4.241  0.00  0.00     0.349 C 
ATOM     15  O   LIG d   1       4.164   0.978  -3.917  0.00  0.00    -0.419 OA
ATOM     16  O   LIG d   1       5.664   1.232  -2.243  0.00  0.00    -0.245 OA
ATOM     17  C   LIG d   1       3.239  -0.071  -4.222  0.00  0.00     0.255 C 
ATOM     18  O   LIG d   1       3.914  -1.141  -4.894  0.00  0.00    -0.419 OA
ATOM     19  O   LIG d   1       5.181  -2.848  -4.125  0.00  0.00    -0.245 OA
ATOM     20  H   LIG d   1       7.915  -0.121  -3.086  0.00  0.00     0.063 H 
BRANCH  17  21
ATOM     21  C   LIG d   1       2.622  -0.596  -2.924  0.00  0.00     0.013 C 
ATOM     22  H   LIG d   1       2.559  -1.684  -2.965  0.00  0.00     0.030 H 
ATOM     23  H   LIG d   1       3.243  -0.300  -2.079  0.00  0.00     0.030 H 
ATOM     24  H   LIG d   1       1.621  -0.180  -2.802  0.00  0.00     0.030 H 
ENDBRANCH  17  21
BRANCH  17  25
ATOM     25  C   LIG d   1       2.132   0.478  -5.123  0.00  0.00     0.013 C 
ATOM     26  H   LIG d   1       1.425  -0.318  -5.357  0.00  0.00     0.030 H 
ATOM     27  H   LIG d   1       1.612   1.286  -4.609  0.00  0.00     0.030 H 
ATOM     28  H   LIG d   1       2.570   0.858  -6.046  0.00  0.00     0.030 H 
ENDBRANCH  17  25
ENDBRANCH   1  11
BRANCH   4  29
ATOM     29  N   LIG d   1       9.628  -5.293  -6.094  0.00  0.00    -0.336 N 
BRANCH  29  30
ATOM     30  C   LIG d   1      10.589  -6.120  -5.359  0.00  0.00     0.000 C 
ATOM     31  H   LIG d   1      10.666  -5.761  -4.333  0.00  0.00     0.043 H 
ATOM     32  H   LIG d   1      10.249  -7.156  -5.357  0.00  0.00     0.043 H 
ATOM     33  H   LIG d   1      11.564  -6.059  -5.840  0.00  0.00     0.043 H 
ENDBRANCH  29  30
BRANCH  29  34
ATOM     34  C   LIG d   1       9.277  -5.631  -7.475  0.00  0.00     0.000 C 
ATOM     35  H   LIG d   1       8.302  -6.119  -7.493  0.00  0.00     0.043 H 
ATOM     36  H   LIG d   1       9.239  -4.722  -8.075  0.00  0.00     0.043 H 
ATOM     37  H   LIG d   1      10.028  -6.307  -7.886  0.00  0.00     0.043 H 
ENDBRANCH  29  34
ENDBRANCH   4  29
TORSDOF 6
ENDMDL
MODEL 5
REMARK VINA RESULT:      -4.9     10.374     13.568
REMARK  6 active torsions:
REMARK  status: ('A' for Active; 'I' for Inactive)
REMARK    1  A    between atoms: C_1  and  C_2 
REMARK    2  A    between atoms: C_2  and  C_20 
REMARK    3  A    between atoms: C_7  and  C_8 
REMARK    4  A    between atoms: C_11  and  N_14 
REMARK    5  A    between atoms: N_14  and  C_15 
REMARK    6  A    between atoms: N_14  and  C_16 
ROOT
ATOM      1  C   LIG d   1       6.802 -10.562  -1.346  0.00  0.00    -0.024 A 
ATOM      2  C   LIG d   1       7.842  -9.626  -1.468  0.00  0.00    -0.053 A 
ATOM      3  C   LIG d   1       9.091  -9.935  -1.012  0.00  0.00    -0.040 A 
ATOM      4  C   LIG d   1       9.335 -11.176  -0.428  0.00  0.00     0.029 A 
ATOM      5  C   LIG d   1       8.307 -12.110  -0.305  0.00  0.00    -0.040 A 
ATOM      6  C   LIG d   1       7.053 -11.809  -0.752  0.00  0.00    -0.053 A 
ATOM      7  H   LIG d   1       7.653  -8.664  -1.920  0.00  0.00     0.062 H 
ATOM      8  H   LIG d   1       9.892  -9.216  -1.105  0.00  0.00     0.064 H 
ATOM      9  H   LIG d   1       8.502 -13.070   0.148  0.00  0.00     0.064 H 
ATOM     10  H   LIG d   1       6.256 -12.530  -0.652  0.00  0.00     0.062 H 
ENDROOT
BRANCH   1  11
ATOM     11  C   LIG d   1       5.463 -10.236  -1.832  0.00  0.00    -0.034 C 
ATOM     12  C   LIG d   1       5.153 -10.398  -3.168  0.00  0.00     0.143 C 
ATOM     13  C   LIG d   1       3.874  -9.929  -3.766  0.00  0.00     0.349 C 
ATOM     14  C   LIG d   1       6.070 -11.058  -4.137  0.00  0.00     0.349 C 
ATOM     15  O   LIG d   1       3.968  -9.490  -5.052  0.00  0.00    -0.419 OA
ATOM     16  O   LIG d   1       2.824  -9.937  -3.153  0.00  0.00    -0.245 OA
ATOM     17  C   LIG d   1       4.722 -10.328  -5.935  0.00  0.00     0.255 C 
ATOM     18  O   LIG d   1       6.032 -10.551  -5.401  0.00  0.00    -0.419 OA
ATOM     19  O   LIG d   1       6.799 -11.980  -3.825  0.00  0.00    -0.245 OA
ATOM     20  H   LIG d   1       4.714  -9.868  -1.145  0.00  0.00     0.063 H 
BRANCH  17  21
ATOM     21  C   LIG d   1       4.004 -11.670  -6.097  0.00  0.00     0.013 C 
ATOM     22  H   LIG d   1       4.081 -12.001  -7.132  0.00  0.00     0.030 H 
ATOM     23  H   LIG d   1       4.466 -12.411  -5.444  0.00  0.00     0.030 H 
ATOM     24  H   LIG d   1       2.953 -11.555  -5.829  0.00  0.00     0.030 H 
ENDBRANCH  17  21
BRANCH  17  25
ATOM     25  C   LIG d   1       4.838  -9.649  -7.301  0.00  0.00     0.013 C 
ATOM     26  H   LIG d   1       4.053  -8.900  -7.403  0.00  0.00     0.030 H 
ATOM     27  H   LIG d   1       5.813  -9.168  -7.385  0.00  0.00     0.030 H 
ATOM     28  H   LIG d   1       4.733 -10.395  -8.088  0.00  0.00     0.030 H 
ENDBRANCH  17  25
ENDBRANCH   1  11
BRANCH   4  29
ATOM     29  N   LIG d   1      10.607 -11.486   0.033  0.00  0.00    -0.336 N 
BRANCH  29  30
ATOM     30  C   LIG d   1      10.820 -11.781   1.452  0.00  0.00     0.000 C 
ATOM     31  H   LIG d   1      11.566 -11.098   1.858  0.00  0.00     0.043 H 
ATOM     32  H   LIG d   1       9.881 -11.655   1.994  0.00  0.00     0.043 H 
ATOM     33  H   LIG d   1      11.168 -12.807   1.562  0.00  0.00     0.043 H 
ENDBRANCH  29  30
BRANCH  29  34
ATOM     34  C   LIG d   1      11.737 -11.516  -0.898  0.00  0.00     0.000 C 
ATOM     35  H   LIG d   1      11.445 -11.049  -1.839  0.00  0.00     0.043 H 
ATOM     36  H   LIG d   1      12.578 -10.973  -0.469  0.00  0.00     0.043 H 
ATOM     37  H   LIG d   1      12.028 -12.550  -1.083  0.00  0.00     0.043 H 
ENDBRANCH  29  34
ENDBRANCH   4  29
TORSDOF 6
ENDMDL
MODEL 6
REMARK VINA RESULT:      -4.8      3.510      6.567
REMARK  6 active torsions:
REMARK  status: ('A' for Active; 'I' for Inactive)
REMARK    1  A    between atoms: C_1  and  C_2 
REMARK    2  A    between atoms: C_2  and  C_20 
REMARK    3  A    between atoms: C_7  and  C_8 
REMARK    4  A    between atoms: C_11  and  N_14 
REMARK    5  A    between atoms: N_14  and  C_15 
REMARK    6  A    between atoms: N_14  and  C_16 
ROOT
ATOM      1  C   LIG d   1       6.073  -1.554  -4.484  0.00  0.00    -0.024 A 
ATOM      2  C   LIG d   1       6.227  -2.948  -4.404  0.00  0.00    -0.053 A 
ATOM      3  C   LIG d   1       7.475  -3.498  -4.456  0.00  0.00    -0.040 A 
ATOM      4  C   LIG d   1       8.595  -2.679  -4.587  0.00  0.00     0.029 A 
ATOM      5  C   LIG d   1       8.449  -1.295  -4.666  0.00  0.00    -0.040 A 
ATOM      6  C   LIG d   1       7.205  -0.735  -4.622  0.00  0.00    -0.053 A 
ATOM      7  H   LIG d   1       5.359  -3.583  -4.303  0.00  0.00     0.062 H 
ATOM      8  H   LIG d   1       7.595  -4.570  -4.394  0.00  0.00     0.064 H 
ATOM      9  H   LIG d   1       9.320  -0.666  -4.768  0.00  0.00     0.064 H 
ATOM     10  H   LIG d   1       7.092   0.336  -4.689  0.00  0.00     0.062 H 
ENDROOT
BRANCH   1  11
ATOM     11  C   LIG d   1       4.739  -0.960  -4.431  0.00  0.00    -0.034 C 
ATOM     12  C   LIG d   1       4.159  -0.457  -5.579  0.00  0.00     0.143 C 
ATOM     13  C   LIG d   1       2.885   0.311  -5.572  0.00  0.00     0.349 C 
ATOM     14  C   LIG d   1       4.754  -0.637  -6.931  0.00  0.00     0.349 C 
ATOM     15  O   LIG d   1       2.805   1.297  -6.510  0.00  0.00    -0.419 OA
ATOM     16  O   LIG d   1       1.984   0.078  -4.791  0.00  0.00    -0.245 OA
ATOM     17  C   LIG d   1       3.228   0.929  -7.828  0.00  0.00     0.255 C 
ATOM     18  O   LIG d   1       4.560   0.406  -7.787  0.00  0.00    -0.419 OA
ATOM     19  O   LIG d   1       5.365  -1.638  -7.250  0.00  0.00    -0.245 OA
ATOM     20  H   LIG d   1       4.206  -0.915  -3.492  0.00  0.00     0.063 H 
BRANCH  17  21
ATOM     21  C   LIG d   1       2.281  -0.135  -8.386  0.00  0.00     0.013 C 
ATOM     22  H   LIG d   1       1.901  -0.748  -7.569  0.00  0.00     0.030 H 
ATOM     23  H   LIG d   1       1.448   0.349  -8.895  0.00  0.00     0.030 H 
ATOM     24  H   LIG d   1       2.821  -0.767  -9.093  0.00  0.00     0.030 H 
ENDBRANCH  17  21
BRANCH  17  25
ATOM     25  C   LIG d   1       3.194   2.163  -8.732  0.00  0.00     0.013 C 
ATOM     26  H   LIG d   1       3.208   1.849  -9.775  0.00  0.00     0.030 H 
ATOM     27  H   LIG d   1       2.286   2.733  -8.535  0.00  0.00     0.030 H 
ATOM     28  H   LIG d   1       4.065   2.787  -8.528  0.00  0.00     0.030 H 
ENDBRANCH  17  25
ENDBRANCH   1  11
BRANCH   4  29
ATOM     29  N   LIG d   1       9.863  -3.244  -4.638  0.00  0.00    -0.336 N 
BRANCH  29  30
ATOM     30  C   LIG d   1      10.037  -4.674  -4.374  0.00  0.00     0.000 C 
ATOM     31  H   LIG d   1      11.099  -4.897  -4.268  0.00  0.00     0.043 H 
ATOM     32  H   LIG d   1       9.517  -4.939  -3.453  0.00  0.00     0.043 H 
ATOM     33  H   LIG d   1       9.626  -5.250  -5.202  0.00  0.00     0.043 H 
ENDBRANCH  29  30
BRANCH  29  34
ATOM     34  C   LIG d   1      11.024  -2.410  -4.954  0.00  0.00     0.000 C 
ATOM     35  H   LIG d   1      11.731  -2.441  -4.124  0.00  0.00     0.043 H 
ATOM     36  H   LIG d   1      11.507  -2.786  -5.856  0.00  0.00     0.043 H 
ATOM     37  H   LIG d   1      10.701  -1.382  -5.116  0.00  0.00     0.043 H 
ENDBRANCH  29  34
ENDBRANCH   4  29
TORSDOF 6
ENDMDL
MODEL 7
REMARK VINA RESULT:      -4.7      4.537      6.383
REMARK  6 active torsions:
REMARK  status: ('A' for Active; 'I' for Inactive)
REMARK    1  A    between atoms: C_1  and  C_2 
REMARK    2  A    between atoms: C_2  and  C_20 
REMARK    3  A    between atoms: C_7  and  C_8 
REMARK    4  A    between atoms: C_11  and  N_14 
REMARK    5  A    between atoms: N_14  and  C_15 
REMARK    6  A    between atoms: N_14  and  C_16 
ROOT
ATOM      1  C   LIG d   1       5.436  -4.018  -6.180  0.00  0.00    -0.024 A 
ATOM      2  C   LIG d   1       4.439  -4.835  -5.621  0.00  0.00    -0.053 A 
ATOM      3  C   LIG d   1       4.693  -6.155  -5.389  0.00  0.00    -0.040 A 
ATOM      4  C   LIG d   1       5.940  -6.693  -5.704  0.00  0.00     0.029 A 
ATOM      5  C   LIG d   1       6.934  -5.887  -6.258  0.00  0.00    -0.040 A 
ATOM      6  C   LIG d   1       6.688  -4.567  -6.499  0.00  0.00    -0.053 A 
ATOM      7  H   LIG d   1       3.473  -4.418  -5.378  0.00  0.00     0.062 H 
ATOM      8  H   LIG d   1       3.927  -6.784  -4.959  0.00  0.00     0.064 H 
ATOM      9  H   LIG d   1       7.897  -6.310  -6.499  0.00  0.00     0.064 H 
ATOM     10  H   LIG d   1       7.456  -3.945  -6.933  0.00  0.00     0.062 H 
ENDROOT
BRANCH   1  11
ATOM     11  C   LIG d   1       5.168  -2.603  -6.432  0.00  0.00    -0.034 C 
ATOM     12  C   LIG d   1       5.292  -1.684  -5.409  0.00  0.00     0.143 C 
ATOM     13  C   LIG d   1       4.873  -0.262  -5.543  0.00  0.00     0.349 C 
ATOM     14  C   LIG d   1       5.855  -2.027  -4.075  0.00  0.00     0.349 C 
ATOM     15  O   LIG d   1       4.375   0.300  -4.406  0.00  0.00    -0.419 OA
ATOM     16  O   LIG d   1       4.968   0.352  -6.588  0.00  0.00    -0.245 OA
ATOM     17  C   LIG d   1       5.130   0.051  -3.215  0.00  0.00     0.255 C 
ATOM     18  O   LIG d   1       5.298  -1.359  -3.026  0.00  0.00    -0.419 OA
ATOM     19  O   LIG d   1       6.745  -2.842  -3.931  0.00  0.00    -0.245 OA
ATOM     20  H   LIG d   1       4.874  -2.277  -7.419  0.00  0.00     0.063 H 
BRANCH  17  21
ATOM     21  C   LIG d   1       6.504   0.714  -3.336  0.00  0.00     0.013 C 
ATOM     22  H   LIG d   1       6.463   1.499  -4.092  0.00  0.00     0.030 H 
ATOM     23  H   LIG d   1       6.785   1.148  -2.377  0.00  0.00     0.030 H 
ATOM     24  H   LIG d   1       7.243  -0.032  -3.628  0.00  0.00     0.030 H 
ENDBRANCH  17  21
BRANCH  17  25
ATOM     25  C   LIG d   1       4.388   0.640  -2.014  0.00  0.00     0.013 C 
ATOM     26  H   LIG d   1       4.676   1.682  -1.883  0.00  0.00     0.030 H 
ATOM     27  H   LIG d   1       3.313   0.578  -2.185  0.00  0.00     0.030 H 
ATOM     28  H   LIG d   1       4.644   0.076  -1.116  0.00  0.00     0.030 H 
ENDBRANCH  17  25
ENDBRANCH   1  11
BRANCH   4  29
ATOM     29  N   LIG d   1       6.193  -8.037  -5.464  0.00  0.00    -0.336 N 
BRANCH  29  30
ATOM     30  C   LIG d   1       7.556  -8.559  -5.595  0.00  0.00     0.000 C 
ATOM     31  H   LIG d   1       8.265  -7.822  -5.217  0.00  0.00     0.043 H 
ATOM     32  H   LIG d   1       7.649  -9.480  -5.019  0.00  0.00     0.043 H 
ATOM     33  H   LIG d   1       7.769  -8.763  -6.643  0.00  0.00     0.043 H 
ENDBRANCH  29  30
BRANCH  29  34
ATOM     34  C   LIG d   1       5.100  -8.932  -5.082  0.00  0.00     0.000 C 
ATOM     35  H   LIG d   1       5.120  -9.822  -5.713  0.00  0.00     0.043 H 
ATOM     36  H   LIG d   1       5.217  -9.225  -4.039  0.00  0.00     0.043 H 
ATOM     37  H   LIG d   1       4.147  -8.419  -5.211  0.00  0.00     0.043 H 
ENDBRANCH  29  34
ENDBRANCH   4  29
TORSDOF 6
ENDMDL
MODEL 8
REMARK VINA RESULT:      -4.7      5.453      8.292
REMARK  6 active torsions:
REMARK  status: ('A' for Active; 'I' for Inactive)
REMARK    1  A    between atoms: C_1  and  C_2 
REMARK    2  A    between atoms: C_2  and  C_20 
REMARK    3  A    between atoms: C_7  and  C_8 
REMARK    4  A    between atoms: C_11  and  N_14 
REMARK    5  A    between atoms: N_14  and  C_15 
REMARK    6  A    between atoms: N_14  and  C_16 
ROOT
ATOM      1  C   LIG d   1       8.697  -3.950  -4.619  0.00  0.00    -0.024 A 
ATOM      2  C   LIG d   1       9.544  -3.513  -5.651  0.00  0.00    -0.053 A 
ATOM      3  C   LIG d   1      10.861  -3.272  -5.392  0.00  0.00    -0.040 A 
ATOM      4  C   LIG d   1      11.368  -3.460  -4.107  0.00  0.00     0.029 A 
ATOM      5  C   LIG d   1      10.532  -3.895  -3.079  0.00  0.00    -0.040 A 
ATOM      6  C   LIG d   1       9.212  -4.133  -3.326  0.00  0.00    -0.053 A 
ATOM      7  H   LIG d   1       9.152  -3.367  -6.647  0.00  0.00     0.062 H 
ATOM      8  H   LIG d   1      11.514  -2.935  -6.185  0.00  0.00     0.064 H 
ATOM      9  H   LIG d   1      10.930  -4.038  -2.086  0.00  0.00     0.064 H 
ATOM     10  H   LIG d   1       8.564  -4.464  -2.528  0.00  0.00     0.062 H 
ENDROOT
BRANCH   1  11
ATOM     11  C   LIG d   1       7.284  -4.209  -4.891  0.00  0.00    -0.034 C 
ATOM     12  C   LIG d   1       6.333  -3.260  -4.570  0.00  0.00     0.143 C 
ATOM     13  C   LIG d   1       4.870  -3.518  -4.658  0.00  0.00     0.349 C 
ATOM     14  C   LIG d   1       6.682  -1.889  -4.107  0.00  0.00     0.349 C 
ATOM     15  O   LIG d   1       4.118  -2.884  -3.714  0.00  0.00    -0.419 OA
ATOM     16  O   LIG d   1       4.383  -4.239  -5.506  0.00  0.00    -0.245 OA
ATOM     17  C   LIG d   1       4.430  -1.502  -3.505  0.00  0.00     0.255 C 
ATOM     18  O   LIG d   1       5.820  -1.354  -3.197  0.00  0.00    -0.419 OA
ATOM     19  O   LIG d   1       7.660  -1.292  -4.510  0.00  0.00    -0.245 OA
ATOM     20  H   LIG d   1       6.984  -5.143  -5.343  0.00  0.00     0.063 H 
BRANCH  17  21
ATOM     21  C   LIG d   1       4.103  -0.711  -4.773  0.00  0.00     0.013 C 
ATOM     22  H   LIG d   1       4.702  -1.089  -5.602  0.00  0.00     0.030 H 
ATOM     23  H   LIG d   1       3.045  -0.822  -5.009  0.00  0.00     0.030 H 
ATOM     24  H   LIG d   1       4.331   0.343  -4.613  0.00  0.00     0.030 H 
ENDBRANCH  17  21
BRANCH  17  25
ATOM     25  C   LIG d   1       3.592  -0.966  -2.343  0.00  0.00     0.013 C 
ATOM     26  H   LIG d   1       2.580  -0.759  -2.689  0.00  0.00     0.030 H 
ATOM     27  H   LIG d   1       3.559  -1.708  -1.546  0.00  0.00     0.030 H 
ATOM     28  H   LIG d   1       4.042  -0.047  -1.964  0.00  0.00     0.030 H 
ENDBRANCH  17  25
ENDBRANCH   1  11
BRANCH   4  29
ATOM     29  N   LIG d   1      12.709  -3.214  -3.850  0.00  0.00    -0.336 N 
BRANCH  29  30
ATOM     30  C   LIG d   1      13.600  -4.321  -3.491  0.00  0.00     0.000 C 
ATOM     31  H   LIG d   1      13.013  -5.227  -3.346  0.00  0.00     0.043 H 
ATOM     32  H   LIG d   1      14.323  -4.480  -4.292  0.00  0.00     0.043 H 
ATOM     33  H   LIG d   1      14.128  -4.079  -2.569  0.00  0.00     0.043 H 
ENDBRANCH  29  30
BRANCH  29  34
ATOM     34  C   LIG d   1      13.235  -1.850  -3.936  0.00  0.00     0.000 C 
ATOM     35  H   LIG d   1      14.312  -1.885  -4.104  0.00  0.00     0.043 H 
ATOM     36  H   LIG d   1      12.755  -1.326  -4.762  0.00  0.00     0.043 H 
ATOM     37  H   LIG d   1      13.031  -1.322  -3.004  0.00  0.00     0.043 H 
ENDBRANCH  29  34
ENDBRANCH   4  29
TORSDOF 6
ENDMDL
MODEL 9
REMARK VINA RESULT:      -4.6      4.785      7.074
REMARK  6 active torsions:
REMARK  status: ('A' for Active; 'I' for Inactive)
REMARK    1  A    between atoms: C_1  and  C_2 
REMARK    2  A    between atoms: C_2  and  C_20 
REMARK    3  A    between atoms: C_7  and  C_8 
REMARK    4  A    between atoms: C_11  and  N_14 
REMARK    5  A    between atoms: N_14  and  C_15 
REMARK    6  A    between atoms: N_14  and  C_16 
ROOT
ATOM      1  C   LIG d   1       8.083   0.603  -5.999  0.00  0.00    -0.024 A 
ATOM      2  C   LIG d   1       8.286   1.976  -6.221  0.00  0.00    -0.053 A 
ATOM      3  C   LIG d   1       9.473   2.552  -5.873  0.00  0.00    -0.040 A 
ATOM      4  C   LIG d   1      10.483   1.782  -5.299  0.00  0.00     0.029 A 
ATOM      5  C   LIG d   1      10.287   0.419  -5.077  0.00  0.00    -0.040 A 
ATOM      6  C   LIG d   1       9.102  -0.166  -5.417  0.00  0.00    -0.053 A 
ATOM      7  H   LIG d   1       7.503   2.573  -6.665  0.00  0.00     0.062 H 
ATOM      8  H   LIG d   1       9.630   3.607  -6.043  0.00  0.00     0.064 H 
ATOM      9  H   LIG d   1      11.074  -0.172  -4.632  0.00  0.00     0.064 H 
ATOM     10  H   LIG d   1       8.950  -1.220  -5.240  0.00  0.00     0.062 H 
ENDROOT
BRANCH   1  11
ATOM     11  C   LIG d   1       6.814  -0.019  -6.370  0.00  0.00    -0.034 C 
ATOM     12  C   LIG d   1       5.860  -0.273  -5.403  0.00  0.00     0.143 C 
ATOM     13  C   LIG d   1       4.622  -1.054  -5.673  0.00  0.00     0.349 C 
ATOM     14  C   LIG d   1       5.980   0.211  -4.001  0.00  0.00     0.349 C 
ATOM     15  O   LIG d   1       4.185  -1.814  -4.629  0.00  0.00    -0.419 OA
ATOM     16  O   LIG d   1       4.045  -1.018  -6.742  0.00  0.00    -0.245 OA
ATOM     17  C   LIG d   1       4.165  -1.158  -3.356  0.00  0.00     0.255 C 
ATOM     18  O   LIG d   1       5.460  -0.625  -3.059  0.00  0.00    -0.419 OA
ATOM     19  O   LIG d   1       6.502   1.271  -3.717  0.00  0.00    -0.245 OA
ATOM     20  H   LIG d   1       6.621  -0.280  -7.400  0.00  0.00     0.063 H 
BRANCH  17  21
ATOM     21  C   LIG d   1       3.142  -0.020  -3.388  0.00  0.00     0.013 C 
ATOM     22  H   LIG d   1       2.293  -0.311  -4.006  0.00  0.00     0.030 H 
ATOM     23  H   LIG d   1       2.800   0.190  -2.375  0.00  0.00     0.030 H 
ATOM     24  H   LIG d   1       3.606   0.874  -3.807  0.00  0.00     0.030 H 
ENDBRANCH  17  21
BRANCH  17  25
ATOM     25  C   LIG d   1       3.769  -2.165  -2.275  0.00  0.00     0.013 C 
ATOM     26  H   LIG d   1       2.865  -1.822  -1.772  0.00  0.00     0.030 H 
ATOM     27  H   LIG d   1       3.583  -3.136  -2.734  0.00  0.00     0.030 H 
ATOM     28  H   LIG d   1       4.577  -2.256  -1.549  0.00  0.00     0.030 H 
ENDBRANCH  17  25
ENDBRANCH   1  11
BRANCH   4  29
ATOM     29  N   LIG d   1      11.688   2.373  -4.948  0.00  0.00    -0.336 N 
BRANCH  29  30
ATOM     30  C   LIG d   1      12.215   3.488  -5.739  0.00  0.00     0.000 C 
ATOM     31  H   LIG d   1      11.799   3.447  -6.746  0.00  0.00     0.043 H 
ATOM     32  H   LIG d   1      11.934   4.431  -5.269  0.00  0.00     0.043 H 
ATOM     33  H   LIG d   1      13.300   3.417  -5.791  0.00  0.00     0.043 H 
ENDBRANCH  29  30
BRANCH  29  34
ATOM     34  C   LIG d   1      12.435   1.883  -3.787  0.00  0.00     0.000 C 
ATOM     35  H   LIG d   1      12.470   2.660  -3.022  0.00  0.00     0.043 H 
ATOM     36  H   LIG d   1      11.941   0.999  -3.383  0.00  0.00     0.043 H 
ATOM     37  H   LIG d   1      13.450   1.626  -4.090  0.00  0.00     0.043 H 
ENDBRANCH  29  34
ENDBRANCH   4  29
TORSDOF 6
ENDMDL
MODEL 10
REMARK VINA RESULT:      -4.6      8.476     10.011
REMARK  6 active torsions:
REMARK  status: ('A' for Active; 'I' for Inactive)
REMARK    1  A    between atoms: C_1  and  C_2 
REMARK    2  A    between atoms: C_2  and  C_20 
REMARK    3  A    between atoms: C_7  and  C_8 
REMARK    4  A    between atoms: C_11  and  N_14 
REMARK    5  A    between atoms: N_14  and  C_15 
REMARK    6  A    between atoms: N_14  and  C_16 
ROOT
ATOM      1  C   LIG d   1       9.540   5.374  -4.689  0.00  0.00    -0.024 A 
ATOM      2  C   LIG d   1       9.017   4.100  -4.412  0.00  0.00    -0.053 A 
ATOM      3  C   LIG d   1       9.208   3.080  -5.298  0.00  0.00    -0.040 A 
ATOM      4  C   LIG d   1       9.919   3.300  -6.476  0.00  0.00     0.029 A 
ATOM      5  C   LIG d   1      10.441   4.562  -6.756  0.00  0.00    -0.040 A 
ATOM      6  C   LIG d   1      10.252   5.590  -5.880  0.00  0.00    -0.053 A 
ATOM      7  H   LIG d   1       8.466   3.929  -3.499  0.00  0.00     0.062 H 
ATOM      8  H   LIG d   1       8.806   2.099  -5.085  0.00  0.00     0.064 H 
ATOM      9  H   LIG d   1      10.992   4.726  -7.670  0.00  0.00     0.064 H 
ATOM     10  H   LIG d   1      10.652   6.569  -6.100  0.00  0.00     0.062 H 
ENDROOT
BRANCH   1  11
ATOM     11  C   LIG d   1       9.339   6.470  -3.744  0.00  0.00    -0.034 C 
ATOM     12  C   LIG d   1      10.015   6.478  -2.540  0.00  0.00     0.143 C 
ATOM     13  C   LIG d   1       9.736   7.463  -1.460  0.00  0.00     0.349 C 
ATOM     14  C   LIG d   1      11.089   5.502  -2.208  0.00  0.00     0.349 C 
ATOM     15  O   LIG d   1       9.879   6.983  -0.193  0.00  0.00    -0.419 OA
ATOM     16  O   LIG d   1       9.405   8.610  -1.691  0.00  0.00    -0.245 OA
ATOM     17  C   LIG d   1      11.066   6.217   0.044  0.00  0.00     0.255 C 
ATOM     18  O   LIG d   1      11.151   5.140  -0.896  0.00  0.00    -0.419 OA
ATOM     19  O   LIG d   1      11.853   5.061  -3.044  0.00  0.00    -0.245 OA
ATOM     20  H   LIG d   1       8.661   7.275  -3.987  0.00  0.00     0.063 H 
BRANCH  17  21
ATOM     21  C   LIG d   1      12.291   7.120  -0.106  0.00  0.00     0.013 C 
ATOM     22  H   LIG d   1      12.534   7.568   0.858  0.00  0.00     0.030 H 
ATOM     23  H   LIG d   1      13.138   6.530  -0.457  0.00  0.00     0.030 H 
ATOM     24  H   LIG d   1      12.075   7.909  -0.828  0.00  0.00     0.030 H 
ENDBRANCH  17  21
BRANCH  17  25
ATOM     25  C   LIG d   1      11.026   5.650   1.464  0.00  0.00     0.013 C 
ATOM     26  H   LIG d   1      11.778   4.869   1.565  0.00  0.00     0.030 H 
ATOM     27  H   LIG d   1      11.230   6.447   2.179  0.00  0.00     0.030 H 
ATOM     28  H   LIG d   1      10.038   5.231   1.661  0.00  0.00     0.030 H 
ENDBRANCH  17  25
ENDBRANCH   1  11
BRANCH   4  29
ATOM     29  N   LIG d   1      10.110   2.258  -7.373  0.00  0.00    -0.336 N 
BRANCH  29  30
ATOM     30  C   LIG d   1      10.024   0.870  -6.912  0.00  0.00     0.000 C 
ATOM     31  H   LIG d   1      10.281   0.822  -5.854  0.00  0.00     0.043 H 
ATOM     32  H   LIG d   1       9.008   0.502  -7.056  0.00  0.00     0.043 H 
ATOM     33  H   LIG d   1      10.718   0.254  -7.482  0.00  0.00     0.043 H 
ENDBRANCH  29  30
BRANCH  29  34
ATOM     34  C   LIG d   1      10.399   2.546  -8.779  0.00  0.00     0.000 C 
ATOM     35  H   LIG d   1      10.039   1.724  -9.400  0.00  0.00     0.043 H 
ATOM     36  H   LIG d   1       9.898   3.468  -9.073  0.00  0.00     0.043 H 
ATOM     37  H   LIG d   1      11.474   2.657  -8.915  0.00  0.00     0.043 H 
ENDBRANCH  29  34
ENDBRANCH   4  29
TORSDOF 6
ENDMDL
