MODEL 1
REMARK VINA RESULT:      -8.0      0.000      0.000
REMARK  3 active torsions:
REMARK  status: ('A' for Active; 'I' for Inactive)
REMARK    1  A    between atoms: C_11  and  C_18 
REMARK    2  A    between atoms: CA_13  and  C_16 
REMARK    3  A    between atoms: C_22  and  O_24 
ROOT
ATOM      1  C   LIG d   1       3.442   0.322 -11.072  0.00  0.00    -0.061 A 
ATOM      2  C   LIG d   1       3.898   1.517 -10.538  0.00  0.00    -0.060 A 
ATOM      3  C   LIG d   1       4.385   1.609  -9.246  0.00  0.00    -0.038 A 
ATOM      4  C   LIG d   1       4.400   0.439  -8.491  0.00  0.00     0.047 A 
ATOM      5  C   LIG d   1       3.933  -0.783  -9.043  0.00  0.00     0.004 A 
ATOM      6  C   LIG d   1       3.446  -0.847 -10.352  0.00  0.00    -0.052 A 
ATOM      7  C   LIG d   1       4.090  -1.775  -8.002  0.00  0.00    -0.008 A 
ATOM      8  C   LIG d   1       4.615  -1.145  -6.926  0.00  0.00     0.074 A 
ATOM      9  N   LIG d   1       4.804   0.180  -7.213  0.00  0.00    -0.353 N 
ATOM     10  H   LIG d   1       5.170   0.837  -6.599  0.00  0.00     0.166 HD
ATOM     11  C   LIG d   1       4.923  -1.853  -5.628  0.00  0.00     0.045 C 
ATOM     12  H   LIG d   1       5.996  -2.030  -5.550  0.00  0.00     0.097 H 
ATOM     13  CA  LIG d   1       4.471  -3.910  -6.838  0.00  0.00     0.023 C 
ATOM     14  HA  LIG d   1       5.544  -3.938  -7.026  0.00  0.00     0.092 H 
ATOM     15  C   LIG d   1       3.761  -3.246  -8.026  0.00  0.00     0.023 C 
ATOM     16  H   LIG d   1       3.074   0.310 -12.087  0.00  0.00     0.062 H 
ATOM     17  H   LIG d   1       3.870   2.405 -11.150  0.00  0.00     0.062 H 
ATOM     18  H   LIG d   1       4.736   2.546  -8.841  0.00  0.00     0.064 H 
ATOM     19  H   LIG d   1       3.089  -1.774 -10.778  0.00  0.00     0.062 H 
ATOM     20  H   LIG d   1       4.112  -3.688  -8.959  0.00  0.00     0.037 H 
ATOM     21  H   LIG d   1       2.683  -3.383  -7.934  0.00  0.00     0.037 H 
ATOM     22  N   LIG d   1       4.199  -3.142  -5.606  0.00  0.00     0.243 N 
ATOM     23  H1  LIG d   1       3.191  -2.962  -5.535  0.00  0.00     0.203 HD
ATOM     24  H2  LIG d   1       4.507  -3.689  -4.792  0.00  0.00     0.203 HD
ENDROOT
BRANCH  11  25
ATOM     25  C   LIG d   1       4.465  -1.006  -4.469  0.00  0.00     0.010 A 
ATOM     26  C   LIG d   1       5.313  -0.061  -3.926  0.00  0.00    -0.011 A 
ATOM     27  C   LIG d   1       4.888   0.722  -2.862  0.00  0.00     0.117 A 
ATOM     28  H   LIG d   1       6.305   0.071  -4.332  0.00  0.00     0.066 H 
ATOM     29  C   LIG d   1       3.616   0.545  -2.339  0.00  0.00    -0.020 A 
ATOM     30  C   LIG d   1       2.771  -0.401  -2.885  0.00  0.00    -0.058 A 
ATOM     31  H   LIG d   1       3.284   1.151  -1.508  0.00  0.00     0.065 H 
ATOM     32  C   LIG d   1       3.195  -1.176  -3.949  0.00  0.00    -0.053 A 
ATOM     33  H   LIG d   1       1.778  -0.537  -2.481  0.00  0.00     0.062 H 
ATOM     34  H   LIG d   1       2.532  -1.916  -4.374  0.00  0.00     0.062 H 
BRANCH  27  35
ATOM     35  O   LIG d   1       5.719   1.656  -2.330  0.00  0.00    -0.507 OA
ATOM     36  H   LIG d   1       5.959   1.490  -1.408  0.00  0.00     0.292 HD
ENDBRANCH  27  35
ENDBRANCH  11  25
BRANCH  13  37
ATOM     37  C   LIG d   1       3.954  -5.316  -6.666  0.00  0.00     0.090 C 
ATOM     38  O   LIG d   1       3.540  -5.928  -7.621  0.00  0.00    -0.544 OA
ATOM     39  OXT LIG d   1       3.954  -5.886  -5.451  0.00  0.00    -0.544 OA
ENDBRANCH  13  37
TORSDOF 3
ENDMDL
MODEL 2
REMARK VINA RESULT:      -7.4      2.216      5.297
REMARK  3 active torsions:
REMARK  status: ('A' for Active; 'I' for Inactive)
REMARK    1  A    between atoms: C_11  and  C_18 
REMARK    2  A    between atoms: CA_13  and  C_16 
REMARK    3  A    between atoms: C_22  and  O_24 
ROOT
ATOM      1  C   LIG d   1       4.834  -0.988  -1.620  0.00  0.00    -0.061 A 
ATOM      2  C   LIG d   1       4.183   0.235  -1.626  0.00  0.00    -0.060 A 
ATOM      3  C   LIG d   1       3.657   0.784  -2.783  0.00  0.00    -0.038 A 
ATOM      4  C   LIG d   1       3.811   0.052  -3.957  0.00  0.00     0.047 A 
ATOM      5  C   LIG d   1       4.479  -1.201  -3.945  0.00  0.00     0.004 A 
ATOM      6  C   LIG d   1       5.000  -1.732  -2.761  0.00  0.00    -0.052 A 
ATOM      7  C   LIG d   1       4.457  -1.676  -5.311  0.00  0.00    -0.008 A 
ATOM      8  C   LIG d   1       3.814  -0.743  -6.048  0.00  0.00     0.074 A 
ATOM      9  N   LIG d   1       3.423   0.293  -5.243  0.00  0.00    -0.353 N 
ATOM     10  H   LIG d   1       2.943   1.082  -5.543  0.00  0.00     0.166 HD
ATOM     11  C   LIG d   1       3.591  -0.879  -7.536  0.00  0.00     0.045 C 
ATOM     12  H   LIG d   1       2.559  -1.170  -7.729  0.00  0.00     0.097 H 
ATOM     13  CA  LIG d   1       4.393  -3.157  -7.276  0.00  0.00     0.023 C 
ATOM     14  HA  LIG d   1       3.343  -3.426  -7.167  0.00  0.00     0.092 H 
ATOM     15  C   LIG d   1       5.016  -2.951  -5.888  0.00  0.00     0.023 C 
ATOM     16  H   LIG d   1       5.224  -1.367  -0.687  0.00  0.00     0.062 H 
ATOM     17  H   LIG d   1       4.083   0.777  -0.698  0.00  0.00     0.062 H 
ATOM     18  H   LIG d   1       3.152   1.738  -2.775  0.00  0.00     0.064 H 
ATOM     19  H   LIG d   1       5.509  -2.686  -2.746  0.00  0.00     0.062 H 
ATOM     20  H   LIG d   1       4.762  -3.792  -5.242  0.00  0.00     0.037 H 
ATOM     21  H   LIG d   1       6.100  -2.870  -5.979  0.00  0.00     0.037 H 
ATOM     22  N   LIG d   1       4.510  -1.911  -8.061  0.00  0.00     0.243 N 
ATOM     23  H1  LIG d   1       5.475  -1.565  -8.004  0.00  0.00     0.203 HD
ATOM     24  H2  LIG d   1       4.274  -2.106  -9.042  0.00  0.00     0.203 HD
ENDROOT
BRANCH  11  25
ATOM     25  C   LIG d   1       3.882   0.435  -8.214  0.00  0.00     0.010 A 
ATOM     26  C   LIG d   1       5.189   0.818  -8.445  0.00  0.00    -0.011 A 
ATOM     27  C   LIG d   1       5.456   2.025  -9.075  0.00  0.00     0.117 A 
ATOM     28  H   LIG d   1       6.002   0.177  -8.139  0.00  0.00     0.066 H 
ATOM     29  C   LIG d   1       4.410   2.850  -9.461  0.00  0.00    -0.020 A 
ATOM     30  C   LIG d   1       3.104   2.463  -9.228  0.00  0.00    -0.058 A 
ATOM     31  H   LIG d   1       4.615   3.792  -9.948  0.00  0.00     0.065 H 
ATOM     32  C   LIG d   1       2.841   1.256  -8.605  0.00  0.00    -0.053 A 
ATOM     33  H   LIG d   1       2.289   3.103  -9.532  0.00  0.00     0.062 H 
ATOM     34  H   LIG d   1       1.819   0.956  -8.423  0.00  0.00     0.062 H 
BRANCH  27  35
ATOM     35  O   LIG d   1       6.741   2.402  -9.309  0.00  0.00    -0.507 OA
ATOM     36  H   LIG d   1       7.164   1.925 -10.036  0.00  0.00     0.292 HD
ENDBRANCH  27  35
ENDBRANCH  11  25
BRANCH  13  37
ATOM     37  C   LIG d   1       5.123  -4.263  -7.996  0.00  0.00     0.090 C 
ATOM     38  O   LIG d   1       4.506  -5.193  -8.458  0.00  0.00    -0.544 OA
ATOM     39  OXT LIG d   1       6.458  -4.215  -8.121  0.00  0.00    -0.544 OA
ENDBRANCH  13  37
TORSDOF 3
ENDMDL
MODEL 3
REMARK VINA RESULT:      -7.3      5.235      6.949
REMARK  3 active torsions:
REMARK  status: ('A' for Active; 'I' for Inactive)
REMARK    1  A    between atoms: C_11  and  C_18 
REMARK    2  A    between atoms: CA_13  and  C_16 
REMARK    3  A    between atoms: C_22  and  O_24 
ROOT
ATOM      1  C   LIG d   1       4.645  -1.443  -2.159  0.00  0.00    -0.061 A 
ATOM      2  C   LIG d   1       4.130  -0.197  -1.841  0.00  0.00    -0.060 A 
ATOM      3  C   LIG d   1       4.704   0.977  -2.298  0.00  0.00    -0.038 A 
ATOM      4  C   LIG d   1       5.836   0.856  -3.101  0.00  0.00     0.047 A 
ATOM      5  C   LIG d   1       6.359  -0.424  -3.425  0.00  0.00     0.004 A 
ATOM      6  C   LIG d   1       5.758  -1.593  -2.949  0.00  0.00    -0.052 A 
ATOM      7  C   LIG d   1       7.515  -0.180  -4.260  0.00  0.00    -0.008 A 
ATOM      8  C   LIG d   1       7.634   1.160  -4.396  0.00  0.00     0.074 A 
ATOM      9  N   LIG d   1       6.631   1.786  -3.706  0.00  0.00    -0.353 N 
ATOM     10  H   LIG d   1       6.505   2.747  -3.655  0.00  0.00     0.166 HD
ATOM     11  C   LIG d   1       8.733   1.810  -5.202  0.00  0.00     0.045 C 
ATOM     12  H   LIG d   1       8.338   2.147  -6.160  0.00  0.00     0.097 H 
ATOM     13  CA  LIG d   1       9.257  -0.430  -5.981  0.00  0.00     0.023 C 
ATOM     14  HA  LIG d   1       8.603  -0.202  -6.821  0.00  0.00     0.092 H 
ATOM     15  C   LIG d   1       8.458  -1.168  -4.897  0.00  0.00     0.023 C 
ATOM     16  H   LIG d   1       4.155  -2.325  -1.774  0.00  0.00     0.062 H 
ATOM     17  H   LIG d   1       3.253  -0.139  -1.215  0.00  0.00     0.062 H 
ATOM     18  H   LIG d   1       4.294   1.943  -2.043  0.00  0.00     0.064 H 
ATOM     19  H   LIG d   1       6.152  -2.570  -3.192  0.00  0.00     0.062 H 
ATOM     20  H   LIG d   1       7.890  -1.983  -5.348  0.00  0.00     0.037 H 
ATOM     21  H   LIG d   1       9.139  -1.565  -4.144  0.00  0.00     0.037 H 
ATOM     22  N   LIG d   1       9.810   0.820  -5.423  0.00  0.00     0.243 N 
ATOM     23  H1  LIG d   1      10.271   0.617  -4.528  0.00  0.00     0.203 HD
ATOM     24  H2  LIG d   1      10.497   1.209  -6.081  0.00  0.00     0.203 HD
ENDROOT
BRANCH  11  25
ATOM     25  C   LIG d   1       9.290   2.987  -4.442  0.00  0.00     0.010 A 
ATOM     26  C   LIG d   1       9.988   2.783  -3.268  0.00  0.00    -0.011 A 
ATOM     27  C   LIG d   1      10.506   3.865  -2.572  0.00  0.00     0.117 A 
ATOM     28  H   LIG d   1      10.133   1.780  -2.893  0.00  0.00     0.066 H 
ATOM     29  C   LIG d   1      10.312   5.152  -3.053  0.00  0.00    -0.020 A 
ATOM     30  C   LIG d   1       9.614   5.352  -4.228  0.00  0.00    -0.058 A 
ATOM     31  H   LIG d   1      10.711   5.998  -2.511  0.00  0.00     0.065 H 
ATOM     32  C   LIG d   1       9.103   4.270  -4.922  0.00  0.00    -0.053 A 
ATOM     33  H   LIG d   1       9.465   6.353  -4.605  0.00  0.00     0.062 H 
ATOM     34  H   LIG d   1       8.558   4.428  -5.841  0.00  0.00     0.062 H 
BRANCH  27  35
ATOM     35  O   LIG d   1      11.197   3.667  -1.420  0.00  0.00    -0.507 OA
ATOM     36  H   LIG d   1      12.086   4.049  -1.423  0.00  0.00     0.292 HD
ENDBRANCH  27  35
ENDBRANCH  11  25
BRANCH  13  37
ATOM     37  C   LIG d   1      10.392  -1.304  -6.451  0.00  0.00     0.090 C 
ATOM     38  O   LIG d   1      10.967  -1.045  -7.481  0.00  0.00    -0.544 OA
ATOM     39  OXT LIG d   1      10.762  -2.370  -5.725  0.00  0.00    -0.544 OA
ENDBRANCH  13  37
TORSDOF 3
ENDMDL
MODEL 4
REMARK VINA RESULT:      -7.1      4.088      5.790
REMARK  3 active torsions:
REMARK  status: ('A' for Active; 'I' for Inactive)
REMARK    1  A    between atoms: C_11  and  C_18 
REMARK    2  A    between atoms: CA_13  and  C_16 
REMARK    3  A    between atoms: C_22  and  O_24 
ROOT
ATOM      1  C   LIG d   1       3.614   0.442  -2.226  0.00  0.00    -0.061 A 
ATOM      2  C   LIG d   1       4.708   1.291  -2.182  0.00  0.00    -0.060 A 
ATOM      3  C   LIG d   1       5.924   0.959  -2.754  0.00  0.00    -0.038 A 
ATOM      4  C   LIG d   1       6.007  -0.279  -3.387  0.00  0.00     0.047 A 
ATOM      5  C   LIG d   1       4.883  -1.145  -3.431  0.00  0.00     0.004 A 
ATOM      6  C   LIG d   1       3.667  -0.783  -2.843  0.00  0.00    -0.052 A 
ATOM      7  C   LIG d   1       5.316  -2.322  -4.151  0.00  0.00    -0.008 A 
ATOM      8  C   LIG d   1       6.610  -2.128  -4.491  0.00  0.00     0.074 A 
ATOM      9  N   LIG d   1       7.030  -0.906  -4.038  0.00  0.00    -0.353 N 
ATOM     10  H   LIG d   1       7.920  -0.541  -4.161  0.00  0.00     0.166 HD
ATOM     11  C   LIG d   1       7.421  -3.146  -5.257  0.00  0.00     0.045 C 
ATOM     12  H   LIG d   1       7.514  -2.836  -6.298  0.00  0.00     0.097 H 
ATOM     13  CA  LIG d   1       5.321  -4.320  -5.589  0.00  0.00     0.023 C 
ATOM     14  HA  LIG d   1       5.257  -3.770  -6.527  0.00  0.00     0.092 H 
ATOM     15  C   LIG d   1       4.542  -3.567  -4.500  0.00  0.00     0.023 C 
ATOM     16  H   LIG d   1       2.691   0.755  -1.762  0.00  0.00     0.062 H 
ATOM     17  H   LIG d   1       4.610   2.243  -1.682  0.00  0.00     0.062 H 
ATOM     18  H   LIG d   1       6.769   1.629  -2.712  0.00  0.00     0.064 H 
ATOM     19  H   LIG d   1       2.808  -1.438  -2.873  0.00  0.00     0.062 H 
ATOM     20  H   LIG d   1       3.555  -3.296  -4.875  0.00  0.00     0.037 H 
ATOM     21  H   LIG d   1       4.441  -4.198  -3.617  0.00  0.00     0.037 H 
ATOM     22  N   LIG d   1       6.734  -4.453  -5.183  0.00  0.00     0.243 N 
ATOM     23  H1  LIG d   1       6.778  -4.804  -4.219  0.00  0.00     0.203 HD
ATOM     24  H2  LIG d   1       7.205  -5.118  -5.810  0.00  0.00     0.203 HD
ENDROOT
BRANCH  11  25
ATOM     25  C   LIG d   1       8.791  -3.270  -4.642  0.00  0.00     0.010 A 
ATOM     26  C   LIG d   1       8.985  -4.092  -3.549  0.00  0.00    -0.011 A 
ATOM     27  C   LIG d   1      10.248  -4.211  -2.987  0.00  0.00     0.117 A 
ATOM     28  H   LIG d   1       8.156  -4.646  -3.136  0.00  0.00     0.066 H 
ATOM     29  C   LIG d   1      11.311  -3.494  -3.516  0.00  0.00    -0.020 A 
ATOM     30  C   LIG d   1      11.112  -2.672  -4.609  0.00  0.00    -0.058 A 
ATOM     31  H   LIG d   1      12.294  -3.581  -3.078  0.00  0.00     0.065 H 
ATOM     32  C   LIG d   1       9.853  -2.560  -5.171  0.00  0.00    -0.053 A 
ATOM     33  H   LIG d   1      11.940  -2.116  -5.025  0.00  0.00     0.062 H 
ATOM     34  H   LIG d   1       9.700  -1.917  -6.025  0.00  0.00     0.062 H 
BRANCH  27  35
ATOM     35  O   LIG d   1      10.443  -5.024  -1.916  0.00  0.00    -0.507 OA
ATOM     36  H   LIG d   1       9.981  -5.872  -1.976  0.00  0.00     0.292 HD
ENDBRANCH  27  35
ENDBRANCH  11  25
BRANCH  13  37
ATOM     37  C   LIG d   1       4.728  -5.695  -5.770  0.00  0.00     0.090 C 
ATOM     38  O   LIG d   1       3.561  -5.816  -6.056  0.00  0.00    -0.544 OA
ATOM     39  OXT LIG d   1       5.498  -6.783  -5.614  0.00  0.00    -0.544 OA
ENDBRANCH  13  37
TORSDOF 3
ENDMDL
MODEL 5
REMARK VINA RESULT:      -7.0      2.441      5.789
REMARK  3 active torsions:
REMARK  status: ('A' for Active; 'I' for Inactive)
REMARK    1  A    between atoms: C_11  and  C_18 
REMARK    2  A    between atoms: CA_13  and  C_16 
REMARK    3  A    between atoms: C_22  and  O_24 
ROOT
ATOM      1  C   LIG d   1       3.489   1.459  -2.339  0.00  0.00    -0.061 A 
ATOM      2  C   LIG d   1       4.608   0.908  -1.736  0.00  0.00    -0.060 A 
ATOM      3  C   LIG d   1       5.421  -0.007  -2.383  0.00  0.00    -0.038 A 
ATOM      4  C   LIG d   1       5.066  -0.357  -3.683  0.00  0.00     0.047 A 
ATOM      5  C   LIG d   1       3.919   0.211  -4.298  0.00  0.00     0.004 A 
ATOM      6  C   LIG d   1       3.117   1.133  -3.619  0.00  0.00    -0.052 A 
ATOM      7  C   LIG d   1       3.852  -0.366  -5.623  0.00  0.00    -0.008 A 
ATOM      8  C   LIG d   1       4.901  -1.211  -5.744  0.00  0.00     0.074 A 
ATOM      9  N   LIG d   1       5.633  -1.209  -4.588  0.00  0.00    -0.353 N 
ATOM     10  H   LIG d   1       6.434  -1.735  -4.433  0.00  0.00     0.166 HD
ATOM     11  C   LIG d   1       5.172  -2.011  -6.996  0.00  0.00     0.045 C 
ATOM     12  H   LIG d   1       5.986  -1.553  -7.558  0.00  0.00     0.097 H 
ATOM     13  CA  LIG d   1       3.435  -0.664  -8.031  0.00  0.00     0.023 C 
ATOM     14  HA  LIG d   1       4.247  -0.015  -8.355  0.00  0.00     0.092 H 
ATOM     15  C   LIG d   1       2.845  -0.128  -6.718  0.00  0.00     0.023 C 
ATOM     16  H   LIG d   1       2.892   2.168  -1.785  0.00  0.00     0.062 H 
ATOM     17  H   LIG d   1       4.853   1.200  -0.726  0.00  0.00     0.062 H 
ATOM     18  H   LIG d   1       6.290  -0.430  -1.901  0.00  0.00     0.064 H 
ATOM     19  H   LIG d   1       2.242   1.569  -4.082  0.00  0.00     0.062 H 
ATOM     20  H   LIG d   1       2.648   0.941  -6.813  0.00  0.00     0.037 H 
ATOM     21  H   LIG d   1       1.919  -0.655  -6.488  0.00  0.00     0.037 H 
ATOM     22  N   LIG d   1       3.944  -2.034  -7.820  0.00  0.00     0.243 N 
ATOM     23  H1  LIG d   1       3.227  -2.592  -7.342  0.00  0.00     0.203 HD
ATOM     24  H2  LIG d   1       4.156  -2.459  -8.731  0.00  0.00     0.203 HD
ENDROOT
BRANCH  11  25
ATOM     25  C   LIG d   1       5.546  -3.423  -6.624  0.00  0.00     0.010 A 
ATOM     26  C   LIG d   1       4.632  -4.231  -5.976  0.00  0.00    -0.011 A 
ATOM     27  C   LIG d   1       4.974  -5.533  -5.639  0.00  0.00     0.117 A 
ATOM     28  H   LIG d   1       3.649  -3.852  -5.736  0.00  0.00     0.066 H 
ATOM     29  C   LIG d   1       6.238  -6.015  -5.943  0.00  0.00    -0.020 A 
ATOM     30  C   LIG d   1       7.150  -5.203  -6.591  0.00  0.00    -0.058 A 
ATOM     31  H   LIG d   1       6.509  -7.027  -5.679  0.00  0.00     0.065 H 
ATOM     32  C   LIG d   1       6.803  -3.908  -6.931  0.00  0.00    -0.053 A 
ATOM     33  H   LIG d   1       8.133  -5.580  -6.832  0.00  0.00     0.062 H 
ATOM     34  H   LIG d   1       7.517  -3.275  -7.437  0.00  0.00     0.062 H 
BRANCH  27  35
ATOM     35  O   LIG d   1       4.075  -6.332  -5.008  0.00  0.00    -0.507 OA
ATOM     36  H   LIG d   1       4.475  -7.060  -4.512  0.00  0.00     0.292 HD
ENDBRANCH  27  35
ENDBRANCH  11  25
BRANCH  13  37
ATOM     37  C   LIG d   1       2.362  -0.694  -9.089  0.00  0.00     0.090 C 
ATOM     38  O   LIG d   1       1.908   0.340  -9.518  0.00  0.00    -0.544 OA
ATOM     39  OXT LIG d   1       1.911  -1.869  -9.553  0.00  0.00    -0.544 OA
ENDBRANCH  13  37
TORSDOF 3
ENDMDL
MODEL 6
REMARK VINA RESULT:      -6.8      2.775      6.185
REMARK  3 active torsions:
REMARK  status: ('A' for Active; 'I' for Inactive)
REMARK    1  A    between atoms: C_11  and  C_18 
REMARK    2  A    between atoms: CA_13  and  C_16 
REMARK    3  A    between atoms: C_22  and  O_24 
ROOT
ATOM      1  C   LIG d   1       4.959   0.950  -2.073  0.00  0.00    -0.061 A 
ATOM      2  C   LIG d   1       3.606   0.654  -2.087  0.00  0.00    -0.060 A 
ATOM      3  C   LIG d   1       3.001   0.020  -3.158  0.00  0.00    -0.038 A 
ATOM      4  C   LIG d   1       3.816  -0.314  -4.237  0.00  0.00     0.047 A 
ATOM      5  C   LIG d   1       5.202  -0.009  -4.217  0.00  0.00     0.004 A 
ATOM      6  C   LIG d   1       5.787   0.632  -3.121  0.00  0.00    -0.052 A 
ATOM      7  C   LIG d   1       5.732  -0.488  -5.475  0.00  0.00    -0.008 A 
ATOM      8  C   LIG d   1       4.701  -1.030  -6.163  0.00  0.00     0.074 A 
ATOM      9  N   LIG d   1       3.552  -0.931  -5.426  0.00  0.00    -0.353 N 
ATOM     10  H   LIG d   1       2.679  -1.250  -5.708  0.00  0.00     0.166 HD
ATOM     11  C   LIG d   1       4.858  -1.638  -7.536  0.00  0.00     0.045 C 
ATOM     12  H   LIG d   1       4.859  -2.726  -7.460  0.00  0.00     0.097 H 
ATOM     13  CA  LIG d   1       7.250  -1.412  -7.179  0.00  0.00     0.023 C 
ATOM     14  HA  LIG d   1       7.208  -2.435  -6.808  0.00  0.00     0.092 H 
ATOM     15  C   LIG d   1       7.145  -0.435  -5.999  0.00  0.00     0.023 C 
ATOM     16  H   LIG d   1       5.377   1.446  -1.209  0.00  0.00     0.062 H 
ATOM     17  H   LIG d   1       3.003   0.928  -1.234  0.00  0.00     0.062 H 
ATOM     18  H   LIG d   1       1.945  -0.205  -3.157  0.00  0.00     0.064 H 
ATOM     19  H   LIG d   1       6.842   0.867  -3.100  0.00  0.00     0.062 H 
ATOM     20  H   LIG d   1       7.841  -0.730  -5.214  0.00  0.00     0.037 H 
ATOM     21  H   LIG d   1       7.375   0.576  -6.336  0.00  0.00     0.037 H 
ATOM     22  N   LIG d   1       6.135  -1.174  -8.118  0.00  0.00     0.243 N 
ATOM     23  H1  LIG d   1       6.070  -0.169  -8.319  0.00  0.00     0.203 HD
ATOM     24  H2  LIG d   1       6.314  -1.686  -8.991  0.00  0.00     0.203 HD
ENDROOT
BRANCH  11  25
ATOM     25  C   LIG d   1       3.720  -1.195  -8.419  0.00  0.00     0.010 A 
ATOM     26  C   LIG d   1       2.846  -2.129  -8.940  0.00  0.00    -0.011 A 
ATOM     27  C   LIG d   1       1.795  -1.720  -9.748  0.00  0.00     0.117 A 
ATOM     28  H   LIG d   1       2.979  -3.177  -8.716  0.00  0.00     0.066 H 
ATOM     29  C   LIG d   1       1.631  -0.374 -10.040  0.00  0.00    -0.020 A 
ATOM     30  C   LIG d   1       2.507   0.557  -9.516  0.00  0.00    -0.058 A 
ATOM     31  H   LIG d   1       0.816  -0.053 -10.672  0.00  0.00     0.065 H 
ATOM     32  C   LIG d   1       3.551   0.147  -8.706  0.00  0.00    -0.053 A 
ATOM     33  H   LIG d   1       2.378   1.606  -9.740  0.00  0.00     0.062 H 
ATOM     34  H   LIG d   1       4.234   0.877  -8.298  0.00  0.00     0.062 H 
BRANCH  27  35
ATOM     35  O   LIG d   1       0.931  -2.637 -10.257  0.00  0.00    -0.507 OA
ATOM     36  H   LIG d   1       0.723  -2.504 -11.193  0.00  0.00     0.292 HD
ENDBRANCH  27  35
ENDBRANCH  11  25
BRANCH  13  37
ATOM     37  C   LIG d   1       8.556  -1.191  -7.899  0.00  0.00     0.090 C 
ATOM     38  O   LIG d   1       9.021  -2.066  -8.589  0.00  0.00    -0.544 OA
ATOM     39  OXT LIG d   1       9.203  -0.022  -7.771  0.00  0.00    -0.544 OA
ENDBRANCH  13  37
TORSDOF 3
ENDMDL
MODEL 7
REMARK VINA RESULT:      -6.7      3.377      3.664
REMARK  3 active torsions:
REMARK  status: ('A' for Active; 'I' for Inactive)
REMARK    1  A    between atoms: C_11  and  C_18 
REMARK    2  A    between atoms: CA_13  and  C_16 
REMARK    3  A    between atoms: C_22  and  O_24 
ROOT
ATOM      1  C   LIG d   1       9.571  -1.571  -8.454  0.00  0.00    -0.061 A 
ATOM      2  C   LIG d   1       9.941  -0.490  -7.671  0.00  0.00    -0.060 A 
ATOM      3  C   LIG d   1       9.332  -0.212  -6.460  0.00  0.00    -0.038 A 
ATOM      4  C   LIG d   1       8.317  -1.074  -6.052  0.00  0.00     0.047 A 
ATOM      5  C   LIG d   1       7.941  -2.181  -6.858  0.00  0.00     0.004 A 
ATOM      6  C   LIG d   1       8.575  -2.437  -8.077  0.00  0.00    -0.052 A 
ATOM      7  C   LIG d   1       6.876  -2.849  -6.142  0.00  0.00    -0.008 A 
ATOM      8  C   LIG d   1       6.664  -2.155  -5.001  0.00  0.00     0.074 A 
ATOM      9  N   LIG d   1       7.525  -1.093  -4.940  0.00  0.00    -0.353 N 
ATOM     10  H   LIG d   1       7.565  -0.449  -4.215  0.00  0.00     0.166 HD
ATOM     11  C   LIG d   1       5.618  -2.544  -3.984  0.00  0.00     0.045 C 
ATOM     12  H   LIG d   1       6.095  -3.030  -3.132  0.00  0.00     0.097 H 
ATOM     13  CA  LIG d   1       5.375  -4.593  -5.267  0.00  0.00     0.023 C 
ATOM     14  HA  LIG d   1       6.103  -5.015  -4.575  0.00  0.00     0.092 H 
ATOM     15  C   LIG d   1       6.097  -4.083  -6.522  0.00  0.00     0.023 C 
ATOM     16  H   LIG d   1      10.083  -1.738  -9.390  0.00  0.00     0.062 H 
ATOM     17  H   LIG d   1      10.731   0.159  -8.018  0.00  0.00     0.062 H 
ATOM     18  H   LIG d   1       9.629   0.634  -5.859  0.00  0.00     0.064 H 
ATOM     19  H   LIG d   1       8.293  -3.278  -8.695  0.00  0.00     0.062 H 
ATOM     20  H   LIG d   1       6.779  -4.850  -6.891  0.00  0.00     0.037 H 
ATOM     21  H   LIG d   1       5.367  -3.835  -7.293  0.00  0.00     0.037 H 
ATOM     22  N   LIG d   1       4.660  -3.474  -4.619  0.00  0.00     0.243 N 
ATOM     23  H1  LIG d   1       4.115  -2.967  -5.326  0.00  0.00     0.203 HD
ATOM     24  H2  LIG d   1       4.026  -3.848  -3.902  0.00  0.00     0.203 HD
ENDROOT
BRANCH  11  25
ATOM     25  C   LIG d   1       4.882  -1.315  -3.518  0.00  0.00     0.010 A 
ATOM     26  C   LIG d   1       4.087  -0.610  -4.402  0.00  0.00    -0.011 A 
ATOM     27  C   LIG d   1       3.404   0.518  -3.971  0.00  0.00     0.117 A 
ATOM     28  H   LIG d   1       3.994  -0.941  -5.426  0.00  0.00     0.066 H 
ATOM     29  C   LIG d   1       3.531   0.943  -2.657  0.00  0.00    -0.020 A 
ATOM     30  C   LIG d   1       4.327   0.236  -1.777  0.00  0.00    -0.058 A 
ATOM     31  H   LIG d   1       3.004   1.823  -2.320  0.00  0.00     0.065 H 
ATOM     32  C   LIG d   1       5.002  -0.892  -2.207  0.00  0.00    -0.053 A 
ATOM     33  H   LIG d   1       4.423   0.564  -0.752  0.00  0.00     0.062 H 
ATOM     34  H   LIG d   1       5.624  -1.444  -1.518  0.00  0.00     0.062 H 
BRANCH  27  35
ATOM     35  O   LIG d   1       2.617   1.209  -4.836  0.00  0.00    -0.507 OA
ATOM     36  H   LIG d   1       1.982   1.798  -4.406  0.00  0.00     0.292 HD
ENDBRANCH  27  35
ENDBRANCH  11  25
BRANCH  13  37
ATOM     37  C   LIG d   1       4.378  -5.654  -5.657  0.00  0.00     0.090 C 
ATOM     38  O   LIG d   1       4.557  -6.802  -5.325  0.00  0.00    -0.544 OA
ATOM     39  OXT LIG d   1       3.293  -5.324  -6.374  0.00  0.00    -0.544 OA
ENDBRANCH  13  37
TORSDOF 3
ENDMDL
MODEL 8
REMARK VINA RESULT:      -6.7      2.770      6.621
REMARK  3 active torsions:
REMARK  status: ('A' for Active; 'I' for Inactive)
REMARK    1  A    between atoms: C_11  and  C_18 
REMARK    2  A    between atoms: CA_13  and  C_16 
REMARK    3  A    between atoms: C_22  and  O_24 
ROOT
ATOM      1  C   LIG d   1       3.010  -0.363  -2.695  0.00  0.00    -0.061 A 
ATOM      2  C   LIG d   1       3.669  -1.531  -2.344  0.00  0.00    -0.060 A 
ATOM      3  C   LIG d   1       4.340  -2.308  -3.272  0.00  0.00    -0.038 A 
ATOM      4  C   LIG d   1       4.328  -1.865  -4.593  0.00  0.00     0.047 A 
ATOM      5  C   LIG d   1       3.652  -0.667  -4.948  0.00  0.00     0.004 A 
ATOM      6  C   LIG d   1       2.983   0.098  -3.988  0.00  0.00    -0.052 A 
ATOM      7  C   LIG d   1       3.841  -0.513  -6.374  0.00  0.00    -0.008 A 
ATOM      8  C   LIG d   1       4.579  -1.564  -6.796  0.00  0.00     0.074 A 
ATOM      9  N   LIG d   1       4.875  -2.377  -5.734  0.00  0.00    -0.353 N 
ATOM     10  H   LIG d   1       5.396  -3.194  -5.786  0.00  0.00     0.166 HD
ATOM     11  C   LIG d   1       4.984  -1.760  -8.237  0.00  0.00     0.045 C 
ATOM     12  H   LIG d   1       6.030  -1.482  -8.367  0.00  0.00     0.097 H 
ATOM     13  CA  LIG d   1       4.137   0.487  -8.604  0.00  0.00     0.023 C 
ATOM     14  HA  LIG d   1       5.162   0.813  -8.434  0.00  0.00     0.092 H 
ATOM     15  C   LIG d   1       3.346   0.577  -7.290  0.00  0.00     0.023 C 
ATOM     16  H   LIG d   1       2.504   0.203  -1.928  0.00  0.00     0.062 H 
ATOM     17  H   LIG d   1       3.657  -1.846  -1.312  0.00  0.00     0.062 H 
ATOM     18  H   LIG d   1       4.848  -3.216  -2.986  0.00  0.00     0.064 H 
ATOM     19  H   LIG d   1       2.467   1.010  -4.252  0.00  0.00     0.062 H 
ATOM     20  H   LIG d   1       3.511   1.551  -6.828  0.00  0.00     0.037 H 
ATOM     21  H   LIG d   1       2.284   0.437  -7.489  0.00  0.00     0.037 H 
ATOM     22  N   LIG d   1       4.129  -0.907  -9.091  0.00  0.00     0.243 N 
ATOM     23  H1  LIG d   1       3.168  -1.267  -9.072  0.00  0.00     0.203 HD
ATOM     24  H2  LIG d   1       4.484  -0.930 -10.055  0.00  0.00     0.203 HD
ENDROOT
BRANCH  11  25
ATOM     25  C   LIG d   1       4.792  -3.203  -8.626  0.00  0.00     0.010 A 
ATOM     26  C   LIG d   1       3.521  -3.743  -8.667  0.00  0.00    -0.011 A 
ATOM     27  C   LIG d   1       3.344  -5.070  -9.032  0.00  0.00     0.117 A 
ATOM     28  H   LIG d   1       2.666  -3.133  -8.418  0.00  0.00     0.066 H 
ATOM     29  C   LIG d   1       4.445  -5.854  -9.344  0.00  0.00    -0.020 A 
ATOM     30  C   LIG d   1       5.714  -5.309  -9.302  0.00  0.00    -0.058 A 
ATOM     31  H   LIG d   1       4.311  -6.888  -9.624  0.00  0.00     0.065 H 
ATOM     32  C   LIG d   1       5.887  -3.985  -8.944  0.00  0.00    -0.053 A 
ATOM     33  H   LIG d   1       6.572  -5.918  -9.549  0.00  0.00     0.062 H 
ATOM     34  H   LIG d   1       6.880  -3.560  -8.912  0.00  0.00     0.062 H 
BRANCH  27  35
ATOM     35  O   LIG d   1       2.095  -5.603  -9.078  0.00  0.00    -0.507 OA
ATOM     36  H   LIG d   1       1.797  -5.831  -9.969  0.00  0.00     0.292 HD
ENDBRANCH  27  35
ENDBRANCH  11  25
BRANCH  13  37
ATOM     37  C   LIG d   1       3.493   1.374  -9.639  0.00  0.00     0.090 C 
ATOM     38  O   LIG d   1       2.648   2.173  -9.309  0.00  0.00    -0.544 OA
ATOM     39  OXT LIG d   1       3.857   1.276 -10.926  0.00  0.00    -0.544 OA
ENDBRANCH  13  37
TORSDOF 3
ENDMDL
MODEL 9
REMARK VINA RESULT:      -6.6      4.158      5.996
REMARK  3 active torsions:
REMARK  status: ('A' for Active; 'I' for Inactive)
REMARK    1  A    between atoms: C_11  and  C_18 
REMARK    2  A    between atoms: CA_13  and  C_16 
REMARK    3  A    between atoms: C_22  and  O_24 
ROOT
ATOM      1  C   LIG d   1      10.601   4.465  -4.695  0.00  0.00    -0.061 A 
ATOM      2  C   LIG d   1      10.768   3.992  -3.404  0.00  0.00    -0.060 A 
ATOM      3  C   LIG d   1      10.110   2.866  -2.939  0.00  0.00    -0.038 A 
ATOM      4  C   LIG d   1       9.262   2.217  -3.833  0.00  0.00     0.047 A 
ATOM      5  C   LIG d   1       9.095   2.705  -5.156  0.00  0.00     0.004 A 
ATOM      6  C   LIG d   1       9.773   3.845  -5.597  0.00  0.00    -0.052 A 
ATOM      7  C   LIG d   1       8.161   1.805  -5.796  0.00  0.00    -0.008 A 
ATOM      8  C   LIG d   1       7.821   0.866  -4.884  0.00  0.00     0.074 A 
ATOM      9  N   LIG d   1       8.478   1.106  -3.707  0.00  0.00    -0.353 N 
ATOM     10  H   LIG d   1       8.398   0.567  -2.904  0.00  0.00     0.166 HD
ATOM     11  C   LIG d   1       6.855  -0.256  -5.179  0.00  0.00     0.045 C 
ATOM     12  H   LIG d   1       7.404  -1.183  -5.342  0.00  0.00     0.097 H 
ATOM     13  CA  LIG d   1       6.989   0.463  -7.495  0.00  0.00     0.023 C 
ATOM     14  HA  LIG d   1       7.776  -0.284  -7.595  0.00  0.00     0.092 H 
ATOM     15  C   LIG d   1       7.618   1.833  -7.202  0.00  0.00     0.023 C 
ATOM     16  H   LIG d   1      11.141   5.348  -5.002  0.00  0.00     0.062 H 
ATOM     17  H   LIG d   1      11.431   4.521  -2.736  0.00  0.00     0.062 H 
ATOM     18  H   LIG d   1      10.248   2.508  -1.930  0.00  0.00     0.064 H 
ATOM     19  H   LIG d   1       9.650   4.221  -6.603  0.00  0.00     0.062 H 
ATOM     20  H   LIG d   1       8.428   2.025  -7.907  0.00  0.00     0.037 H 
ATOM     21  H   LIG d   1       6.861   2.612  -7.288  0.00  0.00     0.037 H 
ATOM     22  N   LIG d   1       6.082   0.089  -6.391  0.00  0.00     0.243 N 
ATOM     23  H1  LIG d   1       5.460   0.879  -6.182  0.00  0.00     0.203 HD
ATOM     24  H2  LIG d   1       5.520  -0.723  -6.676  0.00  0.00     0.203 HD
ENDROOT
BRANCH  11  25
ATOM     25  C   LIG d   1       5.908  -0.427  -4.019  0.00  0.00     0.010 A 
ATOM     26  C   LIG d   1       5.155   0.645  -3.579  0.00  0.00    -0.011 A 
ATOM     27  C   LIG d   1       4.278   0.485  -2.515  0.00  0.00     0.117 A 
ATOM     28  H   LIG d   1       5.245   1.605  -4.065  0.00  0.00     0.066 H 
ATOM     29  C   LIG d   1       4.169  -0.747  -1.889  0.00  0.00    -0.020 A 
ATOM     30  C   LIG d   1       4.924  -1.816  -2.332  0.00  0.00    -0.058 A 
ATOM     31  H   LIG d   1       3.490  -0.873  -1.058  0.00  0.00     0.065 H 
ATOM     32  C   LIG d   1       5.792  -1.656  -3.396  0.00  0.00    -0.053 A 
ATOM     33  H   LIG d   1       4.836  -2.778  -1.847  0.00  0.00     0.062 H 
ATOM     34  H   LIG d   1       6.382  -2.493  -3.741  0.00  0.00     0.062 H 
BRANCH  27  35
ATOM     35  O   LIG d   1       3.533   1.536  -2.084  0.00  0.00    -0.507 OA
ATOM     36  H   LIG d   1       2.588   1.343  -2.009  0.00  0.00     0.292 HD
ENDBRANCH  27  35
ENDBRANCH  11  25
BRANCH  13  37
ATOM     37  C   LIG d   1       6.200   0.537  -8.778  0.00  0.00     0.090 C 
ATOM     38  O   LIG d   1       5.377  -0.310  -9.030  0.00  0.00    -0.544 OA
ATOM     39  OXT LIG d   1       6.413   1.544  -9.639  0.00  0.00    -0.544 OA
ENDBRANCH  13  37
TORSDOF 3
ENDMDL
MODEL 10
REMARK VINA RESULT:      -6.4      3.836      5.330
REMARK  3 active torsions:
REMARK  status: ('A' for Active; 'I' for Inactive)
REMARK    1  A    between atoms: C_11  and  C_18 
REMARK    2  A    between atoms: CA_13  and  C_16 
REMARK    3  A    between atoms: C_22  and  O_24 
ROOT
ATOM      1  C   LIG d   1      11.399  -0.154  -6.853  0.00  0.00    -0.061 A 
ATOM      2  C   LIG d   1      11.506  -1.112  -5.858  0.00  0.00    -0.060 A 
ATOM      3  C   LIG d   1      10.396  -1.685  -5.263  0.00  0.00    -0.038 A 
ATOM      4  C   LIG d   1       9.148  -1.256  -5.709  0.00  0.00     0.047 A 
ATOM      5  C   LIG d   1       9.044  -0.275  -6.730  0.00  0.00     0.004 A 
ATOM      6  C   LIG d   1      10.184   0.287  -7.313  0.00  0.00    -0.052 A 
ATOM      7  C   LIG d   1       7.627  -0.071  -6.941  0.00  0.00    -0.008 A 
ATOM      8  C   LIG d   1       6.974  -0.890  -6.087  0.00  0.00     0.074 A 
ATOM      9  N   LIG d   1       7.878  -1.604  -5.348  0.00  0.00    -0.353 N 
ATOM     10  H   LIG d   1       7.651  -2.258  -4.668  0.00  0.00     0.166 HD
ATOM     11  C   LIG d   1       5.468  -0.963  -6.006  0.00  0.00     0.045 C 
ATOM     12  H   LIG d   1       5.113  -1.861  -6.513  0.00  0.00     0.097 H 
ATOM     13  CA  LIG d   1       5.463   0.409  -8.011  0.00  0.00     0.023 C 
ATOM     14  HA  LIG d   1       5.408  -0.533  -8.556  0.00  0.00     0.092 H 
ATOM     15  C   LIG d   1       6.929   0.854  -7.905  0.00  0.00     0.023 C 
ATOM     16  H   LIG d   1      12.301   0.258  -7.281  0.00  0.00     0.062 H 
ATOM     17  H   LIG d   1      12.489  -1.421  -5.535  0.00  0.00     0.062 H 
ATOM     18  H   LIG d   1      10.492  -2.430  -4.488  0.00  0.00     0.064 H 
ATOM     19  H   LIG d   1      10.110   1.034  -8.091  0.00  0.00     0.062 H 
ATOM     20  H   LIG d   1       7.404   0.793  -8.885  0.00  0.00     0.037 H 
ATOM     21  H   LIG d   1       6.977   1.878  -7.534  0.00  0.00     0.037 H 
ATOM     22  N   LIG d   1       4.899   0.237  -6.657  0.00  0.00     0.243 N 
ATOM     23  H1  LIG d   1       5.119   1.065  -6.091  0.00  0.00     0.203 HD
ATOM     24  H2  LIG d   1       3.879   0.133  -6.727  0.00  0.00     0.203 HD
ENDROOT
BRANCH  11  25
ATOM     25  C   LIG d   1       5.038  -0.994  -4.562  0.00  0.00     0.010 A 
ATOM     26  C   LIG d   1       5.223   0.118  -3.763  0.00  0.00    -0.011 A 
ATOM     27  C   LIG d   1       4.822   0.091  -2.435  0.00  0.00     0.117 A 
ATOM     28  H   LIG d   1       5.676   1.009  -4.173  0.00  0.00     0.066 H 
ATOM     29  C   LIG d   1       4.247  -1.056  -1.910  0.00  0.00    -0.020 A 
ATOM     30  C   LIG d   1       4.064  -2.166  -2.713  0.00  0.00    -0.058 A 
ATOM     31  H   LIG d   1       3.937  -1.082  -0.875  0.00  0.00     0.065 H 
ATOM     32  C   LIG d   1       4.459  -2.134  -4.038  0.00  0.00    -0.053 A 
ATOM     33  H   LIG d   1       3.612  -3.059  -2.306  0.00  0.00     0.062 H 
ATOM     34  H   LIG d   1       4.315  -3.003  -4.664  0.00  0.00     0.062 H 
BRANCH  27  35
ATOM     35  O   LIG d   1       4.998   1.185  -1.648  0.00  0.00    -0.507 OA
ATOM     36  H   LIG d   1       5.837   1.193  -1.168  0.00  0.00     0.292 HD
ENDBRANCH  27  35
ENDBRANCH  11  25
BRANCH  13  37
ATOM     37  C   LIG d   1       4.671   1.461  -8.746  0.00  0.00     0.090 C 
ATOM     38  O   LIG d   1       5.077   1.899  -9.795  0.00  0.00    -0.544 OA
ATOM     39  OXT LIG d   1       3.515   1.910  -8.232  0.00  0.00    -0.544 OA
ENDBRANCH  13  37
TORSDOF 3
ENDMDL
