MODEL 1
REMARK VINA RESULT:      -5.1      0.000      0.000
REMARK  12 active torsions:
REMARK  status: ('A' for Active; 'I' for Inactive)
REMARK    1  A    between atoms: C_1  and  C_2 
REMARK    2  A    between atoms: C_3  and  C_18 
REMARK    3  A    between atoms: C_6  and  O_12 
REMARK    4  A    between atoms: N_10  and  C_11 
REMARK    5  A    between atoms: O_12  and  C_13 
REMARK       I    between atoms: C_13  and  N_15 
REMARK    6  A    between atoms: N_15  and  C_16 
REMARK    7  A    between atoms: N_15  and  C_17 
REMARK    8  A    between atoms: C_18  and  O_20 
REMARK    9  A    between atoms: O_20  and  C_21 
REMARK   10  A    between atoms: C_21  and  C_22 
REMARK   11  A    between atoms: C_22  and  O_23 
REMARK   12  A    between atoms: O_23  and  C_24 
ROOT
ATOM      1  C   LIG d   1       6.277  -1.104  -3.763  0.00  0.00     0.030 A 
ATOM      2  C   LIG d   1       6.196   0.233  -3.502  0.00  0.00     0.087 A 
ATOM      3  C   LIG d   1       7.446   0.834  -4.002  0.00  0.00     0.018 A 
ATOM      4  C   LIG d   1       7.952   2.132  -4.030  0.00  0.00    -0.009 A 
ATOM      5  C   LIG d   1       9.194   2.369  -4.587  0.00  0.00     0.134 A 
ATOM      6  C   LIG d   1       9.936   1.317  -5.118  0.00  0.00    -0.017 A 
ATOM      7  C   LIG d   1       9.443   0.031  -5.094  0.00  0.00    -0.034 A 
ATOM      8  C   LIG d   1       8.194  -0.226  -4.537  0.00  0.00     0.050 A 
ATOM      9  N   LIG d   1       7.457  -1.381  -4.368  0.00  0.00    -0.346 N 
ATOM     10  H   LIG d   1       7.377   2.947  -3.619  0.00  0.00     0.066 H 
ATOM     11  H   LIG d   1      10.905   1.512  -5.552  0.00  0.00     0.066 H 
ATOM     12  H   LIG d   1      10.026  -0.778  -5.510  0.00  0.00     0.064 H 
ENDROOT
BRANCH   2  13
ATOM     13  C   LIG d   1       5.083   0.935  -2.852  0.00  0.00     0.342 C 
ATOM     14  O   LIG d   1       5.095   1.112  -1.649  0.00  0.00    -0.245 OA
BRANCH  13  15
ATOM     15  O   LIG d   1       4.046   1.384  -3.590  0.00  0.00    -0.459 OA
BRANCH  15  16
ATOM     16  C   LIG d   1       2.925   0.509  -3.732  0.00  0.00     0.116 C 
ATOM     17  H   LIG d   1       3.183  -0.477  -3.345  0.00  0.00     0.072 H 
ATOM     18  H   LIG d   1       2.079   0.910  -3.174  0.00  0.00     0.072 H 
BRANCH  16  19
ATOM     19  C   LIG d   1       2.552   0.395  -5.211  0.00  0.00     0.082 C 
ATOM     20  H   LIG d   1       2.127  -0.591  -5.404  0.00  0.00     0.059 H 
ATOM     21  H   LIG d   1       1.820   1.162  -5.462  0.00  0.00     0.059 H 
BRANCH  19  22
ATOM     22  O   LIG d   1       3.722   0.574  -6.012  0.00  0.00    -0.380 OA
BRANCH  22  23
ATOM     23  C   LIG d   1       4.114  -0.594  -6.737  0.00  0.00     0.037 C 
ATOM     24  H   LIG d   1       4.345  -0.322  -7.767  0.00  0.00     0.052 H 
ATOM     25  H   LIG d   1       4.996  -1.032  -6.270  0.00  0.00     0.052 H 
ATOM     26  H   LIG d   1       3.301  -1.319  -6.727  0.00  0.00     0.052 H 
ENDBRANCH  22  23
ENDBRANCH  19  22
ENDBRANCH  16  19
ENDBRANCH  15  16
ENDBRANCH  13  15
ENDBRANCH   2  13
BRANCH   1  27
ATOM     27  C   LIG d   1       5.218  -2.119  -3.423  0.00  0.00    -0.023 C 
ATOM     28  H   LIG d   1       4.559  -2.259  -4.281  0.00  0.00     0.029 H 
ATOM     29  H   LIG d   1       5.691  -3.067  -3.170  0.00  0.00     0.029 H 
ATOM     30  H   LIG d   1       4.635  -1.766  -2.573  0.00  0.00     0.029 H 
ENDBRANCH   1  27
BRANCH   9  31
ATOM     31  C   LIG d   1       7.887  -2.717  -4.787  0.00  0.00     0.012 C 
ATOM     32  H   LIG d   1       8.254  -3.268  -3.921  0.00  0.00     0.046 H 
ATOM     33  H   LIG d   1       7.043  -3.249  -5.227  0.00  0.00     0.046 H 
ATOM     34  H   LIG d   1       8.685  -2.627  -5.525  0.00  0.00     0.046 H 
ENDBRANCH   9  31
BRANCH   5  35
ATOM     35  O   LIG d   1       9.694   3.633  -4.617  0.00  0.00    -0.411 OA
BRANCH  35  36
ATOM     36  C   LIG d   1       9.974   4.231  -3.443  0.00  0.00     0.408 C 
ATOM     37  O   LIG d   1      10.444   3.583  -2.528  0.00  0.00    -0.226 OA
ATOM     38  N   LIG d   1       9.735   5.548  -3.283  0.00  0.00    -0.273 N 
BRANCH  38  39
ATOM     39  C   LIG d   1      10.041   6.197  -2.006  0.00  0.00     0.006 C 
ATOM     40  H   LIG d   1      10.834   6.930  -2.151  0.00  0.00     0.043 H 
ATOM     41  H   LIG d   1       9.148   6.698  -1.630  0.00  0.00     0.043 H 
ATOM     42  H   LIG d   1      10.366   5.447  -1.286  0.00  0.00     0.043 H 
ENDBRANCH  38  39
BRANCH  38  43
ATOM     43  C   LIG d   1       9.170   6.328  -4.387  0.00  0.00     0.006 C 
ATOM     44  H   LIG d   1       8.866   7.307  -4.019  0.00  0.00     0.043 H 
ATOM     45  H   LIG d   1       9.922   6.451  -5.166  0.00  0.00     0.043 H 
ATOM     46  H   LIG d   1       8.305   5.807  -4.795  0.00  0.00     0.043 H 
ENDBRANCH  38  43
ENDBRANCH  35  36
ENDBRANCH   5  35
TORSDOF 12
ENDMDL
MODEL 2
REMARK VINA RESULT:      -4.7      3.168      7.037
REMARK  12 active torsions:
REMARK  status: ('A' for Active; 'I' for Inactive)
REMARK    1  A    between atoms: C_1  and  C_2 
REMARK    2  A    between atoms: C_3  and  C_18 
REMARK    3  A    between atoms: C_6  and  O_12 
REMARK    4  A    between atoms: N_10  and  C_11 
REMARK    5  A    between atoms: O_12  and  C_13 
REMARK       I    between atoms: C_13  and  N_15 
REMARK    6  A    between atoms: N_15  and  C_16 
REMARK    7  A    between atoms: N_15  and  C_17 
REMARK    8  A    between atoms: C_18  and  O_20 
REMARK    9  A    between atoms: O_20  and  C_21 
REMARK   10  A    between atoms: C_21  and  C_22 
REMARK   11  A    between atoms: C_22  and  O_23 
REMARK   12  A    between atoms: O_23  and  C_24 
ROOT
ATOM      1  C   LIG d   1       6.180  -1.670  -4.254  0.00  0.00     0.030 A 
ATOM      2  C   LIG d   1       6.230  -1.406  -5.592  0.00  0.00     0.087 A 
ATOM      3  C   LIG d   1       4.972  -0.717  -5.931  0.00  0.00     0.018 A 
ATOM      4  C   LIG d   1       4.438  -0.200  -7.109  0.00  0.00    -0.009 A 
ATOM      5  C   LIG d   1       3.196   0.405  -7.090  0.00  0.00     0.134 A 
ATOM      6  C   LIG d   1       2.481   0.499  -5.898  0.00  0.00    -0.017 A 
ATOM      7  C   LIG d   1       3.002  -0.009  -4.729  0.00  0.00    -0.034 A 
ATOM      8  C   LIG d   1       4.251  -0.622  -4.730  0.00  0.00     0.050 A 
ATOM      9  N   LIG d   1       5.012  -1.215  -3.742  0.00  0.00    -0.346 N 
ATOM     10  H   LIG d   1       4.992  -0.272  -8.033  0.00  0.00     0.066 H 
ATOM     11  H   LIG d   1       1.512   0.973  -5.892  0.00  0.00     0.066 H 
ATOM     12  H   LIG d   1       2.440   0.070  -3.809  0.00  0.00     0.064 H 
ENDROOT
BRANCH   2  13
ATOM     13  C   LIG d   1       7.322  -1.742  -6.513  0.00  0.00     0.342 C 
ATOM     14  O   LIG d   1       7.230  -2.714  -7.237  0.00  0.00    -0.245 OA
BRANCH  13  15
ATOM     15  O   LIG d   1       8.429  -0.972  -6.556  0.00  0.00    -0.459 OA
BRANCH  15  16
ATOM     16  C   LIG d   1       8.280   0.349  -7.079  0.00  0.00     0.116 C 
ATOM     17  H   LIG d   1       8.919   0.467  -7.955  0.00  0.00     0.072 H 
ATOM     18  H   LIG d   1       7.240   0.512  -7.362  0.00  0.00     0.072 H 
BRANCH  16  19
ATOM     19  C   LIG d   1       8.684   1.369  -6.013  0.00  0.00     0.082 C 
ATOM     20  H   LIG d   1       9.391   0.911  -5.320  0.00  0.00     0.059 H 
ATOM     21  H   LIG d   1       9.149   2.231  -6.491  0.00  0.00     0.059 H 
BRANCH  19  22
ATOM     22  O   LIG d   1       7.522   1.792  -5.296  0.00  0.00    -0.380 OA
BRANCH  22  23
ATOM     23  C   LIG d   1       7.638   1.669  -3.877  0.00  0.00     0.037 C 
ATOM     24  H   LIG d   1       6.644   1.681  -3.428  0.00  0.00     0.052 H 
ATOM     25  H   LIG d   1       8.135   0.730  -3.633  0.00  0.00     0.052 H 
ATOM     26  H   LIG d   1       8.222   2.502  -3.486  0.00  0.00     0.052 H 
ENDBRANCH  22  23
ENDBRANCH  19  22
ENDBRANCH  16  19
ENDBRANCH  15  16
ENDBRANCH  13  15
ENDBRANCH   2  13
BRANCH   1  27
ATOM     27  C   LIG d   1       7.258  -2.368  -3.467  0.00  0.00    -0.023 C 
ATOM     28  H   LIG d   1       7.219  -3.439  -3.668  0.00  0.00     0.029 H 
ATOM     29  H   LIG d   1       8.232  -1.978  -3.760  0.00  0.00     0.029 H 
ATOM     30  H   LIG d   1       7.102  -2.193  -2.403  0.00  0.00     0.029 H 
ENDBRANCH   1  27
BRANCH   9  31
ATOM     31  C   LIG d   1       4.614  -1.332  -2.337  0.00  0.00     0.012 C 
ATOM     32  H   LIG d   1       4.208  -0.379  -1.994  0.00  0.00     0.046 H 
ATOM     33  H   LIG d   1       3.855  -2.108  -2.237  0.00  0.00     0.046 H 
ATOM     34  H   LIG d   1       5.483  -1.594  -1.734  0.00  0.00     0.046 H 
ENDBRANCH   9  31
BRANCH   5  35
ATOM     35  O   LIG d   1       2.669   0.911  -8.237  0.00  0.00    -0.411 OA
BRANCH  35  36
ATOM     36  C   LIG d   1       2.459   0.064  -9.264  0.00  0.00     0.408 C 
ATOM     37  O   LIG d   1       1.732  -0.899  -9.118  0.00  0.00    -0.226 OA
ATOM     38  N   LIG d   1       3.055   0.285 -10.452  0.00  0.00    -0.273 N 
BRANCH  38  39
ATOM     39  C   LIG d   1       2.826  -0.635 -11.568  0.00  0.00     0.006 C 
ATOM     40  H   LIG d   1       3.681  -0.608 -12.244  0.00  0.00     0.043 H 
ATOM     41  H   LIG d   1       2.698  -1.647 -11.184  0.00  0.00     0.043 H 
ATOM     42  H   LIG d   1       1.928  -0.335 -12.107  0.00  0.00     0.043 H 
ENDBRANCH  38  39
BRANCH  38  43
ATOM     43  C   LIG d   1       3.931   1.447 -10.627  0.00  0.00     0.006 C 
ATOM     44  H   LIG d   1       3.980   2.007  -9.694  0.00  0.00     0.043 H 
ATOM     45  H   LIG d   1       4.930   1.109 -10.900  0.00  0.00     0.043 H 
ATOM     46  H   LIG d   1       3.534   2.085 -11.415  0.00  0.00     0.043 H 
ENDBRANCH  38  43
ENDBRANCH  35  36
ENDBRANCH   5  35
TORSDOF 12
ENDMDL
MODEL 3
REMARK VINA RESULT:      -4.7      2.082      7.186
REMARK  12 active torsions:
REMARK  status: ('A' for Active; 'I' for Inactive)
REMARK    1  A    between atoms: C_1  and  C_2 
REMARK    2  A    between atoms: C_3  and  C_18 
REMARK    3  A    between atoms: C_6  and  O_12 
REMARK    4  A    between atoms: N_10  and  C_11 
REMARK    5  A    between atoms: O_12  and  C_13 
REMARK       I    between atoms: C_13  and  N_15 
REMARK    6  A    between atoms: N_15  and  C_16 
REMARK    7  A    between atoms: N_15  and  C_17 
REMARK    8  A    between atoms: C_18  and  O_20 
REMARK    9  A    between atoms: O_20  and  C_21 
REMARK   10  A    between atoms: C_21  and  C_22 
REMARK   11  A    between atoms: C_22  and  O_23 
REMARK   12  A    between atoms: O_23  and  C_24 
ROOT
ATOM      1  C   LIG d   1      10.080   4.327  -5.600  0.00  0.00     0.030 A 
ATOM      2  C   LIG d   1       9.727   3.914  -4.348  0.00  0.00     0.087 A 
ATOM      3  C   LIG d   1       8.872   2.726  -4.525  0.00  0.00     0.018 A 
ATOM      4  C   LIG d   1       8.214   1.869  -3.646  0.00  0.00    -0.009 A 
ATOM      5  C   LIG d   1       7.470   0.817  -4.146  0.00  0.00     0.134 A 
ATOM      6  C   LIG d   1       7.380   0.614  -5.521  0.00  0.00    -0.017 A 
ATOM      7  C   LIG d   1       8.027   1.457  -6.396  0.00  0.00    -0.034 A 
ATOM      8  C   LIG d   1       8.780   2.522  -5.910  0.00  0.00     0.050 A 
ATOM      9  N   LIG d   1       9.518   3.513  -6.526  0.00  0.00    -0.346 N 
ATOM     10  H   LIG d   1       8.284   2.026  -2.580  0.00  0.00     0.066 H 
ATOM     11  H   LIG d   1       6.797  -0.211  -5.902  0.00  0.00     0.066 H 
ATOM     12  H   LIG d   1       7.952   1.290  -7.461  0.00  0.00     0.064 H 
ENDROOT
BRANCH   2  13
ATOM     13  C   LIG d   1      10.124   4.529  -3.076  0.00  0.00     0.342 C 
ATOM     14  O   LIG d   1      10.949   3.985  -2.369  0.00  0.00    -0.245 OA
BRANCH  13  15
ATOM     15  O   LIG d   1       9.572   5.699  -2.692  0.00  0.00    -0.459 OA
BRANCH  15  16
ATOM     16  C   LIG d   1      10.467   6.750  -2.327  0.00  0.00     0.116 C 
ATOM     17  H   LIG d   1      11.490   6.371  -2.325  0.00  0.00     0.072 H 
ATOM     18  H   LIG d   1      10.382   7.565  -3.045  0.00  0.00     0.072 H 
BRANCH  16  19
ATOM     19  C   LIG d   1      10.111   7.263  -0.931  0.00  0.00     0.082 C 
ATOM     20  H   LIG d   1      10.786   8.074  -0.657  0.00  0.00     0.059 H 
ATOM     21  H   LIG d   1       9.084   7.627  -0.928  0.00  0.00     0.059 H 
BRANCH  19  22
ATOM     22  O   LIG d   1      10.239   6.197   0.014  0.00  0.00    -0.380 OA
BRANCH  22  23
ATOM     23  C   LIG d   1      11.091   6.502   1.121  0.00  0.00     0.037 C 
ATOM     24  H   LIG d   1      12.113   6.206   0.886  0.00  0.00     0.052 H 
ATOM     25  H   LIG d   1      11.060   7.574   1.319  0.00  0.00     0.052 H 
ATOM     26  H   LIG d   1      10.750   5.960   2.003  0.00  0.00     0.052 H 
ENDBRANCH  22  23
ENDBRANCH  19  22
ENDBRANCH  16  19
ENDBRANCH  15  16
ENDBRANCH  13  15
ENDBRANCH   2  13
BRANCH   1  27
ATOM     27  C   LIG d   1      10.955   5.515  -5.907  0.00  0.00    -0.023 C 
ATOM     28  H   LIG d   1      11.229   6.013  -4.977  0.00  0.00     0.029 H 
ATOM     29  H   LIG d   1      11.856   5.179  -6.420  0.00  0.00     0.029 H 
ATOM     30  H   LIG d   1      10.412   6.211  -6.546  0.00  0.00     0.029 H 
ENDBRANCH   1  27
BRANCH   9  31
ATOM     31  C   LIG d   1       9.676   3.661  -7.975  0.00  0.00     0.012 C 
ATOM     32  H   LIG d   1       8.696   3.795  -8.434  0.00  0.00     0.046 H 
ATOM     33  H   LIG d   1      10.298   4.531  -8.186  0.00  0.00     0.046 H 
ATOM     34  H   LIG d   1      10.149   2.768  -8.382  0.00  0.00     0.046 H 
ENDBRANCH   9  31
BRANCH   5  35
ATOM     35  O   LIG d   1       6.825  -0.023  -3.294  0.00  0.00    -0.411 OA
BRANCH  35  36
ATOM     36  C   LIG d   1       5.579   0.307  -2.901  0.00  0.00     0.408 C 
ATOM     37  O   LIG d   1       5.397   1.308  -2.236  0.00  0.00    -0.226 OA
ATOM     38  N   LIG d   1       4.535  -0.472  -3.246  0.00  0.00    -0.273 N 
BRANCH  38  39
ATOM     39  C   LIG d   1       3.181  -0.112  -2.819  0.00  0.00     0.006 C 
ATOM     40  H   LIG d   1       2.746   0.582  -3.537  0.00  0.00     0.043 H 
ATOM     41  H   LIG d   1       2.566  -1.011  -2.764  0.00  0.00     0.043 H 
ATOM     42  H   LIG d   1       3.223   0.359  -1.837  0.00  0.00     0.043 H 
ENDBRANCH  38  39
BRANCH  38  43
ATOM     43  C   LIG d   1       4.755  -1.678  -4.048  0.00  0.00     0.006 C 
ATOM     44  H   LIG d   1       5.732  -2.098  -3.811  0.00  0.00     0.043 H 
ATOM     45  H   LIG d   1       3.981  -2.411  -3.821  0.00  0.00     0.043 H 
ATOM     46  H   LIG d   1       4.716  -1.423  -5.106  0.00  0.00     0.043 H 
ENDBRANCH  38  43
ENDBRANCH  35  36
ENDBRANCH   5  35
TORSDOF 12
ENDMDL
MODEL 4
REMARK VINA RESULT:      -4.7      2.746      6.085
REMARK  12 active torsions:
REMARK  status: ('A' for Active; 'I' for Inactive)
REMARK    1  A    between atoms: C_1  and  C_2 
REMARK    2  A    between atoms: C_3  and  C_18 
REMARK    3  A    between atoms: C_6  and  O_12 
REMARK    4  A    between atoms: N_10  and  C_11 
REMARK    5  A    between atoms: O_12  and  C_13 
REMARK       I    between atoms: C_13  and  N_15 
REMARK    6  A    between atoms: N_15  and  C_16 
REMARK    7  A    between atoms: N_15  and  C_17 
REMARK    8  A    between atoms: C_18  and  O_20 
REMARK    9  A    between atoms: O_20  and  C_21 
REMARK   10  A    between atoms: C_21  and  C_22 
REMARK   11  A    between atoms: C_22  and  O_23 
REMARK   12  A    between atoms: O_23  and  C_24 
ROOT
ATOM      1  C   LIG d   1       9.763   4.585  -5.358  0.00  0.00     0.030 A 
ATOM      2  C   LIG d   1       9.709   4.258  -4.035  0.00  0.00     0.087 A 
ATOM      3  C   LIG d   1       9.841   5.521  -3.285  0.00  0.00     0.018 A 
ATOM      4  C   LIG d   1       9.858   5.845  -1.931  0.00  0.00    -0.009 A 
ATOM      5  C   LIG d   1      10.002   7.164  -1.545  0.00  0.00     0.134 A 
ATOM      6  C   LIG d   1      10.126   8.165  -2.506  0.00  0.00    -0.017 A 
ATOM      7  C   LIG d   1      10.110   7.853  -3.847  0.00  0.00    -0.034 A 
ATOM      8  C   LIG d   1       9.967   6.530  -4.253  0.00  0.00     0.050 A 
ATOM      9  N   LIG d   1       9.921   5.924  -5.493  0.00  0.00    -0.346 N 
ATOM     10  H   LIG d   1       9.761   5.070  -1.186  0.00  0.00     0.066 H 
ATOM     11  H   LIG d   1      10.237   9.193  -2.195  0.00  0.00     0.066 H 
ATOM     12  H   LIG d   1      10.206   8.637  -4.584  0.00  0.00     0.064 H 
ENDROOT
BRANCH   2  13
ATOM     13  C   LIG d   1       9.549   2.914  -3.468  0.00  0.00     0.342 C 
ATOM     14  O   LIG d   1      10.525   2.290  -3.099  0.00  0.00    -0.245 OA
BRANCH  13  15
ATOM     15  O   LIG d   1       8.319   2.370  -3.358  0.00  0.00    -0.459 OA
BRANCH  15  16
ATOM     16  C   LIG d   1       8.064   1.185  -4.113  0.00  0.00     0.116 C 
ATOM     17  H   LIG d   1       7.900   1.448  -5.158  0.00  0.00     0.072 H 
ATOM     18  H   LIG d   1       8.920   0.514  -4.036  0.00  0.00     0.072 H 
BRANCH  16  19
ATOM     19  C   LIG d   1       6.820   0.486  -3.561  0.00  0.00     0.082 C 
ATOM     20  H   LIG d   1       6.459  -0.241  -4.288  0.00  0.00     0.059 H 
ATOM     21  H   LIG d   1       7.070  -0.022  -2.630  0.00  0.00     0.059 H 
BRANCH  19  22
ATOM     22  O   LIG d   1       5.800   1.457  -3.313  0.00  0.00    -0.380 OA
BRANCH  22  23
ATOM     23  C   LIG d   1       4.854   1.064  -2.317  0.00  0.00     0.037 C 
ATOM     24  H   LIG d   1       4.098   0.420  -2.767  0.00  0.00     0.052 H 
ATOM     25  H   LIG d   1       5.367   0.521  -1.523  0.00  0.00     0.052 H 
ATOM     26  H   LIG d   1       4.375   1.949  -1.900  0.00  0.00     0.052 H 
ENDBRANCH  22  23
ENDBRANCH  19  22
ENDBRANCH  16  19
ENDBRANCH  15  16
ENDBRANCH  13  15
ENDBRANCH   2  13
BRANCH   1  27
ATOM     27  C   LIG d   1       9.668   3.605  -6.498  0.00  0.00    -0.023 C 
ATOM     28  H   LIG d   1      10.144   4.029  -7.383  0.00  0.00     0.029 H 
ATOM     29  H   LIG d   1      10.170   2.678  -6.224  0.00  0.00     0.029 H 
ATOM     30  H   LIG d   1       8.619   3.400  -6.714  0.00  0.00     0.029 H 
ENDBRANCH   1  27
BRANCH   9  31
ATOM     31  C   LIG d   1      10.026   6.629  -6.773  0.00  0.00     0.012 C 
ATOM     32  H   LIG d   1       9.133   7.236  -6.926  0.00  0.00     0.046 H 
ATOM     33  H   LIG d   1      10.906   7.271  -6.764  0.00  0.00     0.046 H 
ATOM     34  H   LIG d   1      10.114   5.902  -7.581  0.00  0.00     0.046 H 
ENDBRANCH   9  31
BRANCH   5  35
ATOM     35  O   LIG d   1      10.020   7.487  -0.225  0.00  0.00    -0.411 OA
BRANCH  35  36
ATOM     36  C   LIG d   1      11.204   7.807   0.332  0.00  0.00     0.408 C 
ATOM     37  O   LIG d   1      12.052   6.951   0.492  0.00  0.00    -0.226 OA
ATOM     38  N   LIG d   1      11.449   9.077   0.712  0.00  0.00    -0.273 N 
BRANCH  38  39
ATOM     39  C   LIG d   1      12.737   9.425   1.317  0.00  0.00     0.006 C 
ATOM     40  H   LIG d   1      12.663   9.346   2.401  0.00  0.00     0.043 H 
ATOM     41  H   LIG d   1      13.505   8.741   0.955  0.00  0.00     0.043 H 
ATOM     42  H   LIG d   1      13.002  10.446   1.044  0.00  0.00     0.043 H 
ENDBRANCH  38  39
BRANCH  38  43
ATOM     43  C   LIG d   1      10.427  10.109   0.518  0.00  0.00     0.006 C 
ATOM     44  H   LIG d   1      10.805  10.870  -0.163  0.00  0.00     0.043 H 
ATOM     45  H   LIG d   1       9.530   9.656   0.095  0.00  0.00     0.043 H 
ATOM     46  H   LIG d   1      10.185  10.566   1.477  0.00  0.00     0.043 H 
ENDBRANCH  38  43
ENDBRANCH  35  36
ENDBRANCH   5  35
TORSDOF 12
ENDMDL
MODEL 5
REMARK VINA RESULT:      -4.7      1.904      2.763
REMARK  12 active torsions:
REMARK  status: ('A' for Active; 'I' for Inactive)
REMARK    1  A    between atoms: C_1  and  C_2 
REMARK    2  A    between atoms: C_3  and  C_18 
REMARK    3  A    between atoms: C_6  and  O_12 
REMARK    4  A    between atoms: N_10  and  C_11 
REMARK    5  A    between atoms: O_12  and  C_13 
REMARK       I    between atoms: C_13  and  N_15 
REMARK    6  A    between atoms: N_15  and  C_16 
REMARK    7  A    between atoms: N_15  and  C_17 
REMARK    8  A    between atoms: C_18  and  O_20 
REMARK    9  A    between atoms: O_20  and  C_21 
REMARK   10  A    between atoms: C_21  and  C_22 
REMARK   11  A    between atoms: C_22  and  O_23 
REMARK   12  A    between atoms: O_23  and  C_24 
ROOT
ATOM      1  C   LIG d   1       7.193   0.563  -5.976  0.00  0.00     0.030 A 
ATOM      2  C   LIG d   1       7.411   1.033  -4.713  0.00  0.00     0.087 A 
ATOM      3  C   LIG d   1       8.400   2.120  -4.836  0.00  0.00     0.018 A 
ATOM      4  C   LIG d   1       9.015   2.976  -3.925  0.00  0.00    -0.009 A 
ATOM      5  C   LIG d   1       9.924   3.914  -4.376  0.00  0.00     0.134 A 
ATOM      6  C   LIG d   1      10.221   4.006  -5.733  0.00  0.00    -0.017 A 
ATOM      7  C   LIG d   1       9.617   3.164  -6.640  0.00  0.00    -0.034 A 
ATOM      8  C   LIG d   1       8.700   2.212  -6.204  0.00  0.00     0.050 A 
ATOM      9  N   LIG d   1       7.956   1.251  -6.858  0.00  0.00    -0.346 N 
ATOM     10  H   LIG d   1       8.784   2.905  -2.873  0.00  0.00     0.066 H 
ATOM     11  H   LIG d   1      10.932   4.743  -6.076  0.00  0.00     0.066 H 
ATOM     12  H   LIG d   1       9.854   3.244  -7.692  0.00  0.00     0.064 H 
ENDROOT
BRANCH   2  13
ATOM     13  C   LIG d   1       6.784   0.553  -3.476  0.00  0.00     0.342 C 
ATOM     14  O   LIG d   1       6.957  -0.594  -3.113  0.00  0.00    -0.245 OA
BRANCH  13  15
ATOM     15  O   LIG d   1       6.015   1.384  -2.743  0.00  0.00    -0.459 OA
BRANCH  15  16
ATOM     16  C   LIG d   1       4.848   0.823  -2.139  0.00  0.00     0.116 C 
ATOM     17  H   LIG d   1       4.778  -0.234  -2.397  0.00  0.00     0.072 H 
ATOM     18  H   LIG d   1       4.913   0.930  -1.056  0.00  0.00     0.072 H 
BRANCH  16  19
ATOM     19  C   LIG d   1       3.607   1.557  -2.649  0.00  0.00     0.082 C 
ATOM     20  H   LIG d   1       2.745   1.281  -2.041  0.00  0.00     0.059 H 
ATOM     21  H   LIG d   1       3.768   2.633  -2.585  0.00  0.00     0.059 H 
BRANCH  19  22
ATOM     22  O   LIG d   1       3.365   1.192  -4.010  0.00  0.00    -0.380 OA
BRANCH  22  23
ATOM     23  C   LIG d   1       3.174  -0.210  -4.211  0.00  0.00     0.037 C 
ATOM     24  H   LIG d   1       2.780  -0.383  -5.213  0.00  0.00     0.052 H 
ATOM     25  H   LIG d   1       4.127  -0.726  -4.101  0.00  0.00     0.052 H 
ATOM     26  H   LIG d   1       2.468  -0.590  -3.473  0.00  0.00     0.052 H 
ENDBRANCH  22  23
ENDBRANCH  19  22
ENDBRANCH  16  19
ENDBRANCH  15  16
ENDBRANCH  13  15
ENDBRANCH   2  13
BRANCH   1  27
ATOM     27  C   LIG d   1       6.251  -0.557  -6.333  0.00  0.00    -0.023 C 
ATOM     28  H   LIG d   1       6.351  -0.792  -7.393  0.00  0.00     0.029 H 
ATOM     29  H   LIG d   1       6.494  -1.439  -5.740  0.00  0.00     0.029 H 
ATOM     30  H   LIG d   1       5.226  -0.251  -6.124  0.00  0.00     0.029 H 
ENDBRANCH   1  27
BRANCH   9  31
ATOM     31  C   LIG d   1       7.983   1.012  -8.303  0.00  0.00     0.012 C 
ATOM     32  H   LIG d   1       7.481   1.832  -8.817  0.00  0.00     0.046 H 
ATOM     33  H   LIG d   1       9.018   0.949  -8.642  0.00  0.00     0.046 H 
ATOM     34  H   LIG d   1       7.471   0.076  -8.526  0.00  0.00     0.046 H 
ENDBRANCH   9  31
BRANCH   5  35
ATOM     35  O   LIG d   1      10.529   4.752  -3.492  0.00  0.00    -0.411 OA
BRANCH  35  36
ATOM     36  C   LIG d   1       9.858   5.855  -3.105  0.00  0.00     0.408 C 
ATOM     37  O   LIG d   1       9.149   6.443  -3.897  0.00  0.00    -0.226 OA
ATOM     38  N   LIG d   1       9.976   6.305  -1.840  0.00  0.00    -0.273 N 
BRANCH  38  39
ATOM     39  C   LIG d   1       9.246   7.504  -1.420  0.00  0.00     0.006 C 
ATOM     40  H   LIG d   1       9.956   8.290  -1.162  0.00  0.00     0.043 H 
ATOM     41  H   LIG d   1       8.607   7.845  -2.234  0.00  0.00     0.043 H 
ATOM     42  H   LIG d   1       8.632   7.269  -0.551  0.00  0.00     0.043 H 
ENDBRANCH  38  39
BRANCH  38  43
ATOM     43  C   LIG d   1      10.831   5.595  -0.886  0.00  0.00     0.006 C 
ATOM     44  H   LIG d   1      11.846   5.985  -0.949  0.00  0.00     0.043 H 
ATOM     45  H   LIG d   1      10.447   5.741   0.123  0.00  0.00     0.043 H 
ATOM     46  H   LIG d   1      10.835   4.531  -1.123  0.00  0.00     0.043 H 
ENDBRANCH  38  43
ENDBRANCH  35  36
ENDBRANCH   5  35
TORSDOF 12
ENDMDL
MODEL 6
REMARK VINA RESULT:      -4.6      4.380      7.648
REMARK  12 active torsions:
REMARK  status: ('A' for Active; 'I' for Inactive)
REMARK    1  A    between atoms: C_1  and  C_2 
REMARK    2  A    between atoms: C_3  and  C_18 
REMARK    3  A    between atoms: C_6  and  O_12 
REMARK    4  A    between atoms: N_10  and  C_11 
REMARK    5  A    between atoms: O_12  and  C_13 
REMARK       I    between atoms: C_13  and  N_15 
REMARK    6  A    between atoms: N_15  and  C_16 
REMARK    7  A    between atoms: N_15  and  C_17 
REMARK    8  A    between atoms: C_18  and  O_20 
REMARK    9  A    between atoms: O_20  and  C_21 
REMARK   10  A    between atoms: C_21  and  C_22 
REMARK   11  A    between atoms: C_22  and  O_23 
REMARK   12  A    between atoms: O_23  and  C_24 
ROOT
ATOM      1  C   LIG d   1       2.649  -3.116 -10.154  0.00  0.00     0.030 A 
ATOM      2  C   LIG d   1       3.429  -3.305  -9.050  0.00  0.00     0.087 A 
ATOM      3  C   LIG d   1       3.443  -2.024  -8.322  0.00  0.00     0.018 A 
ATOM      4  C   LIG d   1       4.046  -1.586  -7.145  0.00  0.00    -0.009 A 
ATOM      5  C   LIG d   1       3.856  -0.284  -6.722  0.00  0.00     0.134 A 
ATOM      6  C   LIG d   1       3.065   0.586  -7.468  0.00  0.00    -0.017 A 
ATOM      7  C   LIG d   1       2.466   0.161  -8.633  0.00  0.00    -0.034 A 
ATOM      8  C   LIG d   1       2.647  -1.146  -9.074  0.00  0.00     0.050 A 
ATOM      9  N   LIG d   1       2.190  -1.841 -10.176  0.00  0.00    -0.346 N 
ATOM     10  H   LIG d   1       4.659  -2.261  -6.566  0.00  0.00     0.066 H 
ATOM     11  H   LIG d   1       2.922   1.601  -7.131  0.00  0.00     0.066 H 
ATOM     12  H   LIG d   1       1.853   0.844  -9.205  0.00  0.00     0.064 H 
ENDROOT
BRANCH   2  13
ATOM     13  C   LIG d   1       4.116  -4.543  -8.663  0.00  0.00     0.342 C 
ATOM     14  O   LIG d   1       5.206  -4.806  -9.134  0.00  0.00    -0.245 OA
BRANCH  13  15
ATOM     15  O   LIG d   1       3.539  -5.389  -7.784  0.00  0.00    -0.459 OA
BRANCH  15  16
ATOM     16  C   LIG d   1       4.274  -6.563  -7.438  0.00  0.00     0.116 C 
ATOM     17  H   LIG d   1       3.667  -7.445  -7.643  0.00  0.00     0.072 H 
ATOM     18  H   LIG d   1       5.189  -6.607  -8.028  0.00  0.00     0.072 H 
BRANCH  16  19
ATOM     19  C   LIG d   1       4.629  -6.523  -5.950  0.00  0.00     0.082 C 
ATOM     20  H   LIG d   1       4.258  -7.425  -5.463  0.00  0.00     0.059 H 
ATOM     21  H   LIG d   1       5.711  -6.465  -5.835  0.00  0.00     0.059 H 
BRANCH  19  22
ATOM     22  O   LIG d   1       4.024  -5.376  -5.348  0.00  0.00    -0.380 OA
BRANCH  22  23
ATOM     23  C   LIG d   1       4.956  -4.361  -4.968  0.00  0.00     0.037 C 
ATOM     24  H   LIG d   1       5.834  -4.414  -5.612  0.00  0.00     0.052 H 
ATOM     25  H   LIG d   1       4.489  -3.382  -5.072  0.00  0.00     0.052 H 
ATOM     26  H   LIG d   1       5.256  -4.512  -3.932  0.00  0.00     0.052 H 
ENDBRANCH  22  23
ENDBRANCH  19  22
ENDBRANCH  16  19
ENDBRANCH  15  16
ENDBRANCH  13  15
ENDBRANCH   2  13
BRANCH   1  27
ATOM     27  C   LIG d   1       2.350  -4.163 -11.194  0.00  0.00    -0.023 C 
ATOM     28  H   LIG d   1       3.285  -4.561 -11.588  0.00  0.00     0.029 H 
ATOM     29  H   LIG d   1       1.772  -4.969 -10.743  0.00  0.00     0.029 H 
ATOM     30  H   LIG d   1       1.776  -3.715 -12.006  0.00  0.00     0.029 H 
ENDBRANCH   1  27
BRANCH   9  31
ATOM     31  C   LIG d   1       1.328  -1.282 -11.220  0.00  0.00     0.012 C 
ATOM     32  H   LIG d   1       1.927  -1.059 -12.104  0.00  0.00     0.046 H 
ATOM     33  H   LIG d   1       0.553  -2.004 -11.478  0.00  0.00     0.046 H 
ATOM     34  H   LIG d   1       0.864  -0.366 -10.855  0.00  0.00     0.046 H 
ENDBRANCH   9  31
BRANCH   5  35
ATOM     35  O   LIG d   1       4.442   0.149  -5.574  0.00  0.00    -0.411 OA
BRANCH  35  36
ATOM     36  C   LIG d   1       3.994  -0.353  -4.407  0.00  0.00     0.408 C 
ATOM     37  O   LIG d   1       2.813  -0.284  -4.130  0.00  0.00    -0.226 OA
ATOM     38  N   LIG d   1       4.856  -0.930  -3.547  0.00  0.00    -0.273 N 
BRANCH  38  39
ATOM     39  C   LIG d   1       4.369  -1.476  -2.278  0.00  0.00     0.006 C 
ATOM     40  H   LIG d   1       5.139  -1.365  -1.514  0.00  0.00     0.043 H 
ATOM     41  H   LIG d   1       3.472  -0.936  -1.971  0.00  0.00     0.043 H 
ATOM     42  H   LIG d   1       4.131  -2.532  -2.404  0.00  0.00     0.043 H 
ENDBRANCH  38  39
BRANCH  38  43
ATOM     43  C   LIG d   1       6.280  -1.013  -3.882  0.00  0.00     0.006 C 
ATOM     44  H   LIG d   1       6.465  -0.477  -4.813  0.00  0.00     0.043 H 
ATOM     45  H   LIG d   1       6.868  -0.563  -3.082  0.00  0.00     0.043 H 
ATOM     46  H   LIG d   1       6.566  -2.057  -4.000  0.00  0.00     0.043 H 
ENDBRANCH  38  43
ENDBRANCH  35  36
ENDBRANCH   5  35
TORSDOF 12
ENDMDL
MODEL 7
REMARK VINA RESULT:      -4.4      5.737      8.274
REMARK  12 active torsions:
REMARK  status: ('A' for Active; 'I' for Inactive)
REMARK    1  A    between atoms: C_1  and  C_2 
REMARK    2  A    between atoms: C_3  and  C_18 
REMARK    3  A    between atoms: C_6  and  O_12 
REMARK    4  A    between atoms: N_10  and  C_11 
REMARK    5  A    between atoms: O_12  and  C_13 
REMARK       I    between atoms: C_13  and  N_15 
REMARK    6  A    between atoms: N_15  and  C_16 
REMARK    7  A    between atoms: N_15  and  C_17 
REMARK    8  A    between atoms: C_18  and  O_20 
REMARK    9  A    between atoms: O_20  and  C_21 
REMARK   10  A    between atoms: C_21  and  C_22 
REMARK   11  A    between atoms: C_22  and  O_23 
REMARK   12  A    between atoms: O_23  and  C_24 
ROOT
ATOM      1  C   LIG d   1       9.942   6.133  -7.041  0.00  0.00     0.030 A 
ATOM      2  C   LIG d   1      10.121   7.153  -6.152  0.00  0.00     0.087 A 
ATOM      3  C   LIG d   1      10.078   6.549  -4.808  0.00  0.00     0.018 A 
ATOM      4  C   LIG d   1      10.197   7.056  -3.516  0.00  0.00    -0.009 A 
ATOM      5  C   LIG d   1      10.109   6.199  -2.435  0.00  0.00     0.134 A 
ATOM      6  C   LIG d   1       9.903   4.836  -2.636  0.00  0.00    -0.017 A 
ATOM      7  C   LIG d   1       9.785   4.328  -3.911  0.00  0.00    -0.034 A 
ATOM      8  C   LIG d   1       9.870   5.176  -5.010  0.00  0.00     0.050 A 
ATOM      9  N   LIG d   1       9.787   4.965  -6.372  0.00  0.00    -0.346 N 
ATOM     10  H   LIG d   1      10.358   8.112  -3.360  0.00  0.00     0.066 H 
ATOM     11  H   LIG d   1       9.836   4.175  -1.786  0.00  0.00     0.066 H 
ATOM     12  H   LIG d   1       9.626   3.268  -4.056  0.00  0.00     0.064 H 
ENDROOT
BRANCH   2  13
ATOM     13  C   LIG d   1      10.319   8.571  -6.472  0.00  0.00     0.342 C 
ATOM     14  O   LIG d   1      11.404   8.962  -6.856  0.00  0.00    -0.245 OA
BRANCH  13  15
ATOM     15  O   LIG d   1       9.297   9.442  -6.339  0.00  0.00    -0.459 OA
BRANCH  15  16
ATOM     16  C   LIG d   1       9.584  10.686  -5.700  0.00  0.00     0.116 C 
ATOM     17  H   LIG d   1      10.627  10.951  -5.873  0.00  0.00     0.072 H 
ATOM     18  H   LIG d   1       8.938  11.463  -6.110  0.00  0.00     0.072 H 
BRANCH  16  19
ATOM     19  C   LIG d   1       9.334  10.558  -4.196  0.00  0.00     0.082 C 
ATOM     20  H   LIG d   1       9.012   9.542  -3.966  0.00  0.00     0.059 H 
ATOM     21  H   LIG d   1      10.253  10.780  -3.654  0.00  0.00     0.059 H 
BRANCH  19  22
ATOM     22  O   LIG d   1       8.315  11.480  -3.803  0.00  0.00    -0.380 OA
BRANCH  22  23
ATOM     23  C   LIG d   1       8.815  12.741  -3.350  0.00  0.00     0.037 C 
ATOM     24  H   LIG d   1       9.903  12.700  -3.291  0.00  0.00     0.052 H 
ATOM     25  H   LIG d   1       8.519  13.522  -4.050  0.00  0.00     0.052 H 
ATOM     26  H   LIG d   1       8.406  12.962  -2.365  0.00  0.00     0.052 H 
ENDBRANCH  22  23
ENDBRANCH  19  22
ENDBRANCH  16  19
ENDBRANCH  15  16
ENDBRANCH  13  15
ENDBRANCH   2  13
BRANCH   1  27
ATOM     27  C   LIG d   1       9.913   6.284  -8.540  0.00  0.00    -0.023 C 
ATOM     28  H   LIG d   1      10.878   5.992  -8.953  0.00  0.00     0.029 H 
ATOM     29  H   LIG d   1       9.132   5.646  -8.954  0.00  0.00     0.029 H 
ATOM     30  H   LIG d   1       9.707   7.323  -8.796  0.00  0.00     0.029 H 
ENDBRANCH   1  27
BRANCH   9  31
ATOM     31  C   LIG d   1       9.567   3.662  -7.005  0.00  0.00     0.012 C 
ATOM     32  H   LIG d   1      10.527   3.232  -7.294  0.00  0.00     0.046 H 
ATOM     33  H   LIG d   1       9.066   2.996  -6.302  0.00  0.00     0.046 H 
ATOM     34  H   LIG d   1       8.945   3.790  -7.891  0.00  0.00     0.046 H 
ENDBRANCH   9  31
BRANCH   5  35
ATOM     35  O   LIG d   1      10.224   6.687  -1.171  0.00  0.00    -0.411 OA
BRANCH  35  36
ATOM     36  C   LIG d   1       9.580   7.833  -0.874  0.00  0.00     0.408 C 
ATOM     37  O   LIG d   1       8.365   7.866  -0.880  0.00  0.00    -0.226 OA
ATOM     38  N   LIG d   1      10.283   8.942  -0.572  0.00  0.00    -0.273 N 
BRANCH  38  39
ATOM     39  C   LIG d   1       9.583  10.187  -0.249  0.00  0.00     0.006 C 
ATOM     40  H   LIG d   1       8.597  10.182  -0.714  0.00  0.00     0.043 H 
ATOM     41  H   LIG d   1       9.473  10.273   0.833  0.00  0.00     0.043 H 
ATOM     42  H   LIG d   1      10.157  11.034  -0.624  0.00  0.00     0.043 H 
ENDBRANCH  38  39
BRANCH  38  43
ATOM     43  C   LIG d   1      11.748   8.901  -0.565  0.00  0.00     0.006 C 
ATOM     44  H   LIG d   1      12.137   9.750  -1.125  0.00  0.00     0.043 H 
ATOM     45  H   LIG d   1      12.107   8.949   0.463  0.00  0.00     0.043 H 
ATOM     46  H   LIG d   1      12.088   7.974  -1.025  0.00  0.00     0.043 H 
ENDBRANCH  38  43
ENDBRANCH  35  36
ENDBRANCH   5  35
TORSDOF 12
ENDMDL
MODEL 8
REMARK VINA RESULT:      -4.4      4.632      6.753
REMARK  12 active torsions:
REMARK  status: ('A' for Active; 'I' for Inactive)
REMARK    1  A    between atoms: C_1  and  C_2 
REMARK    2  A    between atoms: C_3  and  C_18 
REMARK    3  A    between atoms: C_6  and  O_12 
REMARK    4  A    between atoms: N_10  and  C_11 
REMARK    5  A    between atoms: O_12  and  C_13 
REMARK       I    between atoms: C_13  and  N_15 
REMARK    6  A    between atoms: N_15  and  C_16 
REMARK    7  A    between atoms: N_15  and  C_17 
REMARK    8  A    between atoms: C_18  and  O_20 
REMARK    9  A    between atoms: O_20  and  C_21 
REMARK   10  A    between atoms: C_21  and  C_22 
REMARK   11  A    between atoms: C_22  and  O_23 
REMARK   12  A    between atoms: O_23  and  C_24 
ROOT
ATOM      1  C   LIG d   1       6.139  -1.686  -3.934  0.00  0.00     0.030 A 
ATOM      2  C   LIG d   1       6.103  -1.483  -5.283  0.00  0.00     0.087 A 
ATOM      3  C   LIG d   1       4.819  -0.819  -5.572  0.00  0.00     0.018 A 
ATOM      4  C   LIG d   1       4.208  -0.360  -6.737  0.00  0.00    -0.009 A 
ATOM      5  C   LIG d   1       2.963   0.235  -6.667  0.00  0.00     0.134 A 
ATOM      6  C   LIG d   1       2.322   0.377  -5.438  0.00  0.00    -0.017 A 
ATOM      7  C   LIG d   1       2.920  -0.074  -4.282  0.00  0.00    -0.034 A 
ATOM      8  C   LIG d   1       4.173  -0.676  -4.334  0.00  0.00     0.050 A 
ATOM      9  N   LIG d   1       4.999  -1.218  -3.370  0.00  0.00    -0.346 N 
ATOM     10  H   LIG d   1       4.704  -0.469  -7.689  0.00  0.00     0.066 H 
ATOM     11  H   LIG d   1       1.350   0.844  -5.393  0.00  0.00     0.066 H 
ATOM     12  H   LIG d   1       2.415   0.042  -3.334  0.00  0.00     0.064 H 
ENDROOT
BRANCH   2  13
ATOM     13  C   LIG d   1       7.140  -1.851  -6.254  0.00  0.00     0.342 C 
ATOM     14  O   LIG d   1       7.994  -1.044  -6.566  0.00  0.00    -0.245 OA
BRANCH  13  15
ATOM     15  O   LIG d   1       7.144  -3.084  -6.801  0.00  0.00    -0.459 OA
BRANCH  15  16
ATOM     16  C   LIG d   1       6.268  -3.306  -7.907  0.00  0.00     0.116 C 
ATOM     17  H   LIG d   1       5.617  -2.440  -8.035  0.00  0.00     0.072 H 
ATOM     18  H   LIG d   1       6.857  -3.455  -8.812  0.00  0.00     0.072 H 
BRANCH  16  19
ATOM     19  C   LIG d   1       5.417  -4.549  -7.643  0.00  0.00     0.082 C 
ATOM     20  H   LIG d   1       4.905  -4.842  -8.559  0.00  0.00     0.059 H 
ATOM     21  H   LIG d   1       6.058  -5.364  -7.307  0.00  0.00     0.059 H 
BRANCH  19  22
ATOM     22  O   LIG d   1       4.451  -4.257  -6.630  0.00  0.00    -0.380 OA
BRANCH  22  23
ATOM     23  C   LIG d   1       4.653  -4.974  -5.410  0.00  0.00     0.037 C 
ATOM     24  H   LIG d   1       5.721  -5.096  -5.233  0.00  0.00     0.052 H 
ATOM     25  H   LIG d   1       4.209  -4.417  -4.585  0.00  0.00     0.052 H 
ATOM     26  H   LIG d   1       4.183  -5.954  -5.482  0.00  0.00     0.052 H 
ENDBRANCH  22  23
ENDBRANCH  19  22
ENDBRANCH  16  19
ENDBRANCH  15  16
ENDBRANCH  13  15
ENDBRANCH   2  13
BRANCH   1  27
ATOM     27  C   LIG d   1       7.271  -2.340  -3.185  0.00  0.00    -0.023 C 
ATOM     28  H   LIG d   1       8.163  -1.718  -3.262  0.00  0.00     0.029 H 
ATOM     29  H   LIG d   1       6.996  -2.454  -2.137  0.00  0.00     0.029 H 
ATOM     30  H   LIG d   1       7.474  -3.320  -3.616  0.00  0.00     0.029 H 
ENDBRANCH   1  27
BRANCH   9  31
ATOM     31  C   LIG d   1       4.691  -1.274  -1.939  0.00  0.00     0.012 C 
ATOM     32  H   LIG d   1       5.334  -2.011  -1.458  0.00  0.00     0.046 H 
ATOM     33  H   LIG d   1       4.860  -0.295  -1.491  0.00  0.00     0.046 H 
ATOM     34  H   LIG d   1       3.648  -1.560  -1.804  0.00  0.00     0.046 H 
ENDBRANCH   9  31
BRANCH   5  35
ATOM     35  O   LIG d   1       2.361   0.685  -7.800  0.00  0.00    -0.411 OA
BRANCH  35  36
ATOM     36  C   LIG d   1       3.142   1.195  -8.772  0.00  0.00     0.408 C 
ATOM     37  O   LIG d   1       3.797   2.197  -8.562  0.00  0.00    -0.226 OA
ATOM     38  N   LIG d   1       3.197   0.594  -9.977  0.00  0.00    -0.273 N 
BRANCH  38  39
ATOM     39  C   LIG d   1       4.047   1.149 -11.033  0.00  0.00     0.006 C 
ATOM     40  H   LIG d   1       3.981   0.521 -11.922  0.00  0.00     0.043 H 
ATOM     41  H   LIG d   1       3.713   2.158 -11.276  0.00  0.00     0.043 H 
ATOM     42  H   LIG d   1       5.080   1.182 -10.688  0.00  0.00     0.043 H 
ENDBRANCH  38  39
BRANCH  38  43
ATOM     43  C   LIG d   1       2.409  -0.615 -10.229  0.00  0.00     0.006 C 
ATOM     44  H   LIG d   1       1.459  -0.544  -9.701  0.00  0.00     0.043 H 
ATOM     45  H   LIG d   1       2.223  -0.710 -11.299  0.00  0.00     0.043 H 
ATOM     46  H   LIG d   1       2.958  -1.487  -9.877  0.00  0.00     0.043 H 
ENDBRANCH  38  43
ENDBRANCH  35  36
ENDBRANCH   5  35
TORSDOF 12
ENDMDL
MODEL 9
REMARK VINA RESULT:      -4.4      3.809      7.871
REMARK  12 active torsions:
REMARK  status: ('A' for Active; 'I' for Inactive)
REMARK    1  A    between atoms: C_1  and  C_2 
REMARK    2  A    between atoms: C_3  and  C_18 
REMARK    3  A    between atoms: C_6  and  O_12 
REMARK    4  A    between atoms: N_10  and  C_11 
REMARK    5  A    between atoms: O_12  and  C_13 
REMARK       I    between atoms: C_13  and  N_15 
REMARK    6  A    between atoms: N_15  and  C_16 
REMARK    7  A    between atoms: N_15  and  C_17 
REMARK    8  A    between atoms: C_18  and  O_20 
REMARK    9  A    between atoms: O_20  and  C_21 
REMARK   10  A    between atoms: C_21  and  C_22 
REMARK   11  A    between atoms: C_22  and  O_23 
REMARK   12  A    between atoms: O_23  and  C_24 
ROOT
ATOM      1  C   LIG d   1       4.229  -1.180  -3.528  0.00  0.00     0.030 A 
ATOM      2  C   LIG d   1       4.483  -1.992  -4.595  0.00  0.00     0.087 A 
ATOM      3  C   LIG d   1       3.962  -1.294  -5.785  0.00  0.00     0.018 A 
ATOM      4  C   LIG d   1       3.921  -1.597  -7.144  0.00  0.00    -0.009 A 
ATOM      5  C   LIG d   1       3.346  -0.703  -8.026  0.00  0.00     0.134 A 
ATOM      6  C   LIG d   1       2.812   0.496  -7.561  0.00  0.00    -0.017 A 
ATOM      7  C   LIG d   1       2.849   0.804  -6.219  0.00  0.00    -0.034 A 
ATOM      8  C   LIG d   1       3.423  -0.085  -5.316  0.00  0.00     0.050 A 
ATOM      9  N   LIG d   1       3.599  -0.057  -3.947  0.00  0.00    -0.346 N 
ATOM     10  H   LIG d   1       4.335  -2.526  -7.505  0.00  0.00     0.066 H 
ATOM     11  H   LIG d   1       2.365   1.189  -8.257  0.00  0.00     0.066 H 
ATOM     12  H   LIG d   1       2.433   1.737  -5.867  0.00  0.00     0.064 H 
ENDROOT
BRANCH   2  13
ATOM     13  C   LIG d   1       5.145  -3.301  -4.565  0.00  0.00     0.342 C 
ATOM     14  O   LIG d   1       4.484  -4.319  -4.638  0.00  0.00    -0.245 OA
BRANCH  13  15
ATOM     15  O   LIG d   1       6.488  -3.376  -4.457  0.00  0.00    -0.459 OA
BRANCH  15  16
ATOM     16  C   LIG d   1       7.255  -2.930  -5.576  0.00  0.00     0.116 C 
ATOM     17  H   LIG d   1       7.750  -3.783  -6.040  0.00  0.00     0.072 H 
ATOM     18  H   LIG d   1       6.595  -2.453  -6.301  0.00  0.00     0.072 H 
BRANCH  16  19
ATOM     19  C   LIG d   1       8.306  -1.923  -5.106  0.00  0.00     0.082 C 
ATOM     20  H   LIG d   1       9.125  -2.452  -4.620  0.00  0.00     0.059 H 
ATOM     21  H   LIG d   1       8.688  -1.369  -5.963  0.00  0.00     0.059 H 
BRANCH  19  22
ATOM     22  O   LIG d   1       7.711  -1.012  -4.178  0.00  0.00    -0.380 OA
BRANCH  22  23
ATOM     23  C   LIG d   1       7.450   0.284  -4.722  0.00  0.00     0.037 C 
ATOM     24  H   LIG d   1       7.292   0.994  -3.911  0.00  0.00     0.052 H 
ATOM     25  H   LIG d   1       8.301   0.603  -5.323  0.00  0.00     0.052 H 
ATOM     26  H   LIG d   1       6.559   0.243  -5.348  0.00  0.00     0.052 H 
ENDBRANCH  22  23
ENDBRANCH  19  22
ENDBRANCH  16  19
ENDBRANCH  15  16
ENDBRANCH  13  15
ENDBRANCH   2  13
BRANCH   1  27
ATOM     27  C   LIG d   1       4.589  -1.490  -2.098  0.00  0.00    -0.023 C 
ATOM     28  H   LIG d   1       3.951  -0.913  -1.429  0.00  0.00     0.029 H 
ATOM     29  H   LIG d   1       4.446  -2.554  -1.910  0.00  0.00     0.029 H 
ATOM     30  H   LIG d   1       5.632  -1.227  -1.921  0.00  0.00     0.029 H 
ENDBRANCH   1  27
BRANCH   9  31
ATOM     31  C   LIG d   1       3.167   1.035  -3.070  0.00  0.00     0.012 C 
ATOM     32  H   LIG d   1       3.950   1.244  -2.340  0.00  0.00     0.046 H 
ATOM     33  H   LIG d   1       2.978   1.927  -3.667  0.00  0.00     0.046 H 
ATOM     34  H   LIG d   1       2.254   0.745  -2.551  0.00  0.00     0.046 H 
ENDBRANCH   9  31
BRANCH   5  35
ATOM     35  O   LIG d   1       3.302  -0.993  -9.354  0.00  0.00    -0.411 OA
BRANCH  35  36
ATOM     36  C   LIG d   1       2.171  -1.536  -9.846  0.00  0.00     0.408 C 
ATOM     37  O   LIG d   1       1.171  -0.855  -9.962  0.00  0.00    -0.226 OA
ATOM     38  N   LIG d   1       2.149  -2.834 -10.209  0.00  0.00    -0.273 N 
BRANCH  38  39
ATOM     39  C   LIG d   1       0.919  -3.423 -10.744  0.00  0.00     0.006 C 
ATOM     40  H   LIG d   1       1.080  -3.723 -11.779  0.00  0.00     0.043 H 
ATOM     41  H   LIG d   1       0.647  -4.296 -10.151  0.00  0.00     0.043 H 
ATOM     42  H   LIG d   1       0.115  -2.689 -10.699  0.00  0.00     0.043 H 
ENDBRANCH  38  39
BRANCH  38  43
ATOM     43  C   LIG d   1       3.355  -3.653 -10.069  0.00  0.00     0.006 C 
ATOM     44  H   LIG d   1       4.007  -3.488 -10.926  0.00  0.00     0.043 H 
ATOM     45  H   LIG d   1       3.879  -3.374  -9.155  0.00  0.00     0.043 H 
ATOM     46  H   LIG d   1       3.076  -4.705 -10.021  0.00  0.00     0.043 H 
ENDBRANCH  38  43
ENDBRANCH  35  36
ENDBRANCH   5  35
TORSDOF 12
ENDMDL
MODEL 10
REMARK VINA RESULT:      -4.4      4.403      5.652
REMARK  12 active torsions:
REMARK  status: ('A' for Active; 'I' for Inactive)
REMARK    1  A    between atoms: C_1  and  C_2 
REMARK    2  A    between atoms: C_3  and  C_18 
REMARK    3  A    between atoms: C_6  and  O_12 
REMARK    4  A    between atoms: N_10  and  C_11 
REMARK    5  A    between atoms: O_12  and  C_13 
REMARK       I    between atoms: C_13  and  N_15 
REMARK    6  A    between atoms: N_15  and  C_16 
REMARK    7  A    between atoms: N_15  and  C_17 
REMARK    8  A    between atoms: C_18  and  O_20 
REMARK    9  A    between atoms: O_20  and  C_21 
REMARK   10  A    between atoms: C_21  and  C_22 
REMARK   11  A    between atoms: C_22  and  O_23 
REMARK   12  A    between atoms: O_23  and  C_24 
ROOT
ATOM      1  C   LIG d   1       3.597  -0.175  -4.877  0.00  0.00     0.030 A 
ATOM      2  C   LIG d   1       4.411  -0.487  -5.928  0.00  0.00     0.087 A 
ATOM      3  C   LIG d   1       5.603  -1.138  -5.355  0.00  0.00     0.018 A 
ATOM      4  C   LIG d   1       6.767  -1.675  -5.900  0.00  0.00    -0.009 A 
ATOM      5  C   LIG d   1       7.719  -2.230  -5.065  0.00  0.00     0.134 A 
ATOM      6  C   LIG d   1       7.515  -2.254  -3.688  0.00  0.00    -0.017 A 
ATOM      7  C   LIG d   1       6.366  -1.725  -3.142  0.00  0.00    -0.034 A 
ATOM      8  C   LIG d   1       5.398  -1.162  -3.967  0.00  0.00     0.050 A 
ATOM      9  N   LIG d   1       4.178  -0.565  -3.718  0.00  0.00    -0.346 N 
ATOM     10  H   LIG d   1       6.925  -1.657  -6.967  0.00  0.00     0.066 H 
ATOM     11  H   LIG d   1       8.263  -2.689  -3.044  0.00  0.00     0.066 H 
ATOM     12  H   LIG d   1       6.217  -1.749  -2.072  0.00  0.00     0.064 H 
ENDROOT
BRANCH   2  13
ATOM     13  C   LIG d   1       4.149  -0.227  -7.349  0.00  0.00     0.342 C 
ATOM     14  O   LIG d   1       3.829  -1.140  -8.085  0.00  0.00    -0.245 OA
BRANCH  13  15
ATOM     15  O   LIG d   1       4.264   1.025  -7.838  0.00  0.00    -0.459 OA
BRANCH  15  16
ATOM     16  C   LIG d   1       4.932   1.172  -9.091  0.00  0.00     0.116 C 
ATOM     17  H   LIG d   1       5.809   1.807  -8.964  0.00  0.00     0.072 H 
ATOM     18  H   LIG d   1       5.242   0.192  -9.455  0.00  0.00     0.072 H 
BRANCH  16  19
ATOM     19  C   LIG d   1       3.982   1.814 -10.104  0.00  0.00     0.082 C 
ATOM     20  H   LIG d   1       2.966   1.803  -9.707  0.00  0.00     0.059 H 
ATOM     21  H   LIG d   1       4.289   2.843 -10.290  0.00  0.00     0.059 H 
BRANCH  19  22
ATOM     22  O   LIG d   1       4.022   1.077 -11.328  0.00  0.00    -0.380 OA
BRANCH  22  23
ATOM     23  C   LIG d   1       3.214  -0.102 -11.323  0.00  0.00     0.037 C 
ATOM     24  H   LIG d   1       3.850  -0.979 -11.196  0.00  0.00     0.052 H 
ATOM     25  H   LIG d   1       2.500  -0.050 -10.501  0.00  0.00     0.052 H 
ATOM     26  H   LIG d   1       2.676  -0.179 -12.267  0.00  0.00     0.052 H 
ENDBRANCH  22  23
ENDBRANCH  19  22
ENDBRANCH  16  19
ENDBRANCH  15  16
ENDBRANCH  13  15
ENDBRANCH   2  13
BRANCH   1  27
ATOM     27  C   LIG d   1       2.259   0.508  -4.990  0.00  0.00    -0.023 C 
ATOM     28  H   LIG d   1       1.672   0.307  -4.094  0.00  0.00     0.029 H 
ATOM     29  H   LIG d   1       2.407   1.582  -5.095  0.00  0.00     0.029 H 
ATOM     30  H   LIG d   1       1.729   0.128  -5.863  0.00  0.00     0.029 H 
ENDBRANCH   1  27
BRANCH   9  31
ATOM     31  C   LIG d   1       3.592  -0.383  -2.387  0.00  0.00     0.012 C 
ATOM     32  H   LIG d   1       4.287  -0.749  -1.631  0.00  0.00     0.046 H 
ATOM     33  H   LIG d   1       3.394   0.676  -2.219  0.00  0.00     0.046 H 
ATOM     34  H   LIG d   1       2.659  -0.942  -2.322  0.00  0.00     0.046 H 
ENDBRANCH   9  31
BRANCH   5  35
ATOM     35  O   LIG d   1       8.858  -2.755  -5.590  0.00  0.00    -0.411 OA
BRANCH  35  36
ATOM     36  C   LIG d   1      10.033  -2.196  -5.239  0.00  0.00     0.408 C 
ATOM     37  O   LIG d   1      10.267  -1.040  -5.533  0.00  0.00    -0.226 OA
ATOM     38  N   LIG d   1      10.948  -2.919  -4.564  0.00  0.00    -0.273 N 
BRANCH  38  39
ATOM     39  C   LIG d   1      12.225  -2.310  -4.182  0.00  0.00     0.006 C 
ATOM     40  H   LIG d   1      12.952  -3.093  -3.970  0.00  0.00     0.043 H 
ATOM     41  H   LIG d   1      12.589  -1.688  -5.000  0.00  0.00     0.043 H 
ATOM     42  H   LIG d   1      12.082  -1.695  -3.294  0.00  0.00     0.043 H 
ENDBRANCH  38  39
BRANCH  38  43
ATOM     43  C   LIG d   1      10.664  -4.312  -4.210  0.00  0.00     0.006 C 
ATOM     44  H   LIG d   1      10.683  -4.925  -5.110  0.00  0.00     0.043 H 
ATOM     45  H   LIG d   1      11.420  -4.669  -3.511  0.00  0.00     0.043 H 
ATOM     46  H   LIG d   1       9.681  -4.376  -3.746  0.00  0.00     0.043 H 
ENDBRANCH  38  43
ENDBRANCH  35  36
ENDBRANCH   5  35
TORSDOF 12
ENDMDL
