MODEL 1
REMARK VINA RESULT:      -4.4      0.000      0.000
REMARK  9 active torsions:
REMARK  status: ('A' for Active; 'I' for Inactive)
REMARK    1  A    between atoms: C_1  and  N_2 
REMARK    2  A    between atoms: N_2  and  C_3 
REMARK    3  A    between atoms: N_2  and  C_4 
REMARK    4  A    between atoms: N_2  and  C_5 
REMARK    5  A    between atoms: C_5  and  C_6 
REMARK    6  A    between atoms: C_6  and  C_8 
REMARK    7  A    between atoms: C_6  and  O_16 
REMARK    8  A    between atoms: C_11  and  O_15 
REMARK    9  A    between atoms: C_12  and  O_14 
ROOT
ATOM      1  C   LIG d   1      10.494   6.152  -0.542  0.00  0.00     0.120 C 
ATOM      2  H   LIG d   1       9.659   5.735  -1.106  0.00  0.00     0.070 H 
ENDROOT
BRANCH   1   3
ATOM      3  C   LIG d   1      11.793   5.929  -1.319  0.00  0.00     0.000 C 
ATOM      4  H   LIG d   1      12.301   6.883  -1.458  0.00  0.00     0.084 H 
ATOM      5  H   LIG d   1      12.439   5.253  -0.760  0.00  0.00     0.084 H 
BRANCH   3   6
ATOM      6  N   LIG d   1      11.487   5.342  -2.630  0.00  0.00     0.239 N 
BRANCH   6   7
ATOM      7  C   LIG d   1      10.175   4.683  -2.577  0.00  0.00    -0.042 C 
ATOM      8  H   LIG d   1       9.397   5.401  -2.839  0.00  0.00     0.078 H 
ATOM      9  H   LIG d   1      10.157   3.853  -3.282  0.00  0.00     0.078 H 
ATOM     10  H   LIG d   1       9.998   4.308  -1.569  0.00  0.00     0.078 H 
ENDBRANCH   6   7
BRANCH   6  11
ATOM     11  C   LIG d   1      11.462   6.402  -3.647  0.00  0.00    -0.042 C 
ATOM     12  H   LIG d   1      10.674   7.117  -3.408  0.00  0.00     0.078 H 
ATOM     13  H   LIG d   1      12.425   6.914  -3.661  0.00  0.00     0.078 H 
ATOM     14  H   LIG d   1      11.270   5.962  -4.626  0.00  0.00     0.078 H 
ENDBRANCH   6  11
BRANCH   6  15
ATOM     15  C   LIG d   1      12.517   4.355  -2.977  0.00  0.00    -0.042 C 
ATOM     16  H   LIG d   1      13.222   4.798  -3.682  0.00  0.00     0.078 H 
ATOM     17  H   LIG d   1      13.048   4.051  -2.076  0.00  0.00     0.078 H 
ATOM     18  H   LIG d   1      12.047   3.483  -3.434  0.00  0.00     0.078 H 
ENDBRANCH   6  15
ENDBRANCH   3   6
ENDBRANCH   1   3
BRANCH   1  19
ATOM     19  C   LIG d   1      10.276   7.628  -0.339  0.00  0.00    -0.010 A 
ATOM     20  C   LIG d   1       9.239   8.269  -0.991  0.00  0.00    -0.011 A 
ATOM     21  C   LIG d   1       9.037   9.627  -0.804  0.00  0.00     0.159 A 
ATOM     22  H   LIG d   1       8.587   7.712  -1.647  0.00  0.00     0.066 H 
ATOM     23  C   LIG d   1       9.879  10.342   0.041  0.00  0.00     0.158 A 
ATOM     24  C   LIG d   1      10.916   9.695   0.692  0.00  0.00    -0.016 A 
ATOM     25  C   LIG d   1      11.113   8.339   0.500  0.00  0.00    -0.052 A 
ATOM     26  H   LIG d   1      11.572  10.247   1.348  0.00  0.00     0.066 H 
ATOM     27  H   LIG d   1      11.922   7.835   1.009  0.00  0.00     0.062 H 
BRANCH  21  28
ATOM     28  O   LIG d   1       8.014  10.257  -1.441  0.00  0.00    -0.503 OA
ATOM     29  H   LIG d   1       8.254  10.623  -2.304  0.00  0.00     0.292 HD
ENDBRANCH  21  28
BRANCH  23  30
ATOM     30  O   LIG d   1       9.684  11.675   0.228  0.00  0.00    -0.503 OA
ATOM     31  H   LIG d   1      10.069  12.018   1.047  0.00  0.00     0.292 HD
ENDBRANCH  23  30
ENDBRANCH   1  19
BRANCH   1  32
ATOM     32  O   LIG d   1      10.581   5.503   0.727  0.00  0.00    -0.382 OA
ATOM     33  H   LIG d   1      10.117   4.655   0.768  0.00  0.00     0.210 HD
ENDBRANCH   1  32
TORSDOF 9
ENDMDL
MODEL 2
REMARK VINA RESULT:      -4.3      9.440     11.301
REMARK  9 active torsions:
REMARK  status: ('A' for Active; 'I' for Inactive)
REMARK    1  A    between atoms: C_1  and  N_2 
REMARK    2  A    between atoms: N_2  and  C_3 
REMARK    3  A    between atoms: N_2  and  C_4 
REMARK    4  A    between atoms: N_2  and  C_5 
REMARK    5  A    between atoms: C_5  and  C_6 
REMARK    6  A    between atoms: C_6  and  C_8 
REMARK    7  A    between atoms: C_6  and  O_16 
REMARK    8  A    between atoms: C_11  and  O_15 
REMARK    9  A    between atoms: C_12  and  O_14 
ROOT
ATOM      1  C   LIG d   1       5.175  -2.954  -5.170  0.00  0.00     0.120 C 
ATOM      2  H   LIG d   1       5.237  -2.498  -6.158  0.00  0.00     0.070 H 
ENDROOT
BRANCH   1   3
ATOM      3  C   LIG d   1       6.431  -3.790  -4.916  0.00  0.00     0.000 C 
ATOM      4  H   LIG d   1       6.977  -3.378  -4.068  0.00  0.00     0.084 H 
ATOM      5  H   LIG d   1       6.144  -4.819  -4.696  0.00  0.00     0.084 H 
BRANCH   3   6
ATOM      6  N   LIG d   1       7.287  -3.765  -6.109  0.00  0.00     0.239 N 
BRANCH   6   7
ATOM      7  C   LIG d   1       8.573  -3.139  -5.776  0.00  0.00    -0.042 C 
ATOM      8  H   LIG d   1       9.026  -2.733  -6.682  0.00  0.00     0.078 H 
ATOM      9  H   LIG d   1       8.410  -2.334  -5.060  0.00  0.00     0.078 H 
ATOM     10  H   LIG d   1       9.238  -3.883  -5.341  0.00  0.00     0.078 H 
ENDBRANCH   6   7
BRANCH   6  11
ATOM     11  C   LIG d   1       7.517  -5.140  -6.575  0.00  0.00    -0.042 C 
ATOM     12  H   LIG d   1       6.580  -5.565  -6.932  0.00  0.00     0.078 H 
ATOM     13  H   LIG d   1       8.245  -5.130  -7.388  0.00  0.00     0.078 H 
ATOM     14  H   LIG d   1       7.901  -5.742  -5.752  0.00  0.00     0.078 H 
ENDBRANCH   6  11
BRANCH   6  15
ATOM     15  C   LIG d   1       6.626  -2.994  -7.170  0.00  0.00    -0.042 C 
ATOM     16  H   LIG d   1       5.958  -2.257  -6.720  0.00  0.00     0.078 H 
ATOM     17  H   LIG d   1       7.378  -2.483  -7.770  0.00  0.00     0.078 H 
ATOM     18  H   LIG d   1       6.050  -3.667  -7.805  0.00  0.00     0.078 H 
ENDBRANCH   6  15
ENDBRANCH   3   6
ENDBRANCH   1   3
BRANCH   1  19
ATOM     19  C   LIG d   1       5.069  -1.876  -4.123  0.00  0.00    -0.010 A 
ATOM     20  C   LIG d   1       5.701  -0.662  -4.316  0.00  0.00    -0.011 A 
ATOM     21  C   LIG d   1       5.602   0.332  -3.355  0.00  0.00     0.159 A 
ATOM     22  H   LIG d   1       6.271  -0.487  -5.217  0.00  0.00     0.066 H 
ATOM     23  C   LIG d   1       4.867   0.103  -2.197  0.00  0.00     0.158 A 
ATOM     24  C   LIG d   1       4.236  -1.116  -2.009  0.00  0.00    -0.016 A 
ATOM     25  C   LIG d   1       4.338  -2.103  -2.972  0.00  0.00    -0.052 A 
ATOM     26  H   LIG d   1       3.665  -1.296  -1.110  0.00  0.00     0.066 H 
ATOM     27  H   LIG d   1       3.846  -3.052  -2.824  0.00  0.00     0.062 H 
BRANCH  21  28
ATOM     28  O   LIG d   1       6.219   1.528  -3.547  0.00  0.00    -0.503 OA
ATOM     29  H   LIG d   1       5.925   1.999  -4.339  0.00  0.00     0.292 HD
ENDBRANCH  21  28
BRANCH  23  30
ATOM     30  O   LIG d   1       4.768   1.075  -1.251  0.00  0.00    -0.503 OA
ATOM     31  H   LIG d   1       5.412   1.789  -1.352  0.00  0.00     0.292 HD
ENDBRANCH  23  30
ENDBRANCH   1  19
BRANCH   1  32
ATOM     32  O   LIG d   1       4.022  -3.796  -5.107  0.00  0.00    -0.382 OA
ATOM     33  H   LIG d   1       4.030  -4.418  -4.367  0.00  0.00     0.210 HD
ENDBRANCH   1  32
TORSDOF 9
ENDMDL
MODEL 3
REMARK VINA RESULT:      -4.1      2.462      5.403
REMARK  9 active torsions:
REMARK  status: ('A' for Active; 'I' for Inactive)
REMARK    1  A    between atoms: C_1  and  N_2 
REMARK    2  A    between atoms: N_2  and  C_3 
REMARK    3  A    between atoms: N_2  and  C_4 
REMARK    4  A    between atoms: N_2  and  C_5 
REMARK    5  A    between atoms: C_5  and  C_6 
REMARK    6  A    between atoms: C_6  and  C_8 
REMARK    7  A    between atoms: C_6  and  O_16 
REMARK    8  A    between atoms: C_11  and  O_15 
REMARK    9  A    between atoms: C_12  and  O_14 
ROOT
ATOM      1  C   LIG d   1       9.446   9.824  -1.133  0.00  0.00     0.120 C 
ATOM      2  H   LIG d   1       9.805  10.427  -0.298  0.00  0.00     0.070 H 
ENDROOT
BRANCH   1   3
ATOM      3  C   LIG d   1       9.994  10.394  -2.443  0.00  0.00     0.000 C 
ATOM      4  H   LIG d   1      10.810   9.765  -2.799  0.00  0.00     0.084 H 
ATOM      5  H   LIG d   1       9.200  10.414  -3.190  0.00  0.00     0.084 H 
BRANCH   3   6
ATOM      6  N   LIG d   1      10.489  11.758  -2.216  0.00  0.00     0.239 N 
BRANCH   6   7
ATOM      7  C   LIG d   1      10.740  11.955  -0.783  0.00  0.00    -0.042 C 
ATOM      8  H   LIG d   1      11.801  12.153  -0.623  0.00  0.00     0.078 H 
ATOM      9  H   LIG d   1      10.155  12.802  -0.425  0.00  0.00     0.078 H 
ATOM     10  H   LIG d   1      10.453  11.058  -0.236  0.00  0.00     0.078 H 
ENDBRANCH   6   7
BRANCH   6  11
ATOM     11  C   LIG d   1      11.738  11.955  -2.964  0.00  0.00    -0.042 C 
ATOM     12  H   LIG d   1      12.004  11.032  -3.479  0.00  0.00     0.078 H 
ATOM     13  H   LIG d   1      11.600  12.753  -3.696  0.00  0.00     0.078 H 
ATOM     14  H   LIG d   1      12.535  12.230  -2.274  0.00  0.00     0.078 H 
ENDBRANCH   6  11
BRANCH   6  15
ATOM     15  C   LIG d   1       9.485  12.726  -2.676  0.00  0.00    -0.042 C 
ATOM     16  H   LIG d   1       8.754  12.219  -3.307  0.00  0.00     0.078 H 
ATOM     17  H   LIG d   1       8.980  13.162  -1.814  0.00  0.00     0.078 H 
ATOM     18  H   LIG d   1       9.974  13.514  -3.248  0.00  0.00     0.078 H 
ENDBRANCH   6  15
ENDBRANCH   3   6
ENDBRANCH   1   3
BRANCH   1  19
ATOM     19  C   LIG d   1       9.916   8.403  -0.966  0.00  0.00    -0.010 A 
ATOM     20  C   LIG d   1      10.615   8.036   0.169  0.00  0.00    -0.011 A 
ATOM     21  C   LIG d   1      11.047   6.728   0.324  0.00  0.00     0.159 A 
ATOM     22  H   LIG d   1      10.824   8.767   0.935  0.00  0.00     0.066 H 
ATOM     23  C   LIG d   1      10.776   5.788  -0.665  0.00  0.00     0.158 A 
ATOM     24  C   LIG d   1      10.076   6.162  -1.800  0.00  0.00    -0.016 A 
ATOM     25  C   LIG d   1       9.647   7.469  -1.949  0.00  0.00    -0.052 A 
ATOM     26  H   LIG d   1       9.864   5.435  -2.569  0.00  0.00     0.066 H 
ATOM     27  H   LIG d   1       9.101   7.759  -2.834  0.00  0.00     0.062 H 
BRANCH  21  28
ATOM     28  O   LIG d   1      11.729   6.365   1.442  0.00  0.00    -0.503 OA
ATOM     29  H   LIG d   1      11.205   6.410   2.254  0.00  0.00     0.292 HD
ENDBRANCH  21  28
BRANCH  23  30
ATOM     30  O   LIG d   1      11.198   4.504  -0.517  0.00  0.00    -0.503 OA
ATOM     31  H   LIG d   1      11.142   3.976  -1.326  0.00  0.00     0.292 HD
ENDBRANCH  23  30
ENDBRANCH   1  19
BRANCH   1  32
ATOM     32  O   LIG d   1       8.018   9.855  -1.161  0.00  0.00    -0.382 OA
ATOM     33  H   LIG d   1       7.601   9.476  -0.375  0.00  0.00     0.210 HD
ENDBRANCH   1  32
TORSDOF 9
ENDMDL
MODEL 4
REMARK VINA RESULT:      -4.1      1.558      2.499
REMARK  9 active torsions:
REMARK  status: ('A' for Active; 'I' for Inactive)
REMARK    1  A    between atoms: C_1  and  N_2 
REMARK    2  A    between atoms: N_2  and  C_3 
REMARK    3  A    between atoms: N_2  and  C_4 
REMARK    4  A    between atoms: N_2  and  C_5 
REMARK    5  A    between atoms: C_5  and  C_6 
REMARK    6  A    between atoms: C_6  and  C_8 
REMARK    7  A    between atoms: C_6  and  O_16 
REMARK    8  A    between atoms: C_11  and  O_15 
REMARK    9  A    between atoms: C_12  and  O_14 
ROOT
ATOM      1  C   LIG d   1       9.399   8.073  -1.247  0.00  0.00     0.120 C 
ATOM      2  H   LIG d   1       9.512   8.439  -2.268  0.00  0.00     0.070 H 
ENDROOT
BRANCH   1   3
ATOM      3  C   LIG d   1      10.027   6.683  -1.132  0.00  0.00     0.000 C 
ATOM      4  H   LIG d   1      10.862   6.718  -0.433  0.00  0.00     0.084 H 
ATOM      5  H   LIG d   1       9.280   5.976  -0.769  0.00  0.00     0.084 H 
BRANCH   3   6
ATOM      6  N   LIG d   1      10.509   6.252  -2.451  0.00  0.00     0.239 N 
BRANCH   6   7
ATOM      7  C   LIG d   1      11.978   6.237  -2.454  0.00  0.00    -0.042 C 
ATOM      8  H   LIG d   1      12.344   6.276  -1.427  0.00  0.00     0.078 H 
ATOM      9  H   LIG d   1      12.331   5.323  -2.931  0.00  0.00     0.078 H 
ATOM     10  H   LIG d   1      12.349   7.101  -3.004  0.00  0.00     0.078 H 
ENDBRANCH   6   7
BRANCH   6  11
ATOM     11  C   LIG d   1      10.005   4.902  -2.739  0.00  0.00    -0.042 C 
ATOM     12  H   LIG d   1       9.968   4.750  -3.818  0.00  0.00     0.078 H 
ATOM     13  H   LIG d   1      10.670   4.163  -2.290  0.00  0.00     0.078 H 
ATOM     14  H   LIG d   1       9.004   4.791  -2.322  0.00  0.00     0.078 H 
ENDBRANCH   6  11
BRANCH   6  15
ATOM     15  C   LIG d   1      10.027   7.184  -3.478  0.00  0.00    -0.042 C 
ATOM     16  H   LIG d   1      10.861   7.494  -4.108  0.00  0.00     0.078 H 
ATOM     17  H   LIG d   1       9.272   6.692  -4.091  0.00  0.00     0.078 H 
ATOM     18  H   LIG d   1       9.589   8.060  -2.997  0.00  0.00     0.078 H 
ENDBRANCH   6  15
ENDBRANCH   3   6
ENDBRANCH   1   3
BRANCH   1  19
ATOM     19  C   LIG d   1      10.088   9.016  -0.296  0.00  0.00    -0.010 A 
ATOM     20  C   LIG d   1       9.595  10.294  -0.112  0.00  0.00    -0.011 A 
ATOM     21  C   LIG d   1      10.227  11.163   0.764  0.00  0.00     0.159 A 
ATOM     22  H   LIG d   1       8.716  10.616  -0.651  0.00  0.00     0.066 H 
ATOM     23  C   LIG d   1      11.358  10.744   1.456  0.00  0.00     0.158 A 
ATOM     24  C   LIG d   1      11.848   9.462   1.268  0.00  0.00    -0.016 A 
ATOM     25  C   LIG d   1      11.213   8.601   0.392  0.00  0.00    -0.052 A 
ATOM     26  H   LIG d   1      12.727   9.135   1.804  0.00  0.00     0.066 H 
ATOM     27  H   LIG d   1      11.596   7.602   0.247  0.00  0.00     0.062 H 
BRANCH  21  28
ATOM     28  O   LIG d   1       9.739  12.418   0.949  0.00  0.00    -0.503 OA
ATOM     29  H   LIG d   1      10.275  12.965   1.539  0.00  0.00     0.292 HD
ENDBRANCH  21  28
BRANCH  23  30
ATOM     30  O   LIG d   1      11.982  11.592   2.317  0.00  0.00    -0.503 OA
ATOM     31  H   LIG d   1      11.631  11.568   3.217  0.00  0.00     0.292 HD
ENDBRANCH  23  30
ENDBRANCH   1  19
BRANCH   1  32
ATOM     32  O   LIG d   1       8.010   7.996  -0.921  0.00  0.00    -0.382 OA
ATOM     33  H   LIG d   1       7.492   8.754  -1.225  0.00  0.00     0.210 HD
ENDBRANCH   1  32
TORSDOF 9
ENDMDL
MODEL 5
REMARK VINA RESULT:      -4.1     11.194     12.095
REMARK  9 active torsions:
REMARK  status: ('A' for Active; 'I' for Inactive)
REMARK    1  A    between atoms: C_1  and  N_2 
REMARK    2  A    between atoms: N_2  and  C_3 
REMARK    3  A    between atoms: N_2  and  C_4 
REMARK    4  A    between atoms: N_2  and  C_5 
REMARK    5  A    between atoms: C_5  and  C_6 
REMARK    6  A    between atoms: C_6  and  C_8 
REMARK    7  A    between atoms: C_6  and  O_16 
REMARK    8  A    between atoms: C_11  and  O_15 
REMARK    9  A    between atoms: C_12  and  O_14 
ROOT
ATOM      1  C   LIG d   1       3.143   0.269  -7.506  0.00  0.00     0.120 C 
ATOM      2  H   LIG d   1       2.736   1.280  -7.542  0.00  0.00     0.070 H 
ENDROOT
BRANCH   1   3
ATOM      3  C   LIG d   1       4.477   0.232  -8.255  0.00  0.00     0.000 C 
ATOM      4  H   LIG d   1       5.296   0.280  -7.538  0.00  0.00     0.084 H 
ATOM      5  H   LIG d   1       4.547  -0.695  -8.824  0.00  0.00     0.084 H 
BRANCH   3   6
ATOM      6  N   LIG d   1       4.558   1.377  -9.171  0.00  0.00     0.239 N 
BRANCH   6   7
ATOM      7  C   LIG d   1       3.497   2.339  -8.846  0.00  0.00    -0.042 C 
ATOM      8  H   LIG d   1       3.025   2.685  -9.767  0.00  0.00     0.078 H 
ATOM      9  H   LIG d   1       2.751   1.859  -8.214  0.00  0.00     0.078 H 
ATOM     10  H   LIG d   1       3.927   3.190  -8.319  0.00  0.00     0.078 H 
ENDBRANCH   6   7
BRANCH   6  11
ATOM     11  C   LIG d   1       5.868   2.025  -9.029  0.00  0.00    -0.042 C 
ATOM     12  H   LIG d   1       5.960   2.445  -8.028  0.00  0.00     0.078 H 
ATOM     13  H   LIG d   1       6.656   1.287  -9.187  0.00  0.00     0.078 H 
ATOM     14  H   LIG d   1       5.962   2.820  -9.768  0.00  0.00     0.078 H 
ENDBRANCH   6  11
BRANCH   6  15
ATOM     15  C   LIG d   1       4.389   0.910 -10.553  0.00  0.00    -0.042 C 
ATOM     16  H   LIG d   1       3.877  -0.053 -10.552  0.00  0.00     0.078 H 
ATOM     17  H   LIG d   1       3.798   1.635 -11.112  0.00  0.00     0.078 H 
ATOM     18  H   LIG d   1       5.367   0.800 -11.022  0.00  0.00     0.078 H 
ENDBRANCH   6  15
ENDBRANCH   3   6
ENDBRANCH   1   3
BRANCH   1  19
ATOM     19  C   LIG d   1       3.360  -0.135  -6.071  0.00  0.00    -0.010 A 
ATOM     20  C   LIG d   1       4.367  -1.025  -5.749  0.00  0.00    -0.011 A 
ATOM     21  C   LIG d   1       4.568  -1.396  -4.430  0.00  0.00     0.159 A 
ATOM     22  H   LIG d   1       4.997  -1.431  -6.526  0.00  0.00     0.066 H 
ATOM     23  C   LIG d   1       3.754  -0.871  -3.431  0.00  0.00     0.158 A 
ATOM     24  C   LIG d   1       2.746   0.020  -3.760  0.00  0.00    -0.016 A 
ATOM     25  C   LIG d   1       2.551   0.386  -5.079  0.00  0.00    -0.052 A 
ATOM     26  H   LIG d   1       2.113   0.429  -2.987  0.00  0.00     0.066 H 
ATOM     27  H   LIG d   1       1.764   1.082  -5.333  0.00  0.00     0.062 H 
BRANCH  21  28
ATOM     28  O   LIG d   1       5.562  -2.268  -4.112  0.00  0.00    -0.503 OA
ATOM     29  H   LIG d   1       6.401  -1.842  -3.886  0.00  0.00     0.292 HD
ENDBRANCH  21  28
BRANCH  23  30
ATOM     30  O   LIG d   1       3.948  -1.233  -2.134  0.00  0.00    -0.503 OA
ATOM     31  H   LIG d   1       3.386  -0.760  -1.506  0.00  0.00     0.292 HD
ENDBRANCH  23  30
ENDBRANCH   1  19
BRANCH   1  32
ATOM     32  O   LIG d   1       2.225  -0.635  -8.123  0.00  0.00    -0.382 OA
ATOM     33  H   LIG d   1       1.439  -0.207  -8.492  0.00  0.00     0.210 HD
ENDBRANCH   1  32
TORSDOF 9
ENDMDL
MODEL 6
REMARK VINA RESULT:      -4.0      2.570      5.617
REMARK  9 active torsions:
REMARK  status: ('A' for Active; 'I' for Inactive)
REMARK    1  A    between atoms: C_1  and  N_2 
REMARK    2  A    between atoms: N_2  and  C_3 
REMARK    3  A    between atoms: N_2  and  C_4 
REMARK    4  A    between atoms: N_2  and  C_5 
REMARK    5  A    between atoms: C_5  and  C_6 
REMARK    6  A    between atoms: C_6  and  C_8 
REMARK    7  A    between atoms: C_6  and  O_16 
REMARK    8  A    between atoms: C_11  and  O_15 
REMARK    9  A    between atoms: C_12  and  O_14 
ROOT
ATOM      1  C   LIG d   1       9.506   7.699  -1.219  0.00  0.00     0.120 C 
ATOM      2  H   LIG d   1       9.950   7.490  -0.245  0.00  0.00     0.070 H 
ENDROOT
BRANCH   1   3
ATOM      3  C   LIG d   1      10.153   8.951  -1.815  0.00  0.00     0.000 C 
ATOM      4  H   LIG d   1      10.845   8.660  -2.605  0.00  0.00     0.084 H 
ATOM      5  H   LIG d   1       9.379   9.596  -2.231  0.00  0.00     0.084 H 
BRANCH   3   6
ATOM      6  N   LIG d   1      10.882   9.674  -0.765  0.00  0.00     0.239 N 
BRANCH   6   7
ATOM      7  C   LIG d   1      12.106  10.257  -1.332  0.00  0.00    -0.042 C 
ATOM      8  H   LIG d   1      11.926  11.301  -1.590  0.00  0.00     0.078 H 
ATOM      9  H   LIG d   1      12.909  10.197  -0.599  0.00  0.00     0.078 H 
ATOM     10  H   LIG d   1      12.390   9.705  -2.228  0.00  0.00     0.078 H 
ENDBRANCH   6   7
BRANCH   6  11
ATOM     11  C   LIG d   1      10.032  10.746  -0.229  0.00  0.00    -0.042 C 
ATOM     12  H   LIG d   1       9.259  10.313   0.406  0.00  0.00     0.078 H 
ATOM     13  H   LIG d   1      10.643  11.433   0.358  0.00  0.00     0.078 H 
ATOM     14  H   LIG d   1       9.567  11.287  -1.053  0.00  0.00     0.078 H 
ENDBRANCH   6  11
BRANCH   6  15
ATOM     15  C   LIG d   1      11.237   8.744   0.314  0.00  0.00    -0.042 C 
ATOM     16  H   LIG d   1      10.477   8.788   1.096  0.00  0.00     0.078 H 
ATOM     17  H   LIG d   1      11.292   7.731  -0.083  0.00  0.00     0.078 H 
ATOM     18  H   LIG d   1      12.204   9.023   0.732  0.00  0.00     0.078 H 
ENDBRANCH   6  15
ENDBRANCH   3   6
ENDBRANCH   1   3
BRANCH   1  19
ATOM     19  C   LIG d   1       9.736   6.528  -2.138  0.00  0.00    -0.010 A 
ATOM     20  C   LIG d   1      10.271   5.354  -1.640  0.00  0.00    -0.011 A 
ATOM     21  C   LIG d   1      10.481   4.276  -2.483  0.00  0.00     0.159 A 
ATOM     22  H   LIG d   1      10.524   5.278  -0.593  0.00  0.00     0.066 H 
ATOM     23  C   LIG d   1      10.153   4.377  -3.832  0.00  0.00     0.158 A 
ATOM     24  C   LIG d   1       9.618   5.556  -4.325  0.00  0.00    -0.016 A 
ATOM     25  C   LIG d   1       9.411   6.629  -3.477  0.00  0.00    -0.052 A 
ATOM     26  H   LIG d   1       9.363   5.638  -5.371  0.00  0.00     0.066 H 
ATOM     27  H   LIG d   1       8.993   7.547  -3.863  0.00  0.00     0.062 H 
BRANCH  21  28
ATOM     28  O   LIG d   1      11.002   3.120  -1.993  0.00  0.00    -0.503 OA
ATOM     29  H   LIG d   1      11.793   2.816  -2.459  0.00  0.00     0.292 HD
ENDBRANCH  21  28
BRANCH  23  30
ATOM     30  O   LIG d   1      10.359   3.321  -4.664  0.00  0.00    -0.503 OA
ATOM     31  H   LIG d   1      10.365   3.555  -5.602  0.00  0.00     0.292 HD
ENDBRANCH  23  30
ENDBRANCH   1  19
BRANCH   1  32
ATOM     32  O   LIG d   1       8.102   7.917  -1.065  0.00  0.00    -0.382 OA
ATOM     33  H   LIG d   1       7.686   7.344  -0.406  0.00  0.00     0.210 HD
ENDBRANCH   1  32
TORSDOF 9
ENDMDL
MODEL 7
REMARK VINA RESULT:      -4.0     11.730     12.825
REMARK  9 active torsions:
REMARK  status: ('A' for Active; 'I' for Inactive)
REMARK    1  A    between atoms: C_1  and  N_2 
REMARK    2  A    between atoms: N_2  and  C_3 
REMARK    3  A    between atoms: N_2  and  C_4 
REMARK    4  A    between atoms: N_2  and  C_5 
REMARK    5  A    between atoms: C_5  and  C_6 
REMARK    6  A    between atoms: C_6  and  C_8 
REMARK    7  A    between atoms: C_6  and  O_16 
REMARK    8  A    between atoms: C_11  and  O_15 
REMARK    9  A    between atoms: C_12  and  O_14 
ROOT
ATOM      1  C   LIG d   1       3.450   0.310  -7.601  0.00  0.00     0.120 C 
ATOM      2  H   LIG d   1       4.420   0.142  -8.071  0.00  0.00     0.070 H 
ENDROOT
BRANCH   1   3
ATOM      3  C   LIG d   1       2.368  -0.433  -8.388  0.00  0.00     0.000 C 
ATOM      4  H   LIG d   1       1.995  -1.267  -7.795  0.00  0.00     0.084 H 
ATOM      5  H   LIG d   1       1.548   0.250  -8.610  0.00  0.00     0.084 H 
BRANCH   3   6
ATOM      6  N   LIG d   1       2.936  -0.940  -9.644  0.00  0.00     0.239 N 
BRANCH   6   7
ATOM      7  C   LIG d   1       2.108  -2.046 -10.144  0.00  0.00    -0.042 C 
ATOM      8  H   LIG d   1       1.663  -1.764 -11.099  0.00  0.00     0.078 H 
ATOM      9  H   LIG d   1       2.729  -2.931 -10.280  0.00  0.00     0.078 H 
ATOM     10  H   LIG d   1       1.319  -2.262  -9.425  0.00  0.00     0.078 H 
ENDBRANCH   6   7
BRANCH   6  11
ATOM     11  C   LIG d   1       2.963   0.140 -10.640  0.00  0.00    -0.042 C 
ATOM     12  H   LIG d   1       3.211   1.081 -10.149  0.00  0.00     0.078 H 
ATOM     13  H   LIG d   1       3.716  -0.084 -11.397  0.00  0.00     0.078 H 
ATOM     14  H   LIG d   1       1.985   0.222 -11.114  0.00  0.00     0.078 H 
ENDBRANCH   6  11
BRANCH   6  15
ATOM     15  C   LIG d   1       4.303  -1.420  -9.405  0.00  0.00    -0.042 C 
ATOM     16  H   LIG d   1       4.594  -2.101 -10.207  0.00  0.00     0.078 H 
ATOM     17  H   LIG d   1       4.987  -0.573  -9.382  0.00  0.00     0.078 H 
ATOM     18  H   LIG d   1       4.343  -1.945  -8.451  0.00  0.00     0.078 H 
ENDBRANCH   6  15
ENDBRANCH   3   6
ENDBRANCH   1   3
BRANCH   1  19
ATOM     19  C   LIG d   1       3.483  -0.202  -6.185  0.00  0.00    -0.010 A 
ATOM     20  C   LIG d   1       4.370  -1.202  -5.833  0.00  0.00    -0.011 A 
ATOM     21  C   LIG d   1       4.402  -1.672  -4.530  0.00  0.00     0.159 A 
ATOM     22  H   LIG d   1       5.038  -1.616  -6.573  0.00  0.00     0.066 H 
ATOM     23  C   LIG d   1       3.539  -1.136  -3.579  0.00  0.00     0.158 A 
ATOM     24  C   LIG d   1       2.652  -0.135  -3.938  0.00  0.00    -0.016 A 
ATOM     25  C   LIG d   1       2.625   0.330  -5.240  0.00  0.00    -0.052 A 
ATOM     26  H   LIG d   1       1.981   0.283  -3.202  0.00  0.00     0.066 H 
ATOM     27  H   LIG d   1       1.933   1.111  -5.519  0.00  0.00     0.062 H 
BRANCH  21  28
ATOM     28  O   LIG d   1       5.278  -2.652  -4.181  0.00  0.00    -0.503 OA
ATOM     29  H   LIG d   1       6.155  -2.326  -3.938  0.00  0.00     0.292 HD
ENDBRANCH  21  28
BRANCH  23  30
ATOM     30  O   LIG d   1       3.566  -1.595  -2.299  0.00  0.00    -0.503 OA
ATOM     31  H   LIG d   1       4.452  -1.821  -1.981  0.00  0.00     0.292 HD
ENDBRANCH  23  30
ENDBRANCH   1  19
BRANCH   1  32
ATOM     32  O   LIG d   1       3.160   1.709  -7.597  0.00  0.00    -0.382 OA
ATOM     33  H   LIG d   1       2.396   1.954  -8.137  0.00  0.00     0.210 HD
ENDBRANCH   1  32
TORSDOF 9
ENDMDL
MODEL 8
REMARK VINA RESULT:      -3.9      1.706      2.634
REMARK  9 active torsions:
REMARK  status: ('A' for Active; 'I' for Inactive)
REMARK    1  A    between atoms: C_1  and  N_2 
REMARK    2  A    between atoms: N_2  and  C_3 
REMARK    3  A    between atoms: N_2  and  C_4 
REMARK    4  A    between atoms: N_2  and  C_5 
REMARK    5  A    between atoms: C_5  and  C_6 
REMARK    6  A    between atoms: C_6  and  C_8 
REMARK    7  A    between atoms: C_6  and  O_16 
REMARK    8  A    between atoms: C_11  and  O_15 
REMARK    9  A    between atoms: C_12  and  O_14 
ROOT
ATOM      1  C   LIG d   1       9.624   7.847  -1.283  0.00  0.00     0.120 C 
ATOM      2  H   LIG d   1       9.844   8.131  -2.312  0.00  0.00     0.070 H 
ENDROOT
BRANCH   1   3
ATOM      3  C   LIG d   1      10.229   6.472  -0.994  0.00  0.00     0.000 C 
ATOM      4  H   LIG d   1      11.009   6.569  -0.239  0.00  0.00     0.084 H 
ATOM      5  H   LIG d   1       9.450   5.803  -0.626  0.00  0.00     0.084 H 
BRANCH   3   6
ATOM      6  N   LIG d   1      10.806   5.921  -2.227  0.00  0.00     0.239 N 
BRANCH   6   7
ATOM      7  C   LIG d   1      10.015   4.762  -2.662  0.00  0.00    -0.042 C 
ATOM      8  H   LIG d   1      10.610   4.149  -3.341  0.00  0.00     0.078 H 
ATOM      9  H   LIG d   1       9.731   4.169  -1.793  0.00  0.00     0.078 H 
ATOM     10  H   LIG d   1       9.119   5.106  -3.176  0.00  0.00     0.078 H 
ENDBRANCH   6   7
BRANCH   6  11
ATOM     11  C   LIG d   1      10.788   6.948  -3.277  0.00  0.00    -0.042 C 
ATOM     12  H   LIG d   1      11.096   7.905  -2.855  0.00  0.00     0.078 H 
ATOM     13  H   LIG d   1      11.478   6.664  -4.073  0.00  0.00     0.078 H 
ATOM     14  H   LIG d   1       9.781   7.035  -3.683  0.00  0.00     0.078 H 
ENDBRANCH   6  11
BRANCH   6  15
ATOM     15  C   LIG d   1      12.191   5.502  -1.975  0.00  0.00    -0.042 C 
ATOM     16  H   LIG d   1      12.251   4.413  -1.999  0.00  0.00     0.078 H 
ATOM     17  H   LIG d   1      12.842   5.919  -2.742  0.00  0.00     0.078 H 
ATOM     18  H   LIG d   1      12.507   5.861  -0.995  0.00  0.00     0.078 H 
ENDBRANCH   6  15
ENDBRANCH   3   6
ENDBRANCH   1   3
BRANCH   1  19
ATOM     19  C   LIG d   1      10.217   8.865  -0.344  0.00  0.00    -0.010 A 
ATOM     20  C   LIG d   1      11.194   8.486   0.558  0.00  0.00    -0.011 A 
ATOM     21  C   LIG d   1      11.742   9.421   1.421  0.00  0.00     0.159 A 
ATOM     22  H   LIG d   1      11.531   7.460   0.589  0.00  0.00     0.066 H 
ATOM     23  C   LIG d   1      11.305  10.742   1.378  0.00  0.00     0.158 A 
ATOM     24  C   LIG d   1      10.325  11.115   0.472  0.00  0.00    -0.016 A 
ATOM     25  C   LIG d   1       9.783  10.177  -0.386  0.00  0.00    -0.052 A 
ATOM     26  H   LIG d   1       9.985  12.139   0.436  0.00  0.00     0.066 H 
ATOM     27  H   LIG d   1       9.020  10.470  -1.092  0.00  0.00     0.062 H 
BRANCH  21  28
ATOM     28  O   LIG d   1      12.706   9.050   2.304  0.00  0.00    -0.503 OA
ATOM     29  H   LIG d   1      13.608   9.198   1.987  0.00  0.00     0.292 HD
ENDBRANCH  21  28
BRANCH  23  30
ATOM     30  O   LIG d   1      11.839  11.663   2.223  0.00  0.00    -0.503 OA
ATOM     31  H   LIG d   1      11.917  12.549   1.841  0.00  0.00     0.292 HD
ENDBRANCH  23  30
ENDBRANCH   1  19
BRANCH   1  32
ATOM     32  O   LIG d   1       8.209   7.793  -1.096  0.00  0.00    -0.382 OA
ATOM     33  H   LIG d   1       7.939   7.455  -0.232  0.00  0.00     0.210 HD
ENDBRANCH   1  32
TORSDOF 9
ENDMDL
MODEL 9
REMARK VINA RESULT:      -3.8      2.431      5.633
REMARK  9 active torsions:
REMARK  status: ('A' for Active; 'I' for Inactive)
REMARK    1  A    between atoms: C_1  and  N_2 
REMARK    2  A    between atoms: N_2  and  C_3 
REMARK    3  A    between atoms: N_2  and  C_4 
REMARK    4  A    between atoms: N_2  and  C_5 
REMARK    5  A    between atoms: C_5  and  C_6 
REMARK    6  A    between atoms: C_6  and  C_8 
REMARK    7  A    between atoms: C_6  and  O_16 
REMARK    8  A    between atoms: C_11  and  O_15 
REMARK    9  A    between atoms: C_12  and  O_14 
ROOT
ATOM      1  C   LIG d   1       9.900   8.451  -2.613  0.00  0.00     0.120 C 
ATOM      2  H   LIG d   1       8.874   8.685  -2.325  0.00  0.00     0.070 H 
ENDROOT
BRANCH   1   3
ATOM      3  C   LIG d   1      10.869   9.209  -1.704  0.00  0.00     0.000 C 
ATOM      4  H   LIG d   1      11.423   8.498  -1.092  0.00  0.00     0.084 H 
ATOM      5  H   LIG d   1      11.566   9.783  -2.314  0.00  0.00     0.084 H 
BRANCH   3   6
ATOM      6  N   LIG d   1      10.114  10.121  -0.834  0.00  0.00     0.239 N 
BRANCH   6   7
ATOM      7  C   LIG d   1       8.712   9.688  -0.770  0.00  0.00    -0.042 C 
ATOM      8  H   LIG d   1       8.671   8.604  -0.661  0.00  0.00     0.078 H 
ATOM      9  H   LIG d   1       8.225  10.158   0.083  0.00  0.00     0.078 H 
ATOM     10  H   LIG d   1       8.200   9.980  -1.687  0.00  0.00     0.078 H 
ENDBRANCH   6   7
BRANCH   6  11
ATOM     11  C   LIG d   1      10.695  10.102   0.516  0.00  0.00    -0.042 C 
ATOM     12  H   LIG d   1      10.476   9.146   0.992  0.00  0.00     0.078 H 
ATOM     13  H   LIG d   1      11.775  10.235   0.447  0.00  0.00     0.078 H 
ATOM     14  H   LIG d   1      10.265  10.910   1.107  0.00  0.00     0.078 H 
ENDBRANCH   6  11
BRANCH   6  15
ATOM     15  C   LIG d   1      10.182  11.484  -1.377  0.00  0.00    -0.042 C 
ATOM     16  H   LIG d   1      10.838  11.495  -2.249  0.00  0.00     0.078 H 
ATOM     17  H   LIG d   1       9.184  11.809  -1.668  0.00  0.00     0.078 H 
ATOM     18  H   LIG d   1      10.577  12.159  -0.617  0.00  0.00     0.078 H 
ENDBRANCH   6  15
ENDBRANCH   3   6
ENDBRANCH   1   3
BRANCH   1  19
ATOM     19  C   LIG d   1      10.135   6.969  -2.476  0.00  0.00    -0.010 A 
ATOM     20  C   LIG d   1      10.748   6.470  -1.342  0.00  0.00    -0.011 A 
ATOM     21  C   LIG d   1      10.963   5.107  -1.213  0.00  0.00     0.159 A 
ATOM     22  H   LIG d   1      11.058   7.142  -0.556  0.00  0.00     0.066 H 
ATOM     23  C   LIG d   1      10.562   4.245  -2.228  0.00  0.00     0.158 A 
ATOM     24  C   LIG d   1       9.949   4.751  -3.362  0.00  0.00    -0.016 A 
ATOM     25  C   LIG d   1       9.737   6.112  -3.484  0.00  0.00    -0.052 A 
ATOM     26  H   LIG d   1       9.636   4.084  -4.152  0.00  0.00     0.066 H 
ATOM     27  H   LIG d   1       9.258   6.505  -4.369  0.00  0.00     0.062 H 
BRANCH  21  28
ATOM     28  O   LIG d   1      11.561   4.615  -0.096  0.00  0.00    -0.503 OA
ATOM     29  H   LIG d   1      12.449   4.263  -0.248  0.00  0.00     0.292 HD
ENDBRANCH  21  28
BRANCH  23  30
ATOM     30  O   LIG d   1      10.772   2.907  -2.107  0.00  0.00    -0.503 OA
ATOM     31  H   LIG d   1      10.091   2.446  -1.596  0.00  0.00     0.292 HD
ENDBRANCH  23  30
ENDBRANCH   1  19
BRANCH   1  32
ATOM     32  O   LIG d   1      10.114   8.845  -3.970  0.00  0.00    -0.382 OA
ATOM     33  H   LIG d   1      10.489   9.731  -4.068  0.00  0.00     0.210 HD
ENDBRANCH   1  32
TORSDOF 9
ENDMDL
