MODEL 1
REMARK VINA RESULT:      -7.1      0.000      0.000
REMARK  5 active torsions:
REMARK  status: ('A' for Active; 'I' for Inactive)
REMARK    1  A    between atoms: C_1  and  C_2 
REMARK    2  A    between atoms: C_7  and  C_8 
REMARK    3  A    between atoms: C_8  and  N_9 
REMARK    4  A    between atoms: N_13  and  C_14 
REMARK    5  A    between atoms: C_14  and  C_15 
ROOT
ATOM      1  N   LIG d   1       4.247  -2.332  -8.542  0.00  0.00    -0.349 N 
ATOM      2  C   LIG d   1       3.838  -3.523  -8.028  0.00  0.00     0.011 C 
ATOM      3  C   LIG d   1       4.277  -3.941  -6.823  0.00  0.00     0.025 C 
ATOM      4  C   LIG d   1       5.211  -3.073  -6.090  0.00  0.00     0.204 C 
ATOM      5  N   LIG d   1       5.483  -3.278  -4.812  0.00  0.00    -0.237 N 
ATOM      6  C   LIG d   1       5.832  -1.972  -6.839  0.00  0.00     0.025 C 
ATOM      7  C   LIG d   1       5.319  -1.654  -8.046  0.00  0.00     0.011 C 
ATOM      8  H   LIG d   1       3.154  -4.142  -8.590  0.00  0.00     0.081 H 
ATOM      9  H   LIG d   1       3.951  -4.882  -6.408  0.00  0.00     0.070 H 
ATOM     10  H   LIG d   1       6.677  -1.432  -6.436  0.00  0.00     0.070 H 
ATOM     11  H   LIG d   1       5.758  -0.855  -8.623  0.00  0.00     0.081 H 
ATOM     12  H   LIG d   1       4.999  -3.955  -4.316  0.00  0.00     0.446 HD
ENDROOT
BRANCH   1  13
ATOM     13  C   LIG d   1       3.512  -1.760  -9.674  0.00  0.00     0.048 C 
ATOM     14  H   LIG d   1       2.507  -2.181  -9.705  0.00  0.00     0.054 H 
ATOM     15  H   LIG d   1       4.033  -1.997 -10.602  0.00  0.00     0.054 H 
BRANCH  13  16
ATOM     16  C   LIG d   1       3.427  -0.265  -9.514  0.00  0.00    -0.025 A 
ATOM     17  C   LIG d   1       3.930   0.565 -10.497  0.00  0.00    -0.046 A 
ATOM     18  C   LIG d   1       3.847   1.938 -10.354  0.00  0.00    -0.059 A 
ATOM     19  C   LIG d   1       3.265   2.480  -9.222  0.00  0.00    -0.061 A 
ATOM     20  H   LIG d   1       4.237   2.587 -11.124  0.00  0.00     0.062 H 
ATOM     21  C   LIG d   1       2.767   1.649  -8.236  0.00  0.00    -0.061 A 
ATOM     22  H   LIG d   1       3.201   3.552  -9.109  0.00  0.00     0.062 H 
ATOM     23  C   LIG d   1       2.849   0.277  -8.381  0.00  0.00    -0.057 A 
ATOM     24  H   LIG d   1       2.313   2.073  -7.352  0.00  0.00     0.062 H 
ATOM     25  H   LIG d   1       2.460  -0.371  -7.610  0.00  0.00     0.062 H 
BRANCH  17  26
ATOM     26  C   LIG d   1       4.564  -0.025 -11.731  0.00  0.00    -0.039 C 
ATOM     27  H   LIG d   1       3.923  -0.812 -12.127  0.00  0.00     0.028 H 
ATOM     28  H   LIG d   1       4.691   0.754 -12.483  0.00  0.00     0.028 H 
ATOM     29  H   LIG d   1       5.537  -0.445 -11.473  0.00  0.00     0.028 H 
ENDBRANCH  17  26
ENDBRANCH  13  16
ENDBRANCH   1  13
BRANCH   5  30
ATOM     30  C   LIG d   1       6.515  -2.479  -4.146  0.00  0.00     0.169 C 
ATOM     31  H   LIG d   1       7.084  -3.116  -3.468  0.00  0.00     0.108 H 
ATOM     32  H   LIG d   1       7.185  -2.055  -4.894  0.00  0.00     0.108 H 
BRANCH  30  33
ATOM     33  C   LIG d   1       5.865  -1.368  -3.364  0.00  0.00     0.017 A 
ATOM     34  C   LIG d   1       4.832  -1.650  -2.490  0.00  0.00    -0.053 A 
ATOM     35  C   LIG d   1       4.239  -0.630  -1.770  0.00  0.00    -0.061 A 
ATOM     36  H   LIG d   1       4.492  -2.667  -2.366  0.00  0.00     0.062 H 
ATOM     37  C   LIG d   1       4.671   0.673  -1.931  0.00  0.00    -0.062 A 
ATOM     38  H   LIG d   1       3.435  -0.852  -1.083  0.00  0.00     0.062 H 
ATOM     39  C   LIG d   1       5.700   0.955  -2.810  0.00  0.00    -0.061 A 
ATOM     40  H   LIG d   1       4.205   1.470  -1.371  0.00  0.00     0.062 H 
ATOM     41  C   LIG d   1       6.297  -0.064  -3.526  0.00  0.00    -0.053 A 
ATOM     42  H   LIG d   1       6.037   1.974  -2.936  0.00  0.00     0.062 H 
ATOM     43  H   LIG d   1       7.100   0.157  -4.214  0.00  0.00     0.062 H 
ENDBRANCH  30  33
ENDBRANCH   5  30
TORSDOF 5
ENDMDL
MODEL 2
REMARK VINA RESULT:      -7.1      2.223      3.650
REMARK  5 active torsions:
REMARK  status: ('A' for Active; 'I' for Inactive)
REMARK    1  A    between atoms: C_1  and  C_2 
REMARK    2  A    between atoms: C_7  and  C_8 
REMARK    3  A    between atoms: C_8  and  N_9 
REMARK    4  A    between atoms: N_13  and  C_14 
REMARK    5  A    between atoms: C_14  and  C_15 
ROOT
ATOM      1  N   LIG d   1       3.845   0.440  -9.887  0.00  0.00    -0.349 N 
ATOM      2  C   LIG d   1       4.440  -0.706  -9.460  0.00  0.00     0.011 C 
ATOM      3  C   LIG d   1       4.321  -1.108  -8.178  0.00  0.00     0.025 C 
ATOM      4  C   LIG d   1       3.536  -0.268  -7.261  0.00  0.00     0.204 C 
ATOM      5  N   LIG d   1       3.157  -0.712  -6.074  0.00  0.00    -0.237 N 
ATOM      6  C   LIG d   1       3.193   1.086  -7.718  0.00  0.00     0.025 C 
ATOM      7  C   LIG d   1       3.372   1.380  -9.023  0.00  0.00     0.011 C 
ATOM      8  H   LIG d   1       5.014  -1.302 -10.154  0.00  0.00     0.081 H 
ATOM      9  H   LIG d   1       4.787  -2.020  -7.836  0.00  0.00     0.070 H 
ATOM     10  H   LIG d   1       2.811   1.826  -7.030  0.00  0.00     0.070 H 
ATOM     11  H   LIG d   1       3.137   2.369  -9.388  0.00  0.00     0.081 H 
ATOM     12  H   LIG d   1       3.319  -1.635  -5.827  0.00  0.00     0.446 HD
ENDROOT
BRANCH   1  13
ATOM     13  C   LIG d   1       3.712   0.674 -11.328  0.00  0.00     0.048 C 
ATOM     14  H   LIG d   1       4.702   0.713 -11.783  0.00  0.00     0.054 H 
ATOM     15  H   LIG d   1       3.198   1.621 -11.496  0.00  0.00     0.054 H 
BRANCH  13  16
ATOM     16  C   LIG d   1       2.918  -0.446 -11.947  0.00  0.00    -0.025 A 
ATOM     17  C   LIG d   1       3.421  -1.130 -13.037  0.00  0.00    -0.046 A 
ATOM     18  C   LIG d   1       2.695  -2.162 -13.603  0.00  0.00    -0.059 A 
ATOM     19  C   LIG d   1       1.463  -2.507 -13.079  0.00  0.00    -0.061 A 
ATOM     20  H   LIG d   1       3.090  -2.699 -14.453  0.00  0.00     0.062 H 
ATOM     21  C   LIG d   1       0.957  -1.820 -11.992  0.00  0.00    -0.061 A 
ATOM     22  H   LIG d   1       0.895  -3.313 -13.522  0.00  0.00     0.062 H 
ATOM     23  C   LIG d   1       1.683  -0.789 -11.427  0.00  0.00    -0.057 A 
ATOM     24  H   LIG d   1      -0.006  -2.088 -11.584  0.00  0.00     0.062 H 
ATOM     25  H   LIG d   1       1.288  -0.252 -10.578  0.00  0.00     0.062 H 
BRANCH  17  26
ATOM     26  C   LIG d   1       4.765  -0.754 -13.608  0.00  0.00    -0.039 C 
ATOM     27  H   LIG d   1       5.527  -1.425 -13.213  0.00  0.00     0.028 H 
ATOM     28  H   LIG d   1       4.734  -0.838 -14.695  0.00  0.00     0.028 H 
ATOM     29  H   LIG d   1       5.004   0.272 -13.328  0.00  0.00     0.028 H 
ENDBRANCH  17  26
ENDBRANCH  13  16
ENDBRANCH   1  13
BRANCH   5  30
ATOM     30  C   LIG d   1       2.490   0.192  -5.133  0.00  0.00     0.169 C 
ATOM     31  H   LIG d   1       2.504   1.206  -5.533  0.00  0.00     0.108 H 
ATOM     32  H   LIG d   1       1.457  -0.128  -4.992  0.00  0.00     0.108 H 
BRANCH  30  33
ATOM     33  C   LIG d   1       3.212   0.163  -3.811  0.00  0.00     0.017 A 
ATOM     34  C   LIG d   1       3.546   1.347  -3.180  0.00  0.00    -0.053 A 
ATOM     35  C   LIG d   1       4.204   1.319  -1.965  0.00  0.00    -0.061 A 
ATOM     36  H   LIG d   1       3.289   2.292  -3.634  0.00  0.00     0.062 H 
ATOM     37  C   LIG d   1       4.537   0.110  -1.386  0.00  0.00    -0.062 A 
ATOM     38  H   LIG d   1       4.461   2.245  -1.470  0.00  0.00     0.062 H 
ATOM     39  C   LIG d   1       4.208  -1.074  -2.020  0.00  0.00    -0.061 A 
ATOM     40  H   LIG d   1       5.054   0.088  -0.438  0.00  0.00     0.062 H 
ATOM     41  C   LIG d   1       3.546  -1.047  -3.232  0.00  0.00    -0.053 A 
ATOM     42  H   LIG d   1       4.469  -2.019  -1.567  0.00  0.00     0.062 H 
ATOM     43  H   LIG d   1       3.290  -1.972  -3.728  0.00  0.00     0.062 H 
ENDBRANCH  30  33
ENDBRANCH   5  30
TORSDOF 5
ENDMDL
MODEL 3
REMARK VINA RESULT:      -7.0      1.493      6.413
REMARK  5 active torsions:
REMARK  status: ('A' for Active; 'I' for Inactive)
REMARK    1  A    between atoms: C_1  and  C_2 
REMARK    2  A    between atoms: C_7  and  C_8 
REMARK    3  A    between atoms: C_8  and  N_9 
REMARK    4  A    between atoms: N_13  and  C_14 
REMARK    5  A    between atoms: C_14  and  C_15 
ROOT
ATOM      1  N   LIG d   1       6.781  -1.902  -4.897  0.00  0.00    -0.349 N 
ATOM      2  C   LIG d   1       7.992  -1.495  -5.365  0.00  0.00     0.011 C 
ATOM      3  C   LIG d   1       8.148  -1.142  -6.658  0.00  0.00     0.025 C 
ATOM      4  C   LIG d   1       6.974  -1.218  -7.541  0.00  0.00     0.204 C 
ATOM      5  N   LIG d   1       6.974  -0.654  -8.737  0.00  0.00    -0.237 N 
ATOM      6  C   LIG d   1       5.802  -1.950  -7.039  0.00  0.00     0.025 C 
ATOM      7  C   LIG d   1       5.764  -2.266  -5.727  0.00  0.00     0.011 C 
ATOM      8  H   LIG d   1       8.837  -1.453  -4.695  0.00  0.00     0.081 H 
ATOM      9  H   LIG d   1       9.105  -0.813  -7.033  0.00  0.00     0.070 H 
ATOM     10  H   LIG d   1       4.995  -2.229  -7.700  0.00  0.00     0.070 H 
ATOM     11  H   LIG d   1       4.921  -2.810  -5.330  0.00  0.00     0.081 H 
ATOM     12  H   LIG d   1       7.723  -0.104  -9.013  0.00  0.00     0.446 HD
ENDROOT
BRANCH   1  13
ATOM     13  C   LIG d   1       6.564  -1.956  -3.449  0.00  0.00     0.048 C 
ATOM     14  H   LIG d   1       7.520  -1.866  -2.934  0.00  0.00     0.054 H 
ATOM     15  H   LIG d   1       6.100  -2.908  -3.187  0.00  0.00     0.054 H 
BRANCH  13  16
ATOM     16  C   LIG d   1       5.660  -0.826  -3.034  0.00  0.00    -0.025 A 
ATOM     17  C   LIG d   1       4.383  -1.094  -2.577  0.00  0.00    -0.046 A 
ATOM     18  C   LIG d   1       3.554  -0.057  -2.190  0.00  0.00    -0.059 A 
ATOM     19  C   LIG d   1       4.002   1.249  -2.266  0.00  0.00    -0.061 A 
ATOM     20  H   LIG d   1       2.558  -0.266  -1.830  0.00  0.00     0.062 H 
ATOM     21  C   LIG d   1       5.276   1.518  -2.728  0.00  0.00    -0.061 A 
ATOM     22  H   LIG d   1       3.354   2.060  -1.965  0.00  0.00     0.062 H 
ATOM     23  C   LIG d   1       6.105   0.481  -3.114  0.00  0.00    -0.057 A 
ATOM     24  H   LIG d   1       5.625   2.538  -2.788  0.00  0.00     0.062 H 
ATOM     25  H   LIG d   1       7.100   0.691  -3.475  0.00  0.00     0.062 H 
BRANCH  17  26
ATOM     26  C   LIG d   1       3.895  -2.518  -2.494  0.00  0.00    -0.039 C 
ATOM     27  H   LIG d   1       3.057  -2.654  -3.178  0.00  0.00     0.028 H 
ATOM     28  H   LIG d   1       4.704  -3.195  -2.770  0.00  0.00     0.028 H 
ATOM     29  H   LIG d   1       3.571  -2.732  -1.476  0.00  0.00     0.028 H 
ENDBRANCH  17  26
ENDBRANCH  13  16
ENDBRANCH   1  13
BRANCH   5  30
ATOM     30  C   LIG d   1       5.841  -0.858  -9.643  0.00  0.00     0.169 C 
ATOM     31  H   LIG d   1       6.195  -0.845 -10.674  0.00  0.00     0.108 H 
ATOM     32  H   LIG d   1       5.375  -1.821  -9.431  0.00  0.00     0.108 H 
BRANCH  30  33
ATOM     33  C   LIG d   1       4.833   0.244  -9.444  0.00  0.00     0.017 A 
ATOM     34  C   LIG d   1       5.245   1.563  -9.430  0.00  0.00    -0.053 A 
ATOM     35  C   LIG d   1       4.318   2.574  -9.252  0.00  0.00    -0.061 A 
ATOM     36  H   LIG d   1       6.288   1.805  -9.563  0.00  0.00     0.062 H 
ATOM     37  C   LIG d   1       2.983   2.265  -9.078  0.00  0.00    -0.062 A 
ATOM     38  H   LIG d   1       4.640   3.605  -9.246  0.00  0.00     0.062 H 
ATOM     39  C   LIG d   1       2.572   0.945  -9.086  0.00  0.00    -0.061 A 
ATOM     40  H   LIG d   1       2.259   3.055  -8.936  0.00  0.00     0.062 H 
ATOM     41  C   LIG d   1       3.497  -0.065  -9.269  0.00  0.00    -0.053 A 
ATOM     42  H   LIG d   1       1.528   0.704  -8.950  0.00  0.00     0.062 H 
ATOM     43  H   LIG d   1       3.176  -1.097  -9.275  0.00  0.00     0.062 H 
ENDBRANCH  30  33
ENDBRANCH   5  30
TORSDOF 5
ENDMDL
MODEL 4
REMARK VINA RESULT:      -6.9      1.706      7.304
REMARK  5 active torsions:
REMARK  status: ('A' for Active; 'I' for Inactive)
REMARK    1  A    between atoms: C_1  and  C_2 
REMARK    2  A    between atoms: C_7  and  C_8 
REMARK    3  A    between atoms: C_8  and  N_9 
REMARK    4  A    between atoms: N_13  and  C_14 
REMARK    5  A    between atoms: C_14  and  C_15 
ROOT
ATOM      1  N   LIG d   1       6.034  -1.026  -6.039  0.00  0.00    -0.349 N 
ATOM      2  C   LIG d   1       6.986  -0.384  -6.770  0.00  0.00     0.011 C 
ATOM      3  C   LIG d   1       6.647   0.359  -7.843  0.00  0.00     0.025 C 
ATOM      4  C   LIG d   1       5.223   0.446  -8.200  0.00  0.00     0.204 C 
ATOM      5  N   LIG d   1       4.783   1.345  -9.065  0.00  0.00    -0.237 N 
ATOM      6  C   LIG d   1       4.310  -0.510  -7.558  0.00  0.00     0.025 C 
ATOM      7  C   LIG d   1       4.767  -1.213  -6.501  0.00  0.00     0.011 C 
ATOM      8  H   LIG d   1       8.025  -0.469  -6.487  0.00  0.00     0.081 H 
ATOM      9  H   LIG d   1       7.398   0.874  -8.422  0.00  0.00     0.070 H 
ATOM     10  H   LIG d   1       3.303  -0.648  -7.923  0.00  0.00     0.070 H 
ATOM     11  H   LIG d   1       4.122  -1.928  -6.012  0.00  0.00     0.081 H 
ATOM     12  H   LIG d   1       5.387   2.021  -9.411  0.00  0.00     0.446 HD
ENDROOT
BRANCH   1  13
ATOM     13  C   LIG d   1       6.387  -1.539  -4.713  0.00  0.00     0.048 C 
ATOM     14  H   LIG d   1       7.467  -1.486  -4.577  0.00  0.00     0.054 H 
ATOM     15  H   LIG d   1       6.061  -2.576  -4.627  0.00  0.00     0.054 H 
BRANCH  13  16
ATOM     16  C   LIG d   1       5.705  -0.709  -3.657  0.00  0.00    -0.025 A 
ATOM     17  C   LIG d   1       4.695  -1.259  -2.890  0.00  0.00    -0.046 A 
ATOM     18  C   LIG d   1       4.072  -0.500  -1.917  0.00  0.00    -0.059 A 
ATOM     19  C   LIG d   1       4.458   0.812  -1.713  0.00  0.00    -0.061 A 
ATOM     20  H   LIG d   1       3.285  -0.931  -1.316  0.00  0.00     0.062 H 
ATOM     21  C   LIG d   1       5.465   1.364  -2.482  0.00  0.00    -0.061 A 
ATOM     22  H   LIG d   1       3.971   1.405  -0.953  0.00  0.00     0.062 H 
ATOM     23  C   LIG d   1       6.087   0.604  -3.455  0.00  0.00    -0.057 A 
ATOM     24  H   LIG d   1       5.766   2.389  -2.324  0.00  0.00     0.062 H 
ATOM     25  H   LIG d   1       6.873   1.036  -4.056  0.00  0.00     0.062 H 
BRANCH  17  26
ATOM     26  C   LIG d   1       4.274  -2.690  -3.113  0.00  0.00    -0.039 C 
ATOM     27  H   LIG d   1       3.546  -2.732  -3.923  0.00  0.00     0.028 H 
ATOM     28  H   LIG d   1       5.146  -3.289  -3.376  0.00  0.00     0.028 H 
ATOM     29  H   LIG d   1       3.825  -3.082  -2.200  0.00  0.00     0.028 H 
ENDBRANCH  17  26
ENDBRANCH  13  16
ENDBRANCH   1  13
BRANCH   5  30
ATOM     30  C   LIG d   1       3.384   1.322  -9.498  0.00  0.00     0.169 C 
ATOM     31  H   LIG d   1       2.758   0.966  -8.680  0.00  0.00     0.108 H 
ATOM     32  H   LIG d   1       3.075   2.328  -9.781  0.00  0.00     0.108 H 
BRANCH  30  33
ATOM     33  C   LIG d   1       3.239   0.399 -10.680  0.00  0.00     0.017 A 
ATOM     34  C   LIG d   1       4.202   0.390 -11.672  0.00  0.00    -0.053 A 
ATOM     35  C   LIG d   1       4.070  -0.460 -12.754  0.00  0.00    -0.061 A 
ATOM     36  H   LIG d   1       5.058   1.043 -11.600  0.00  0.00     0.062 H 
ATOM     37  C   LIG d   1       2.971  -1.293 -12.850  0.00  0.00    -0.062 A 
ATOM     38  H   LIG d   1       4.825  -0.470 -13.527  0.00  0.00     0.062 H 
ATOM     39  C   LIG d   1       2.006  -1.279 -11.860  0.00  0.00    -0.061 A 
ATOM     40  H   LIG d   1       2.867  -1.955 -13.697  0.00  0.00     0.062 H 
ATOM     41  C   LIG d   1       2.140  -0.433 -10.776  0.00  0.00    -0.053 A 
ATOM     42  H   LIG d   1       1.147  -1.931 -11.935  0.00  0.00     0.062 H 
ATOM     43  H   LIG d   1       1.385  -0.422 -10.003  0.00  0.00     0.062 H 
ENDBRANCH  30  33
ENDBRANCH   5  30
TORSDOF 5
ENDMDL
MODEL 5
REMARK VINA RESULT:      -6.7      5.727      7.168
REMARK  5 active torsions:
REMARK  status: ('A' for Active; 'I' for Inactive)
REMARK    1  A    between atoms: C_1  and  C_2 
REMARK    2  A    between atoms: C_7  and  C_8 
REMARK    3  A    between atoms: C_8  and  N_9 
REMARK    4  A    between atoms: N_13  and  C_14 
REMARK    5  A    between atoms: C_14  and  C_15 
ROOT
ATOM      1  N   LIG d   1      10.074   4.124  -5.622  0.00  0.00    -0.349 N 
ATOM      2  C   LIG d   1      10.152   4.175  -4.265  0.00  0.00     0.011 C 
ATOM      3  C   LIG d   1       9.552   3.236  -3.505  0.00  0.00     0.025 C 
ATOM      4  C   LIG d   1       8.810   2.165  -4.188  0.00  0.00     0.204 C 
ATOM      5  N   LIG d   1       8.419   1.078  -3.543  0.00  0.00    -0.237 N 
ATOM      6  C   LIG d   1       8.520   2.355  -5.616  0.00  0.00     0.025 C 
ATOM      7  C   LIG d   1       9.168   3.341  -6.271  0.00  0.00     0.011 C 
ATOM      8  H   LIG d   1      10.700   4.975  -3.790  0.00  0.00     0.081 H 
ATOM      9  H   LIG d   1       9.616   3.268  -2.428  0.00  0.00     0.070 H 
ATOM     10  H   LIG d   1       7.807   1.724  -6.127  0.00  0.00     0.070 H 
ATOM     11  H   LIG d   1       8.971   3.509  -7.319  0.00  0.00     0.081 H 
ATOM     12  H   LIG d   1       8.695   0.934  -2.625  0.00  0.00     0.446 HD
ENDROOT
BRANCH   1  13
ATOM     13  C   LIG d   1      10.993   4.946  -6.415  0.00  0.00     0.048 C 
ATOM     14  H   LIG d   1      11.371   4.362  -7.254  0.00  0.00     0.054 H 
ATOM     15  H   LIG d   1      11.828   5.263  -5.789  0.00  0.00     0.054 H 
BRANCH  13  16
ATOM     16  C   LIG d   1      10.264   6.158  -6.932  0.00  0.00    -0.025 A 
ATOM     17  C   LIG d   1       9.958   6.259  -8.276  0.00  0.00    -0.046 A 
ATOM     18  C   LIG d   1       9.283   7.368  -8.751  0.00  0.00    -0.059 A 
ATOM     19  C   LIG d   1       8.920   8.380  -7.881  0.00  0.00    -0.061 A 
ATOM     20  H   LIG d   1       9.041   7.446  -9.800  0.00  0.00     0.062 H 
ATOM     21  C   LIG d   1       9.231   8.281  -6.538  0.00  0.00    -0.061 A 
ATOM     22  H   LIG d   1       8.394   9.247  -8.252  0.00  0.00     0.062 H 
ATOM     23  C   LIG d   1       9.904   7.172  -6.064  0.00  0.00    -0.057 A 
ATOM     24  H   LIG d   1       8.948   9.072  -5.859  0.00  0.00     0.062 H 
ATOM     25  H   LIG d   1      10.147   7.095  -5.015  0.00  0.00     0.062 H 
BRANCH  17  26
ATOM     26  C   LIG d   1      10.354   5.156  -9.225  0.00  0.00    -0.039 C 
ATOM     27  H   LIG d   1      10.386   5.547 -10.242  0.00  0.00     0.028 H 
ATOM     28  H   LIG d   1      11.339   4.777  -8.950  0.00  0.00     0.028 H 
ATOM     29  H   LIG d   1       9.623   4.349  -9.168  0.00  0.00     0.028 H 
ENDBRANCH  17  26
ENDBRANCH  13  16
ENDBRANCH   1  13
BRANCH   5  30
ATOM     30  C   LIG d   1       7.571   0.092  -4.217  0.00  0.00     0.169 C 
ATOM     31  H   LIG d   1       7.275   0.476  -5.193  0.00  0.00     0.108 H 
ATOM     32  H   LIG d   1       8.126  -0.837  -4.346  0.00  0.00     0.108 H 
BRANCH  30  33
ATOM     33  C   LIG d   1       6.342  -0.167  -3.385  0.00  0.00     0.017 A 
ATOM     34  C   LIG d   1       5.665   0.889  -2.804  0.00  0.00    -0.053 A 
ATOM     35  C   LIG d   1       4.535   0.651  -2.044  0.00  0.00    -0.061 A 
ATOM     36  H   LIG d   1       6.016   1.900  -2.947  0.00  0.00     0.062 H 
ATOM     37  C   LIG d   1       4.088  -0.643  -1.856  0.00  0.00    -0.062 A 
ATOM     38  H   LIG d   1       4.004   1.477  -1.594  0.00  0.00     0.062 H 
ATOM     39  C   LIG d   1       4.769  -1.700  -2.432  0.00  0.00    -0.061 A 
ATOM     40  H   LIG d   1       3.207  -0.830  -1.260  0.00  0.00     0.062 H 
ATOM     41  C   LIG d   1       5.895  -1.462  -3.196  0.00  0.00    -0.053 A 
ATOM     42  H   LIG d   1       4.419  -2.711  -2.286  0.00  0.00     0.062 H 
ATOM     43  H   LIG d   1       6.428  -2.287  -3.646  0.00  0.00     0.062 H 
ENDBRANCH  30  33
ENDBRANCH   5  30
TORSDOF 5
ENDMDL
MODEL 6
REMARK VINA RESULT:      -6.6      4.953      7.777
REMARK  5 active torsions:
REMARK  status: ('A' for Active; 'I' for Inactive)
REMARK    1  A    between atoms: C_1  and  C_2 
REMARK    2  A    between atoms: C_7  and  C_8 
REMARK    3  A    between atoms: C_8  and  N_9 
REMARK    4  A    between atoms: N_13  and  C_14 
REMARK    5  A    between atoms: C_14  and  C_15 
ROOT
ATOM      1  N   LIG d   1       7.494   0.697  -4.335  0.00  0.00    -0.349 N 
ATOM      2  C   LIG d   1       7.278   0.506  -5.664  0.00  0.00     0.011 C 
ATOM      3  C   LIG d   1       7.866   1.303  -6.579  0.00  0.00     0.025 C 
ATOM      4  C   LIG d   1       8.739   2.383  -6.096  0.00  0.00     0.204 C 
ATOM      5  N   LIG d   1       9.547   3.036  -6.914  0.00  0.00    -0.237 N 
ATOM      6  C   LIG d   1       8.673   2.709  -4.664  0.00  0.00     0.025 C 
ATOM      7  C   LIG d   1       8.041   1.843  -3.843  0.00  0.00     0.011 C 
ATOM      8  H   LIG d   1       6.628  -0.292  -5.991  0.00  0.00     0.081 H 
ATOM      9  H   LIG d   1       7.702   1.152  -7.636  0.00  0.00     0.070 H 
ATOM     10  H   LIG d   1       9.116   3.616  -4.278  0.00  0.00     0.070 H 
ATOM     11  H   LIG d   1       7.970   2.058  -2.788  0.00  0.00     0.081 H 
ATOM     12  H   LIG d   1       9.638   2.748  -7.836  0.00  0.00     0.446 HD
ENDROOT
BRANCH   1  13
ATOM     13  C   LIG d   1       7.120  -0.366  -3.397  0.00  0.00     0.048 C 
ATOM     14  H   LIG d   1       7.656  -0.227  -2.458  0.00  0.00     0.054 H 
ATOM     15  H   LIG d   1       7.381  -1.335  -3.824  0.00  0.00     0.054 H 
BRANCH  13  16
ATOM     16  C   LIG d   1       5.637  -0.312  -3.143  0.00  0.00    -0.025 A 
ATOM     17  C   LIG d   1       4.839  -1.391  -3.472  0.00  0.00    -0.046 A 
ATOM     18  C   LIG d   1       3.478  -1.345  -3.234  0.00  0.00    -0.059 A 
ATOM     19  C   LIG d   1       2.914  -0.215  -2.670  0.00  0.00    -0.061 A 
ATOM     20  H   LIG d   1       2.855  -2.189  -3.488  0.00  0.00     0.062 H 
ATOM     21  C   LIG d   1       3.711   0.866  -2.344  0.00  0.00    -0.061 A 
ATOM     22  H   LIG d   1       1.851  -0.178  -2.484  0.00  0.00     0.062 H 
ATOM     23  C   LIG d   1       5.071   0.819  -2.582  0.00  0.00    -0.057 A 
ATOM     24  H   LIG d   1       3.270   1.749  -1.904  0.00  0.00     0.062 H 
ATOM     25  H   LIG d   1       5.694   1.664  -2.329  0.00  0.00     0.062 H 
BRANCH  17  26
ATOM     26  C   LIG d   1       5.453  -2.622  -4.088  0.00  0.00    -0.039 C 
ATOM     27  H   LIG d   1       5.779  -3.299  -3.298  0.00  0.00     0.028 H 
ATOM     28  H   LIG d   1       4.715  -3.123  -4.714  0.00  0.00     0.028 H 
ATOM     29  H   LIG d   1       6.312  -2.334  -4.696  0.00  0.00     0.028 H 
ENDBRANCH  17  26
ENDBRANCH  13  16
ENDBRANCH   1  13
BRANCH   5  30
ATOM     30  C   LIG d   1      10.306   4.191  -6.428  0.00  0.00     0.169 C 
ATOM     31  H   LIG d   1      10.122   4.322  -5.362  0.00  0.00     0.108 H 
ATOM     32  H   LIG d   1      11.370   4.023  -6.595  0.00  0.00     0.108 H 
BRANCH  30  33
ATOM     33  C   LIG d   1       9.869   5.427  -7.170  0.00  0.00     0.017 A 
ATOM     34  C   LIG d   1       9.847   6.649  -6.524  0.00  0.00    -0.053 A 
ATOM     35  C   LIG d   1       9.451   7.784  -7.207  0.00  0.00    -0.061 A 
ATOM     36  H   LIG d   1      10.144   6.718  -5.488  0.00  0.00     0.062 H 
ATOM     37  C   LIG d   1       9.067   7.696  -8.531  0.00  0.00    -0.062 A 
ATOM     38  H   LIG d   1       9.438   8.740  -6.702  0.00  0.00     0.062 H 
ATOM     39  C   LIG d   1       9.083   6.473  -9.175  0.00  0.00    -0.061 A 
ATOM     40  H   LIG d   1       8.754   8.582  -9.063  0.00  0.00     0.062 H 
ATOM     41  C   LIG d   1       9.485   5.339  -8.495  0.00  0.00    -0.053 A 
ATOM     42  H   LIG d   1       8.783   6.404 -10.211  0.00  0.00     0.062 H 
ATOM     43  H   LIG d   1       9.496   4.383  -8.998  0.00  0.00     0.062 H 
ENDBRANCH  30  33
ENDBRANCH   5  30
TORSDOF 5
ENDMDL
MODEL 7
REMARK VINA RESULT:      -6.6      4.987      8.682
REMARK  5 active torsions:
REMARK  status: ('A' for Active; 'I' for Inactive)
REMARK    1  A    between atoms: C_1  and  C_2 
REMARK    2  A    between atoms: C_7  and  C_8 
REMARK    3  A    between atoms: C_8  and  N_9 
REMARK    4  A    between atoms: N_13  and  C_14 
REMARK    5  A    between atoms: C_14  and  C_15 
ROOT
ATOM      1  N   LIG d   1       9.775  -6.215  -3.796  0.00  0.00    -0.349 N 
ATOM      2  C   LIG d   1      10.268  -5.484  -2.759  0.00  0.00     0.011 C 
ATOM      3  C   LIG d   1       9.797  -4.246  -2.503  0.00  0.00     0.025 C 
ATOM      4  C   LIG d   1       8.743  -3.713  -3.380  0.00  0.00     0.204 C 
ATOM      5  N   LIG d   1       8.053  -2.634  -3.050  0.00  0.00    -0.237 N 
ATOM      6  C   LIG d   1       8.492  -4.429  -4.639  0.00  0.00     0.025 C 
ATOM      7  C   LIG d   1       9.031  -5.656  -4.791  0.00  0.00     0.011 C 
ATOM      8  H   LIG d   1      11.044  -5.899  -2.134  0.00  0.00     0.081 H 
ATOM      9  H   LIG d   1      10.181  -3.665  -1.679  0.00  0.00     0.070 H 
ATOM     10  H   LIG d   1       7.894  -3.984  -5.422  0.00  0.00     0.070 H 
ATOM     11  H   LIG d   1       8.870  -6.204  -5.707  0.00  0.00     0.081 H 
ATOM     12  H   LIG d   1       8.175  -2.228  -2.178  0.00  0.00     0.446 HD
ENDROOT
BRANCH   1  13
ATOM     13  C   LIG d   1      10.058  -7.652  -3.847  0.00  0.00     0.048 C 
ATOM     14  H   LIG d   1      10.965  -7.864  -3.281  0.00  0.00     0.054 H 
ATOM     15  H   LIG d   1      10.198  -7.957  -4.884  0.00  0.00     0.054 H 
BRANCH  13  16
ATOM     16  C   LIG d   1       8.903  -8.412  -3.251  0.00  0.00    -0.025 A 
ATOM     17  C   LIG d   1       8.985  -8.892  -1.957  0.00  0.00    -0.046 A 
ATOM     18  C   LIG d   1       7.923  -9.585  -1.407  0.00  0.00    -0.059 A 
ATOM     19  C   LIG d   1       6.780  -9.803  -2.154  0.00  0.00    -0.061 A 
ATOM     20  H   LIG d   1       7.986  -9.957  -0.395  0.00  0.00     0.062 H 
ATOM     21  C   LIG d   1       6.699  -9.328  -3.449  0.00  0.00    -0.061 A 
ATOM     22  H   LIG d   1       5.950 -10.346  -1.724  0.00  0.00     0.062 H 
ATOM     23  C   LIG d   1       7.761  -8.634  -3.998  0.00  0.00    -0.057 A 
ATOM     24  H   LIG d   1       5.807  -9.499  -4.032  0.00  0.00     0.062 H 
ATOM     25  H   LIG d   1       7.698  -8.264  -5.010  0.00  0.00     0.062 H 
BRANCH  17  26
ATOM     26  C   LIG d   1      10.232  -8.655  -1.143  0.00  0.00    -0.039 C 
ATOM     27  H   LIG d   1      10.129  -7.723  -0.587  0.00  0.00     0.028 H 
ATOM     28  H   LIG d   1      10.373  -9.481  -0.445  0.00  0.00     0.028 H 
ATOM     29  H   LIG d   1      11.093  -8.588  -1.809  0.00  0.00     0.028 H 
ENDBRANCH  17  26
ENDBRANCH  13  16
ENDBRANCH   1  13
BRANCH   5  30
ATOM     30  C   LIG d   1       7.104  -2.053  -4.002  0.00  0.00     0.169 C 
ATOM     31  H   LIG d   1       7.648  -1.484  -4.756  0.00  0.00     0.108 H 
ATOM     32  H   LIG d   1       6.540  -2.851  -4.487  0.00  0.00     0.108 H 
BRANCH  30  33
ATOM     33  C   LIG d   1       6.154  -1.139  -3.272  0.00  0.00     0.017 A 
ATOM     34  C   LIG d   1       5.098  -1.669  -2.556  0.00  0.00    -0.053 A 
ATOM     35  C   LIG d   1       4.229  -0.829  -1.883  0.00  0.00    -0.061 A 
ATOM     36  H   LIG d   1       4.952  -2.738  -2.519  0.00  0.00     0.062 H 
ATOM     37  C   LIG d   1       4.412   0.539  -1.933  0.00  0.00    -0.062 A 
ATOM     38  H   LIG d   1       3.406  -1.245  -1.320  0.00  0.00     0.062 H 
ATOM     39  C   LIG d   1       5.466   1.069  -2.654  0.00  0.00    -0.061 A 
ATOM     40  H   LIG d   1       3.733   1.195  -1.410  0.00  0.00     0.062 H 
ATOM     41  C   LIG d   1       6.337   0.230  -3.323  0.00  0.00    -0.053 A 
ATOM     42  H   LIG d   1       5.609   2.139  -2.693  0.00  0.00     0.062 H 
ATOM     43  H   LIG d   1       7.160   0.645  -3.887  0.00  0.00     0.062 H 
ENDBRANCH  30  33
ENDBRANCH   5  30
TORSDOF 5
ENDMDL
MODEL 8
REMARK VINA RESULT:      -6.6      2.573      4.081
REMARK  5 active torsions:
REMARK  status: ('A' for Active; 'I' for Inactive)
REMARK    1  A    between atoms: C_1  and  C_2 
REMARK    2  A    between atoms: C_7  and  C_8 
REMARK    3  A    between atoms: C_8  and  N_9 
REMARK    4  A    between atoms: N_13  and  C_14 
REMARK    5  A    between atoms: C_14  and  C_15 
ROOT
ATOM      1  N   LIG d   1       3.346   0.706 -10.179  0.00  0.00    -0.349 N 
ATOM      2  C   LIG d   1       3.426   1.960  -9.659  0.00  0.00     0.011 C 
ATOM      3  C   LIG d   1       3.195   2.179  -8.349  0.00  0.00     0.025 C 
ATOM      4  C   LIG d   1       2.851   1.024  -7.506  0.00  0.00     0.204 C 
ATOM      5  N   LIG d   1       2.864   1.105  -6.186  0.00  0.00    -0.237 N 
ATOM      6  C   LIG d   1       2.488  -0.224  -8.193  0.00  0.00     0.025 C 
ATOM      7  C   LIG d   1       2.750  -0.322  -9.513  0.00  0.00     0.011 C 
ATOM      8  H   LIG d   1       3.676   2.791 -10.302  0.00  0.00     0.081 H 
ATOM      9  H   LIG d   1       3.263   3.172  -7.930  0.00  0.00     0.070 H 
ATOM     10  H   LIG d   1       2.023  -1.039  -7.657  0.00  0.00     0.070 H 
ATOM     11  H   LIG d   1       2.489  -1.223 -10.047  0.00  0.00     0.081 H 
ATOM     12  H   LIG d   1       3.189   1.910  -5.753  0.00  0.00     0.446 HD
ENDROOT
BRANCH   1  13
ATOM     13  C   LIG d   1       3.916   0.451 -11.505  0.00  0.00     0.048 C 
ATOM     14  H   LIG d   1       4.293   1.385 -11.924  0.00  0.00     0.054 H 
ATOM     15  H   LIG d   1       3.145   0.045 -12.160  0.00  0.00     0.054 H 
BRANCH  13  16
ATOM     16  C   LIG d   1       5.045  -0.538 -11.385  0.00  0.00    -0.025 A 
ATOM     17  C   LIG d   1       4.929  -1.792 -11.955  0.00  0.00    -0.046 A 
ATOM     18  C   LIG d   1       5.967  -2.699 -11.850  0.00  0.00    -0.059 A 
ATOM     19  C   LIG d   1       7.120  -2.353 -11.169  0.00  0.00    -0.061 A 
ATOM     20  H   LIG d   1       5.877  -3.678 -12.298  0.00  0.00     0.062 H 
ATOM     21  C   LIG d   1       7.234  -1.101 -10.595  0.00  0.00    -0.061 A 
ATOM     22  H   LIG d   1       7.931  -3.062 -11.087  0.00  0.00     0.062 H 
ATOM     23  C   LIG d   1       6.197  -0.195 -10.701  0.00  0.00    -0.057 A 
ATOM     24  H   LIG d   1       8.135  -0.831 -10.063  0.00  0.00     0.062 H 
ATOM     25  H   LIG d   1       6.286   0.783 -10.252  0.00  0.00     0.062 H 
BRANCH  17  26
ATOM     26  C   LIG d   1       3.672  -2.169 -12.696  0.00  0.00    -0.039 C 
ATOM     27  H   LIG d   1       3.535  -1.497 -13.543  0.00  0.00     0.028 H 
ATOM     28  H   LIG d   1       3.756  -3.196 -13.055  0.00  0.00     0.028 H 
ATOM     29  H   LIG d   1       2.816  -2.087 -12.025  0.00  0.00     0.028 H 
ENDBRANCH  17  26
ENDBRANCH  13  16
ENDBRANCH   1  13
BRANCH   5  30
ATOM     30  C   LIG d   1       2.391  -0.021  -5.378  0.00  0.00     0.169 C 
ATOM     31  H   LIG d   1       1.319   0.083  -5.205  0.00  0.00     0.108 H 
ATOM     32  H   LIG d   1       2.585  -0.955  -5.906  0.00  0.00     0.108 H 
BRANCH  30  33
ATOM     33  C   LIG d   1       3.115  -0.031  -4.056  0.00  0.00     0.017 A 
ATOM     34  C   LIG d   1       3.439  -1.233  -3.455  0.00  0.00    -0.053 A 
ATOM     35  C   LIG d   1       4.107  -1.242  -2.245  0.00  0.00    -0.061 A 
ATOM     36  H   LIG d   1       3.174  -2.164  -3.932  0.00  0.00     0.062 H 
ATOM     37  C   LIG d   1       4.441  -0.050  -1.631  0.00  0.00    -0.062 A 
ATOM     38  H   LIG d   1       4.363  -2.181  -1.777  0.00  0.00     0.062 H 
ATOM     39  C   LIG d   1       4.112   1.152  -2.230  0.00  0.00    -0.061 A 
ATOM     40  H   LIG d   1       4.960  -0.056  -0.684  0.00  0.00     0.062 H 
ATOM     41  C   LIG d   1       3.449   1.161  -3.442  0.00  0.00    -0.053 A 
ATOM     42  H   LIG d   1       4.374   2.084  -1.750  0.00  0.00     0.062 H 
ATOM     43  H   LIG d   1       3.191   2.101  -3.909  0.00  0.00     0.062 H 
ENDBRANCH  30  33
ENDBRANCH   5  30
TORSDOF 5
ENDMDL
MODEL 9
REMARK VINA RESULT:      -6.5      5.720      8.864
REMARK  5 active torsions:
REMARK  status: ('A' for Active; 'I' for Inactive)
REMARK    1  A    between atoms: C_1  and  C_2 
REMARK    2  A    between atoms: C_7  and  C_8 
REMARK    3  A    between atoms: C_8  and  N_9 
REMARK    4  A    between atoms: N_13  and  C_14 
REMARK    5  A    between atoms: C_14  and  C_15 
ROOT
ATOM      1  N   LIG d   1      10.595   4.174  -4.253  0.00  0.00    -0.349 N 
ATOM      2  C   LIG d   1       9.777   4.244  -5.338  0.00  0.00     0.011 C 
ATOM      3  C   LIG d   1       8.742   3.391  -5.476  0.00  0.00     0.025 C 
ATOM      4  C   LIG d   1       8.531   2.384  -4.426  0.00  0.00     0.204 C 
ATOM      5  N   LIG d   1       7.408   1.690  -4.351  0.00  0.00    -0.237 N 
ATOM      6  C   LIG d   1       9.624   2.179  -3.464  0.00  0.00     0.025 C 
ATOM      7  C   LIG d   1      10.618   3.091  -3.428  0.00  0.00     0.011 C 
ATOM      8  H   LIG d   1       9.957   4.992  -6.096  0.00  0.00     0.081 H 
ATOM      9  H   LIG d   1       8.086   3.447  -6.332  0.00  0.00     0.070 H 
ATOM     10  H   LIG d   1       9.632   1.322  -2.805  0.00  0.00     0.070 H 
ATOM     11  H   LIG d   1      11.438   2.964  -2.737  0.00  0.00     0.081 H 
ATOM     12  H   LIG d   1       6.668   1.900  -4.942  0.00  0.00     0.446 HD
ENDROOT
BRANCH   1  13
ATOM     13  C   LIG d   1      11.488   5.300  -3.965  0.00  0.00     0.048 C 
ATOM     14  H   LIG d   1      11.467   6.002  -4.799  0.00  0.00     0.054 H 
ATOM     15  H   LIG d   1      12.505   4.931  -3.827  0.00  0.00     0.054 H 
BRANCH  13  16
ATOM     16  C   LIG d   1      11.031   5.995  -2.710  0.00  0.00    -0.025 A 
ATOM     17  C   LIG d   1      11.839   6.000  -1.589  0.00  0.00    -0.046 A 
ATOM     18  C   LIG d   1      11.423   6.643  -0.438  0.00  0.00    -0.059 A 
ATOM     19  C   LIG d   1      10.194   7.277  -0.407  0.00  0.00    -0.061 A 
ATOM     20  H   LIG d   1      12.056   6.650   0.437  0.00  0.00     0.062 H 
ATOM     21  C   LIG d   1       9.384   7.268  -1.527  0.00  0.00    -0.061 A 
ATOM     22  H   LIG d   1       9.869   7.779   0.492  0.00  0.00     0.062 H 
ATOM     23  C   LIG d   1       9.801   6.626  -2.677  0.00  0.00    -0.057 A 
ATOM     24  H   LIG d   1       8.424   7.763  -1.502  0.00  0.00     0.062 H 
ATOM     25  H   LIG d   1       9.167   6.618  -3.551  0.00  0.00     0.062 H 
BRANCH  17  26
ATOM     26  C   LIG d   1      13.178   5.308  -1.622  0.00  0.00    -0.039 C 
ATOM     27  H   LIG d   1      13.553   5.194  -0.605  0.00  0.00     0.028 H 
ATOM     28  H   LIG d   1      13.069   4.326  -2.083  0.00  0.00     0.028 H 
ATOM     29  H   LIG d   1      13.881   5.907  -2.203  0.00  0.00     0.028 H 
ENDBRANCH  17  26
ENDBRANCH  13  16
ENDBRANCH   1  13
BRANCH   5  30
ATOM     30  C   LIG d   1       7.281   0.604  -3.376  0.00  0.00     0.169 C 
ATOM     31  H   LIG d   1       7.716  -0.306  -3.789  0.00  0.00     0.108 H 
ATOM     32  H   LIG d   1       7.807   0.875  -2.460  0.00  0.00     0.108 H 
BRANCH  30  33
ATOM     33  C   LIG d   1       5.825   0.371  -3.069  0.00  0.00     0.017 A 
ATOM     34  C   LIG d   1       5.300  -0.906  -3.137  0.00  0.00    -0.053 A 
ATOM     35  C   LIG d   1       3.964  -1.119  -2.851  0.00  0.00    -0.061 A 
ATOM     36  H   LIG d   1       5.933  -1.737  -3.408  0.00  0.00     0.062 H 
ATOM     37  C   LIG d   1       3.151  -0.056  -2.508  0.00  0.00    -0.062 A 
ATOM     38  H   LIG d   1       3.555  -2.118  -2.899  0.00  0.00     0.062 H 
ATOM     39  C   LIG d   1       3.676   1.222  -2.446  0.00  0.00    -0.061 A 
ATOM     40  H   LIG d   1       2.107  -0.222  -2.287  0.00  0.00     0.062 H 
ATOM     41  C   LIG d   1       5.012   1.436  -2.726  0.00  0.00    -0.053 A 
ATOM     42  H   LIG d   1       3.040   2.054  -2.178  0.00  0.00     0.062 H 
ATOM     43  H   LIG d   1       5.421   2.434  -2.679  0.00  0.00     0.062 H 
ENDBRANCH  30  33
ENDBRANCH   5  30
TORSDOF 5
ENDMDL
MODEL 10
REMARK VINA RESULT:      -6.5      4.240      6.641
REMARK  5 active torsions:
REMARK  status: ('A' for Active; 'I' for Inactive)
REMARK    1  A    between atoms: C_1  and  C_2 
REMARK    2  A    between atoms: C_7  and  C_8 
REMARK    3  A    between atoms: C_8  and  N_9 
REMARK    4  A    between atoms: N_13  and  C_14 
REMARK    5  A    between atoms: C_14  and  C_15 
ROOT
ATOM      1  N   LIG d   1       5.551  -3.443  -6.131  0.00  0.00    -0.349 N 
ATOM      2  C   LIG d   1       4.338  -3.900  -6.544  0.00  0.00     0.011 C 
ATOM      3  C   LIG d   1       4.081  -5.222  -6.600  0.00  0.00     0.025 C 
ATOM      4  C   LIG d   1       5.153  -6.151  -6.209  0.00  0.00     0.204 C 
ATOM      5  N   LIG d   1       4.909  -7.432  -5.988  0.00  0.00    -0.237 N 
ATOM      6  C   LIG d   1       6.507  -5.595  -6.076  0.00  0.00     0.025 C 
ATOM      7  C   LIG d   1       6.643  -4.253  -6.049  0.00  0.00     0.011 C 
ATOM      8  H   LIG d   1       3.571  -3.195  -6.829  0.00  0.00     0.081 H 
ATOM      9  H   LIG d   1       3.119  -5.589  -6.922  0.00  0.00     0.070 H 
ATOM     10  H   LIG d   1       7.369  -6.242  -6.003  0.00  0.00     0.070 H 
ATOM     11  H   LIG d   1       7.626  -3.814  -5.960  0.00  0.00     0.081 H 
ATOM     12  H   LIG d   1       3.996  -7.760  -5.998  0.00  0.00     0.446 HD
ENDROOT
BRANCH   1  13
ATOM     13  C   LIG d   1       5.689  -2.031  -5.766  0.00  0.00     0.048 C 
ATOM     14  H   LIG d   1       5.477  -1.408  -6.635  0.00  0.00     0.054 H 
ATOM     15  H   LIG d   1       6.708  -1.842  -5.425  0.00  0.00     0.054 H 
BRANCH  13  16
ATOM     16  C   LIG d   1       4.721  -1.701  -4.661  0.00  0.00    -0.025 A 
ATOM     17  C   LIG d   1       3.717  -0.775  -4.876  0.00  0.00    -0.046 A 
ATOM     18  C   LIG d   1       2.823  -0.475  -3.864  0.00  0.00    -0.059 A 
ATOM     19  C   LIG d   1       2.938  -1.099  -2.635  0.00  0.00    -0.061 A 
ATOM     20  H   LIG d   1       2.038   0.246  -4.032  0.00  0.00     0.062 H 
ATOM     21  C   LIG d   1       3.945  -2.021  -2.419  0.00  0.00    -0.061 A 
ATOM     22  H   LIG d   1       2.241  -0.864  -1.844  0.00  0.00     0.062 H 
ATOM     23  C   LIG d   1       4.837  -2.320  -3.431  0.00  0.00    -0.057 A 
ATOM     24  H   LIG d   1       4.034  -2.507  -1.459  0.00  0.00     0.062 H 
ATOM     25  H   LIG d   1       5.624  -3.040  -3.261  0.00  0.00     0.062 H 
BRANCH  17  26
ATOM     26  C   LIG d   1       3.593  -0.095  -6.215  0.00  0.00    -0.039 C 
ATOM     27  H   LIG d   1       4.576  -0.031  -6.682  0.00  0.00     0.028 H 
ATOM     28  H   LIG d   1       2.923  -0.671  -6.855  0.00  0.00     0.028 H 
ATOM     29  H   LIG d   1       3.190   0.909  -6.077  0.00  0.00     0.028 H 
ENDBRANCH  17  26
ENDBRANCH  13  16
ENDBRANCH   1  13
BRANCH   5  30
ATOM     30  C   LIG d   1       6.016  -8.354  -5.729  0.00  0.00     0.169 C 
ATOM     31  H   LIG d   1       6.128  -9.033  -6.574  0.00  0.00     0.108 H 
ATOM     32  H   LIG d   1       6.938  -7.787  -5.594  0.00  0.00     0.108 H 
BRANCH  30  33
ATOM     33  C   LIG d   1       5.728  -9.149  -4.481  0.00  0.00     0.017 A 
ATOM     34  C   LIG d   1       4.438  -9.566  -4.211  0.00  0.00    -0.053 A 
ATOM     35  C   LIG d   1       4.175 -10.299  -3.068  0.00  0.00    -0.061 A 
ATOM     36  H   LIG d   1       3.637  -9.324  -4.893  0.00  0.00     0.062 H 
ATOM     37  C   LIG d   1       5.198 -10.605  -2.192  0.00  0.00    -0.062 A 
ATOM     38  H   LIG d   1       3.167 -10.628  -2.859  0.00  0.00     0.062 H 
ATOM     39  C   LIG d   1       6.487 -10.182  -2.460  0.00  0.00    -0.061 A 
ATOM     40  H   LIG d   1       4.992 -11.175  -1.298  0.00  0.00     0.062 H 
ATOM     41  C   LIG d   1       6.752  -9.455  -3.605  0.00  0.00    -0.053 A 
ATOM     42  H   LIG d   1       7.287 -10.422  -1.775  0.00  0.00     0.062 H 
ATOM     43  H   LIG d   1       7.759  -9.124  -3.814  0.00  0.00     0.062 H 
ENDBRANCH  30  33
ENDBRANCH   5  30
TORSDOF 5
ENDMDL
