MODEL 1
REMARK VINA RESULT:      -6.0      0.000      0.000
REMARK  16 active torsions:
REMARK  status: ('A' for Active; 'I' for Inactive)
REMARK    1  A    between atoms: C_1  and  C_2 
REMARK    2  A    between atoms: C_2  and  C_3 
REMARK    3  A    between atoms: C_3  and  C_4 
REMARK    4  A    between atoms: C_4  and  C_5 
REMARK    5  A    between atoms: C_5  and  C_6 
REMARK    6  A    between atoms: C_6  and  C_8 
REMARK    7  A    between atoms: C_6  and  O_30 
REMARK    8  A    between atoms: C_9  and  C_10 
REMARK    9  A    between atoms: C_12  and  O_29 
REMARK   10  A    between atoms: C_15  and  O_28 
REMARK   11  A    between atoms: C_17  and  C_19 
REMARK   12  A    between atoms: C_19  and  C_20 
REMARK   13  A    between atoms: C_21  and  C_22 
REMARK   14  A    between atoms: C_22  and  C_23 
REMARK   15  A    between atoms: C_23  and  C_24 
REMARK   16  A    between atoms: C_24  and  C_25 
ROOT
ATOM      1  C   LIG d   1       4.396  -3.342  -7.018  0.00  0.00     0.009 C 
ATOM      2  H   LIG d   1       3.849  -2.833  -6.211  0.00  0.00     0.037 H 
ATOM      3  C   LIG d   1       4.293  -4.877  -6.903  0.00  0.00     0.064 C 
ATOM      4  H   LIG d   1       4.079  -5.393  -7.851  0.00  0.00     0.060 H 
ATOM      5  C   LIG d   1       5.619  -5.297  -6.220  0.00  0.00     0.000 C 
ATOM      6  C   LIG d   1       6.652  -4.338  -6.862  0.00  0.00     0.061 C 
ATOM      7  H   LIG d   1       7.100  -4.702  -7.799  0.00  0.00     0.060 H 
ATOM      8  C   LIG d   1       5.896  -2.999  -6.992  0.00  0.00    -0.003 C 
ATOM      9  H   LIG d   1       6.196  -2.454  -7.898  0.00  0.00     0.034 H 
ATOM     10  H   LIG d   1       5.531  -5.160  -5.132  0.00  0.00     0.032 H 
ATOM     11  H   LIG d   1       5.827  -6.354  -6.441  0.00  0.00     0.032 H 
ENDROOT
BRANCH   1  12
ATOM     12  C   LIG d   1       3.783  -2.880  -8.314  0.00  0.00    -0.080 C 
ATOM     13  C   LIG d   1       3.721  -1.601  -8.591  0.00  0.00    -0.059 C 
ATOM     14  H   LIG d   1       4.116  -0.865  -7.876  0.00  0.00     0.059 H 
ATOM     15  H   LIG d   1       3.387  -3.618  -9.029  0.00  0.00     0.057 H 
BRANCH  13  16
ATOM     16  C   LIG d   1       3.108  -1.139  -9.887  0.00  0.00     0.073 C 
ATOM     17  H   LIG d   1       2.509  -1.945 -10.337  0.00  0.00     0.064 H 
BRANCH  16  18
ATOM     18  C   LIG d   1       2.270   0.117  -9.637  0.00  0.00    -0.023 C 
ATOM     19  H   LIG d   1       1.212  -0.165  -9.522  0.00  0.00     0.029 H 
ATOM     20  H   LIG d   1       2.376   0.804 -10.490  0.00  0.00     0.029 H 
BRANCH  18  21
ATOM     21  C   LIG d   1       2.755   0.807  -8.361  0.00  0.00    -0.050 C 
ATOM     22  H   LIG d   1       3.731   0.393  -8.069  0.00  0.00     0.027 H 
ATOM     23  H   LIG d   1       2.028   0.639  -7.554  0.00  0.00     0.027 H 
BRANCH  21  24
ATOM     24  C   LIG d   1       2.895   2.309  -8.617  0.00  0.00    -0.053 C 
ATOM     25  H   LIG d   1       3.033   2.833  -7.659  0.00  0.00     0.026 H 
ATOM     26  H   LIG d   1       1.986   2.684  -9.112  0.00  0.00     0.026 H 
BRANCH  24  27
ATOM     27  C   LIG d   1       4.106   2.563  -9.516  0.00  0.00    -0.056 C 
ATOM     28  H   LIG d   1       4.307   3.644  -9.563  0.00  0.00     0.026 H 
ATOM     29  H   LIG d   1       3.898   2.185 -10.528  0.00  0.00     0.026 H 
BRANCH  27  30
ATOM     30  C   LIG d   1       5.328   1.842  -8.943  0.00  0.00    -0.065 C 
ATOM     31  H   LIG d   1       5.087   0.781  -8.787  0.00  0.00     0.023 H 
ATOM     32  H   LIG d   1       5.608   2.300  -7.983  0.00  0.00     0.023 H 
ATOM     33  H   LIG d   1       6.168   1.927  -9.649  0.00  0.00     0.023 H 
ENDBRANCH  27  30
ENDBRANCH  24  27
ENDBRANCH  21  24
ENDBRANCH  18  21
ENDBRANCH  16  18
BRANCH  16  34
ATOM     34  O   LIG d   1       4.144  -0.841 -10.825  0.00  0.00    -0.388 OA
ATOM     35  H   LIG d   1       3.888  -0.489 -11.835  0.00  0.00     0.210 HD
ENDBRANCH  16  34
ENDBRANCH  13  16
ENDBRANCH   1  12
BRANCH   8  36
ATOM     36  C   LIG d   1       6.207  -2.102  -5.792  0.00  0.00    -0.029 C 
ATOM     37  H   LIG d   1       7.072  -2.507  -5.246  0.00  0.00     0.031 H 
ATOM     38  H   LIG d   1       6.439  -1.086  -6.145  0.00  0.00     0.031 H 
BRANCH  36  39
ATOM     39  C   LIG d   1       5.012  -2.055  -4.877  0.00  0.00    -0.088 C 
ATOM     40  C   LIG d   1       5.165  -2.240  -3.589  0.00  0.00    -0.088 C 
ATOM     41  H   LIG d   1       6.166  -2.430  -3.176  0.00  0.00     0.057 H 
ATOM     42  H   LIG d   1       4.010  -1.866  -5.290  0.00  0.00     0.057 H 
BRANCH  40  43
ATOM     43  C   LIG d   1       3.969  -2.193  -2.673  0.00  0.00    -0.034 C 
ATOM     44  H   LIG d   1       3.189  -2.868  -3.054  0.00  0.00     0.031 H 
ATOM     45  H   LIG d   1       4.267  -2.511  -1.663  0.00  0.00     0.031 H 
BRANCH  43  46
ATOM     46  C   LIG d   1       3.425  -0.765  -2.618  0.00  0.00    -0.044 C 
ATOM     47  H   LIG d   1       3.281  -0.387  -3.642  0.00  0.00     0.027 H 
ATOM     48  H   LIG d   1       2.462  -0.759  -2.087  0.00  0.00     0.027 H 
BRANCH  46  49
ATOM     49  C   LIG d   1       4.421   0.132  -1.880  0.00  0.00    -0.013 C 
ATOM     50  H   LIG d   1       3.971   0.482  -0.939  0.00  0.00     0.033 H 
ATOM     51  H   LIG d   1       5.335  -0.437  -1.660  0.00  0.00     0.033 H 
BRANCH  49  52
ATOM     52  C   LIG d   1       4.763   1.320  -2.744  0.00  0.00     0.042 C 
ATOM     53  O   LIG d   1       5.919   1.573  -2.990  0.00  0.00    -0.550 OA
ATOM     54  O   LIG d   1       3.786   2.096  -3.237  0.00  0.00    -0.550 OA
ENDBRANCH  49  52
ENDBRANCH  46  49
ENDBRANCH  43  46
ENDBRANCH  40  43
ENDBRANCH  36  39
ENDBRANCH   8  36
BRANCH   3  55
ATOM     55  O   LIG d   1       3.175  -5.244  -6.091  0.00  0.00    -0.391 OA
ATOM     56  H   LIG d   1       2.427  -5.954  -6.474  0.00  0.00     0.210 HD
ENDBRANCH   3  55
BRANCH   6  57
ATOM     57  O   LIG d   1       7.791  -4.188  -6.012  0.00  0.00    -0.391 OA
ATOM     58  H   LIG d   1       8.798  -4.121  -6.450  0.00  0.00     0.210 HD
ENDBRANCH   6  57
TORSDOF 16
ENDMDL
MODEL 2
REMARK VINA RESULT:      -5.7      5.537      8.345
REMARK  16 active torsions:
REMARK  status: ('A' for Active; 'I' for Inactive)
REMARK    1  A    between atoms: C_1  and  C_2 
REMARK    2  A    between atoms: C_2  and  C_3 
REMARK    3  A    between atoms: C_3  and  C_4 
REMARK    4  A    between atoms: C_4  and  C_5 
REMARK    5  A    between atoms: C_5  and  C_6 
REMARK    6  A    between atoms: C_6  and  C_8 
REMARK    7  A    between atoms: C_6  and  O_30 
REMARK    8  A    between atoms: C_9  and  C_10 
REMARK    9  A    between atoms: C_12  and  O_29 
REMARK   10  A    between atoms: C_15  and  O_28 
REMARK   11  A    between atoms: C_17  and  C_19 
REMARK   12  A    between atoms: C_19  and  C_20 
REMARK   13  A    between atoms: C_21  and  C_22 
REMARK   14  A    between atoms: C_22  and  C_23 
REMARK   15  A    between atoms: C_23  and  C_24 
REMARK   16  A    between atoms: C_24  and  C_25 
ROOT
ATOM      1  C   LIG d   1       9.295   2.844  -4.154  0.00  0.00     0.009 C 
ATOM      2  H   LIG d   1       9.180   3.920  -3.959  0.00  0.00     0.037 H 
ATOM      3  C   LIG d   1      10.429   2.224  -3.312  0.00  0.00     0.064 C 
ATOM      4  H   LIG d   1      10.174   1.265  -2.838  0.00  0.00     0.060 H 
ATOM      5  C   LIG d   1      11.636   2.169  -4.281  0.00  0.00     0.000 C 
ATOM      6  C   LIG d   1      10.974   1.790  -5.630  0.00  0.00     0.061 C 
ATOM      7  H   LIG d   1      10.871   0.709  -5.806  0.00  0.00     0.060 H 
ATOM      8  C   LIG d   1       9.641   2.568  -5.628  0.00  0.00    -0.003 C 
ATOM      9  H   LIG d   1       8.843   1.998  -6.126  0.00  0.00     0.034 H 
ATOM     10  H   LIG d   1      12.128   3.152  -4.312  0.00  0.00     0.032 H 
ATOM     11  H   LIG d   1      12.353   1.411  -3.933  0.00  0.00     0.032 H 
ENDROOT
BRANCH   1  12
ATOM     12  C   LIG d   1       7.980   2.197  -3.803  0.00  0.00    -0.080 C 
ATOM     13  C   LIG d   1       7.752   0.951  -4.137  0.00  0.00    -0.059 C 
ATOM     14  H   LIG d   1       8.521   0.377  -4.674  0.00  0.00     0.059 H 
ATOM     15  H   LIG d   1       7.210   2.772  -3.266  0.00  0.00     0.057 H 
BRANCH  13  16
ATOM     16  C   LIG d   1       6.437   0.305  -3.786  0.00  0.00     0.073 C 
ATOM     17  H   LIG d   1       6.604  -0.683  -3.331  0.00  0.00     0.064 H 
BRANCH  16  18
ATOM     18  C   LIG d   1       5.646   1.229  -2.858  0.00  0.00    -0.023 C 
ATOM     19  H   LIG d   1       5.028   1.912  -3.460  0.00  0.00     0.029 H 
ATOM     20  H   LIG d   1       6.344   1.814  -2.241  0.00  0.00     0.029 H 
BRANCH  18  21
ATOM     21  C   LIG d   1       4.743   0.390  -1.951  0.00  0.00    -0.050 C 
ATOM     22  H   LIG d   1       4.763   0.802  -0.932  0.00  0.00     0.027 H 
ATOM     23  H   LIG d   1       5.104  -0.648  -1.934  0.00  0.00     0.027 H 
BRANCH  21  24
ATOM     24  C   LIG d   1       3.310   0.424  -2.487  0.00  0.00    -0.053 C 
ATOM     25  H   LIG d   1       3.249   1.137  -3.323  0.00  0.00     0.026 H 
ATOM     26  H   LIG d   1       2.626   0.740  -1.685  0.00  0.00     0.026 H 
BRANCH  24  27
ATOM     27  C   LIG d   1       2.914  -0.971  -2.975  0.00  0.00    -0.056 C 
ATOM     28  H   LIG d   1       3.003  -1.014  -4.070  0.00  0.00     0.026 H 
ATOM     29  H   LIG d   1       1.875  -1.181  -2.682  0.00  0.00     0.026 H 
BRANCH  27  30
ATOM     30  C   LIG d   1       3.841  -2.014  -2.347  0.00  0.00    -0.065 C 
ATOM     31  H   LIG d   1       4.047  -2.809  -3.078  0.00  0.00     0.023 H 
ATOM     32  H   LIG d   1       3.356  -2.448  -1.460  0.00  0.00     0.023 H 
ATOM     33  H   LIG d   1       4.785  -1.534  -2.051  0.00  0.00     0.023 H 
ENDBRANCH  27  30
ENDBRANCH  24  27
ENDBRANCH  21  24
ENDBRANCH  18  21
ENDBRANCH  16  18
BRANCH  16  34
ATOM     34  O   LIG d   1       5.687   0.073  -4.980  0.00  0.00    -0.388 OA
ATOM     35  H   LIG d   1       6.028  -0.680  -5.706  0.00  0.00     0.210 HD
ENDBRANCH  16  34
ENDBRANCH  13  16
ENDBRANCH   1  12
BRANCH   8  36
ATOM     36  C   LIG d   1       9.803   3.888  -6.384  0.00  0.00    -0.029 C 
ATOM     37  H   LIG d   1      10.819   3.949  -6.802  0.00  0.00     0.031 H 
ATOM     38  H   LIG d   1       9.067   3.936  -7.201  0.00  0.00     0.031 H 
BRANCH  36  39
ATOM     39  C   LIG d   1       9.578   5.039  -5.438  0.00  0.00    -0.088 C 
ATOM     40  C   LIG d   1      10.399   6.061  -5.442  0.00  0.00    -0.088 C 
ATOM     41  H   LIG d   1      11.251   6.078  -6.137  0.00  0.00     0.057 H 
ATOM     42  H   LIG d   1       8.726   5.021  -4.743  0.00  0.00     0.057 H 
BRANCH  40  43
ATOM     43  C   LIG d   1      10.174   7.211  -4.496  0.00  0.00    -0.034 C 
ATOM     44  H   LIG d   1      11.142   7.657  -4.224  0.00  0.00     0.031 H 
ATOM     45  H   LIG d   1       9.545   7.971  -4.985  0.00  0.00     0.031 H 
BRANCH  43  46
ATOM     46  C   LIG d   1       9.474   6.705  -3.235  0.00  0.00    -0.044 C 
ATOM     47  H   LIG d   1       8.694   7.421  -2.935  0.00  0.00     0.027 H 
ATOM     48  H   LIG d   1       9.014   5.726  -3.437  0.00  0.00     0.027 H 
BRANCH  46  49
ATOM     49  C   LIG d   1      10.496   6.564  -2.105  0.00  0.00    -0.013 C 
ATOM     50  H   LIG d   1      10.790   5.508  -2.007  0.00  0.00     0.033 H 
ATOM     51  H   LIG d   1      11.383   7.171  -2.334  0.00  0.00     0.033 H 
BRANCH  49  52
ATOM     52  C   LIG d   1       9.884   7.036  -0.811  0.00  0.00     0.042 C 
ATOM     53  O   LIG d   1       8.927   7.773  -0.829  0.00  0.00    -0.550 OA
ATOM     54  O   LIG d   1      10.403   6.638   0.362  0.00  0.00    -0.550 OA
ENDBRANCH  49  52
ENDBRANCH  46  49
ENDBRANCH  43  46
ENDBRANCH  40  43
ENDBRANCH  36  39
ENDBRANCH   8  36
BRANCH   3  55
ATOM     55  O   LIG d   1      10.728   3.055  -2.188  0.00  0.00    -0.391 OA
ATOM     56  H   LIG d   1      11.545   3.790  -2.250  0.00  0.00     0.210 HD
ENDBRANCH   3  55
BRANCH   6  57
ATOM     57  O   LIG d   1      11.794   2.206  -6.724  0.00  0.00    -0.391 OA
ATOM     58  H   LIG d   1      11.485   3.055  -7.351  0.00  0.00     0.210 HD
ENDBRANCH   6  57
TORSDOF 16
ENDMDL
MODEL 3
REMARK VINA RESULT:      -5.7      2.046      2.665
REMARK  16 active torsions:
REMARK  status: ('A' for Active; 'I' for Inactive)
REMARK    1  A    between atoms: C_1  and  C_2 
REMARK    2  A    between atoms: C_2  and  C_3 
REMARK    3  A    between atoms: C_3  and  C_4 
REMARK    4  A    between atoms: C_4  and  C_5 
REMARK    5  A    between atoms: C_5  and  C_6 
REMARK    6  A    between atoms: C_6  and  C_8 
REMARK    7  A    between atoms: C_6  and  O_30 
REMARK    8  A    between atoms: C_9  and  C_10 
REMARK    9  A    between atoms: C_12  and  O_29 
REMARK   10  A    between atoms: C_15  and  O_28 
REMARK   11  A    between atoms: C_17  and  C_19 
REMARK   12  A    between atoms: C_19  and  C_20 
REMARK   13  A    between atoms: C_21  and  C_22 
REMARK   14  A    between atoms: C_22  and  C_23 
REMARK   15  A    between atoms: C_23  and  C_24 
REMARK   16  A    between atoms: C_24  and  C_25 
ROOT
ATOM      1  C   LIG d   1       5.961  -1.978  -7.285  0.00  0.00     0.009 C 
ATOM      2  H   LIG d   1       5.782  -3.059  -7.190  0.00  0.00     0.037 H 
ATOM      3  C   LIG d   1       6.953  -1.658  -8.422  0.00  0.00     0.064 C 
ATOM      4  H   LIG d   1       6.650  -0.822  -9.071  0.00  0.00     0.060 H 
ATOM      5  C   LIG d   1       8.309  -1.460  -7.700  0.00  0.00     0.000 C 
ATOM      6  C   LIG d   1       7.898  -0.727  -6.398  0.00  0.00     0.061 C 
ATOM      7  H   LIG d   1       7.860   0.369  -6.478  0.00  0.00     0.060 H 
ATOM      8  C   LIG d   1       6.562  -1.386  -5.998  0.00  0.00    -0.003 C 
ATOM      9  H   LIG d   1       5.879  -0.660  -5.535  0.00  0.00     0.034 H 
ATOM     10  H   LIG d   1       8.768  -2.440  -7.508  0.00  0.00     0.032 H 
ATOM     11  H   LIG d   1       8.978  -0.859  -8.333  0.00  0.00     0.032 H 
ENDROOT
BRANCH   1  12
ATOM     12  C   LIG d   1       4.625  -1.341  -7.571  0.00  0.00    -0.080 C 
ATOM     13  C   LIG d   1       4.203  -0.345  -6.832  0.00  0.00    -0.059 C 
ATOM     14  H   LIG d   1       4.823   0.026  -6.004  0.00  0.00     0.059 H 
ATOM     15  H   LIG d   1       4.005  -1.714  -8.400  0.00  0.00     0.057 H 
BRANCH  13  16
ATOM     16  C   LIG d   1       2.867   0.292  -7.119  0.00  0.00     0.073 C 
ATOM     17  H   LIG d   1       2.291   0.410  -6.188  0.00  0.00     0.064 H 
BRANCH  16  18
ATOM     18  C   LIG d   1       3.081   1.631  -7.826  0.00  0.00    -0.023 C 
ATOM     19  H   LIG d   1       4.137   1.929  -7.736  0.00  0.00     0.029 H 
ATOM     20  H   LIG d   1       2.443   2.397  -7.360  0.00  0.00     0.029 H 
BRANCH  18  21
ATOM     21  C   LIG d   1       2.714   1.492  -9.304  0.00  0.00    -0.050 C 
ATOM     22  H   LIG d   1       1.871   2.158  -9.537  0.00  0.00     0.027 H 
ATOM     23  H   LIG d   1       2.429   0.451  -9.515  0.00  0.00     0.027 H 
BRANCH  21  24
ATOM     24  C   LIG d   1       3.919   1.875 -10.166  0.00  0.00    -0.053 C 
ATOM     25  H   LIG d   1       4.787   2.068  -9.518  0.00  0.00     0.026 H 
ATOM     26  H   LIG d   1       3.684   2.782 -10.743  0.00  0.00     0.026 H 
BRANCH  24  27
ATOM     27  C   LIG d   1       4.244   0.729 -11.127  0.00  0.00    -0.056 C 
ATOM     28  H   LIG d   1       5.114   0.171 -10.750  0.00  0.00     0.026 H 
ATOM     29  H   LIG d   1       4.474   1.139 -12.122  0.00  0.00     0.026 H 
BRANCH  27  30
ATOM     30  C   LIG d   1       3.041  -0.210 -11.229  0.00  0.00    -0.065 C 
ATOM     31  H   LIG d   1       2.437   0.063 -12.106  0.00  0.00     0.023 H 
ATOM     32  H   LIG d   1       2.428  -0.120 -10.319  0.00  0.00     0.023 H 
ATOM     33  H   LIG d   1       3.393  -1.247 -11.333  0.00  0.00     0.023 H 
ENDBRANCH  27  30
ENDBRANCH  24  27
ENDBRANCH  21  24
ENDBRANCH  18  21
ENDBRANCH  16  18
BRANCH  16  34
ATOM     34  O   LIG d   1       2.098  -0.573  -7.958  0.00  0.00    -0.388 OA
ATOM     35  H   LIG d   1       1.402  -1.297  -7.510  0.00  0.00     0.210 HD
ENDBRANCH  16  34
ENDBRANCH  13  16
ENDBRANCH   1  12
BRANCH   8  36
ATOM     36  C   LIG d   1       6.811  -2.499  -4.977  0.00  0.00    -0.029 C 
ATOM     37  H   LIG d   1       6.486  -3.462  -5.397  0.00  0.00     0.031 H 
ATOM     38  H   LIG d   1       7.885  -2.545  -4.740  0.00  0.00     0.031 H 
BRANCH  36  39
ATOM     39  C   LIG d   1       6.032  -2.210  -3.720  0.00  0.00    -0.088 C 
ATOM     40  C   LIG d   1       4.733  -2.381  -3.700  0.00  0.00    -0.088 C 
ATOM     41  H   LIG d   1       4.212  -2.735  -4.601  0.00  0.00     0.057 H 
ATOM     42  H   LIG d   1       6.555  -1.855  -2.819  0.00  0.00     0.057 H 
BRANCH  40  43
ATOM     43  C   LIG d   1       3.955  -2.092  -2.443  0.00  0.00    -0.034 C 
ATOM     44  H   LIG d   1       3.127  -2.811  -2.351  0.00  0.00     0.031 H 
ATOM     45  H   LIG d   1       4.619  -2.184  -1.570  0.00  0.00     0.031 H 
BRANCH  43  46
ATOM     46  C   LIG d   1       3.391  -0.672  -2.507  0.00  0.00    -0.044 C 
ATOM     47  H   LIG d   1       3.268  -0.372  -3.559  0.00  0.00     0.027 H 
ATOM     48  H   LIG d   1       2.415  -0.640  -2.001  0.00  0.00     0.027 H 
BRANCH  46  49
ATOM     49  C   LIG d   1       4.356   0.292  -1.813  0.00  0.00    -0.013 C 
ATOM     50  H   LIG d   1       3.862   0.737  -0.937  0.00  0.00     0.033 H 
ATOM     51  H   LIG d   1       5.253  -0.256  -1.488  0.00  0.00     0.033 H 
BRANCH  49  52
ATOM     52  C   LIG d   1       4.754   1.384  -2.773  0.00  0.00     0.042 C 
ATOM     53  O   LIG d   1       5.921   1.573  -3.022  0.00  0.00    -0.550 OA
ATOM     54  O   LIG d   1       3.812   2.147  -3.350  0.00  0.00    -0.550 OA
ENDBRANCH  49  52
ENDBRANCH  46  49
ENDBRANCH  43  46
ENDBRANCH  40  43
ENDBRANCH  36  39
ENDBRANCH   8  36
BRANCH   3  55
ATOM     55  O   LIG d   1       7.030  -2.750  -9.341  0.00  0.00    -0.391 OA
ATOM     56  H   LIG d   1       7.987  -3.272  -9.495  0.00  0.00     0.210 HD
ENDBRANCH   3  55
BRANCH   6  57
ATOM     57  O   LIG d   1       8.881  -0.929  -5.380  0.00  0.00    -0.391 OA
ATOM     58  H   LIG d   1       9.581  -1.774  -5.452  0.00  0.00     0.210 HD
ENDBRANCH   6  57
TORSDOF 16
ENDMDL
MODEL 4
REMARK VINA RESULT:      -5.7      1.711      2.543
REMARK  16 active torsions:
REMARK  status: ('A' for Active; 'I' for Inactive)
REMARK    1  A    between atoms: C_1  and  C_2 
REMARK    2  A    between atoms: C_2  and  C_3 
REMARK    3  A    between atoms: C_3  and  C_4 
REMARK    4  A    between atoms: C_4  and  C_5 
REMARK    5  A    between atoms: C_5  and  C_6 
REMARK    6  A    between atoms: C_6  and  C_8 
REMARK    7  A    between atoms: C_6  and  O_30 
REMARK    8  A    between atoms: C_9  and  C_10 
REMARK    9  A    between atoms: C_12  and  O_29 
REMARK   10  A    between atoms: C_15  and  O_28 
REMARK   11  A    between atoms: C_17  and  C_19 
REMARK   12  A    between atoms: C_19  and  C_20 
REMARK   13  A    between atoms: C_21  and  C_22 
REMARK   14  A    between atoms: C_22  and  C_23 
REMARK   15  A    between atoms: C_23  and  C_24 
REMARK   16  A    between atoms: C_24  and  C_25 
ROOT
ATOM      1  C   LIG d   1       4.811  -3.381  -6.617  0.00  0.00     0.009 C 
ATOM      2  H   LIG d   1       4.495  -3.151  -5.589  0.00  0.00     0.037 H 
ATOM      3  C   LIG d   1       4.261  -4.740  -7.097  0.00  0.00     0.064 C 
ATOM      4  H   LIG d   1       3.841  -4.729  -8.114  0.00  0.00     0.060 H 
ATOM      5  C   LIG d   1       5.441  -5.722  -6.893  0.00  0.00     0.000 C 
ATOM      6  C   LIG d   1       6.670  -4.864  -7.286  0.00  0.00     0.061 C 
ATOM      7  H   LIG d   1       6.926  -4.888  -8.355  0.00  0.00     0.060 H 
ATOM      8  C   LIG d   1       6.343  -3.460  -6.737  0.00  0.00    -0.003 C 
ATOM      9  H   LIG d   1       6.733  -2.670  -7.395  0.00  0.00     0.034 H 
ATOM     10  H   LIG d   1       5.470  -6.048  -5.843  0.00  0.00     0.032 H 
ATOM     11  H   LIG d   1       5.308  -6.597  -7.545  0.00  0.00     0.032 H 
ENDROOT
BRANCH   1  12
ATOM     12  C   LIG d   1       4.281  -2.273  -7.490  0.00  0.00    -0.080 C 
ATOM     13  C   LIG d   1       4.056  -1.087  -6.980  0.00  0.00    -0.059 C 
ATOM     14  H   LIG d   1       4.254  -0.901  -5.914  0.00  0.00     0.059 H 
ATOM     15  H   LIG d   1       4.083  -2.460  -8.557  0.00  0.00     0.057 H 
BRANCH  13  16
ATOM     16  C   LIG d   1       3.527   0.021  -7.853  0.00  0.00     0.073 C 
ATOM     17  H   LIG d   1       4.301   0.357  -8.559  0.00  0.00     0.064 H 
BRANCH  16  18
ATOM     18  C   LIG d   1       2.268  -0.458  -8.579  0.00  0.00    -0.023 C 
ATOM     19  H   LIG d   1       1.380  -0.010  -8.108  0.00  0.00     0.029 H 
ATOM     20  H   LIG d   1       2.203  -1.555  -8.515  0.00  0.00     0.029 H 
BRANCH  18  21
ATOM     21  C   LIG d   1       2.334  -0.036 -10.047  0.00  0.00    -0.050 C 
ATOM     22  H   LIG d   1       3.385   0.097 -10.343  0.00  0.00     0.027 H 
ATOM     23  H   LIG d   1       1.793   0.912 -10.181  0.00  0.00     0.027 H 
BRANCH  21  24
ATOM     24  C   LIG d   1       1.693  -1.118 -10.918  0.00  0.00    -0.053 C 
ATOM     25  H   LIG d   1       2.110  -1.064 -11.935  0.00  0.00     0.026 H 
ATOM     26  H   LIG d   1       0.605  -0.958 -10.960  0.00  0.00     0.026 H 
BRANCH  24  27
ATOM     27  C   LIG d   1       1.984  -2.495 -10.319  0.00  0.00    -0.056 C 
ATOM     28  H   LIG d   1       2.125  -2.399  -9.233  0.00  0.00     0.026 H 
ATOM     29  H   LIG d   1       2.898  -2.906 -10.773  0.00  0.00     0.026 H 
BRANCH  27  30
ATOM     30  C   LIG d   1       0.809  -3.434 -10.601  0.00  0.00    -0.065 C 
ATOM     31  H   LIG d   1      -0.110  -3.007 -10.176  0.00  0.00     0.023 H 
ATOM     32  H   LIG d   1       1.005  -4.414 -10.142  0.00  0.00     0.023 H 
ATOM     33  H   LIG d   1       0.689  -3.555 -11.688  0.00  0.00     0.023 H 
ENDBRANCH  27  30
ENDBRANCH  24  27
ENDBRANCH  21  24
ENDBRANCH  18  21
ENDBRANCH  16  18
BRANCH  16  34
ATOM     34  O   LIG d   1       3.207   1.154  -7.042  0.00  0.00    -0.388 OA
ATOM     35  H   LIG d   1       2.429   1.860  -7.367  0.00  0.00     0.210 HD
ENDBRANCH  16  34
ENDBRANCH  13  16
ENDBRANCH   1  12
BRANCH   8  36
ATOM     36  C   LIG d   1       6.986  -3.271  -5.361  0.00  0.00    -0.029 C 
ATOM     37  H   LIG d   1       7.516  -4.191  -5.075  0.00  0.00     0.031 H 
ATOM     38  H   LIG d   1       7.700  -2.434  -5.402  0.00  0.00     0.031 H 
BRANCH  36  39
ATOM     39  C   LIG d   1       5.916  -2.969  -4.344  0.00  0.00    -0.088 C 
ATOM     40  C   LIG d   1       6.048  -1.944  -3.539  0.00  0.00    -0.088 C 
ATOM     41  H   LIG d   1       6.940  -1.303  -3.607  0.00  0.00     0.057 H 
ATOM     42  H   LIG d   1       5.025  -3.611  -4.276  0.00  0.00     0.057 H 
BRANCH  40  43
ATOM     43  C   LIG d   1       4.979  -1.642  -2.522  0.00  0.00    -0.034 C 
ATOM     44  H   LIG d   1       5.059  -2.350  -1.684  0.00  0.00     0.031 H 
ATOM     45  H   LIG d   1       5.107  -0.615  -2.148  0.00  0.00     0.031 H 
BRANCH  43  46
ATOM     46  C   LIG d   1       3.602  -1.779  -3.174  0.00  0.00    -0.044 C 
ATOM     47  H   LIG d   1       3.704  -1.703  -4.267  0.00  0.00     0.027 H 
ATOM     48  H   LIG d   1       3.167  -2.755  -2.913  0.00  0.00     0.027 H 
BRANCH  46  49
ATOM     49  C   LIG d   1       2.686  -0.662  -2.670  0.00  0.00    -0.013 C 
ATOM     50  H   LIG d   1       1.723  -0.711  -3.200  0.00  0.00     0.033 H 
ATOM     51  H   LIG d   1       2.516  -0.785  -1.590  0.00  0.00     0.033 H 
BRANCH  49  52
ATOM     52  C   LIG d   1       3.332   0.675  -2.929  0.00  0.00     0.042 C 
ATOM     53  O   LIG d   1       3.523   1.441  -2.014  0.00  0.00    -0.550 OA
ATOM     54  O   LIG d   1       3.695   1.015  -4.176  0.00  0.00    -0.550 OA
ENDBRANCH  49  52
ENDBRANCH  46  49
ENDBRANCH  43  46
ENDBRANCH  40  43
ENDBRANCH  36  39
ENDBRANCH   8  36
BRANCH   3  55
ATOM     55  O   LIG d   1       3.139  -5.134  -6.303  0.00  0.00    -0.391 OA
ATOM     56  H   LIG d   1       2.151  -5.258  -6.770  0.00  0.00     0.210 HD
ENDBRANCH   3  55
BRANCH   6  57
ATOM     57  O   LIG d   1       7.855  -5.377  -6.672  0.00  0.00    -0.391 OA
ATOM     58  H   LIG d   1       7.800  -5.845  -5.677  0.00  0.00     0.210 HD
ENDBRANCH   6  57
TORSDOF 16
ENDMDL
MODEL 5
REMARK VINA RESULT:      -5.7      2.284      6.107
REMARK  16 active torsions:
REMARK  status: ('A' for Active; 'I' for Inactive)
REMARK    1  A    between atoms: C_1  and  C_2 
REMARK    2  A    between atoms: C_2  and  C_3 
REMARK    3  A    between atoms: C_3  and  C_4 
REMARK    4  A    between atoms: C_4  and  C_5 
REMARK    5  A    between atoms: C_5  and  C_6 
REMARK    6  A    between atoms: C_6  and  C_8 
REMARK    7  A    between atoms: C_6  and  O_30 
REMARK    8  A    between atoms: C_9  and  C_10 
REMARK    9  A    between atoms: C_12  and  O_29 
REMARK   10  A    between atoms: C_15  and  O_28 
REMARK   11  A    between atoms: C_17  and  C_19 
REMARK   12  A    between atoms: C_19  and  C_20 
REMARK   13  A    between atoms: C_21  and  C_22 
REMARK   14  A    between atoms: C_22  and  C_23 
REMARK   15  A    between atoms: C_23  and  C_24 
REMARK   16  A    between atoms: C_24  and  C_25 
ROOT
ATOM      1  C   LIG d   1       6.646  -0.114  -5.905  0.00  0.00     0.009 C 
ATOM      2  H   LIG d   1       6.045   0.681  -6.370  0.00  0.00     0.037 H 
ATOM      3  C   LIG d   1       7.467   0.411  -4.709  0.00  0.00     0.064 C 
ATOM      4  H   LIG d   1       7.441  -0.233  -3.819  0.00  0.00     0.060 H 
ATOM      5  C   LIG d   1       8.881   0.651  -5.295  0.00  0.00     0.000 C 
ATOM      6  C   LIG d   1       9.052  -0.540  -6.272  0.00  0.00     0.061 C 
ATOM      7  H   LIG d   1       9.470  -1.451  -5.820  0.00  0.00     0.060 H 
ATOM      8  C   LIG d   1       7.654  -0.719  -6.899  0.00  0.00    -0.003 C 
ATOM      9  H   LIG d   1       7.434  -1.778  -7.095  0.00  0.00     0.034 H 
ATOM     10  H   LIG d   1       8.907   1.625  -5.805  0.00  0.00     0.032 H 
ATOM     11  H   LIG d   1       9.622   0.643  -4.482  0.00  0.00     0.032 H 
ENDROOT
BRANCH   1  12
ATOM     12  C   LIG d   1       5.680  -1.173  -5.441  0.00  0.00    -0.080 C 
ATOM     13  C   LIG d   1       5.741  -1.623  -4.212  0.00  0.00    -0.059 C 
ATOM     14  H   LIG d   1       6.499  -1.229  -3.520  0.00  0.00     0.059 H 
ATOM     15  H   LIG d   1       4.922  -1.568  -6.135  0.00  0.00     0.057 H 
BRANCH  13  16
ATOM     16  C   LIG d   1       4.775  -2.682  -3.748  0.00  0.00     0.073 C 
ATOM     17  H   LIG d   1       5.313  -3.607  -3.491  0.00  0.00     0.064 H 
BRANCH  16  18
ATOM     18  C   LIG d   1       3.965  -2.150  -2.564  0.00  0.00    -0.023 C 
ATOM     19  H   LIG d   1       4.129  -2.796  -1.688  0.00  0.00     0.029 H 
ATOM     20  H   LIG d   1       2.896  -2.148  -2.823  0.00  0.00     0.029 H 
BRANCH  18  21
ATOM     21  C   LIG d   1       4.414  -0.725  -2.238  0.00  0.00    -0.050 C 
ATOM     22  H   LIG d   1       5.205  -0.421  -2.939  0.00  0.00     0.027 H 
ATOM     23  H   LIG d   1       4.801  -0.688  -1.210  0.00  0.00     0.027 H 
BRANCH  21  24
ATOM     24  C   LIG d   1       3.223   0.227  -2.370  0.00  0.00    -0.053 C 
ATOM     25  H   LIG d   1       3.196   0.903  -1.501  0.00  0.00     0.026 H 
ATOM     26  H   LIG d   1       2.291  -0.355  -2.411  0.00  0.00     0.026 H 
BRANCH  24  27
ATOM     27  C   LIG d   1       3.367   1.051  -3.652  0.00  0.00    -0.056 C 
ATOM     28  H   LIG d   1       4.410   1.006  -4.000  0.00  0.00     0.026 H 
ATOM     29  H   LIG d   1       3.093   2.096  -3.449  0.00  0.00     0.026 H 
BRANCH  27  30
ATOM     30  C   LIG d   1       2.444   0.482  -4.731  0.00  0.00    -0.065 C 
ATOM     31  H   LIG d   1       1.614   1.180  -4.907  0.00  0.00     0.023 H 
ATOM     32  H   LIG d   1       2.044  -0.488  -4.397  0.00  0.00     0.023 H 
ATOM     33  H   LIG d   1       3.011   0.343  -5.663  0.00  0.00     0.023 H 
ENDBRANCH  27  30
ENDBRANCH  24  27
ENDBRANCH  21  24
ENDBRANCH  18  21
ENDBRANCH  16  18
BRANCH  16  34
ATOM     34  O   LIG d   1       3.889  -3.019  -4.818  0.00  0.00    -0.388 OA
ATOM     35  H   LIG d   1       4.294  -3.388  -5.772  0.00  0.00     0.210 HD
ENDBRANCH  16  34
ENDBRANCH  13  16
ENDBRANCH   1  12
BRANCH   8  36
ATOM     36  C   LIG d   1       7.579   0.022  -8.236  0.00  0.00    -0.029 C 
ATOM     37  H   LIG d   1       8.543   0.511  -8.439  0.00  0.00     0.031 H 
ATOM     38  H   LIG d   1       7.356  -0.696  -9.040  0.00  0.00     0.031 H 
BRANCH  36  39
ATOM     39  C   LIG d   1       6.491   1.061  -8.174  0.00  0.00    -0.088 C 
ATOM     40  C   LIG d   1       5.910   1.468  -9.276  0.00  0.00    -0.088 C 
ATOM     41  H   LIG d   1       6.217   1.050 -10.246  0.00  0.00     0.057 H 
ATOM     42  H   LIG d   1       6.184   1.480  -7.204  0.00  0.00     0.057 H 
BRANCH  40  43
ATOM     43  C   LIG d   1       4.822   2.508  -9.215  0.00  0.00    -0.034 C 
ATOM     44  H   LIG d   1       4.737   2.890  -8.187  0.00  0.00     0.031 H 
ATOM     45  H   LIG d   1       5.067   3.337  -9.895  0.00  0.00     0.031 H 
BRANCH  43  46
ATOM     46  C   LIG d   1       3.492   1.880  -9.636  0.00  0.00    -0.044 C 
ATOM     47  H   LIG d   1       2.864   2.641 -10.122  0.00  0.00     0.027 H 
ATOM     48  H   LIG d   1       3.682   1.057 -10.341  0.00  0.00     0.027 H 
BRANCH  46  49
ATOM     49  C   LIG d   1       2.770   1.337  -8.401  0.00  0.00    -0.013 C 
ATOM     50  H   LIG d   1       3.383   1.524  -7.507  0.00  0.00     0.033 H 
ATOM     51  H   LIG d   1       1.799   1.841  -8.292  0.00  0.00     0.033 H 
BRANCH  49  52
ATOM     52  C   LIG d   1       2.552  -0.147  -8.558  0.00  0.00     0.042 C 
ATOM     53  O   LIG d   1       3.227  -0.926  -7.927  0.00  0.00    -0.550 OA
ATOM     54  O   LIG d   1       1.610  -0.602  -9.399  0.00  0.00    -0.550 OA
ENDBRANCH  49  52
ENDBRANCH  46  49
ENDBRANCH  43  46
ENDBRANCH  40  43
ENDBRANCH  36  39
ENDBRANCH   8  36
BRANCH   3  55
ATOM     55  O   LIG d   1       6.914   1.636  -4.223  0.00  0.00    -0.391 OA
ATOM     56  H   LIG d   1       6.948   2.541  -4.848  0.00  0.00     0.210 HD
ENDBRANCH   3  55
BRANCH   6  57
ATOM     57  O   LIG d   1      10.015  -0.225  -7.280  0.00  0.00    -0.391 OA
ATOM     58  H   LIG d   1      11.054   0.003  -6.996  0.00  0.00     0.210 HD
ENDBRANCH   6  57
TORSDOF 16
ENDMDL
MODEL 6
REMARK VINA RESULT:      -5.6      1.700      5.732
REMARK  16 active torsions:
REMARK  status: ('A' for Active; 'I' for Inactive)
REMARK    1  A    between atoms: C_1  and  C_2 
REMARK    2  A    between atoms: C_2  and  C_3 
REMARK    3  A    between atoms: C_3  and  C_4 
REMARK    4  A    between atoms: C_4  and  C_5 
REMARK    5  A    between atoms: C_5  and  C_6 
REMARK    6  A    between atoms: C_6  and  C_8 
REMARK    7  A    between atoms: C_6  and  O_30 
REMARK    8  A    between atoms: C_9  and  C_10 
REMARK    9  A    between atoms: C_12  and  O_29 
REMARK   10  A    between atoms: C_15  and  O_28 
REMARK   11  A    between atoms: C_17  and  C_19 
REMARK   12  A    between atoms: C_19  and  C_20 
REMARK   13  A    between atoms: C_21  and  C_22 
REMARK   14  A    between atoms: C_22  and  C_23 
REMARK   15  A    between atoms: C_23  and  C_24 
REMARK   16  A    between atoms: C_24  and  C_25 
ROOT
ATOM      1  C   LIG d   1       6.744  -2.416  -6.492  0.00  0.00     0.009 C 
ATOM      2  H   LIG d   1       6.949  -2.437  -7.573  0.00  0.00     0.037 H 
ATOM      3  C   LIG d   1       7.384  -3.616  -5.763  0.00  0.00     0.064 C 
ATOM      4  H   LIG d   1       7.901  -3.358  -4.826  0.00  0.00     0.060 H 
ATOM      5  C   LIG d   1       6.223  -4.628  -5.605  0.00  0.00     0.000 C 
ATOM      6  C   LIG d   1       5.010  -3.713  -5.302  0.00  0.00     0.061 C 
ATOM      7  H   LIG d   1       4.861  -3.482  -4.237  0.00  0.00     0.060 H 
ATOM      8  C   LIG d   1       5.234  -2.478  -6.199  0.00  0.00    -0.003 C 
ATOM      9  H   LIG d   1       4.885  -1.557  -5.711  0.00  0.00     0.034 H 
ATOM     10  H   LIG d   1       6.102  -5.197  -6.539  0.00  0.00     0.032 H 
ATOM     11  H   LIG d   1       6.448  -5.321  -4.781  0.00  0.00     0.032 H 
ENDROOT
BRANCH   1  12
ATOM     12  C   LIG d   1       7.320  -1.126  -5.967  0.00  0.00    -0.080 C 
ATOM     13  C   LIG d   1       6.758  -0.525  -4.948  0.00  0.00    -0.059 C 
ATOM     14  H   LIG d   1       5.866  -0.961  -4.476  0.00  0.00     0.059 H 
ATOM     15  H   LIG d   1       8.213  -0.690  -6.440  0.00  0.00     0.057 H 
BRANCH  13  16
ATOM     16  C   LIG d   1       7.334   0.765  -4.422  0.00  0.00     0.073 C 
ATOM     17  H   LIG d   1       7.401   1.511  -5.228  0.00  0.00     0.064 H 
BRANCH  16  18
ATOM     18  C   LIG d   1       6.481   1.267  -3.255  0.00  0.00    -0.023 C 
ATOM     19  H   LIG d   1       6.381   2.361  -3.318  0.00  0.00     0.029 H 
ATOM     20  H   LIG d   1       6.965   0.997  -2.305  0.00  0.00     0.029 H 
BRANCH  18  21
ATOM     21  C   LIG d   1       5.095   0.623  -3.322  0.00  0.00    -0.050 C 
ATOM     22  H   LIG d   1       5.147  -0.296  -3.925  0.00  0.00     0.027 H 
ATOM     23  H   LIG d   1       4.386   1.324  -3.784  0.00  0.00     0.027 H 
BRANCH  21  24
ATOM     24  C   LIG d   1       4.625   0.278  -1.908  0.00  0.00    -0.053 C 
ATOM     25  H   LIG d   1       3.697   0.827  -1.686  0.00  0.00     0.026 H 
ATOM     26  H   LIG d   1       5.402   0.562  -1.183  0.00  0.00     0.026 H 
BRANCH  24  27
ATOM     27  C   LIG d   1       4.362  -1.226  -1.810  0.00  0.00    -0.056 C 
ATOM     28  H   LIG d   1       3.980  -1.467  -0.807  0.00  0.00     0.026 H 
ATOM     29  H   LIG d   1       5.298  -1.775  -1.987  0.00  0.00     0.026 H 
BRANCH  27  30
ATOM     30  C   LIG d   1       3.326  -1.633  -2.860  0.00  0.00    -0.065 C 
ATOM     31  H   LIG d   1       2.351  -1.782  -2.374  0.00  0.00     0.023 H 
ATOM     32  H   LIG d   1       3.642  -2.570  -3.343  0.00  0.00     0.023 H 
ATOM     33  H   LIG d   1       3.241  -0.840  -3.618  0.00  0.00     0.023 H 
ENDBRANCH  27  30
ENDBRANCH  24  27
ENDBRANCH  21  24
ENDBRANCH  18  21
ENDBRANCH  16  18
BRANCH  16  34
ATOM     34  O   LIG d   1       8.672   0.541  -3.973  0.00  0.00    -0.388 OA
ATOM     35  H   LIG d   1       8.860  -0.121  -3.115  0.00  0.00     0.210 HD
ENDBRANCH  16  34
ENDBRANCH  13  16
ENDBRANCH   1  12
BRANCH   8  36
ATOM     36  C   LIG d   1       4.453  -2.630  -7.506  0.00  0.00    -0.029 C 
ATOM     37  H   LIG d   1       5.143  -2.912  -8.315  0.00  0.00     0.031 H 
ATOM     38  H   LIG d   1       3.689  -3.412  -7.387  0.00  0.00     0.031 H 
BRANCH  36  39
ATOM     39  C   LIG d   1       3.786  -1.323  -7.847  0.00  0.00    -0.088 C 
ATOM     40  C   LIG d   1       3.600  -0.420  -6.916  0.00  0.00    -0.088 C 
ATOM     41  H   LIG d   1       3.932  -0.615  -5.886  0.00  0.00     0.057 H 
ATOM     42  H   LIG d   1       3.453  -1.128  -8.877  0.00  0.00     0.057 H 
BRANCH  40  43
ATOM     43  C   LIG d   1       2.932   0.887  -7.257  0.00  0.00    -0.034 C 
ATOM     44  H   LIG d   1       1.981   0.966  -6.710  0.00  0.00     0.031 H 
ATOM     45  H   LIG d   1       3.590   1.721  -6.972  0.00  0.00     0.031 H 
BRANCH  43  46
ATOM     46  C   LIG d   1       2.661   0.944  -8.761  0.00  0.00    -0.044 C 
ATOM     47  H   LIG d   1       3.058   0.036  -9.240  0.00  0.00     0.027 H 
ATOM     48  H   LIG d   1       1.577   1.007  -8.937  0.00  0.00     0.027 H 
BRANCH  46  49
ATOM     49  C   LIG d   1       3.347   2.175  -9.357  0.00  0.00    -0.013 C 
ATOM     50  H   LIG d   1       2.807   2.493 -10.262  0.00  0.00     0.033 H 
ATOM     51  H   LIG d   1       3.341   2.991  -8.621  0.00  0.00     0.033 H 
BRANCH  49  52
ATOM     52  C   LIG d   1       4.771   1.833  -9.717  0.00  0.00     0.042 C 
ATOM     53  O   LIG d   1       5.003   0.874 -10.415  0.00  0.00    -0.550 OA
ATOM     54  O   LIG d   1       5.779   2.592  -9.260  0.00  0.00    -0.550 OA
ENDBRANCH  49  52
ENDBRANCH  46  49
ENDBRANCH  43  46
ENDBRANCH  40  43
ENDBRANCH  36  39
ENDBRANCH   8  36
BRANCH   3  55
ATOM     55  O   LIG d   1       8.434  -4.179  -6.552  0.00  0.00    -0.391 OA
ATOM     56  H   LIG d   1       8.263  -5.111  -7.110  0.00  0.00     0.210 HD
ENDBRANCH   3  55
BRANCH   6  57
ATOM     57  O   LIG d   1       3.789  -4.369  -5.650  0.00  0.00    -0.391 OA
ATOM     58  H   LIG d   1       2.852  -4.088  -5.146  0.00  0.00     0.210 HD
ENDBRANCH   6  57
TORSDOF 16
ENDMDL
MODEL 7
REMARK VINA RESULT:      -5.6      1.961      5.342
REMARK  16 active torsions:
REMARK  status: ('A' for Active; 'I' for Inactive)
REMARK    1  A    between atoms: C_1  and  C_2 
REMARK    2  A    between atoms: C_2  and  C_3 
REMARK    3  A    between atoms: C_3  and  C_4 
REMARK    4  A    between atoms: C_4  and  C_5 
REMARK    5  A    between atoms: C_5  and  C_6 
REMARK    6  A    between atoms: C_6  and  C_8 
REMARK    7  A    between atoms: C_6  and  O_30 
REMARK    8  A    between atoms: C_9  and  C_10 
REMARK    9  A    between atoms: C_12  and  O_29 
REMARK   10  A    between atoms: C_15  and  O_28 
REMARK   11  A    between atoms: C_17  and  C_19 
REMARK   12  A    between atoms: C_19  and  C_20 
REMARK   13  A    between atoms: C_21  and  C_22 
REMARK   14  A    between atoms: C_22  and  C_23 
REMARK   15  A    between atoms: C_23  and  C_24 
REMARK   16  A    between atoms: C_24  and  C_25 
ROOT
ATOM      1  C   LIG d   1       4.916  -0.911  -6.869  0.00  0.00     0.009 C 
ATOM      2  H   LIG d   1       4.781  -0.760  -5.787  0.00  0.00     0.037 H 
ATOM      3  C   LIG d   1       6.212  -0.252  -7.384  0.00  0.00     0.064 C 
ATOM      4  H   LIG d   1       6.805  -0.881  -8.065  0.00  0.00     0.060 H 
ATOM      5  C   LIG d   1       5.740   1.094  -7.989  0.00  0.00     0.000 C 
ATOM      6  C   LIG d   1       4.393   0.715  -8.654  0.00  0.00     0.061 C 
ATOM      7  H   LIG d   1       4.475   0.357  -9.691  0.00  0.00     0.060 H 
ATOM      8  C   LIG d   1       3.759  -0.296  -7.676  0.00  0.00    -0.003 C 
ATOM      9  H   LIG d   1       3.191  -1.070  -8.211  0.00  0.00     0.034 H 
ATOM     10  H   LIG d   1       5.623   1.836  -7.186  0.00  0.00     0.032 H 
ATOM     11  H   LIG d   1       6.486   1.452  -8.714  0.00  0.00     0.032 H 
ENDROOT
BRANCH   1  12
ATOM     12  C   LIG d   1       4.969  -2.400  -7.094  0.00  0.00    -0.080 C 
ATOM     13  C   LIG d   1       4.390  -3.212  -6.245  0.00  0.00    -0.059 C 
ATOM     14  H   LIG d   1       3.866  -2.808  -5.368  0.00  0.00     0.059 H 
ATOM     15  H   LIG d   1       5.495  -2.804  -7.973  0.00  0.00     0.057 H 
BRANCH  13  16
ATOM     16  C   LIG d   1       4.444  -4.701  -6.471  0.00  0.00     0.073 C 
ATOM     17  H   LIG d   1       4.768  -4.922  -7.499  0.00  0.00     0.064 H 
BRANCH  16  18
ATOM     18  C   LIG d   1       5.371  -5.342  -5.436  0.00  0.00    -0.023 C 
ATOM     19  H   LIG d   1       4.916  -6.271  -5.062  0.00  0.00     0.029 H 
ATOM     20  H   LIG d   1       5.521  -4.645  -4.598  0.00  0.00     0.029 H 
BRANCH  18  21
ATOM     21  C   LIG d   1       6.719  -5.659  -6.085  0.00  0.00    -0.050 C 
ATOM     22  H   LIG d   1       6.835  -5.058  -6.999  0.00  0.00     0.027 H 
ATOM     23  H   LIG d   1       6.760  -6.727  -6.341  0.00  0.00     0.027 H 
BRANCH  21  24
ATOM     24  C   LIG d   1       7.847  -5.323  -5.108  0.00  0.00    -0.053 C 
ATOM     25  H   LIG d   1       8.814  -5.379  -5.631  0.00  0.00     0.026 H 
ATOM     26  H   LIG d   1       7.838  -6.042  -4.276  0.00  0.00     0.026 H 
BRANCH  24  27
ATOM     27  C   LIG d   1       7.644  -3.908  -4.561  0.00  0.00    -0.056 C 
ATOM     28  H   LIG d   1       7.850  -3.900  -3.481  0.00  0.00     0.026 H 
ATOM     29  H   LIG d   1       6.606  -3.591  -4.739  0.00  0.00     0.026 H 
BRANCH  27  30
ATOM     30  C   LIG d   1       8.599  -2.945  -5.270  0.00  0.00    -0.065 C 
ATOM     31  H   LIG d   1       8.623  -1.989  -4.729  0.00  0.00     0.023 H 
ATOM     32  H   LIG d   1       8.252  -2.776  -6.300  0.00  0.00     0.023 H 
ATOM     33  H   LIG d   1       9.609  -3.380  -5.291  0.00  0.00     0.023 H 
ENDBRANCH  27  30
ENDBRANCH  24  27
ENDBRANCH  21  24
ENDBRANCH  18  21
ENDBRANCH  16  18
BRANCH  16  34
ATOM     34  O   LIG d   1       3.131  -5.250  -6.339  0.00  0.00    -0.388 OA
ATOM     35  H   LIG d   1       2.260  -4.688  -6.707  0.00  0.00     0.210 HD
ENDBRANCH  16  34
ENDBRANCH  13  16
ENDBRANCH   1  12
BRANCH   8  36
ATOM     36  C   LIG d   1       2.788   0.421  -6.736  0.00  0.00    -0.029 C 
ATOM     37  H   LIG d   1       2.759   1.492  -6.986  0.00  0.00     0.031 H 
ATOM     38  H   LIG d   1       1.782  -0.009  -6.852  0.00  0.00     0.031 H 
BRANCH  36  39
ATOM     39  C   LIG d   1       3.247   0.249  -5.312  0.00  0.00    -0.088 C 
ATOM     40  C   LIG d   1       2.380  -0.042  -4.374  0.00  0.00    -0.088 C 
ATOM     41  H   LIG d   1       1.316  -0.161  -4.627  0.00  0.00     0.057 H 
ATOM     42  H   LIG d   1       4.312   0.369  -5.059  0.00  0.00     0.057 H 
BRANCH  40  43
ATOM     43  C   LIG d   1       2.840  -0.214  -2.950  0.00  0.00    -0.034 C 
ATOM     44  H   LIG d   1       1.970  -0.411  -2.305  0.00  0.00     0.031 H 
ATOM     45  H   LIG d   1       3.540  -1.060  -2.890  0.00  0.00     0.031 H 
BRANCH  43  46
ATOM     46  C   LIG d   1       3.541   1.062  -2.483  0.00  0.00    -0.044 C 
ATOM     47  H   LIG d   1       3.663   1.747  -3.335  0.00  0.00     0.027 H 
ATOM     48  H   LIG d   1       2.936   1.550  -1.704  0.00  0.00     0.027 H 
BRANCH  46  49
ATOM     49  C   LIG d   1       4.917   0.709  -1.913  0.00  0.00    -0.013 C 
ATOM     50  H   LIG d   1       5.258   1.519  -1.252  0.00  0.00     0.033 H 
ATOM     51  H   LIG d   1       4.848  -0.227  -1.341  0.00  0.00     0.033 H 
BRANCH  49  52
ATOM     52  C   LIG d   1       5.900   0.537  -3.043  0.00  0.00     0.042 C 
ATOM     53  O   LIG d   1       6.227   1.491  -3.709  0.00  0.00    -0.550 OA
ATOM     54  O   LIG d   1       6.411  -0.675  -3.310  0.00  0.00    -0.550 OA
ENDBRANCH  49  52
ENDBRANCH  46  49
ENDBRANCH  43  46
ENDBRANCH  40  43
ENDBRANCH  36  39
ENDBRANCH   8  36
BRANCH   3  55
ATOM     55  O   LIG d   1       7.120  -0.023  -6.304  0.00  0.00    -0.391 OA
ATOM     56  H   LIG d   1       8.132  -0.454  -6.336  0.00  0.00     0.210 HD
ENDBRANCH   3  55
BRANCH   6  57
ATOM     57  O   LIG d   1       3.561   1.869  -8.790  0.00  0.00    -0.391 OA
ATOM     58  H   LIG d   1       3.698   2.548  -9.644  0.00  0.00     0.210 HD
ENDBRANCH   6  57
TORSDOF 16
ENDMDL
MODEL 8
REMARK VINA RESULT:      -5.6      3.223      7.872
REMARK  16 active torsions:
REMARK  status: ('A' for Active; 'I' for Inactive)
REMARK    1  A    between atoms: C_1  and  C_2 
REMARK    2  A    between atoms: C_2  and  C_3 
REMARK    3  A    between atoms: C_3  and  C_4 
REMARK    4  A    between atoms: C_4  and  C_5 
REMARK    5  A    between atoms: C_5  and  C_6 
REMARK    6  A    between atoms: C_6  and  C_8 
REMARK    7  A    between atoms: C_6  and  O_30 
REMARK    8  A    between atoms: C_9  and  C_10 
REMARK    9  A    between atoms: C_12  and  O_29 
REMARK   10  A    between atoms: C_15  and  O_28 
REMARK   11  A    between atoms: C_17  and  C_19 
REMARK   12  A    between atoms: C_19  and  C_20 
REMARK   13  A    between atoms: C_21  and  C_22 
REMARK   14  A    between atoms: C_22  and  C_23 
REMARK   15  A    between atoms: C_23  and  C_24 
REMARK   16  A    between atoms: C_24  and  C_25 
ROOT
ATOM      1  C   LIG d   1       2.758   0.168  -8.190  0.00  0.00     0.009 C 
ATOM      2  H   LIG d   1       1.701   0.389  -7.982  0.00  0.00     0.037 H 
ATOM      3  C   LIG d   1       3.568   1.449  -8.480  0.00  0.00     0.064 C 
ATOM      4  H   LIG d   1       4.541   1.499  -7.969  0.00  0.00     0.060 H 
ATOM      5  C   LIG d   1       3.643   1.509 -10.026  0.00  0.00     0.000 C 
ATOM      6  C   LIG d   1       3.816   0.020 -10.418  0.00  0.00     0.061 C 
ATOM      7  H   LIG d   1       4.859  -0.330 -10.450  0.00  0.00     0.060 H 
ATOM      8  C   LIG d   1       2.916  -0.741  -9.422  0.00  0.00    -0.003 C 
ATOM      9  H   LIG d   1       3.352  -1.712  -9.148  0.00  0.00     0.034 H 
ATOM     10  H   LIG d   1       2.715   1.946 -10.422  0.00  0.00     0.032 H 
ATOM     11  H   LIG d   1       4.499   2.130 -10.328  0.00  0.00     0.032 H 
ENDROOT
BRANCH   1  12
ATOM     12  C   LIG d   1       3.305  -0.522  -6.967  0.00  0.00    -0.080 C 
ATOM     13  C   LIG d   1       4.087  -1.565  -7.097  0.00  0.00    -0.059 C 
ATOM     14  H   LIG d   1       4.344  -1.937  -8.099  0.00  0.00     0.059 H 
ATOM     15  H   LIG d   1       3.047  -0.149  -5.964  0.00  0.00     0.057 H 
BRANCH  13  16
ATOM     16  C   LIG d   1       4.634  -2.254  -5.873  0.00  0.00     0.073 C 
ATOM     17  H   LIG d   1       5.722  -2.390  -5.963  0.00  0.00     0.064 H 
BRANCH  16  18
ATOM     18  C   LIG d   1       4.265  -1.449  -4.626  0.00  0.00    -0.023 C 
ATOM     19  H   LIG d   1       3.234  -1.076  -4.721  0.00  0.00     0.029 H 
ATOM     20  H   LIG d   1       4.954  -0.598  -4.522  0.00  0.00     0.029 H 
BRANCH  18  21
ATOM     21  C   LIG d   1       4.371  -2.345  -3.391  0.00  0.00    -0.050 C 
ATOM     22  H   LIG d   1       5.358  -2.831  -3.374  0.00  0.00     0.027 H 
ATOM     23  H   LIG d   1       3.585  -3.113  -3.426  0.00  0.00     0.027 H 
BRANCH  21  24
ATOM     24  C   LIG d   1       4.200  -1.496  -2.129  0.00  0.00    -0.053 C 
ATOM     25  H   LIG d   1       5.168  -1.409  -1.613  0.00  0.00     0.026 H 
ATOM     26  H   LIG d   1       3.470  -1.975  -1.461  0.00  0.00     0.026 H 
BRANCH  24  27
ATOM     27  C   LIG d   1       3.701  -0.102  -2.515  0.00  0.00    -0.056 C 
ATOM     28  H   LIG d   1       2.636  -0.010  -2.257  0.00  0.00     0.026 H 
ATOM     29  H   LIG d   1       3.830   0.046  -3.598  0.00  0.00     0.026 H 
BRANCH  27  30
ATOM     30  C   LIG d   1       4.504   0.956  -1.756  0.00  0.00    -0.065 C 
ATOM     31  H   LIG d   1       3.844   1.793  -1.488  0.00  0.00     0.023 H 
ATOM     32  H   LIG d   1       5.322   1.324  -2.394  0.00  0.00     0.023 H 
ATOM     33  H   LIG d   1       4.923   0.512  -0.842  0.00  0.00     0.023 H 
ENDBRANCH  27  30
ENDBRANCH  24  27
ENDBRANCH  21  24
ENDBRANCH  18  21
ENDBRANCH  16  18
BRANCH  16  34
ATOM     34  O   LIG d   1       4.074  -3.566  -5.776  0.00  0.00    -0.388 OA
ATOM     35  H   LIG d   1       3.092  -3.711  -5.303  0.00  0.00     0.210 HD
ENDBRANCH  16  34
ENDBRANCH  13  16
ENDBRANCH   1  12
BRANCH   8  36
ATOM     36  C   LIG d   1       1.549  -1.011 -10.052  0.00  0.00    -0.029 C 
ATOM     37  H   LIG d   1       0.757  -0.643  -9.383  0.00  0.00     0.031 H 
ATOM     38  H   LIG d   1       1.482  -0.491 -11.020  0.00  0.00     0.031 H 
BRANCH  36  39
ATOM     39  C   LIG d   1       1.378  -2.492 -10.266  0.00  0.00    -0.088 C 
ATOM     40  C   LIG d   1       0.829  -2.936 -11.370  0.00  0.00    -0.088 C 
ATOM     41  H   LIG d   1       0.493  -2.227 -12.141  0.00  0.00     0.057 H 
ATOM     42  H   LIG d   1       1.713  -3.202  -9.494  0.00  0.00     0.057 H 
BRANCH  40  43
ATOM     43  C   LIG d   1       0.658  -4.418 -11.584  0.00  0.00    -0.034 C 
ATOM     44  H   LIG d   1      -0.046  -4.590 -12.411  0.00  0.00     0.031 H 
ATOM     45  H   LIG d   1       1.631  -4.868 -11.829  0.00  0.00     0.031 H 
BRANCH  43  46
ATOM     46  C   LIG d   1       0.109  -5.057 -10.307  0.00  0.00    -0.044 C 
ATOM     47  H   LIG d   1       0.541  -6.061 -10.184  0.00  0.00     0.027 H 
ATOM     48  H   LIG d   1       0.376  -4.434  -9.440  0.00  0.00     0.027 H 
BRANCH  46  49
ATOM     49  C   LIG d   1      -1.414  -5.167 -10.406  0.00  0.00    -0.013 C 
ATOM     50  H   LIG d   1      -1.861  -4.167 -10.310  0.00  0.00     0.033 H 
ATOM     51  H   LIG d   1      -1.689  -5.599 -11.379  0.00  0.00     0.033 H 
BRANCH  49  52
ATOM     52  C   LIG d   1      -1.927  -6.053  -9.299  0.00  0.00     0.042 C 
ATOM     53  O   LIG d   1      -3.006  -5.833  -8.801  0.00  0.00    -0.550 OA
ATOM     54  O   LIG d   1      -1.185  -7.085  -8.867  0.00  0.00    -0.550 OA
ENDBRANCH  49  52
ENDBRANCH  46  49
ENDBRANCH  43  46
ENDBRANCH  40  43
ENDBRANCH  36  39
ENDBRANCH   8  36
BRANCH   3  55
ATOM     55  O   LIG d   1       2.888   2.597  -7.968  0.00  0.00    -0.391 OA
ATOM     56  H   LIG d   1       2.670   3.447  -8.630  0.00  0.00     0.210 HD
ENDBRANCH   3  55
BRANCH   6  57
ATOM     57  O   LIG d   1       3.375  -0.199 -11.759  0.00  0.00    -0.391 OA
ATOM     58  H   LIG d   1       4.104  -0.449 -12.544  0.00  0.00     0.210 HD
ENDBRANCH   6  57
TORSDOF 16
ENDMDL
MODEL 9
REMARK VINA RESULT:      -5.6      2.192      6.890
REMARK  16 active torsions:
REMARK  status: ('A' for Active; 'I' for Inactive)
REMARK    1  A    between atoms: C_1  and  C_2 
REMARK    2  A    between atoms: C_2  and  C_3 
REMARK    3  A    between atoms: C_3  and  C_4 
REMARK    4  A    between atoms: C_4  and  C_5 
REMARK    5  A    between atoms: C_5  and  C_6 
REMARK    6  A    between atoms: C_6  and  C_8 
REMARK    7  A    between atoms: C_6  and  O_30 
REMARK    8  A    between atoms: C_9  and  C_10 
REMARK    9  A    between atoms: C_12  and  O_29 
REMARK   10  A    between atoms: C_15  and  O_28 
REMARK   11  A    between atoms: C_17  and  C_19 
REMARK   12  A    between atoms: C_19  and  C_20 
REMARK   13  A    between atoms: C_21  and  C_22 
REMARK   14  A    between atoms: C_22  and  C_23 
REMARK   15  A    between atoms: C_23  and  C_24 
REMARK   16  A    between atoms: C_24  and  C_25 
ROOT
ATOM      1  C   LIG d   1       2.823   0.312  -8.572  0.00  0.00     0.009 C 
ATOM      2  H   LIG d   1       1.733   0.434  -8.503  0.00  0.00     0.037 H 
ATOM      3  C   LIG d   1       3.559   1.666  -8.501  0.00  0.00     0.064 C 
ATOM      4  H   LIG d   1       4.437   1.675  -7.838  0.00  0.00     0.060 H 
ATOM      5  C   LIG d   1       3.860   2.013  -9.980  0.00  0.00     0.000 C 
ATOM      6  C   LIG d   1       4.212   0.633 -10.590  0.00  0.00     0.061 C 
ATOM      7  H   LIG d   1       5.272   0.352 -10.513  0.00  0.00     0.060 H 
ATOM      8  C   LIG d   1       3.238  -0.345  -9.900  0.00  0.00    -0.003 C 
ATOM      9  H   LIG d   1       3.706  -1.325  -9.731  0.00  0.00     0.034 H 
ATOM     10  H   LIG d   1       2.968   2.465 -10.440  0.00  0.00     0.032 H 
ATOM     11  H   LIG d   1       4.697   2.725 -10.028  0.00  0.00     0.032 H 
ENDROOT
BRANCH   1  12
ATOM     12  C   LIG d   1       3.236  -0.560  -7.414  0.00  0.00    -0.080 C 
ATOM     13  C   LIG d   1       4.491  -0.607  -7.043  0.00  0.00    -0.059 C 
ATOM     14  H   LIG d   1       5.245  -0.010  -7.577  0.00  0.00     0.059 H 
ATOM     15  H   LIG d   1       2.481  -1.158  -6.879  0.00  0.00     0.057 H 
BRANCH  13  16
ATOM     16  C   LIG d   1       4.903  -1.478  -5.885  0.00  0.00     0.073 C 
ATOM     17  H   LIG d   1       5.864  -1.971  -6.098  0.00  0.00     0.064 H 
BRANCH  16  18
ATOM     18  C   LIG d   1       4.970  -0.636  -4.610  0.00  0.00    -0.023 C 
ATOM     19  H   LIG d   1       4.525   0.353  -4.800  0.00  0.00     0.029 H 
ATOM     20  H   LIG d   1       6.020  -0.513  -4.306  0.00  0.00     0.029 H 
BRANCH  18  21
ATOM     21  C   LIG d   1       4.194  -1.338  -3.494  0.00  0.00    -0.050 C 
ATOM     22  H   LIG d   1       4.869  -1.540  -2.650  0.00  0.00     0.027 H 
ATOM     23  H   LIG d   1       3.786  -2.286  -3.871  0.00  0.00     0.027 H 
BRANCH  21  24
ATOM     24  C   LIG d   1       3.048  -0.438  -3.026  0.00  0.00    -0.053 C 
ATOM     25  H   LIG d   1       2.613  -0.850  -2.103  0.00  0.00     0.026 H 
ATOM     26  H   LIG d   1       2.275  -0.392  -3.807  0.00  0.00     0.026 H 
BRANCH  24  27
ATOM     27  C   LIG d   1       3.583   0.969  -2.753  0.00  0.00    -0.056 C 
ATOM     28  H   LIG d   1       2.743   1.644  -2.535  0.00  0.00     0.026 H 
ATOM     29  H   LIG d   1       4.126   1.333  -3.638  0.00  0.00     0.026 H 
BRANCH  27  30
ATOM     30  C   LIG d   1       4.532   0.932  -1.553  0.00  0.00    -0.065 C 
ATOM     31  H   LIG d   1       4.653  -0.107  -1.215  0.00  0.00     0.023 H 
ATOM     32  H   LIG d   1       4.114   1.538  -0.736  0.00  0.00     0.023 H 
ATOM     33  H   LIG d   1       5.511   1.338  -1.848  0.00  0.00     0.023 H 
ENDBRANCH  27  30
ENDBRANCH  24  27
ENDBRANCH  21  24
ENDBRANCH  18  21
ENDBRANCH  16  18
BRANCH  16  34
ATOM     34  O   LIG d   1       3.947  -2.526  -5.714  0.00  0.00    -0.388 OA
ATOM     35  H   LIG d   1       2.905  -2.377  -6.033  0.00  0.00     0.210 HD
ENDBRANCH  16  34
ENDBRANCH  13  16
ENDBRANCH   1  12
BRANCH   8  36
ATOM     36  C   LIG d   1       2.007  -0.568 -10.781  0.00  0.00    -0.029 C 
ATOM     37  H   LIG d   1       1.130  -0.103 -10.309  0.00  0.00     0.031 H 
ATOM     38  H   LIG d   1       2.176  -0.115 -11.769  0.00  0.00     0.031 H 
BRANCH  36  39
ATOM     39  C   LIG d   1       1.767  -2.047 -10.942  0.00  0.00    -0.088 C 
ATOM     40  C   LIG d   1       2.455  -2.904 -10.229  0.00  0.00    -0.088 C 
ATOM     41  H   LIG d   1       3.208  -2.544  -9.513  0.00  0.00     0.057 H 
ATOM     42  H   LIG d   1       1.014  -2.406 -11.659  0.00  0.00     0.057 H 
BRANCH  40  43
ATOM     43  C   LIG d   1       2.214  -4.383 -10.390  0.00  0.00    -0.034 C 
ATOM     44  H   LIG d   1       1.293  -4.664  -9.860  0.00  0.00     0.031 H 
ATOM     45  H   LIG d   1       2.110  -4.624 -11.459  0.00  0.00     0.031 H 
BRANCH  43  46
ATOM     46  C   LIG d   1       3.396  -5.158  -9.806  0.00  0.00    -0.044 C 
ATOM     47  H   LIG d   1       3.116  -6.215  -9.682  0.00  0.00     0.027 H 
ATOM     48  H   LIG d   1       4.256  -5.085 -10.488  0.00  0.00     0.027 H 
BRANCH  46  49
ATOM     49  C   LIG d   1       3.772  -4.568  -8.446  0.00  0.00    -0.013 C 
ATOM     50  H   LIG d   1       4.797  -4.172  -8.489  0.00  0.00     0.033 H 
ATOM     51  H   LIG d   1       3.076  -3.755  -8.193  0.00  0.00     0.033 H 
BRANCH  49  52
ATOM     52  C   LIG d   1       3.694  -5.643  -7.392  0.00  0.00     0.042 C 
ATOM     53  O   LIG d   1       3.837  -6.802  -7.700  0.00  0.00    -0.550 OA
ATOM     54  O   LIG d   1       3.464  -5.312  -6.111  0.00  0.00    -0.550 OA
ENDBRANCH  49  52
ENDBRANCH  46  49
ENDBRANCH  43  46
ENDBRANCH  40  43
ENDBRANCH  36  39
ENDBRANCH   8  36
BRANCH   3  55
ATOM     55  O   LIG d   1       2.718   2.662  -7.915  0.00  0.00    -0.391 OA
ATOM     56  H   LIG d   1       3.119   3.336  -7.143  0.00  0.00     0.210 HD
ENDBRANCH   3  55
BRANCH   6  57
ATOM     57  O   LIG d   1       3.996   0.641 -12.003  0.00  0.00    -0.391 OA
ATOM     58  H   LIG d   1       3.279   1.349 -12.445  0.00  0.00     0.210 HD
ENDBRANCH   6  57
TORSDOF 16
ENDMDL
