MODEL 1
REMARK VINA RESULT:      -7.3      0.000      0.000
REMARK  6 active torsions:
REMARK  status: ('A' for Active; 'I' for Inactive)
REMARK    1  A    between atoms: C_1  and  O_2 
REMARK    2  A    between atoms: O_2  and  C_3 
REMARK    3  A    between atoms: C_6  and  C_11 
REMARK    4  A    between atoms: C_7  and  O_9 
REMARK    5  A    between atoms: O_9  and  C_10 
REMARK    6  A    between atoms: N_23  and  C_26 
ROOT
ATOM      1  C   LIG d   1       7.177   0.381  -5.032  0.00  0.00     0.071 C 
ATOM      2  C   LIG d   1       7.714   0.774  -6.233  0.00  0.00    -0.036 C 
ATOM      3  C   LIG d   1       8.460   1.980  -6.272  0.00  0.00     0.019 A 
ATOM      4  C   LIG d   1       8.860   2.532  -7.498  0.00  0.00    -0.048 A 
ATOM      5  C   LIG d   1       9.543   3.711  -7.521  0.00  0.00    -0.019 A 
ATOM      6  C   LIG d   1       9.854   4.378  -6.334  0.00  0.00     0.130 A 
ATOM      7  C   LIG d   1       9.482   3.840  -5.114  0.00  0.00     0.051 A 
ATOM      8  C   LIG d   1       8.796   2.636  -5.073  0.00  0.00     0.147 A 
ATOM      9  O   LIG d   1       8.466   2.077  -3.882  0.00  0.00    -0.421 OA
ATOM     10  C   LIG d   1       7.380   1.265  -3.872  0.00  0.00     0.345 C 
ATOM     11  O   LIG d   1       6.602   1.264  -2.937  0.00  0.00    -0.244 OA
ATOM     12  C   LIG d   1       9.811   4.550  -3.826  0.00  0.00     0.034 C 
ATOM     13  N   LIG d   1      10.862   5.548  -4.066  0.00  0.00    -0.261 N 
ATOM     14  C   LIG d   1      10.516   6.379  -5.231  0.00  0.00     0.144 C 
ATOM     15  O   LIG d   1      10.530   5.555  -6.398  0.00  0.00    -0.476 OA
ATOM     16  H   LIG d   1       7.573   0.180  -7.124  0.00  0.00     0.063 H 
ATOM     17  H   LIG d   1       8.629   2.021  -8.421  0.00  0.00     0.063 H 
ATOM     18  H   LIG d   1       9.845   4.134  -8.467  0.00  0.00     0.065 H 
ATOM     19  H   LIG d   1       8.918   5.048  -3.448  0.00  0.00     0.048 H 
ATOM     20  H   LIG d   1      10.160   3.824  -3.091  0.00  0.00     0.048 H 
ATOM     21  H   LIG d   1       9.522   6.804  -5.094  0.00  0.00     0.087 H 
ATOM     22  H   LIG d   1      11.248   7.180  -5.339  0.00  0.00     0.087 H 
ENDROOT
BRANCH   1  23
ATOM     23  C   LIG d   1       6.415  -0.883  -4.909  0.00  0.00     0.031 A 
ATOM     24  C   LIG d   1       7.085  -2.083  -4.676  0.00  0.00    -0.047 A 
ATOM     25  C   LIG d   1       6.373  -3.259  -4.562  0.00  0.00    -0.019 A 
ATOM     26  H   LIG d   1       8.161  -2.093  -4.586  0.00  0.00     0.063 H 
ATOM     27  C   LIG d   1       4.989  -3.251  -4.677  0.00  0.00     0.124 A 
ATOM     28  H   LIG d   1       6.893  -4.188  -4.382  0.00  0.00     0.065 H 
ATOM     29  C   LIG d   1       4.315  -2.062  -4.914  0.00  0.00     0.022 A 
ATOM     30  C   LIG d   1       5.020  -0.877  -5.025  0.00  0.00     0.132 A 
ATOM     31  H   LIG d   1       3.239  -2.061  -5.006  0.00  0.00     0.069 H 
BRANCH  27  32
ATOM     32  O   LIG d   1       4.293  -4.413  -4.562  0.00  0.00    -0.495 OA
BRANCH  32  33
ATOM     33  C   LIG d   1       4.668  -5.482  -5.433  0.00  0.00     0.079 C 
ATOM     34  H   LIG d   1       5.422  -6.100  -4.946  0.00  0.00     0.066 H 
ATOM     35  H   LIG d   1       3.792  -6.090  -5.660  0.00  0.00     0.066 H 
ATOM     36  H   LIG d   1       5.075  -5.072  -6.357  0.00  0.00     0.066 H 
ENDBRANCH  32  33
ENDBRANCH  27  32
BRANCH  30  37
ATOM     37  O   LIG d   1       4.362   0.290  -5.251  0.00  0.00    -0.494 OA
BRANCH  37  38
ATOM     38  C   LIG d   1       2.949   0.290  -5.031  0.00  0.00     0.079 C 
ATOM     39  H   LIG d   1       2.589   1.317  -4.980  0.00  0.00     0.066 H 
ATOM     40  H   LIG d   1       2.454  -0.228  -5.853  0.00  0.00     0.066 H 
ATOM     41  H   LIG d   1       2.727  -0.220  -4.093  0.00  0.00     0.066 H 
ENDBRANCH  37  38
ENDBRANCH  30  37
ENDBRANCH   1  23
BRANCH  13  42
ATOM     42  C   LIG d   1      11.083   6.378  -2.874  0.00  0.00     0.035 C 
ATOM     43  H   LIG d   1      12.116   6.267  -2.542  0.00  0.00     0.048 H 
ATOM     44  C   LIG d   1      10.129   5.920  -1.745  0.00  0.00     0.081 C 
ATOM     45  S   LIG d   1       9.803   7.483  -0.833  0.00  0.00    -0.029 S 
ATOM     46  H   LIG d   1       9.207   5.514  -2.160  0.00  0.00     0.051 H 
ATOM     47  H   LIG d   1      10.617   5.191  -1.098  0.00  0.00     0.051 H 
ATOM     48  C   LIG d   1      10.748   8.658  -1.892  0.00  0.00     0.067 C 
ATOM     49  O   LIG d   1      10.421   7.411   0.445  0.00  0.00    -0.174 OA
ATOM     50  O   LIG d   1       8.418   7.790  -0.923  0.00  0.00    -0.174 OA
ATOM     51  C   LIG d   1      10.815   7.851  -3.220  0.00  0.00    -0.016 C 
ATOM     52  H   LIG d   1      11.745   8.837  -1.489  0.00  0.00     0.050 H 
ATOM     53  H   LIG d   1      10.204   9.593  -2.025  0.00  0.00     0.050 H 
ATOM     54  H   LIG d   1      11.622   8.236  -3.844  0.00  0.00     0.030 H 
ATOM     55  H   LIG d   1       9.867   7.939  -3.752  0.00  0.00     0.030 H 
ENDBRANCH  13  42
TORSDOF 6
ENDMDL
MODEL 2
REMARK VINA RESULT:      -6.7      1.179      1.986
REMARK  6 active torsions:
REMARK  status: ('A' for Active; 'I' for Inactive)
REMARK    1  A    between atoms: C_1  and  O_2 
REMARK    2  A    between atoms: O_2  and  C_3 
REMARK    3  A    between atoms: C_6  and  C_11 
REMARK    4  A    between atoms: C_7  and  O_9 
REMARK    5  A    between atoms: O_9  and  C_10 
REMARK    6  A    between atoms: N_23  and  C_26 
ROOT
ATOM      1  C   LIG d   1       7.287   0.648  -4.960  0.00  0.00     0.071 C 
ATOM      2  C   LIG d   1       7.897   1.018  -6.133  0.00  0.00    -0.036 C 
ATOM      3  C   LIG d   1       8.637   2.228  -6.152  0.00  0.00     0.019 A 
ATOM      4  C   LIG d   1       9.111   2.755  -7.363  0.00  0.00    -0.048 A 
ATOM      5  C   LIG d   1       9.787   3.938  -7.369  0.00  0.00    -0.019 A 
ATOM      6  C   LIG d   1      10.018   4.633  -6.180  0.00  0.00     0.130 A 
ATOM      7  C   LIG d   1       9.573   4.120  -4.974  0.00  0.00     0.051 A 
ATOM      8  C   LIG d   1       8.892   2.912  -4.949  0.00  0.00     0.147 A 
ATOM      9  O   LIG d   1       8.490   2.377  -3.769  0.00  0.00    -0.421 OA
ATOM     10  C   LIG d   1       7.411   1.558  -3.810  0.00  0.00     0.345 C 
ATOM     11  O   LIG d   1       6.575   1.572  -2.925  0.00  0.00    -0.244 OA
ATOM     12  C   LIG d   1       9.815   4.861  -3.684  0.00  0.00     0.034 C 
ATOM     13  N   LIG d   1      10.874   5.860  -3.879  0.00  0.00    -0.261 N 
ATOM     14  C   LIG d   1      10.598   6.663  -5.082  0.00  0.00     0.144 C 
ATOM     15  O   LIG d   1      10.690   5.813  -6.227  0.00  0.00    -0.476 OA
ATOM     16  H   LIG d   1       7.815   0.403  -7.018  0.00  0.00     0.063 H 
ATOM     17  H   LIG d   1       8.941   2.223  -8.287  0.00  0.00     0.063 H 
ATOM     18  H   LIG d   1      10.146   4.343  -8.303  0.00  0.00     0.065 H 
ATOM     19  H   LIG d   1       8.897   5.360  -3.375  0.00  0.00     0.048 H 
ATOM     20  H   LIG d   1      10.121   4.154  -2.912  0.00  0.00     0.048 H 
ATOM     21  H   LIG d   1       9.595   7.083  -5.018  0.00  0.00     0.087 H 
ATOM     22  H   LIG d   1      11.330   7.467  -5.162  0.00  0.00     0.087 H 
ENDROOT
BRANCH   1  23
ATOM     23  C   LIG d   1       6.525  -0.619  -4.857  0.00  0.00     0.031 A 
ATOM     24  C   LIG d   1       5.141  -0.618  -5.025  0.00  0.00    -0.047 A 
ATOM     25  C   LIG d   1       4.434  -1.798  -4.928  0.00  0.00    -0.019 A 
ATOM     26  H   LIG d   1       4.623   0.307  -5.230  0.00  0.00     0.063 H 
ATOM     27  C   LIG d   1       5.098  -2.989  -4.665  0.00  0.00     0.124 A 
ATOM     28  H   LIG d   1       3.363  -1.796  -5.059  0.00  0.00     0.065 H 
ATOM     29  C   LIG d   1       6.473  -2.999  -4.490  0.00  0.00     0.022 A 
ATOM     30  C   LIG d   1       7.192  -1.820  -4.590  0.00  0.00     0.132 A 
ATOM     31  H   LIG d   1       6.985  -3.926  -4.282  0.00  0.00     0.069 H 
BRANCH  27  32
ATOM     32  O   LIG d   1       4.396  -4.149  -4.572  0.00  0.00    -0.495 OA
BRANCH  32  33
ATOM     33  C   LIG d   1       4.747  -5.195  -5.481  0.00  0.00     0.079 C 
ATOM     34  H   LIG d   1       5.241  -5.999  -4.937  0.00  0.00     0.066 H 
ATOM     35  H   LIG d   1       3.846  -5.579  -5.958  0.00  0.00     0.066 H 
ATOM     36  H   LIG d   1       5.422  -4.802  -6.242  0.00  0.00     0.066 H 
ENDBRANCH  32  33
ENDBRANCH  27  32
BRANCH  30  37
ATOM     37  O   LIG d   1       8.541  -1.828  -4.426  0.00  0.00    -0.494 OA
BRANCH  37  38
ATOM     38  C   LIG d   1       9.220  -3.056  -4.696  0.00  0.00     0.079 C 
ATOM     39  H   LIG d   1       9.957  -2.899  -5.483  0.00  0.00     0.066 H 
ATOM     40  H   LIG d   1       9.722  -3.399  -3.791  0.00  0.00     0.066 H 
ATOM     41  H   LIG d   1       8.498  -3.807  -5.018  0.00  0.00     0.066 H 
ENDBRANCH  37  38
ENDBRANCH  30  37
ENDBRANCH   1  23
BRANCH  13  42
ATOM     42  C   LIG d   1      11.014   6.718  -2.694  0.00  0.00     0.035 C 
ATOM     43  H   LIG d   1      11.531   7.637  -2.972  0.00  0.00     0.048 H 
ATOM     44  C   LIG d   1      11.835   5.973  -1.615  0.00  0.00     0.081 C 
ATOM     45  S   LIG d   1      11.123   6.620  -0.048  0.00  0.00    -0.029 S 
ATOM     46  H   LIG d   1      11.686   4.896  -1.691  0.00  0.00     0.051 H 
ATOM     47  H   LIG d   1      12.892   6.224  -1.691  0.00  0.00     0.051 H 
ATOM     48  C   LIG d   1       9.796   7.697  -0.737  0.00  0.00     0.067 C 
ATOM     49  O   LIG d   1      12.092   7.435   0.598  0.00  0.00    -0.174 OA
ATOM     50  O   LIG d   1      10.524   5.547   0.666  0.00  0.00    -0.174 OA
ATOM     51  C   LIG d   1       9.620   7.064  -2.146  0.00  0.00    -0.016 C 
ATOM     52  H   LIG d   1      10.128   8.733  -0.809  0.00  0.00     0.050 H 
ATOM     53  H   LIG d   1       8.880   7.618  -0.152  0.00  0.00     0.050 H 
ATOM     54  H   LIG d   1       9.129   7.775  -2.811  0.00  0.00     0.030 H 
ATOM     55  H   LIG d   1       9.019   6.158  -2.070  0.00  0.00     0.030 H 
ENDBRANCH  13  42
TORSDOF 6
ENDMDL
MODEL 3
REMARK VINA RESULT:      -6.5      3.038      9.362
REMARK  6 active torsions:
REMARK  status: ('A' for Active; 'I' for Inactive)
REMARK    1  A    between atoms: C_1  and  O_2 
REMARK    2  A    between atoms: O_2  and  C_3 
REMARK    3  A    between atoms: C_6  and  C_11 
REMARK    4  A    between atoms: C_7  and  O_9 
REMARK    5  A    between atoms: O_9  and  C_10 
REMARK    6  A    between atoms: N_23  and  C_26 
ROOT
ATOM      1  C   LIG d   1      11.012   5.514  -3.565  0.00  0.00     0.071 C 
ATOM      2  C   LIG d   1      10.834   5.336  -4.915  0.00  0.00    -0.036 C 
ATOM      3  C   LIG d   1      10.025   4.254  -5.348  0.00  0.00     0.019 A 
ATOM      4  C   LIG d   1       9.970   3.905  -6.705  0.00  0.00    -0.048 A 
ATOM      5  C   LIG d   1       9.218   2.838  -7.101  0.00  0.00    -0.019 A 
ATOM      6  C   LIG d   1       8.497   2.090  -6.169  0.00  0.00     0.130 A 
ATOM      7  C   LIG d   1       8.526   2.431  -4.828  0.00  0.00     0.051 A 
ATOM      8  C   LIG d   1       9.277   3.519  -4.410  0.00  0.00     0.147 A 
ATOM      9  O   LIG d   1       9.278   3.889  -3.105  0.00  0.00    -0.421 OA
ATOM     10  C   LIG d   1      10.380   4.541  -2.660  0.00  0.00     0.345 C 
ATOM     11  O   LIG d   1      10.831   4.331  -1.548  0.00  0.00    -0.244 OA
ATOM     12  C   LIG d   1       7.752   1.631  -3.811  0.00  0.00     0.034 C 
ATOM     13  N   LIG d   1       6.736   0.818  -4.492  0.00  0.00    -0.261 N 
ATOM     14  C   LIG d   1       7.341   0.085  -5.616  0.00  0.00     0.144 C 
ATOM     15  O   LIG d   1       7.764   1.030  -6.601  0.00  0.00    -0.476 OA
ATOM     16  H   LIG d   1      11.298   6.002  -5.628  0.00  0.00     0.063 H 
ATOM     17  H   LIG d   1      10.521   4.480  -7.435  0.00  0.00     0.063 H 
ATOM     18  H   LIG d   1       9.182   2.570  -8.146  0.00  0.00     0.065 H 
ATOM     19  H   LIG d   1       8.435   0.977  -3.268  0.00  0.00     0.048 H 
ATOM     20  H   LIG d   1       7.266   2.309  -3.110  0.00  0.00     0.048 H 
ATOM     21  H   LIG d   1       8.201  -0.483  -5.261  0.00  0.00     0.087 H 
ATOM     22  H   LIG d   1       6.606  -0.593  -6.050  0.00  0.00     0.087 H 
ENDROOT
BRANCH   1  23
ATOM     23  C   LIG d   1      11.816   6.641  -3.039  0.00  0.00     0.031 A 
ATOM     24  C   LIG d   1      13.208   6.590  -3.089  0.00  0.00    -0.047 A 
ATOM     25  C   LIG d   1      13.955   7.640  -2.599  0.00  0.00    -0.019 A 
ATOM     26  H   LIG d   1      13.702   5.728  -3.512  0.00  0.00     0.063 H 
ATOM     27  C   LIG d   1      13.324   8.752  -2.055  0.00  0.00     0.124 A 
ATOM     28  H   LIG d   1      15.033   7.600  -2.638  0.00  0.00     0.065 H 
ATOM     29  C   LIG d   1      11.940   8.809  -1.996  0.00  0.00     0.022 A 
ATOM     30  C   LIG d   1      11.182   7.762  -2.490  0.00  0.00     0.132 A 
ATOM     31  H   LIG d   1      11.452   9.673  -1.568  0.00  0.00     0.069 H 
BRANCH  27  32
ATOM     32  O   LIG d   1      14.065   9.785  -1.574  0.00  0.00    -0.495 OA
BRANCH  32  33
ATOM     33  C   LIG d   1      13.437  10.647  -0.623  0.00  0.00     0.079 C 
ATOM     34  H   LIG d   1      12.740  10.071  -0.016  0.00  0.00     0.066 H 
ATOM     35  H   LIG d   1      14.196  11.092   0.020  0.00  0.00     0.066 H 
ATOM     36  H   LIG d   1      12.897  11.434  -1.149  0.00  0.00     0.066 H 
ENDBRANCH  32  33
ENDBRANCH  27  32
BRANCH  30  37
ATOM     37  O   LIG d   1       9.825   7.818  -2.438  0.00  0.00    -0.494 OA
BRANCH  37  38
ATOM     38  C   LIG d   1       9.229   7.914  -1.143  0.00  0.00     0.079 C 
ATOM     39  H   LIG d   1       8.723   6.979  -0.904  0.00  0.00     0.066 H 
ATOM     40  H   LIG d   1      10.004   8.108  -0.400  0.00  0.00     0.066 H 
ATOM     41  H   LIG d   1       8.506   8.731  -1.135  0.00  0.00     0.066 H 
ENDBRANCH  37  38
ENDBRANCH  30  37
ENDBRANCH   1  23
BRANCH  13  42
ATOM     42  C   LIG d   1       6.082  -0.104  -3.553  0.00  0.00     0.035 C 
ATOM     43  H   LIG d   1       6.837  -0.731  -3.077  0.00  0.00     0.048 H 
ATOM     44  C   LIG d   1       5.082  -0.999  -4.323  0.00  0.00     0.081 C 
ATOM     45  S   LIG d   1       3.767  -1.303  -3.075  0.00  0.00    -0.029 S 
ATOM     46  H   LIG d   1       4.680  -0.473  -5.188  0.00  0.00     0.051 H 
ATOM     47  H   LIG d   1       5.552  -1.935  -4.623  0.00  0.00     0.051 H 
ATOM     48  C   LIG d   1       4.412  -0.267  -1.694  0.00  0.00     0.067 C 
ATOM     49  O   LIG d   1       3.805  -2.669  -2.686  0.00  0.00    -0.174 OA
ATOM     50  O   LIG d   1       2.547  -0.743  -3.542  0.00  0.00    -0.174 OA
ATOM     51  C   LIG d   1       5.339   0.704  -2.477  0.00  0.00    -0.016 C 
ATOM     52  H   LIG d   1       4.980  -0.868  -0.983  0.00  0.00     0.050 H 
ATOM     53  H   LIG d   1       3.606   0.272  -1.196  0.00  0.00     0.050 H 
ATOM     54  H   LIG d   1       6.059   1.157  -1.794  0.00  0.00     0.030 H 
ATOM     55  H   LIG d   1       4.741   1.484  -2.949  0.00  0.00     0.030 H 
ENDBRANCH  13  42
TORSDOF 6
ENDMDL
MODEL 4
REMARK VINA RESULT:      -6.4      5.665      9.322
REMARK  6 active torsions:
REMARK  status: ('A' for Active; 'I' for Inactive)
REMARK    1  A    between atoms: C_1  and  O_2 
REMARK    2  A    between atoms: O_2  and  C_3 
REMARK    3  A    between atoms: C_6  and  C_11 
REMARK    4  A    between atoms: C_7  and  O_9 
REMARK    5  A    between atoms: O_9  and  C_10 
REMARK    6  A    between atoms: N_23  and  C_26 
ROOT
ATOM      1  C   LIG d   1       5.683  -8.287  -6.248  0.00  0.00     0.071 C 
ATOM      2  C   LIG d   1       6.978  -8.017  -5.879  0.00  0.00    -0.036 C 
ATOM      3  C   LIG d   1       7.301  -6.693  -5.485  0.00  0.00     0.019 A 
ATOM      4  C   LIG d   1       8.638  -6.314  -5.291  0.00  0.00    -0.048 A 
ATOM      5  C   LIG d   1       8.936  -5.028  -4.951  0.00  0.00    -0.019 A 
ATOM      6  C   LIG d   1       7.922  -4.082  -4.787  0.00  0.00     0.130 A 
ATOM      7  C   LIG d   1       6.597  -4.442  -4.957  0.00  0.00     0.051 A 
ATOM      8  C   LIG d   1       6.276  -5.748  -5.294  0.00  0.00     0.147 A 
ATOM      9  O   LIG d   1       4.979  -6.124  -5.420  0.00  0.00    -0.421 OA
ATOM     10  C   LIG d   1       4.727  -7.168  -6.247  0.00  0.00     0.345 C 
ATOM     11  O   LIG d   1       3.742  -7.181  -6.963  0.00  0.00    -0.244 OA
ATOM     12  C   LIG d   1       5.493  -3.430  -4.785  0.00  0.00     0.034 C 
ATOM     13  N   LIG d   1       6.003  -2.265  -4.048  0.00  0.00    -0.261 N 
ATOM     14  C   LIG d   1       7.265  -1.799  -4.645  0.00  0.00     0.144 C 
ATOM     15  O   LIG d   1       8.259  -2.808  -4.453  0.00  0.00    -0.476 OA
ATOM     16  H   LIG d   1       7.730  -8.793  -5.888  0.00  0.00     0.063 H 
ATOM     17  H   LIG d   1       9.429  -7.040  -5.411  0.00  0.00     0.063 H 
ATOM     18  H   LIG d   1       9.966  -4.739  -4.807  0.00  0.00     0.065 H 
ATOM     19  H   LIG d   1       5.137  -3.112  -5.765  0.00  0.00     0.048 H 
ATOM     20  H   LIG d   1       4.672  -3.881  -4.228  0.00  0.00     0.048 H 
ATOM     21  H   LIG d   1       7.122  -1.624  -5.712  0.00  0.00     0.087 H 
ATOM     22  H   LIG d   1       7.582  -0.876  -4.159  0.00  0.00     0.087 H 
ENDROOT
BRANCH   1  23
ATOM     23  C   LIG d   1       5.265  -9.653  -6.639  0.00  0.00     0.031 A 
ATOM     24  C   LIG d   1       5.700 -10.198  -7.846  0.00  0.00    -0.047 A 
ATOM     25  C   LIG d   1       5.309 -11.470  -8.209  0.00  0.00    -0.019 A 
ATOM     26  H   LIG d   1       6.342  -9.625  -8.498  0.00  0.00     0.063 H 
ATOM     27  C   LIG d   1       4.484 -12.211  -7.373  0.00  0.00     0.124 A 
ATOM     28  H   LIG d   1       5.647 -11.892  -9.143  0.00  0.00     0.065 H 
ATOM     29  C   LIG d   1       4.042 -11.675  -6.173  0.00  0.00     0.022 A 
ATOM     30  C   LIG d   1       4.432 -10.401  -5.799  0.00  0.00     0.132 A 
ATOM     31  H   LIG d   1       3.397 -12.253  -5.528  0.00  0.00     0.069 H 
BRANCH  27  32
ATOM     32  O   LIG d   1       4.103 -13.465  -7.735  0.00  0.00    -0.495 OA
BRANCH  32  33
ATOM     33  C   LIG d   1       3.051 -14.068  -6.978  0.00  0.00     0.079 C 
ATOM     34  H   LIG d   1       2.447 -14.696  -7.631  0.00  0.00     0.066 H 
ATOM     35  H   LIG d   1       3.480 -14.677  -6.183  0.00  0.00     0.066 H 
ATOM     36  H   LIG d   1       2.426 -13.289  -6.542  0.00  0.00     0.066 H 
ENDBRANCH  32  33
ENDBRANCH  27  32
BRANCH  30  37
ATOM     37  O   LIG d   1       4.006  -9.875  -4.621  0.00  0.00    -0.494 OA
BRANCH  37  38
ATOM     38  C   LIG d   1       3.631 -10.799  -3.597  0.00  0.00     0.079 C 
ATOM     39  H   LIG d   1       2.903 -10.332  -2.933  0.00  0.00     0.066 H 
ATOM     40  H   LIG d   1       3.190 -11.686  -4.052  0.00  0.00     0.066 H 
ATOM     41  H   LIG d   1       4.514 -11.085  -3.024  0.00  0.00     0.066 H 
ENDBRANCH  37  38
ENDBRANCH  30  37
ENDBRANCH   1  23
BRANCH  13  42
ATOM     42  C   LIG d   1       5.006  -1.185  -4.015  0.00  0.00     0.035 C 
ATOM     43  H   LIG d   1       4.595  -1.043  -5.014  0.00  0.00     0.048 H 
ATOM     44  C   LIG d   1       5.683   0.125  -3.545  0.00  0.00     0.081 C 
ATOM     45  S   LIG d   1       4.324   0.984  -2.654  0.00  0.00    -0.029 S 
ATOM     46  H   LIG d   1       6.512  -0.089  -2.872  0.00  0.00     0.051 H 
ATOM     47  H   LIG d   1       6.017   0.714  -4.398  0.00  0.00     0.051 H 
ATOM     48  C   LIG d   1       3.009  -0.299  -2.791  0.00  0.00     0.067 C 
ATOM     49  O   LIG d   1       3.933   2.129  -3.400  0.00  0.00    -0.174 OA
ATOM     50  O   LIG d   1       4.687   1.130  -1.288  0.00  0.00    -0.174 OA
ATOM     51  C   LIG d   1       3.874  -1.566  -3.047  0.00  0.00    -0.016 C 
ATOM     52  H   LIG d   1       2.347  -0.097  -3.634  0.00  0.00     0.050 H 
ATOM     53  H   LIG d   1       2.445  -0.388  -1.862  0.00  0.00     0.050 H 
ATOM     54  H   LIG d   1       3.258  -2.349  -3.490  0.00  0.00     0.030 H 
ATOM     55  H   LIG d   1       4.296  -1.920  -2.106  0.00  0.00     0.030 H 
ENDBRANCH  13  42
TORSDOF 6
ENDMDL
MODEL 5
REMARK VINA RESULT:      -6.4     12.132     14.477
REMARK  6 active torsions:
REMARK  status: ('A' for Active; 'I' for Inactive)
REMARK    1  A    between atoms: C_1  and  O_2 
REMARK    2  A    between atoms: O_2  and  C_3 
REMARK    3  A    between atoms: C_6  and  C_11 
REMARK    4  A    between atoms: C_7  and  O_9 
REMARK    5  A    between atoms: O_9  and  C_10 
REMARK    6  A    between atoms: N_23  and  C_26 
ROOT
ATOM      1  C   LIG d   1       6.956 -10.253  -2.278  0.00  0.00     0.071 C 
ATOM      2  C   LIG d   1       7.753  -9.209  -2.676  0.00  0.00    -0.036 C 
ATOM      3  C   LIG d   1       8.878  -8.880  -1.877  0.00  0.00     0.019 A 
ATOM      4  C   LIG d   1       9.609  -7.708  -2.123  0.00  0.00    -0.048 A 
ATOM      5  C   LIG d   1      10.663  -7.386  -1.322  0.00  0.00    -0.019 A 
ATOM      6  C   LIG d   1      11.030  -8.214  -0.259  0.00  0.00     0.130 A 
ATOM      7  C   LIG d   1      10.332  -9.383  -0.012  0.00  0.00     0.051 A 
ATOM      8  C   LIG d   1       9.262  -9.731  -0.824  0.00  0.00     0.147 A 
ATOM      9  O   LIG d   1       8.598 -10.896  -0.620  0.00  0.00    -0.421 OA
ATOM     10  C   LIG d   1       7.304 -10.935  -1.020  0.00  0.00     0.345 C 
ATOM     11  O   LIG d   1       6.459 -11.517  -0.365  0.00  0.00    -0.244 OA
ATOM     12  C   LIG d   1      10.716 -10.285   1.133  0.00  0.00     0.034 C 
ATOM     13  N   LIG d   1      12.076  -9.959   1.583  0.00  0.00    -0.261 N 
ATOM     14  C   LIG d   1      12.208  -8.507   1.788  0.00  0.00     0.144 C 
ATOM     15  O   LIG d   1      12.083  -7.856   0.521  0.00  0.00    -0.476 OA
ATOM     16  H   LIG d   1       7.530  -8.653  -3.576  0.00  0.00     0.063 H 
ATOM     17  H   LIG d   1       9.336  -7.063  -2.945  0.00  0.00     0.063 H 
ATOM     18  H   LIG d   1      11.220  -6.481  -1.511  0.00  0.00     0.065 H 
ATOM     19  H   LIG d   1      10.017 -10.143   1.957  0.00  0.00     0.048 H 
ATOM     20  H   LIG d   1      10.682 -11.324   0.803  0.00  0.00     0.048 H 
ATOM     21  H   LIG d   1      11.422  -8.160   2.457  0.00  0.00     0.087 H 
ATOM     22  H   LIG d   1      13.185  -8.286   2.219  0.00  0.00     0.087 H 
ENDROOT
BRANCH   1  23
ATOM     23  C   LIG d   1       5.784 -10.674  -3.079  0.00  0.00     0.031 A 
ATOM     24  C   LIG d   1       4.511 -10.207  -2.756  0.00  0.00    -0.047 A 
ATOM     25  C   LIG d   1       3.421 -10.600  -3.503  0.00  0.00    -0.019 A 
ATOM     26  H   LIG d   1       4.378  -9.537  -1.919  0.00  0.00     0.063 H 
ATOM     27  C   LIG d   1       3.588 -11.461  -4.581  0.00  0.00     0.124 A 
ATOM     28  H   LIG d   1       2.436 -10.238  -3.252  0.00  0.00     0.065 H 
ATOM     29  C   LIG d   1       4.850 -11.935  -4.907  0.00  0.00     0.022 A 
ATOM     30  C   LIG d   1       5.950 -11.542  -4.165  0.00  0.00     0.132 A 
ATOM     31  H   LIG d   1       4.975 -12.608  -5.743  0.00  0.00     0.069 H 
BRANCH  27  32
ATOM     32  O   LIG d   1       2.510 -11.844  -5.315  0.00  0.00    -0.495 OA
BRANCH  32  33
ATOM     33  C   LIG d   1       2.731 -12.833  -6.323  0.00  0.00     0.079 C 
ATOM     34  H   LIG d   1       3.617 -13.415  -6.073  0.00  0.00     0.066 H 
ATOM     35  H   LIG d   1       1.866 -13.493  -6.379  0.00  0.00     0.066 H 
ATOM     36  H   LIG d   1       2.877 -12.343  -7.286  0.00  0.00     0.066 H 
ENDBRANCH  32  33
ENDBRANCH  27  32
BRANCH  30  37
ATOM     37  O   LIG d   1       7.188 -12.001  -4.486  0.00  0.00    -0.494 OA
BRANCH  37  38
ATOM     38  C   LIG d   1       7.730 -11.581  -5.740  0.00  0.00     0.079 C 
ATOM     39  H   LIG d   1       8.009 -10.529  -5.682  0.00  0.00     0.066 H 
ATOM     40  H   LIG d   1       8.612 -12.178  -5.972  0.00  0.00     0.066 H 
ATOM     41  H   LIG d   1       6.983 -11.717  -6.523  0.00  0.00     0.066 H 
ENDBRANCH  37  38
ENDBRANCH  30  37
ENDBRANCH   1  23
BRANCH  13  42
ATOM     42  C   LIG d   1      12.417 -10.697   2.807  0.00  0.00     0.035 C 
ATOM     43  H   LIG d   1      13.114 -10.107   3.403  0.00  0.00     0.048 H 
ATOM     44  C   LIG d   1      13.077 -12.044   2.428  0.00  0.00     0.081 C 
ATOM     45  S   LIG d   1      12.548 -13.152   3.796  0.00  0.00    -0.029 S 
ATOM     46  H   LIG d   1      12.700 -12.403   1.471  0.00  0.00     0.051 H 
ATOM     47  H   LIG d   1      14.162 -11.950   2.407  0.00  0.00     0.051 H 
ATOM     48  C   LIG d   1      11.471 -11.988   4.733  0.00  0.00     0.067 C 
ATOM     49  O   LIG d   1      13.679 -13.479   4.592  0.00  0.00    -0.174 OA
ATOM     50  O   LIG d   1      11.745 -14.196   3.261  0.00  0.00    -0.174 OA
ATOM     51  C   LIG d   1      11.139 -10.951   3.622  0.00  0.00    -0.016 C 
ATOM     52  H   LIG d   1      12.015 -11.524   5.556  0.00  0.00     0.050 H 
ATOM     53  H   LIG d   1      10.569 -12.485   5.091  0.00  0.00     0.050 H 
ATOM     54  H   LIG d   1      10.800 -10.020   4.077  0.00  0.00     0.030 H 
ATOM     55  H   LIG d   1      10.359 -11.347   2.971  0.00  0.00     0.030 H 
ENDBRANCH  13  42
TORSDOF 6
ENDMDL
MODEL 6
REMARK VINA RESULT:      -6.2      3.116     10.335
REMARK  6 active torsions:
REMARK  status: ('A' for Active; 'I' for Inactive)
REMARK    1  A    between atoms: C_1  and  O_2 
REMARK    2  A    between atoms: O_2  and  C_3 
REMARK    3  A    between atoms: C_6  and  C_11 
REMARK    4  A    between atoms: C_7  and  O_9 
REMARK    5  A    between atoms: O_9  and  C_10 
REMARK    6  A    between atoms: N_23  and  C_26 
ROOT
ATOM      1  C   LIG d   1      10.874   8.081  -1.248  0.00  0.00     0.071 C 
ATOM      2  C   LIG d   1      12.057   7.473  -1.588  0.00  0.00    -0.036 C 
ATOM      3  C   LIG d   1      12.001   6.222  -2.254  0.00  0.00     0.019 A 
ATOM      4  C   LIG d   1      13.166   5.464  -2.447  0.00  0.00    -0.048 A 
ATOM      5  C   LIG d   1      13.089   4.246  -3.054  0.00  0.00    -0.019 A 
ATOM      6  C   LIG d   1      11.863   3.744  -3.493  0.00  0.00     0.130 A 
ATOM      7  C   LIG d   1      10.706   4.485  -3.327  0.00  0.00     0.051 A 
ATOM      8  C   LIG d   1      10.767   5.731  -2.720  0.00  0.00     0.147 A 
ATOM      9  O   LIG d   1       9.648   6.485  -2.592  0.00  0.00    -0.421 OA
ATOM     10  C   LIG d   1       9.626   7.369  -1.564  0.00  0.00     0.345 C 
ATOM     11  O   LIG d   1       8.608   7.570  -0.926  0.00  0.00    -0.244 OA
ATOM     12  C   LIG d   1       9.375   3.954  -3.795  0.00  0.00     0.034 C 
ATOM     13  N   LIG d   1       9.589   2.855  -4.746  0.00  0.00    -0.261 N 
ATOM     14  C   LIG d   1      10.551   1.887  -4.195  0.00  0.00     0.144 C 
ATOM     15  O   LIG d   1      11.826   2.523  -4.089  0.00  0.00    -0.476 OA
ATOM     16  H   LIG d   1      13.006   7.935  -1.354  0.00  0.00     0.063 H 
ATOM     17  H   LIG d   1      14.120   5.846  -2.115  0.00  0.00     0.063 H 
ATOM     18  H   LIG d   1      13.987   3.664  -3.197  0.00  0.00     0.065 H 
ATOM     19  H   LIG d   1       8.809   3.588  -2.938  0.00  0.00     0.048 H 
ATOM     20  H   LIG d   1       8.817   4.754  -4.282  0.00  0.00     0.048 H 
ATOM     21  H   LIG d   1      10.219   1.564  -3.208  0.00  0.00     0.087 H 
ATOM     22  H   LIG d   1      10.625   1.026  -4.859  0.00  0.00     0.087 H 
ENDROOT
BRANCH   1  23
ATOM     23  C   LIG d   1      10.855   9.403  -0.580  0.00  0.00     0.031 A 
ATOM     24  C   LIG d   1      11.181   9.509   0.772  0.00  0.00    -0.047 A 
ATOM     25  C   LIG d   1      11.163  10.740   1.391  0.00  0.00    -0.019 A 
ATOM     26  H   LIG d   1      11.448   8.626   1.333  0.00  0.00     0.063 H 
ATOM     27  C   LIG d   1      10.821  11.879   0.672  0.00  0.00     0.124 A 
ATOM     28  H   LIG d   1      11.415  10.821   2.438  0.00  0.00     0.065 H 
ATOM     29  C   LIG d   1      10.490  11.783  -0.671  0.00  0.00     0.022 A 
ATOM     30  C   LIG d   1      10.510  10.551  -1.303  0.00  0.00     0.132 A 
ATOM     31  H   LIG d   1      10.221  12.669  -1.226  0.00  0.00     0.069 H 
BRANCH  27  32
ATOM     32  O   LIG d   1      10.806  13.090   1.288  0.00  0.00    -0.495 OA
BRANCH  32  33
ATOM     33  C   LIG d   1      10.157  14.160   0.598  0.00  0.00     0.079 C 
ATOM     34  H   LIG d   1       9.180  13.828   0.249  0.00  0.00     0.066 H 
ATOM     35  H   LIG d   1      10.032  15.005   1.275  0.00  0.00     0.066 H 
ATOM     36  H   LIG d   1      10.764  14.463  -0.255  0.00  0.00     0.066 H 
ENDBRANCH  32  33
ENDBRANCH  27  32
BRANCH  30  37
ATOM     37  O   LIG d   1      10.192  10.455  -2.620  0.00  0.00    -0.494 OA
BRANCH  37  38
ATOM     38  C   LIG d   1       9.101  11.253  -3.083  0.00  0.00     0.079 C 
ATOM     39  H   LIG d   1       9.142  12.235  -2.613  0.00  0.00     0.066 H 
ATOM     40  H   LIG d   1       9.168  11.366  -4.166  0.00  0.00     0.066 H 
ATOM     41  H   LIG d   1       8.159  10.766  -2.827  0.00  0.00     0.066 H 
ENDBRANCH  37  38
ENDBRANCH  30  37
ENDBRANCH   1  23
BRANCH  13  42
ATOM     42  C   LIG d   1       8.319   2.199  -5.088  0.00  0.00     0.035 C 
ATOM     43  H   LIG d   1       7.667   2.914  -5.591  0.00  0.00     0.048 H 
ATOM     44  C   LIG d   1       7.633   1.702  -3.793  0.00  0.00     0.081 C 
ATOM     45  S   LIG d   1       6.742   0.197  -4.360  0.00  0.00    -0.029 S 
ATOM     46  H   LIG d   1       8.374   1.449  -3.036  0.00  0.00     0.051 H 
ATOM     47  H   LIG d   1       6.932   2.446  -3.417  0.00  0.00     0.051 H 
ATOM     48  C   LIG d   1       7.297   0.158  -6.117  0.00  0.00     0.067 C 
ATOM     49  O   LIG d   1       5.343   0.446  -4.322  0.00  0.00    -0.174 OA
ATOM     50  O   LIG d   1       7.269  -0.936  -3.683  0.00  0.00    -0.174 OA
ATOM     51  C   LIG d   1       8.593   1.012  -6.024  0.00  0.00    -0.016 C 
ATOM     52  H   LIG d   1       6.562   0.626  -6.772  0.00  0.00     0.050 H 
ATOM     53  H   LIG d   1       7.517  -0.860  -6.438  0.00  0.00     0.050 H 
ATOM     54  H   LIG d   1       8.864   1.378  -7.015  0.00  0.00     0.030 H 
ATOM     55  H   LIG d   1       9.405   0.405  -5.623  0.00  0.00     0.030 H 
ENDBRANCH  13  42
TORSDOF 6
ENDMDL
MODEL 7
REMARK VINA RESULT:      -6.1      3.202      9.516
REMARK  6 active torsions:
REMARK  status: ('A' for Active; 'I' for Inactive)
REMARK    1  A    between atoms: C_1  and  O_2 
REMARK    2  A    between atoms: O_2  and  C_3 
REMARK    3  A    between atoms: C_6  and  C_11 
REMARK    4  A    between atoms: C_7  and  O_9 
REMARK    5  A    between atoms: O_9  and  C_10 
REMARK    6  A    between atoms: N_23  and  C_26 
ROOT
ATOM      1  C   LIG d   1      10.932   5.429  -3.693  0.00  0.00     0.071 C 
ATOM      2  C   LIG d   1      10.730   5.244  -5.038  0.00  0.00    -0.036 C 
ATOM      3  C   LIG d   1       9.916   4.158  -5.451  0.00  0.00     0.019 A 
ATOM      4  C   LIG d   1       9.837   3.801  -6.806  0.00  0.00    -0.048 A 
ATOM      5  C   LIG d   1       9.082   2.731  -7.182  0.00  0.00    -0.019 A 
ATOM      6  C   LIG d   1       8.381   1.984  -6.234  0.00  0.00     0.130 A 
ATOM      7  C   LIG d   1       8.433   2.332  -4.895  0.00  0.00     0.051 A 
ATOM      8  C   LIG d   1       9.189   3.424  -4.496  0.00  0.00     0.147 A 
ATOM      9  O   LIG d   1       9.212   3.801  -3.193  0.00  0.00    -0.421 OA
ATOM     10  C   LIG d   1      10.321   4.458  -2.772  0.00  0.00     0.345 C 
ATOM     11  O   LIG d   1      10.792   4.255  -1.668  0.00  0.00    -0.244 OA
ATOM     12  C   LIG d   1       7.682   1.534  -3.860  0.00  0.00     0.034 C 
ATOM     13  N   LIG d   1       6.655   0.714  -4.519  0.00  0.00    -0.261 N 
ATOM     14  C   LIG d   1       7.242  -0.022  -5.650  0.00  0.00     0.144 C 
ATOM     15  O   LIG d   1       7.644   0.920  -6.647  0.00  0.00    -0.476 OA
ATOM     16  H   LIG d   1      11.178   5.909  -5.763  0.00  0.00     0.063 H 
ATOM     17  H   LIG d   1      10.372   4.375  -7.548  0.00  0.00     0.063 H 
ATOM     18  H   LIG d   1       9.027   2.457  -8.225  0.00  0.00     0.065 H 
ATOM     19  H   LIG d   1       8.377   0.885  -3.327  0.00  0.00     0.048 H 
ATOM     20  H   LIG d   1       7.206   2.214  -3.154  0.00  0.00     0.048 H 
ATOM     21  H   LIG d   1       8.110  -0.585  -5.308  0.00  0.00     0.087 H 
ATOM     22  H   LIG d   1       6.501  -0.704  -6.068  0.00  0.00     0.087 H 
ENDROOT
BRANCH   1  23
ATOM     23  C   LIG d   1      11.742   6.562  -3.187  0.00  0.00     0.031 A 
ATOM     24  C   LIG d   1      11.129   7.774  -2.872  0.00  0.00    -0.047 A 
ATOM     25  C   LIG d   1      11.885   8.827  -2.402  0.00  0.00    -0.019 A 
ATOM     26  H   LIG d   1      10.062   7.888  -2.997  0.00  0.00     0.063 H 
ATOM     27  C   LIG d   1      13.257   8.683  -2.239  0.00  0.00     0.124 A 
ATOM     28  H   LIG d   1      11.410   9.765  -2.158  0.00  0.00     0.065 H 
ATOM     29  C   LIG d   1      13.876   7.483  -2.555  0.00  0.00     0.022 A 
ATOM     30  C   LIG d   1      13.124   6.419  -3.023  0.00  0.00     0.132 A 
ATOM     31  H   LIG d   1      14.943   7.376  -2.431  0.00  0.00     0.069 H 
BRANCH  27  32
ATOM     32  O   LIG d   1      13.996   9.724  -1.773  0.00  0.00    -0.495 OA
BRANCH  32  33
ATOM     33  C   LIG d   1      13.284  10.813  -1.183  0.00  0.00     0.079 C 
ATOM     34  H   LIG d   1      12.628  11.264  -1.927  0.00  0.00     0.066 H 
ATOM     35  H   LIG d   1      12.688  10.447  -0.347  0.00  0.00     0.066 H 
ATOM     36  H   LIG d   1      13.993  11.559  -0.825  0.00  0.00     0.066 H 
ENDBRANCH  32  33
ENDBRANCH  27  32
BRANCH  30  37
ATOM     37  O   LIG d   1      13.727   5.240  -3.328  0.00  0.00    -0.494 OA
BRANCH  37  38
ATOM     38  C   LIG d   1      15.120   5.288  -3.645  0.00  0.00     0.079 C 
ATOM     39  H   LIG d   1      15.699   5.398  -2.728  0.00  0.00     0.066 H 
ATOM     40  H   LIG d   1      15.409   4.364  -4.148  0.00  0.00     0.066 H 
ATOM     41  H   LIG d   1      15.315   6.136  -4.302  0.00  0.00     0.066 H 
ENDBRANCH  37  38
ENDBRANCH  30  37
ENDBRANCH   1  23
BRANCH  13  42
ATOM     42  C   LIG d   1       6.022  -0.206  -3.563  0.00  0.00     0.035 C 
ATOM     43  H   LIG d   1       6.786  -0.838  -3.111  0.00  0.00     0.048 H 
ATOM     44  C   LIG d   1       4.994  -1.092  -4.307  0.00  0.00     0.081 C 
ATOM     45  S   LIG d   1       3.713  -1.389  -3.022  0.00  0.00    -0.029 S 
ATOM     46  H   LIG d   1       4.571  -0.560  -5.159  0.00  0.00     0.051 H 
ATOM     47  H   LIG d   1       5.449  -2.030  -4.622  0.00  0.00     0.051 H 
ATOM     48  C   LIG d   1       4.405  -0.362  -1.657  0.00  0.00     0.067 C 
ATOM     49  O   LIG d   1       3.753  -2.757  -2.637  0.00  0.00    -0.174 OA
ATOM     50  O   LIG d   1       2.485  -0.820  -3.453  0.00  0.00    -0.174 OA
ATOM     51  C   LIG d   1       5.317   0.606  -2.465  0.00  0.00    -0.016 C 
ATOM     52  H   LIG d   1       4.989  -0.968  -0.965  0.00  0.00     0.050 H 
ATOM     53  H   LIG d   1       3.617   0.182  -1.135  0.00  0.00     0.050 H 
ATOM     54  H   LIG d   1       6.059   1.052  -1.801  0.00  0.00     0.030 H 
ATOM     55  H   LIG d   1       4.710   1.391  -2.917  0.00  0.00     0.030 H 
ENDBRANCH  13  42
TORSDOF 6
ENDMDL
MODEL 8
REMARK VINA RESULT:      -6.1      5.818      7.917
REMARK  6 active torsions:
REMARK  status: ('A' for Active; 'I' for Inactive)
REMARK    1  A    between atoms: C_1  and  O_2 
REMARK    2  A    between atoms: O_2  and  C_3 
REMARK    3  A    between atoms: C_6  and  C_11 
REMARK    4  A    between atoms: C_7  and  O_9 
REMARK    5  A    between atoms: O_9  and  C_10 
REMARK    6  A    between atoms: N_23  and  C_26 
ROOT
ATOM      1  C   LIG d   1      10.019   6.340  -6.923  0.00  0.00     0.071 C 
ATOM      2  C   LIG d   1       9.903   5.277  -6.060  0.00  0.00    -0.036 C 
ATOM      3  C   LIG d   1       9.912   5.541  -4.666  0.00  0.00     0.019 A 
ATOM      4  C   LIG d   1       9.997   4.488  -3.743  0.00  0.00    -0.048 A 
ATOM      5  C   LIG d   1      10.044   4.759  -2.408  0.00  0.00    -0.019 A 
ATOM      6  C   LIG d   1      10.004   6.076  -1.947  0.00  0.00     0.130 A 
ATOM      7  C   LIG d   1       9.902   7.126  -2.842  0.00  0.00     0.051 A 
ATOM      8  C   LIG d   1       9.843   6.867  -4.203  0.00  0.00     0.147 A 
ATOM      9  O   LIG d   1       9.698   7.885  -5.088  0.00  0.00    -0.421 OA
ATOM     10  C   LIG d   1      10.186   7.679  -6.336  0.00  0.00     0.345 C 
ATOM     11  O   LIG d   1      10.741   8.571  -6.952  0.00  0.00    -0.244 OA
ATOM     12  C   LIG d   1       9.858   8.553  -2.357  0.00  0.00     0.034 C 
ATOM     13  N   LIG d   1       9.522   8.578  -0.927  0.00  0.00    -0.261 N 
ATOM     14  C   LIG d   1      10.377   7.635  -0.188  0.00  0.00     0.144 C 
ATOM     15  O   LIG d   1      10.059   6.307  -0.609  0.00  0.00    -0.476 OA
ATOM     16  H   LIG d   1       9.807   4.268  -6.434  0.00  0.00     0.063 H 
ATOM     17  H   LIG d   1      10.025   3.465  -4.090  0.00  0.00     0.063 H 
ATOM     18  H   LIG d   1      10.114   3.947  -1.701  0.00  0.00     0.065 H 
ATOM     19  H   LIG d   1      10.833   9.017  -2.509  0.00  0.00     0.048 H 
ATOM     20  H   LIG d   1       9.103   9.103  -2.918  0.00  0.00     0.048 H 
ATOM     21  H   LIG d   1      11.425   7.846  -0.403  0.00  0.00     0.087 H 
ATOM     22  H   LIG d   1      10.193   7.735   0.882  0.00  0.00     0.087 H 
ENDROOT
BRANCH   1  23
ATOM     23  C   LIG d   1       9.984   6.144  -8.390  0.00  0.00     0.031 A 
ATOM     24  C   LIG d   1       8.776   6.243  -9.080  0.00  0.00    -0.047 A 
ATOM     25  C   LIG d   1       8.746   6.061 -10.447  0.00  0.00    -0.019 A 
ATOM     26  H   LIG d   1       7.865   6.463  -8.545  0.00  0.00     0.063 H 
ATOM     27  C   LIG d   1       9.916   5.780 -11.140  0.00  0.00     0.124 A 
ATOM     28  H   LIG d   1       7.810   6.138 -10.980  0.00  0.00     0.065 H 
ATOM     29  C   LIG d   1      11.121   5.674 -10.461  0.00  0.00     0.022 A 
ATOM     30  C   LIG d   1      11.162   5.860  -9.090  0.00  0.00     0.132 A 
ATOM     31  H   LIG d   1      12.028   5.451 -11.002  0.00  0.00     0.069 H 
BRANCH  27  32
ATOM     32  O   LIG d   1       9.880   5.602 -12.487  0.00  0.00    -0.495 OA
BRANCH  32  33
ATOM     33  C   LIG d   1       8.863   6.302 -13.206  0.00  0.00     0.079 C 
ATOM     34  H   LIG d   1       8.317   6.952 -12.524  0.00  0.00     0.066 H 
ATOM     35  H   LIG d   1       9.322   6.903 -13.991  0.00  0.00     0.066 H 
ATOM     36  H   LIG d   1       8.175   5.584 -13.653  0.00  0.00     0.066 H 
ENDBRANCH  32  33
ENDBRANCH  27  32
BRANCH  30  37
ATOM     37  O   LIG d   1      12.342   5.762  -8.424  0.00  0.00    -0.494 OA
BRANCH  37  38
ATOM     38  C   LIG d   1      13.334   6.750  -8.713  0.00  0.00     0.079 C 
ATOM     39  H   LIG d   1      14.283   6.456  -8.266  0.00  0.00     0.066 H 
ATOM     40  H   LIG d   1      13.453   6.838  -9.794  0.00  0.00     0.066 H 
ATOM     41  H   LIG d   1      13.021   7.711  -8.303  0.00  0.00     0.066 H 
ENDBRANCH  37  38
ENDBRANCH  30  37
ENDBRANCH   1  23
BRANCH  13  42
ATOM     42  C   LIG d   1       9.643   9.937  -0.381  0.00  0.00     0.035 C 
ATOM     43  H   LIG d   1       8.716  10.207   0.125  0.00  0.00     0.048 H 
ATOM     44  C   LIG d   1       9.906  10.933  -1.536  0.00  0.00     0.081 C 
ATOM     45  S   LIG d   1      10.945  12.219  -0.731  0.00  0.00    -0.029 S 
ATOM     46  H   LIG d   1      10.450  10.449  -2.347  0.00  0.00     0.051 H 
ATOM     47  H   LIG d   1       8.972  11.362  -1.897  0.00  0.00     0.051 H 
ATOM     48  C   LIG d   1      11.110  11.473   0.946  0.00  0.00     0.067 C 
ATOM     49  O   LIG d   1      10.196  13.423  -0.631  0.00  0.00    -0.174 OA
ATOM     50  O   LIG d   1      12.221  12.240  -1.356  0.00  0.00    -0.174 OA
ATOM     51  C   LIG d   1      10.804   9.983   0.624  0.00  0.00    -0.016 C 
ATOM     52  H   LIG d   1      10.374  11.887   1.635  0.00  0.00     0.050 H 
ATOM     53  H   LIG d   1      12.122  11.594   1.333  0.00  0.00     0.050 H 
ATOM     54  H   LIG d   1      10.521   9.460   1.539  0.00  0.00     0.030 H 
ATOM     55  H   LIG d   1      11.687   9.511   0.191  0.00  0.00     0.030 H 
ENDBRANCH  13  42
TORSDOF 6
ENDMDL
MODEL 9
REMARK VINA RESULT:      -6.1      3.012     10.191
REMARK  6 active torsions:
REMARK  status: ('A' for Active; 'I' for Inactive)
REMARK    1  A    between atoms: C_1  and  O_2 
REMARK    2  A    between atoms: O_2  and  C_3 
REMARK    3  A    between atoms: C_6  and  C_11 
REMARK    4  A    between atoms: C_7  and  O_9 
REMARK    5  A    between atoms: O_9  and  C_10 
REMARK    6  A    between atoms: N_23  and  C_26 
ROOT
ATOM      1  C   LIG d   1      10.837   7.541  -1.585  0.00  0.00     0.071 C 
ATOM      2  C   LIG d   1      11.218   7.648  -2.900  0.00  0.00    -0.036 C 
ATOM      3  C   LIG d   1      10.973   6.548  -3.762  0.00  0.00     0.019 A 
ATOM      4  C   LIG d   1      11.516   6.521  -5.055  0.00  0.00    -0.048 A 
ATOM      5  C   LIG d   1      11.303   5.440  -5.857  0.00  0.00    -0.019 A 
ATOM      6  C   LIG d   1      10.545   4.357  -5.407  0.00  0.00     0.130 A 
ATOM      7  C   LIG d   1       9.987   4.374  -4.141  0.00  0.00     0.051 A 
ATOM      8  C   LIG d   1      10.186   5.470  -3.316  0.00  0.00     0.147 A 
ATOM      9  O   LIG d   1       9.607   5.518  -2.090  0.00  0.00    -0.421 OA
ATOM     10  C   LIG d   1      10.234   6.270  -1.152  0.00  0.00     0.345 C 
ATOM     11  O   LIG d   1      10.293   5.910   0.009  0.00  0.00    -0.244 OA
ATOM     12  C   LIG d   1       9.168   3.210  -3.643  0.00  0.00     0.034 C 
ATOM     13  N   LIG d   1       8.750   2.378  -4.779  0.00  0.00    -0.261 N 
ATOM     14  C   LIG d   1       9.905   2.077  -5.640  0.00  0.00     0.144 C 
ATOM     15  O   LIG d   1      10.360   3.294  -6.234  0.00  0.00    -0.476 OA
ATOM     16  H   LIG d   1      11.693   8.546  -3.268  0.00  0.00     0.063 H 
ATOM     17  H   LIG d   1      12.099   7.356  -5.414  0.00  0.00     0.063 H 
ATOM     18  H   LIG d   1      11.726   5.421  -6.850  0.00  0.00     0.065 H 
ATOM     19  H   LIG d   1       9.768   2.612  -2.957  0.00  0.00     0.048 H 
ATOM     20  H   LIG d   1       8.286   3.585  -3.122  0.00  0.00     0.048 H 
ATOM     21  H   LIG d   1      10.704   1.641  -5.039  0.00  0.00     0.087 H 
ATOM     22  H   LIG d   1       9.608   1.376  -6.421  0.00  0.00     0.087 H 
ENDROOT
BRANCH   1  23
ATOM     23  C   LIG d   1      11.031   8.661  -0.636  0.00  0.00     0.031 A 
ATOM     24  C   LIG d   1      10.096   9.693  -0.571  0.00  0.00    -0.047 A 
ATOM     25  C   LIG d   1      10.279  10.735   0.313  0.00  0.00    -0.019 A 
ATOM     26  H   LIG d   1       9.228   9.677  -1.214  0.00  0.00     0.063 H 
ATOM     27  C   LIG d   1      11.393  10.759   1.142  0.00  0.00     0.124 A 
ATOM     28  H   LIG d   1       9.554  11.533   0.363  0.00  0.00     0.065 H 
ATOM     29  C   LIG d   1      12.331   9.740   1.081  0.00  0.00     0.022 A 
ATOM     30  C   LIG d   1      12.153   8.687   0.200  0.00  0.00     0.132 A 
ATOM     31  H   LIG d   1      13.198   9.764   1.724  0.00  0.00     0.069 H 
BRANCH  27  32
ATOM     32  O   LIG d   1      11.568  11.788   2.013  0.00  0.00    -0.495 OA
BRANCH  32  33
ATOM     33  C   LIG d   1      12.617  12.713   1.722  0.00  0.00     0.079 C 
ATOM     34  H   LIG d   1      12.995  12.530   0.717  0.00  0.00     0.066 H 
ATOM     35  H   LIG d   1      12.233  13.730   1.785  0.00  0.00     0.066 H 
ATOM     36  H   LIG d   1      13.425  12.584   2.443  0.00  0.00     0.066 H 
ENDBRANCH  32  33
ENDBRANCH  27  32
BRANCH  30  37
ATOM     37  O   LIG d   1      13.068   7.684   0.142  0.00  0.00    -0.494 OA
BRANCH  37  38
ATOM     38  C   LIG d   1      14.337   7.996  -0.437  0.00  0.00     0.079 C 
ATOM     39  H   LIG d   1      14.820   7.079  -0.772  0.00  0.00     0.066 H 
ATOM     40  H   LIG d   1      14.193   8.663  -1.288  0.00  0.00     0.066 H 
ATOM     41  H   LIG d   1      14.965   8.488   0.307  0.00  0.00     0.066 H 
ENDBRANCH  37  38
ENDBRANCH  30  37
ENDBRANCH   1  23
BRANCH  13  42
ATOM     42  C   LIG d   1       8.100   1.144  -4.318  0.00  0.00     0.035 C 
ATOM     43  H   LIG d   1       8.811   0.558  -3.735  0.00  0.00     0.048 H 
ATOM     44  C   LIG d   1       7.634   0.319  -5.541  0.00  0.00     0.081 C 
ATOM     45  S   LIG d   1       6.128  -0.525  -4.911  0.00  0.00    -0.029 S 
ATOM     46  H   LIG d   1       7.390   0.974  -6.377  0.00  0.00     0.051 H 
ATOM     47  H   LIG d   1       8.393  -0.409  -5.828  0.00  0.00     0.051 H 
ATOM     48  C   LIG d   1       6.049   0.212  -3.223  0.00  0.00     0.067 C 
ATOM     49  O   LIG d   1       6.391  -1.916  -4.796  0.00  0.00    -0.174 OA
ATOM     50  O   LIG d   1       5.004  -0.085  -5.661  0.00  0.00    -0.174 OA
ATOM     51  C   LIG d   1       6.892   1.501  -3.437  0.00  0.00    -0.016 C 
ATOM     52  H   LIG d   1       6.511  -0.444  -2.486  0.00  0.00     0.050 H 
ATOM     53  H   LIG d   1       5.022   0.453  -2.946  0.00  0.00     0.050 H 
ATOM     54  H   LIG d   1       7.236   1.880  -2.474  0.00  0.00     0.030 H 
ATOM     55  H   LIG d   1       6.285   2.260  -3.933  0.00  0.00     0.030 H 
ENDBRANCH  13  42
TORSDOF 6
ENDMDL
