MODEL 1
REMARK VINA RESULT:      -7.2      0.000      0.000
REMARK  12 active torsions:
REMARK  status: ('A' for Active; 'I' for Inactive)
REMARK    1  A    between atoms: C_1  and  C_2 
REMARK    2  A    between atoms: C_6  and  C_32 
REMARK    3  A    between atoms: C_6  and  C_33 
REMARK    4  A    between atoms: C_13  and  C_15 
REMARK    5  A    between atoms: C_15  and  C_16 
REMARK    6  A    between atoms: C_16  and  C_17 
REMARK    7  A    between atoms: C_21  and  C_22 
REMARK    8  A    between atoms: C_22  and  O_23 
REMARK    9  A    between atoms: O_23  and  C_24 
REMARK   10  A    between atoms: C_24  and  C_26 
REMARK   11  A    between atoms: C_33  and  O_35 
REMARK   12  A    between atoms: O_35  and  C_36 
ROOT
ATOM      1  C   LIG d   1       8.449   1.540  -6.324  0.00  0.00    -0.022 C 
ATOM      2  C   LIG d   1       8.512   2.352  -7.621  0.00  0.00    -0.047 C 
ATOM      3  C   LIG d   1       9.783   3.202  -7.636  0.00  0.00    -0.051 C 
ATOM      4  C   LIG d   1       9.765   4.159  -6.442  0.00  0.00    -0.037 C 
ATOM      5  C   LIG d   1       9.719   3.348  -5.147  0.00  0.00     0.068 C 
ATOM      6  C   LIG d   1       8.454   2.485  -5.121  0.00  0.00    -0.019 C 
ATOM      7  H   LIG d   1       7.574   3.127  -5.160  0.00  0.00     0.032 H 
ATOM      8  C   LIG d   1       8.438   1.674  -3.822  0.00  0.00    -0.045 C 
ATOM      9  C   LIG d   1       7.139   0.868  -3.735  0.00  0.00    -0.031 C 
ATOM     10  C   LIG d   1       7.015   0.028  -4.986  0.00  0.00    -0.073 C 
ATOM     11  C   LIG d   1       6.793  -1.261  -4.913  0.00  0.00    -0.099 C 
ATOM     12  C   LIG d   1       7.155   0.717  -6.324  0.00  0.00    -0.014 C 
ATOM     13  H   LIG d   1       6.303   1.377  -6.488  0.00  0.00     0.035 H 
ATOM     14  H   LIG d   1       8.519   1.674  -8.473  0.00  0.00     0.027 H 
ATOM     15  H   LIG d   1       7.639   3.003  -7.682  0.00  0.00     0.027 H 
ATOM     16  H   LIG d   1       9.825   3.776  -8.563  0.00  0.00     0.027 H 
ATOM     17  H   LIG d   1      10.656   2.554  -7.571  0.00  0.00     0.027 H 
ATOM     18  H   LIG d   1       8.884   4.800  -6.502  0.00  0.00     0.028 H 
ATOM     19  H   LIG d   1      10.664   4.774  -6.455  0.00  0.00     0.028 H 
ATOM     20  H   LIG d   1       9.289   0.994  -3.809  0.00  0.00     0.027 H 
ATOM     21  H   LIG d   1       8.503   2.353  -2.972  0.00  0.00     0.027 H 
ATOM     22  H   LIG d   1       7.168   0.221  -2.858  0.00  0.00     0.031 H 
ATOM     23  H   LIG d   1       6.290   1.548  -3.663  0.00  0.00     0.031 H 
ATOM     24  H   LIG d   1       6.820  -1.865  -5.807  0.00  0.00     0.053 H 
ATOM     25  H   LIG d   1       6.583  -1.719  -3.956  0.00  0.00     0.053 H 
ENDROOT
BRANCH  12  26
ATOM     26  C   LIG d   1       7.213  -0.331  -7.437  0.00  0.00    -0.042 C 
ATOM     27  H   LIG d   1       7.693  -1.234  -7.060  0.00  0.00     0.027 H 
ATOM     28  H   LIG d   1       7.787   0.062  -8.277  0.00  0.00     0.027 H 
BRANCH  26  29
ATOM     29  C   LIG d   1       5.794  -0.663  -7.901  0.00  0.00    -0.024 C 
ATOM     30  H   LIG d   1       5.238  -1.109  -7.076  0.00  0.00     0.031 H 
ATOM     31  H   LIG d   1       5.839  -1.368  -8.731  0.00  0.00     0.031 H 
BRANCH  29  32
ATOM     32  C   LIG d   1       5.103   0.599  -8.349  0.00  0.00    -0.003 A 
ATOM     33  C   LIG d   1       3.868   1.004  -8.002  0.00  0.00     0.145 A 
ATOM     34  O   LIG d   1       3.617   2.173  -8.614  0.00  0.00    -0.464 OA
ATOM     35  C   LIG d   1       4.685   2.533  -9.346  0.00  0.00     0.092 A 
ATOM     36  C   LIG d   1       5.630   1.584  -9.215  0.00  0.00    -0.020 A 
ATOM     37  H   LIG d   1       4.768   3.429  -9.943  0.00  0.00     0.103 H 
ATOM     38  H   LIG d   1       6.603   1.577  -9.683  0.00  0.00     0.065 H 
BRANCH  33  39
ATOM     39  C   LIG d   1       2.924   0.267  -7.088  0.00  0.00     0.150 C 
ATOM     40  H   LIG d   1       3.280  -0.754  -6.943  0.00  0.00     0.078 H 
ATOM     41  H   LIG d   1       1.929   0.245  -7.534  0.00  0.00     0.078 H 
BRANCH  39  42
ATOM     42  O   LIG d   1       2.864   0.945  -5.805  0.00  0.00    -0.453 OA
BRANCH  42  43
ATOM     43  C   LIG d   1       2.308   0.269  -4.781  0.00  0.00     0.340 C 
ATOM     44  O   LIG d   1       1.129  -0.022  -4.814  0.00  0.00    -0.245 OA
BRANCH  43  45
ATOM     45  C   LIG d   1       3.134  -0.122  -3.619  0.00  0.00     0.059 A 
ATOM     46  C   LIG d   1       3.640   0.856  -2.760  0.00  0.00    -0.048 A 
ATOM     47  C   LIG d   1       4.406   0.485  -1.674  0.00  0.00    -0.061 A 
ATOM     48  H   LIG d   1       3.433   1.899  -2.945  0.00  0.00     0.063 H 
ATOM     49  C   LIG d   1       4.672  -0.852  -1.436  0.00  0.00    -0.062 A 
ATOM     50  H   LIG d   1       4.799   1.239  -1.009  0.00  0.00     0.062 H 
ATOM     51  C   LIG d   1       4.174  -1.826  -2.284  0.00  0.00    -0.061 A 
ATOM     52  H   LIG d   1       5.272  -1.138  -0.585  0.00  0.00     0.062 H 
ATOM     53  C   LIG d   1       3.406  -1.468  -3.374  0.00  0.00    -0.048 A 
ATOM     54  H   LIG d   1       4.386  -2.867  -2.093  0.00  0.00     0.062 H 
ATOM     55  H   LIG d   1       3.017  -2.229  -4.034  0.00  0.00     0.063 H 
ENDBRANCH  43  45
ENDBRANCH  42  43
ENDBRANCH  39  42
ENDBRANCH  33  39
ENDBRANCH  29  32
ENDBRANCH  26  29
ENDBRANCH  12  26
BRANCH   1  56
ATOM     56  C   LIG d   1       9.654   0.600  -6.241  0.00  0.00    -0.059 C 
ATOM     57  H   LIG d   1      10.035   0.410  -7.245  0.00  0.00     0.024 H 
ATOM     58  H   LIG d   1      10.435   1.062  -5.637  0.00  0.00     0.024 H 
ATOM     59  H   LIG d   1       9.349  -0.342  -5.785  0.00  0.00     0.024 H 
ENDBRANCH   1  56
BRANCH   5  60
ATOM     60  C   LIG d   1       9.709   4.300  -3.950  0.00  0.00    -0.049 C 
ATOM     61  H   LIG d   1      10.622   4.165  -3.371  0.00  0.00     0.024 H 
ATOM     62  H   LIG d   1       9.652   5.329  -4.305  0.00  0.00     0.024 H 
ATOM     63  H   LIG d   1       8.845   4.084  -3.321  0.00  0.00     0.024 H 
ENDBRANCH   5  60
BRANCH   5  64
ATOM     64  C   LIG d   1      10.934   2.459  -5.072  0.00  0.00     0.313 C 
ATOM     65  O   LIG d   1      11.759   2.487  -5.953  0.00  0.00    -0.250 OA
BRANCH  64  66
ATOM     66  O   LIG d   1      11.098   1.635  -4.025  0.00  0.00    -0.468 OA
BRANCH  66  67
ATOM     67  C   LIG d   1      12.458   1.246  -3.699  0.00  0.00     0.082 C 
ATOM     68  H   LIG d   1      13.150   2.004  -4.064  0.00  0.00     0.066 H 
ATOM     69  H   LIG d   1      12.559   1.153  -2.617  0.00  0.00     0.066 H 
ATOM     70  H   LIG d   1      12.684   0.289  -4.168  0.00  0.00     0.066 H 
ENDBRANCH  66  67
ENDBRANCH  64  66
ENDBRANCH   5  64
TORSDOF 12
ENDMDL
MODEL 2
REMARK VINA RESULT:      -6.9      1.037      1.772
REMARK  12 active torsions:
REMARK  status: ('A' for Active; 'I' for Inactive)
REMARK    1  A    between atoms: C_1  and  C_2 
REMARK    2  A    between atoms: C_6  and  C_32 
REMARK    3  A    between atoms: C_6  and  C_33 
REMARK    4  A    between atoms: C_13  and  C_15 
REMARK    5  A    between atoms: C_15  and  C_16 
REMARK    6  A    between atoms: C_16  and  C_17 
REMARK    7  A    between atoms: C_21  and  C_22 
REMARK    8  A    between atoms: C_22  and  O_23 
REMARK    9  A    between atoms: O_23  and  C_24 
REMARK   10  A    between atoms: C_24  and  C_26 
REMARK   11  A    between atoms: C_33  and  O_35 
REMARK   12  A    between atoms: O_35  and  C_36 
ROOT
ATOM      1  C   LIG d   1       8.637   1.799  -6.272  0.00  0.00    -0.022 C 
ATOM      2  C   LIG d   1       8.731   2.651  -7.541  0.00  0.00    -0.047 C 
ATOM      3  C   LIG d   1       9.988   3.519  -7.489  0.00  0.00    -0.051 C 
ATOM      4  C   LIG d   1       9.916   4.439  -6.268  0.00  0.00    -0.037 C 
ATOM      5  C   LIG d   1       9.839   3.589  -5.000  0.00  0.00     0.068 C 
ATOM      6  C   LIG d   1       8.588   2.707  -5.043  0.00  0.00    -0.019 C 
ATOM      7  H   LIG d   1       7.699   3.338  -5.092  0.00  0.00     0.032 H 
ATOM      8  C   LIG d   1       8.541   1.857  -3.769  0.00  0.00    -0.045 C 
ATOM      9  C   LIG d   1       7.252   1.031  -3.750  0.00  0.00    -0.031 C 
ATOM     10  C   LIG d   1       7.182   0.227  -5.029  0.00  0.00    -0.073 C 
ATOM     11  C   LIG d   1       6.978  -1.067  -5.002  0.00  0.00    -0.099 C 
ATOM     12  C   LIG d   1       7.356   0.958  -6.341  0.00  0.00    -0.014 C 
ATOM     13  H   LIG d   1       6.500   1.610  -6.514  0.00  0.00     0.035 H 
ATOM     14  H   LIG d   1       8.776   1.998  -8.413  0.00  0.00     0.027 H 
ATOM     15  H   LIG d   1       7.851   3.291  -7.613  0.00  0.00     0.027 H 
ATOM     16  H   LIG d   1      10.052   4.121  -8.396  0.00  0.00     0.027 H 
ATOM     17  H   LIG d   1      10.869   2.882  -7.413  0.00  0.00     0.027 H 
ATOM     18  H   LIG d   1       9.028   5.069  -6.338  0.00  0.00     0.028 H 
ATOM     19  H   LIG d   1      10.806   5.067  -6.232  0.00  0.00     0.028 H 
ATOM     20  H   LIG d   1       9.401   1.189  -3.748  0.00  0.00     0.027 H 
ATOM     21  H   LIG d   1       8.567   2.510  -2.897  0.00  0.00     0.027 H 
ATOM     22  H   LIG d   1       7.262   0.357  -2.892  0.00  0.00     0.031 H 
ATOM     23  H   LIG d   1       6.391   1.696  -3.686  0.00  0.00     0.031 H 
ATOM     24  H   LIG d   1       7.044  -1.643  -5.912  0.00  0.00     0.053 H 
ATOM     25  H   LIG d   1       6.743  -1.557  -4.067  0.00  0.00     0.053 H 
ENDROOT
BRANCH  12  26
ATOM     26  C   LIG d   1       7.467  -0.055  -7.482  0.00  0.00    -0.042 C 
ATOM     27  H   LIG d   1       7.420  -1.065  -7.076  0.00  0.00     0.027 H 
ATOM     28  H   LIG d   1       8.417   0.084  -8.000  0.00  0.00     0.027 H 
BRANCH  26  29
ATOM     29  C   LIG d   1       6.314   0.155  -8.465  0.00  0.00    -0.024 C 
ATOM     30  H   LIG d   1       6.706   0.195  -9.481  0.00  0.00     0.031 H 
ATOM     31  H   LIG d   1       5.806   1.091  -8.234  0.00  0.00     0.031 H 
BRANCH  29  32
ATOM     32  C   LIG d   1       5.340  -0.989  -8.347  0.00  0.00    -0.003 A 
ATOM     33  C   LIG d   1       4.082  -0.925  -7.874  0.00  0.00     0.145 A 
ATOM     34  O   LIG d   1       3.545  -2.155  -7.928  0.00  0.00    -0.464 OA
ATOM     35  C   LIG d   1       4.443  -3.012  -8.443  0.00  0.00     0.092 A 
ATOM     36  C   LIG d   1       5.572  -2.334  -8.715  0.00  0.00    -0.020 A 
ATOM     37  H   LIG d   1       4.285  -4.068  -8.607  0.00  0.00     0.103 H 
ATOM     38  H   LIG d   1       6.481  -2.740  -9.133  0.00  0.00     0.065 H 
BRANCH  33  39
ATOM     39  C   LIG d   1       3.396   0.314  -7.362  0.00  0.00     0.150 C 
ATOM     40  H   LIG d   1       2.762   0.730  -8.145  0.00  0.00     0.078 H 
ATOM     41  H   LIG d   1       4.145   1.052  -7.072  0.00  0.00     0.078 H 
BRANCH  39  42
ATOM     42  O   LIG d   1       2.581  -0.025  -6.208  0.00  0.00    -0.453 OA
BRANCH  42  43
ATOM     43  C   LIG d   1       2.756   0.716  -5.097  0.00  0.00     0.340 C 
ATOM     44  O   LIG d   1       2.420   1.882  -5.084  0.00  0.00    -0.245 OA
BRANCH  43  45
ATOM     45  C   LIG d   1       3.358   0.107  -3.891  0.00  0.00     0.059 A 
ATOM     46  C   LIG d   1       3.474  -1.282  -3.792  0.00  0.00    -0.048 A 
ATOM     47  C   LIG d   1       4.041  -1.843  -2.667  0.00  0.00    -0.061 A 
ATOM     48  H   LIG d   1       3.122  -1.912  -4.594  0.00  0.00     0.063 H 
ATOM     49  C   LIG d   1       4.494  -1.035  -1.639  0.00  0.00    -0.062 A 
ATOM     50  H   LIG d   1       4.132  -2.916  -2.588  0.00  0.00     0.062 H 
ATOM     51  C   LIG d   1       4.381   0.342  -1.731  0.00  0.00    -0.061 A 
ATOM     52  H   LIG d   1       4.937  -1.479  -0.760  0.00  0.00     0.062 H 
ATOM     53  C   LIG d   1       3.816   0.917  -2.851  0.00  0.00    -0.048 A 
ATOM     54  H   LIG d   1       4.735   0.966  -0.926  0.00  0.00     0.062 H 
ATOM     55  H   LIG d   1       3.729   1.991  -2.922  0.00  0.00     0.063 H 
ENDBRANCH  43  45
ENDBRANCH  42  43
ENDBRANCH  39  42
ENDBRANCH  33  39
ENDBRANCH  29  32
ENDBRANCH  26  29
ENDBRANCH  12  26
BRANCH   1  56
ATOM     56  C   LIG d   1       9.853   0.875  -6.177  0.00  0.00    -0.059 C 
ATOM     57  H   LIG d   1      10.183   0.605  -7.181  0.00  0.00     0.024 H 
ATOM     58  H   LIG d   1      10.660   1.387  -5.655  0.00  0.00     0.024 H 
ATOM     59  H   LIG d   1       9.580  -0.028  -5.630  0.00  0.00     0.024 H 
ENDBRANCH   1  56
BRANCH   5  60
ATOM     60  C   LIG d   1       9.775   4.504  -3.776  0.00  0.00    -0.049 C 
ATOM     61  H   LIG d   1       8.782   4.946  -3.705  0.00  0.00     0.024 H 
ATOM     62  H   LIG d   1       9.981   3.922  -2.878  0.00  0.00     0.024 H 
ATOM     63  H   LIG d   1      10.519   5.295  -3.875  0.00  0.00     0.024 H 
ENDBRANCH   5  60
BRANCH   5  64
ATOM     64  C   LIG d   1      11.064   2.714  -4.910  0.00  0.00     0.313 C 
ATOM     65  O   LIG d   1      11.898   2.751  -5.783  0.00  0.00    -0.250 OA
BRANCH  64  66
ATOM     66  O   LIG d   1      11.228   1.895  -3.860  0.00  0.00    -0.468 OA
BRANCH  66  67
ATOM     67  C   LIG d   1      12.541   1.303  -3.684  0.00  0.00     0.082 C 
ATOM     68  H   LIG d   1      13.137   1.929  -3.020  0.00  0.00     0.066 H 
ATOM     69  H   LIG d   1      12.436   0.310  -3.247  0.00  0.00     0.066 H 
ATOM     70  H   LIG d   1      13.037   1.223  -4.651  0.00  0.00     0.066 H 
ENDBRANCH  66  67
ENDBRANCH  64  66
ENDBRANCH   5  64
TORSDOF 12
ENDMDL
MODEL 3
REMARK VINA RESULT:      -6.9      3.627      6.947
REMARK  12 active torsions:
REMARK  status: ('A' for Active; 'I' for Inactive)
REMARK    1  A    between atoms: C_1  and  C_2 
REMARK    2  A    between atoms: C_6  and  C_32 
REMARK    3  A    between atoms: C_6  and  C_33 
REMARK    4  A    between atoms: C_13  and  C_15 
REMARK    5  A    between atoms: C_15  and  C_16 
REMARK    6  A    between atoms: C_16  and  C_17 
REMARK    7  A    between atoms: C_21  and  C_22 
REMARK    8  A    between atoms: C_22  and  O_23 
REMARK    9  A    between atoms: O_23  and  C_24 
REMARK   10  A    between atoms: C_24  and  C_26 
REMARK   11  A    between atoms: C_33  and  O_35 
REMARK   12  A    between atoms: O_35  and  C_36 
ROOT
ATOM      1  C   LIG d   1       5.837  -3.817  -5.663  0.00  0.00    -0.022 C 
ATOM      2  C   LIG d   1       4.668  -4.771  -5.405  0.00  0.00    -0.047 C 
ATOM      3  C   LIG d   1       5.009  -6.163  -5.940  0.00  0.00    -0.051 C 
ATOM      4  C   LIG d   1       5.265  -6.075  -7.446  0.00  0.00    -0.037 C 
ATOM      5  C   LIG d   1       6.444  -5.135  -7.703  0.00  0.00     0.068 C 
ATOM      6  C   LIG d   1       6.119  -3.739  -7.164  0.00  0.00    -0.019 C 
ATOM      7  H   LIG d   1       5.242  -3.344  -7.678  0.00  0.00     0.032 H 
ATOM      8  C   LIG d   1       7.318  -2.821  -7.421  0.00  0.00    -0.045 C 
ATOM      9  C   LIG d   1       6.983  -1.397  -6.968  0.00  0.00    -0.031 C 
ATOM     10  C   LIG d   1       6.546  -1.448  -5.522  0.00  0.00    -0.073 C 
ATOM     11  C   LIG d   1       7.096  -0.668  -4.624  0.00  0.00    -0.099 C 
ATOM     12  C   LIG d   1       5.459  -2.426  -5.139  0.00  0.00    -0.014 C 
ATOM     13  H   LIG d   1       4.513  -2.114  -5.581  0.00  0.00     0.035 H 
ATOM     14  H   LIG d   1       4.479  -4.831  -4.334  0.00  0.00     0.027 H 
ATOM     15  H   LIG d   1       3.777  -4.396  -5.910  0.00  0.00     0.027 H 
ATOM     16  H   LIG d   1       4.175  -6.839  -5.751  0.00  0.00     0.027 H 
ATOM     17  H   LIG d   1       5.901  -6.537  -5.440  0.00  0.00     0.027 H 
ATOM     18  H   LIG d   1       4.377  -5.689  -7.945  0.00  0.00     0.028 H 
ATOM     19  H   LIG d   1       5.499  -7.066  -7.834  0.00  0.00     0.028 H 
ATOM     20  H   LIG d   1       8.180  -3.186  -6.863  0.00  0.00     0.027 H 
ATOM     21  H   LIG d   1       7.550  -2.819  -8.486  0.00  0.00     0.027 H 
ATOM     22  H   LIG d   1       7.865  -0.765  -7.064  0.00  0.00     0.031 H 
ATOM     23  H   LIG d   1       6.175  -0.998  -7.582  0.00  0.00     0.031 H 
ATOM     24  H   LIG d   1       6.856  -0.794  -3.579  0.00  0.00     0.053 H 
ATOM     25  H   LIG d   1       7.789   0.103  -4.931  0.00  0.00     0.053 H 
ENDROOT
BRANCH  12  26
ATOM     26  C   LIG d   1       5.322  -2.471  -3.616  0.00  0.00    -0.042 C 
ATOM     27  H   LIG d   1       6.061  -1.809  -3.165  0.00  0.00     0.027 H 
ATOM     28  H   LIG d   1       5.486  -3.491  -3.266  0.00  0.00     0.027 H 
BRANCH  26  29
ATOM     29  C   LIG d   1       3.918  -2.014  -3.215  0.00  0.00    -0.024 C 
ATOM     30  H   LIG d   1       3.600  -2.556  -2.325  0.00  0.00     0.031 H 
ATOM     31  H   LIG d   1       3.224  -2.217  -4.031  0.00  0.00     0.031 H 
BRANCH  29  32
ATOM     32  C   LIG d   1       3.934  -0.536  -2.925  0.00  0.00    -0.003 A 
ATOM     33  C   LIG d   1       3.409   0.438  -3.690  0.00  0.00     0.145 A 
ATOM     34  O   LIG d   1       3.635   1.618  -3.090  0.00  0.00    -0.464 OA
ATOM     35  C   LIG d   1       4.293   1.415  -1.937  0.00  0.00     0.092 A 
ATOM     36  C   LIG d   1       4.504   0.094  -1.794  0.00  0.00    -0.020 A 
ATOM     37  H   LIG d   1       4.605   2.183  -1.244  0.00  0.00     0.103 H 
ATOM     38  H   LIG d   1       5.011  -0.392  -0.974  0.00  0.00     0.065 H 
BRANCH  33  39
ATOM     39  C   LIG d   1       2.695   0.238  -5.002  0.00  0.00     0.150 C 
ATOM     40  H   LIG d   1       1.938   1.012  -5.126  0.00  0.00     0.078 H 
ATOM     41  H   LIG d   1       2.218  -0.743  -5.010  0.00  0.00     0.078 H 
BRANCH  39  42
ATOM     42  O   LIG d   1       3.653   0.319  -6.091  0.00  0.00    -0.453 OA
BRANCH  42  43
ATOM     43  C   LIG d   1       3.168   0.628  -7.309  0.00  0.00     0.340 C 
ATOM     44  O   LIG d   1       2.981   1.789  -7.613  0.00  0.00    -0.245 OA
BRANCH  43  45
ATOM     45  C   LIG d   1       2.864  -0.446  -8.278  0.00  0.00     0.059 A 
ATOM     46  C   LIG d   1       3.500  -1.685  -8.172  0.00  0.00    -0.048 A 
ATOM     47  C   LIG d   1       3.207  -2.685  -9.076  0.00  0.00    -0.061 A 
ATOM     48  H   LIG d   1       4.217  -1.859  -7.385  0.00  0.00     0.063 H 
ATOM     49  C   LIG d   1       2.287  -2.463 -10.085  0.00  0.00    -0.062 A 
ATOM     50  H   LIG d   1       3.698  -3.644  -8.996  0.00  0.00     0.062 H 
ATOM     51  C   LIG d   1       1.654  -1.237 -10.196  0.00  0.00    -0.061 A 
ATOM     52  H   LIG d   1       2.062  -3.249 -10.790  0.00  0.00     0.062 H 
ATOM     53  C   LIG d   1       1.936  -0.228  -9.298  0.00  0.00    -0.048 A 
ATOM     54  H   LIG d   1       0.938  -1.071 -10.986  0.00  0.00     0.062 H 
ATOM     55  H   LIG d   1       1.441   0.728  -9.386  0.00  0.00     0.063 H 
ENDBRANCH  43  45
ENDBRANCH  42  43
ENDBRANCH  39  42
ENDBRANCH  33  39
ENDBRANCH  29  32
ENDBRANCH  26  29
ENDBRANCH  12  26
BRANCH   1  56
ATOM     56  C   LIG d   1       7.086  -4.317  -4.933  0.00  0.00    -0.059 C 
ATOM     57  H   LIG d   1       7.968  -4.111  -5.539  0.00  0.00     0.024 H 
ATOM     58  H   LIG d   1       7.176  -3.807  -3.974  0.00  0.00     0.024 H 
ATOM     59  H   LIG d   1       7.002  -5.392  -4.767  0.00  0.00     0.024 H 
ENDBRANCH   1  56
BRANCH   5  60
ATOM     60  C   LIG d   1       6.710  -5.051  -9.207  0.00  0.00    -0.049 C 
ATOM     61  H   LIG d   1       7.128  -5.995  -9.555  0.00  0.00     0.024 H 
ATOM     62  H   LIG d   1       5.775  -4.851  -9.730  0.00  0.00     0.024 H 
ATOM     63  H   LIG d   1       7.417  -4.245  -9.405  0.00  0.00     0.024 H 
ENDBRANCH   5  60
BRANCH   5  64
ATOM     64  C   LIG d   1       7.669  -5.668  -7.005  0.00  0.00     0.313 C 
ATOM     65  O   LIG d   1       8.722  -5.083  -7.101  0.00  0.00    -0.250 OA
BRANCH  64  66
ATOM     66  O   LIG d   1       7.590  -6.794  -6.278  0.00  0.00    -0.468 OA
BRANCH  66  67
ATOM     67  C   LIG d   1       8.493  -7.874  -6.634  0.00  0.00     0.082 C 
ATOM     68  H   LIG d   1       8.148  -8.801  -6.178  0.00  0.00     0.066 H 
ATOM     69  H   LIG d   1       8.510  -7.988  -7.718  0.00  0.00     0.066 H 
ATOM     70  H   LIG d   1       9.496  -7.642  -6.278  0.00  0.00     0.066 H 
ENDBRANCH  66  67
ENDBRANCH  64  66
ENDBRANCH   5  64
TORSDOF 12
ENDMDL
MODEL 4
REMARK VINA RESULT:      -6.7      3.162      6.918
REMARK  12 active torsions:
REMARK  status: ('A' for Active; 'I' for Inactive)
REMARK    1  A    between atoms: C_1  and  C_2 
REMARK    2  A    between atoms: C_6  and  C_32 
REMARK    3  A    between atoms: C_6  and  C_33 
REMARK    4  A    between atoms: C_13  and  C_15 
REMARK    5  A    between atoms: C_15  and  C_16 
REMARK    6  A    between atoms: C_16  and  C_17 
REMARK    7  A    between atoms: C_21  and  C_22 
REMARK    8  A    between atoms: C_22  and  O_23 
REMARK    9  A    between atoms: O_23  and  C_24 
REMARK   10  A    between atoms: C_24  and  C_26 
REMARK   11  A    between atoms: C_33  and  O_35 
REMARK   12  A    between atoms: O_35  and  C_36 
ROOT
ATOM      1  C   LIG d   1       4.291  -1.467  -8.307  0.00  0.00    -0.022 C 
ATOM      2  C   LIG d   1       3.726  -0.728  -7.091  0.00  0.00    -0.047 C 
ATOM      3  C   LIG d   1       2.517   0.110  -7.510  0.00  0.00    -0.051 C 
ATOM      4  C   LIG d   1       2.953   1.131  -8.563  0.00  0.00    -0.037 C 
ATOM      5  C   LIG d   1       3.501   0.393  -9.785  0.00  0.00     0.068 C 
ATOM      6  C   LIG d   1       4.708  -0.457  -9.377  0.00  0.00    -0.019 C 
ATOM      7  H   LIG d   1       5.492   0.189  -8.982  0.00  0.00     0.032 H 
ATOM      8  C   LIG d   1       5.230  -1.195 -10.614  0.00  0.00    -0.045 C 
ATOM      9  C   LIG d   1       6.489  -1.984 -10.248  0.00  0.00    -0.031 C 
ATOM     10  C   LIG d   1       6.162  -2.891  -9.084  0.00  0.00    -0.073 C 
ATOM     11  C   LIG d   1       6.431  -4.173  -9.130  0.00  0.00    -0.099 C 
ATOM     12  C   LIG d   1       5.514  -2.278  -7.863  0.00  0.00    -0.014 C 
ATOM     13  H   LIG d   1       6.225  -1.622  -7.361  0.00  0.00     0.035 H 
ATOM     14  H   LIG d   1       3.421  -1.453  -6.337  0.00  0.00     0.027 H 
ATOM     15  H   LIG d   1       4.494  -0.075  -6.676  0.00  0.00     0.027 H 
ATOM     16  H   LIG d   1       2.117   0.631  -6.640  0.00  0.00     0.027 H 
ATOM     17  H   LIG d   1       1.750  -0.541  -7.929  0.00  0.00     0.027 H 
ATOM     18  H   LIG d   1       3.729   1.775  -8.148  0.00  0.00     0.028 H 
ATOM     19  H   LIG d   1       2.097   1.738  -8.858  0.00  0.00     0.028 H 
ATOM     20  H   LIG d   1       4.464  -1.880 -10.977  0.00  0.00     0.027 H 
ATOM     21  H   LIG d   1       5.468  -0.471 -11.394  0.00  0.00     0.027 H 
ATOM     22  H   LIG d   1       6.808  -2.583 -11.102  0.00  0.00     0.031 H 
ATOM     23  H   LIG d   1       7.285  -1.295  -9.965  0.00  0.00     0.031 H 
ATOM     24  H   LIG d   1       6.090  -4.825  -8.342  0.00  0.00     0.053 H 
ATOM     25  H   LIG d   1       6.995  -4.575  -9.960  0.00  0.00     0.053 H 
ENDROOT
BRANCH  12  26
ATOM     26  C   LIG d   1       5.074  -3.387  -6.904  0.00  0.00    -0.042 C 
ATOM     27  H   LIG d   1       5.586  -4.314  -7.163  0.00  0.00     0.027 H 
ATOM     28  H   LIG d   1       3.997  -3.531  -6.986  0.00  0.00     0.027 H 
BRANCH  26  29
ATOM     29  C   LIG d   1       5.429  -2.991  -5.470  0.00  0.00    -0.024 C 
ATOM     30  H   LIG d   1       4.860  -3.606  -4.773  0.00  0.00     0.031 H 
ATOM     31  H   LIG d   1       5.184  -1.941  -5.311  0.00  0.00     0.031 H 
BRANCH  29  32
ATOM     32  C   LIG d   1       6.903  -3.204  -5.240  0.00  0.00    -0.003 A 
ATOM     33  C   LIG d   1       7.841  -2.248  -5.115  0.00  0.00     0.145 A 
ATOM     34  O   LIG d   1       9.031  -2.842  -4.927  0.00  0.00    -0.464 OA
ATOM     35  C   LIG d   1       8.868  -4.176  -4.920  0.00  0.00     0.092 A 
ATOM     36  C   LIG d   1       7.565  -4.446  -5.114  0.00  0.00    -0.020 A 
ATOM     37  H   LIG d   1       9.652  -4.906  -4.785  0.00  0.00     0.103 H 
ATOM     38  H   LIG d   1       7.112  -5.425  -5.164  0.00  0.00     0.065 H 
BRANCH  33  39
ATOM     39  C   LIG d   1       7.598  -0.762  -5.181  0.00  0.00     0.150 C 
ATOM     40  H   LIG d   1       6.629  -0.572  -5.643  0.00  0.00     0.078 H 
ATOM     41  H   LIG d   1       8.383  -0.292  -5.776  0.00  0.00     0.078 H 
BRANCH  39  42
ATOM     42  O   LIG d   1       7.612  -0.209  -3.838  0.00  0.00    -0.453 OA
BRANCH  42  43
ATOM     43  C   LIG d   1       6.560   0.553  -3.480  0.00  0.00     0.340 C 
ATOM     44  O   LIG d   1       6.690   1.754  -3.365  0.00  0.00    -0.245 OA
BRANCH  43  45
ATOM     45  C   LIG d   1       5.246  -0.076  -3.229  0.00  0.00     0.059 A 
ATOM     46  C   LIG d   1       4.084   0.498  -3.749  0.00  0.00    -0.048 A 
ATOM     47  C   LIG d   1       2.862  -0.097  -3.515  0.00  0.00    -0.061 A 
ATOM     48  H   LIG d   1       4.143   1.404  -4.332  0.00  0.00     0.063 H 
ATOM     49  C   LIG d   1       2.785  -1.259  -2.768  0.00  0.00    -0.062 A 
ATOM     50  H   LIG d   1       1.962   0.346  -3.916  0.00  0.00     0.062 H 
ATOM     51  C   LIG d   1       3.933  -1.832  -2.249  0.00  0.00    -0.061 A 
ATOM     52  H   LIG d   1       1.826  -1.720  -2.587  0.00  0.00     0.062 H 
ATOM     53  C   LIG d   1       5.163  -1.248  -2.476  0.00  0.00    -0.048 A 
ATOM     54  H   LIG d   1       3.867  -2.739  -1.666  0.00  0.00     0.062 H 
ATOM     55  H   LIG d   1       6.057  -1.697  -2.071  0.00  0.00     0.063 H 
ENDBRANCH  43  45
ENDBRANCH  42  43
ENDBRANCH  39  42
ENDBRANCH  33  39
ENDBRANCH  29  32
ENDBRANCH  26  29
ENDBRANCH  12  26
BRANCH   1  56
ATOM     56  C   LIG d   1       3.230  -2.410  -8.879  0.00  0.00    -0.059 C 
ATOM     57  H   LIG d   1       2.336  -1.840  -9.134  0.00  0.00     0.024 H 
ATOM     58  H   LIG d   1       3.619  -2.895  -9.775  0.00  0.00     0.024 H 
ATOM     59  H   LIG d   1       2.978  -3.167  -8.136  0.00  0.00     0.024 H 
ENDBRANCH   1  56
BRANCH   5  60
ATOM     60  C   LIG d   1       3.930   1.410 -10.844  0.00  0.00    -0.049 C 
ATOM     61  H   LIG d   1       4.955   1.723 -10.653  0.00  0.00     0.024 H 
ATOM     62  H   LIG d   1       3.866   0.953 -11.831  0.00  0.00     0.024 H 
ATOM     63  H   LIG d   1       3.270   2.278 -10.802  0.00  0.00     0.024 H 
ENDBRANCH   5  60
BRANCH   5  64
ATOM     64  C   LIG d   1       2.427  -0.500 -10.352  0.00  0.00     0.313 C 
ATOM     65  O   LIG d   1       1.353  -0.576  -9.804  0.00  0.00    -0.250 OA
BRANCH  64  66
ATOM     66  O   LIG d   1       2.666  -1.212 -11.464  0.00  0.00    -0.468 OA
BRANCH  66  67
ATOM     67  C   LIG d   1       1.511  -1.649 -12.227  0.00  0.00     0.082 C 
ATOM     68  H   LIG d   1       1.468  -1.102 -13.168  0.00  0.00     0.066 H 
ATOM     69  H   LIG d   1       1.595  -2.717 -12.433  0.00  0.00     0.066 H 
ATOM     70  H   LIG d   1       0.604  -1.461 -11.654  0.00  0.00     0.066 H 
ENDBRANCH  66  67
ENDBRANCH  64  66
ENDBRANCH   5  64
TORSDOF 12
ENDMDL
MODEL 5
REMARK VINA RESULT:      -6.6      3.129      6.053
REMARK  12 active torsions:
REMARK  status: ('A' for Active; 'I' for Inactive)
REMARK    1  A    between atoms: C_1  and  C_2 
REMARK    2  A    between atoms: C_6  and  C_32 
REMARK    3  A    between atoms: C_6  and  C_33 
REMARK    4  A    between atoms: C_13  and  C_15 
REMARK    5  A    between atoms: C_15  and  C_16 
REMARK    6  A    between atoms: C_16  and  C_17 
REMARK    7  A    between atoms: C_21  and  C_22 
REMARK    8  A    between atoms: C_22  and  O_23 
REMARK    9  A    between atoms: O_23  and  C_24 
REMARK   10  A    between atoms: C_24  and  C_26 
REMARK   11  A    between atoms: C_33  and  O_35 
REMARK   12  A    between atoms: O_35  and  C_36 
ROOT
ATOM      1  C   LIG d   1       4.558  -1.318  -5.299  0.00  0.00    -0.022 C 
ATOM      2  C   LIG d   1       3.112  -0.851  -5.487  0.00  0.00    -0.047 C 
ATOM      3  C   LIG d   1       2.826   0.332  -4.561  0.00  0.00    -0.051 C 
ATOM      4  C   LIG d   1       3.031  -0.104  -3.109  0.00  0.00    -0.037 C 
ATOM      5  C   LIG d   1       4.479  -0.554  -2.917  0.00  0.00     0.068 C 
ATOM      6  C   LIG d   1       4.781  -1.734  -3.844  0.00  0.00    -0.019 C 
ATOM      7  H   LIG d   1       4.123  -2.569  -3.600  0.00  0.00     0.032 H 
ATOM      8  C   LIG d   1       6.240  -2.158  -3.643  0.00  0.00    -0.045 C 
ATOM      9  C   LIG d   1       6.540  -3.392  -4.498  0.00  0.00    -0.031 C 
ATOM     10  C   LIG d   1       6.185  -3.075  -5.933  0.00  0.00    -0.073 C 
ATOM     11  C   LIG d   1       7.045  -3.275  -6.901  0.00  0.00    -0.099 C 
ATOM     12  C   LIG d   1       4.808  -2.518  -6.221  0.00  0.00    -0.014 C 
ATOM     13  H   LIG d   1       4.056  -3.285  -6.034  0.00  0.00     0.035 H 
ATOM     14  H   LIG d   1       2.961  -0.546  -6.522  0.00  0.00     0.027 H 
ATOM     15  H   LIG d   1       2.433  -1.671  -5.249  0.00  0.00     0.027 H 
ATOM     16  H   LIG d   1       1.797   0.663  -4.701  0.00  0.00     0.027 H 
ATOM     17  H   LIG d   1       3.506   1.150  -4.795  0.00  0.00     0.027 H 
ATOM     18  H   LIG d   1       2.359  -0.931  -2.878  0.00  0.00     0.028 H 
ATOM     19  H   LIG d   1       2.818   0.733  -2.444  0.00  0.00     0.028 H 
ATOM     20  H   LIG d   1       6.899  -1.342  -3.939  0.00  0.00     0.027 H 
ATOM     21  H   LIG d   1       6.406  -2.395  -2.592  0.00  0.00     0.027 H 
ATOM     22  H   LIG d   1       7.600  -3.638  -4.427  0.00  0.00     0.031 H 
ATOM     23  H   LIG d   1       5.943  -4.234  -4.149  0.00  0.00     0.031 H 
ATOM     24  H   LIG d   1       6.820  -2.939  -7.902  0.00  0.00     0.053 H 
ATOM     25  H   LIG d   1       7.980  -3.777  -6.696  0.00  0.00     0.053 H 
ENDROOT
BRANCH  12  26
ATOM     26  C   LIG d   1       4.731  -2.069  -7.681  0.00  0.00    -0.042 C 
ATOM     27  H   LIG d   1       5.732  -2.065  -8.113  0.00  0.00     0.027 H 
ATOM     28  H   LIG d   1       4.310  -1.065  -7.731  0.00  0.00     0.027 H 
BRANCH  26  29
ATOM     29  C   LIG d   1       3.842  -3.034  -8.466  0.00  0.00    -0.024 C 
ATOM     30  H   LIG d   1       2.806  -2.700  -8.411  0.00  0.00     0.031 H 
ATOM     31  H   LIG d   1       3.924  -4.033  -8.038  0.00  0.00     0.031 H 
BRANCH  29  32
ATOM     32  C   LIG d   1       4.283  -3.067  -9.907  0.00  0.00    -0.003 A 
ATOM     33  C   LIG d   1       3.501  -3.277 -10.981  0.00  0.00     0.145 A 
ATOM     34  O   LIG d   1       4.270  -3.235 -12.081  0.00  0.00    -0.464 OA
ATOM     35  C   LIG d   1       5.543  -2.989 -11.728  0.00  0.00     0.092 A 
ATOM     36  C   LIG d   1       5.599  -2.880 -10.388  0.00  0.00    -0.020 A 
ATOM     37  H   LIG d   1       6.379  -2.897 -12.405  0.00  0.00     0.103 H 
ATOM     38  H   LIG d   1       6.480  -2.688  -9.795  0.00  0.00     0.065 H 
BRANCH  33  39
ATOM     39  C   LIG d   1       2.015  -3.526 -10.952  0.00  0.00     0.150 C 
ATOM     40  H   LIG d   1       1.809  -4.436 -10.389  0.00  0.00     0.078 H 
ATOM     41  H   LIG d   1       1.646  -3.638 -11.972  0.00  0.00     0.078 H 
BRANCH  39  42
ATOM     42  O   LIG d   1       1.348  -2.402 -10.318  0.00  0.00    -0.453 OA
BRANCH  42  43
ATOM     43  C   LIG d   1       1.464  -1.203 -10.921  0.00  0.00     0.340 C 
ATOM     44  O   LIG d   1       0.849  -0.974 -11.943  0.00  0.00    -0.245 OA
BRANCH  43  45
ATOM     45  C   LIG d   1       2.340  -0.165 -10.338  0.00  0.00     0.059 A 
ATOM     46  C   LIG d   1       3.382   0.377 -11.092  0.00  0.00    -0.048 A 
ATOM     47  C   LIG d   1       4.192   1.350 -10.543  0.00  0.00    -0.061 A 
ATOM     48  H   LIG d   1       3.553   0.037 -12.102  0.00  0.00     0.063 H 
ATOM     49  C   LIG d   1       3.973   1.787  -9.249  0.00  0.00    -0.062 A 
ATOM     50  H   LIG d   1       4.999   1.770 -11.124  0.00  0.00     0.062 H 
ATOM     51  C   LIG d   1       2.942   1.253  -8.495  0.00  0.00    -0.061 A 
ATOM     52  H   LIG d   1       4.610   2.548  -8.823  0.00  0.00     0.062 H 
ATOM     53  C   LIG d   1       2.124   0.280  -9.032  0.00  0.00    -0.048 A 
ATOM     54  H   LIG d   1       2.778   1.598  -7.486  0.00  0.00     0.062 H 
ATOM     55  H   LIG d   1       1.320  -0.135  -8.443  0.00  0.00     0.063 H 
ENDBRANCH  43  45
ENDBRANCH  42  43
ENDBRANCH  39  42
ENDBRANCH  33  39
ENDBRANCH  29  32
ENDBRANCH  26  29
ENDBRANCH  12  26
BRANCH   1  56
ATOM     56  C   LIG d   1       5.520  -0.184  -5.661  0.00  0.00    -0.059 C 
ATOM     57  H   LIG d   1       4.975   0.760  -5.687  0.00  0.00     0.024 H 
ATOM     58  H   LIG d   1       6.312  -0.127  -4.915  0.00  0.00     0.024 H 
ATOM     59  H   LIG d   1       5.957  -0.378  -6.641  0.00  0.00     0.024 H 
ENDBRANCH   1  56
BRANCH   5  60
ATOM     60  C   LIG d   1       4.691  -0.983  -1.463  0.00  0.00    -0.049 C 
ATOM     61  H   LIG d   1       4.882  -2.055  -1.425  0.00  0.00     0.024 H 
ATOM     62  H   LIG d   1       5.543  -0.446  -1.048  0.00  0.00     0.024 H 
ATOM     63  H   LIG d   1       3.797  -0.752  -0.883  0.00  0.00     0.024 H 
ENDBRANCH   5  60
BRANCH   5  64
ATOM     64  C   LIG d   1       5.405   0.590  -3.243  0.00  0.00     0.313 C 
ATOM     65  O   LIG d   1       4.958   1.698  -3.420  0.00  0.00    -0.250 OA
BRANCH  64  66
ATOM     66  O   LIG d   1       6.727   0.376  -3.338  0.00  0.00    -0.468 OA
BRANCH  66  67
ATOM     67  C   LIG d   1       7.558   1.521  -3.663  0.00  0.00     0.082 C 
ATOM     68  H   LIG d   1       7.132   2.049  -4.516  0.00  0.00     0.066 H 
ATOM     69  H   LIG d   1       7.600   2.193  -2.806  0.00  0.00     0.066 H 
ATOM     70  H   LIG d   1       8.564   1.182  -3.909  0.00  0.00     0.066 H 
ENDBRANCH  66  67
ENDBRANCH  64  66
ENDBRANCH   5  64
TORSDOF 12
ENDMDL
MODEL 6
REMARK VINA RESULT:      -6.6      3.086      6.495
REMARK  12 active torsions:
REMARK  status: ('A' for Active; 'I' for Inactive)
REMARK    1  A    between atoms: C_1  and  C_2 
REMARK    2  A    between atoms: C_6  and  C_32 
REMARK    3  A    between atoms: C_6  and  C_33 
REMARK    4  A    between atoms: C_13  and  C_15 
REMARK    5  A    between atoms: C_15  and  C_16 
REMARK    6  A    between atoms: C_16  and  C_17 
REMARK    7  A    between atoms: C_21  and  C_22 
REMARK    8  A    between atoms: C_22  and  O_23 
REMARK    9  A    between atoms: O_23  and  C_24 
REMARK   10  A    between atoms: C_24  and  C_26 
REMARK   11  A    between atoms: C_33  and  O_35 
REMARK   12  A    between atoms: O_35  and  C_36 
ROOT
ATOM      1  C   LIG d   1       4.980  -0.865  -8.149  0.00  0.00    -0.022 C 
ATOM      2  C   LIG d   1       3.594  -1.408  -7.788  0.00  0.00    -0.047 C 
ATOM      3  C   LIG d   1       2.567  -0.926  -8.813  0.00  0.00    -0.051 C 
ATOM      4  C   LIG d   1       2.527   0.604  -8.806  0.00  0.00    -0.037 C 
ATOM      5  C   LIG d   1       3.905   1.146  -9.183  0.00  0.00     0.068 C 
ATOM      6  C   LIG d   1       4.946   0.665  -8.169  0.00  0.00    -0.019 C 
ATOM      7  H   LIG d   1       4.688   1.035  -7.177  0.00  0.00     0.032 H 
ATOM      8  C   LIG d   1       6.319   1.209  -8.576  0.00  0.00    -0.045 C 
ATOM      9  C   LIG d   1       7.362   0.812  -7.528  0.00  0.00    -0.031 C 
ATOM     10  C   LIG d   1       7.322  -0.690  -7.362  0.00  0.00    -0.073 C 
ATOM     11  C   LIG d   1       8.414  -1.408  -7.449  0.00  0.00    -0.099 C 
ATOM     12  C   LIG d   1       5.984  -1.342  -7.093  0.00  0.00    -0.014 C 
ATOM     13  H   LIG d   1       5.632  -1.061  -6.101  0.00  0.00     0.035 H 
ATOM     14  H   LIG d   1       3.622  -2.497  -7.786  0.00  0.00     0.027 H 
ATOM     15  H   LIG d   1       3.314  -1.050  -6.797  0.00  0.00     0.027 H 
ATOM     16  H   LIG d   1       1.583  -1.318  -8.553  0.00  0.00     0.027 H 
ATOM     17  H   LIG d   1       2.848  -1.278  -9.804  0.00  0.00     0.027 H 
ATOM     18  H   LIG d   1       2.257   0.957  -7.810  0.00  0.00     0.028 H 
ATOM     19  H   LIG d   1       1.788   0.952  -9.528  0.00  0.00     0.028 H 
ATOM     20  H   LIG d   1       6.601   0.796  -9.544  0.00  0.00     0.027 H 
ATOM     21  H   LIG d   1       6.270   2.296  -8.647  0.00  0.00     0.027 H 
ATOM     22  H   LIG d   1       8.353   1.118  -7.863  0.00  0.00     0.031 H 
ATOM     23  H   LIG d   1       7.129   1.293  -6.578  0.00  0.00     0.031 H 
ATOM     24  H   LIG d   1       8.355  -2.486  -7.442  0.00  0.00     0.053 H 
ATOM     25  H   LIG d   1       9.375  -0.920  -7.529  0.00  0.00     0.053 H 
ENDROOT
BRANCH  12  26
ATOM     26  C   LIG d   1       6.129  -2.863  -7.174  0.00  0.00    -0.042 C 
ATOM     27  H   LIG d   1       7.164  -3.117  -7.402  0.00  0.00     0.027 H 
ATOM     28  H   LIG d   1       5.479  -3.249  -7.959  0.00  0.00     0.027 H 
BRANCH  26  29
ATOM     29  C   LIG d   1       5.735  -3.486  -5.833  0.00  0.00    -0.024 C 
ATOM     30  H   LIG d   1       4.798  -4.030  -5.947  0.00  0.00     0.031 H 
ATOM     31  H   LIG d   1       5.609  -2.698  -5.091  0.00  0.00     0.031 H 
BRANCH  29  32
ATOM     32  C   LIG d   1       6.816  -4.434  -5.382  0.00  0.00    -0.003 A 
ATOM     33  C   LIG d   1       7.940  -4.111  -4.718  0.00  0.00     0.145 A 
ATOM     34  O   LIG d   1       8.645  -5.234  -4.505  0.00  0.00    -0.464 OA
ATOM     35  C   LIG d   1       7.980  -6.283  -5.018  0.00  0.00     0.092 A 
ATOM     36  C   LIG d   1       6.842  -5.834  -5.575  0.00  0.00    -0.020 A 
ATOM     37  H   LIG d   1       8.308  -7.312  -4.991  0.00  0.00     0.103 H 
ATOM     38  H   LIG d   1       6.092  -6.429  -6.074  0.00  0.00     0.065 H 
BRANCH  33  39
ATOM     39  C   LIG d   1       8.342  -2.723  -4.291  0.00  0.00     0.150 C 
ATOM     40  H   LIG d   1       8.292  -2.050  -5.148  0.00  0.00     0.078 H 
ATOM     41  H   LIG d   1       9.362  -2.743  -3.904  0.00  0.00     0.078 H 
BRANCH  39  42
ATOM     42  O   LIG d   1       7.441  -2.254  -3.254  0.00  0.00    -0.453 OA
BRANCH  42  43
ATOM     43  C   LIG d   1       6.850  -1.059  -3.451  0.00  0.00     0.340 C 
ATOM     44  O   LIG d   1       7.527  -0.074  -3.663  0.00  0.00    -0.245 OA
BRANCH  43  45
ATOM     45  C   LIG d   1       5.376  -0.949  -3.411  0.00  0.00     0.059 A 
ATOM     46  C   LIG d   1       4.635  -1.774  -2.562  0.00  0.00    -0.048 A 
ATOM     47  C   LIG d   1       3.261  -1.662  -2.526  0.00  0.00    -0.061 A 
ATOM     48  H   LIG d   1       5.137  -2.497  -1.937  0.00  0.00     0.063 H 
ATOM     49  C   LIG d   1       2.617  -0.735  -3.326  0.00  0.00    -0.062 A 
ATOM     50  H   LIG d   1       2.686  -2.300  -1.871  0.00  0.00     0.062 H 
ATOM     51  C   LIG d   1       3.346   0.085  -4.170  0.00  0.00    -0.061 A 
ATOM     52  H   LIG d   1       1.541  -0.651  -3.294  0.00  0.00     0.062 H 
ATOM     53  C   LIG d   1       4.722  -0.016  -4.216  0.00  0.00    -0.048 A 
ATOM     54  H   LIG d   1       2.838   0.806  -4.792  0.00  0.00     0.062 H 
ATOM     55  H   LIG d   1       5.289   0.625  -4.874  0.00  0.00     0.063 H 
ENDBRANCH  43  45
ENDBRANCH  42  43
ENDBRANCH  39  42
ENDBRANCH  33  39
ENDBRANCH  29  32
ENDBRANCH  26  29
ENDBRANCH  12  26
BRANCH   1  56
ATOM     56  C   LIG d   1       5.397  -1.385  -9.527  0.00  0.00    -0.059 C 
ATOM     57  H   LIG d   1       4.511  -1.522 -10.147  0.00  0.00     0.024 H 
ATOM     58  H   LIG d   1       6.065  -0.666 -10.001  0.00  0.00     0.024 H 
ATOM     59  H   LIG d   1       5.912  -2.340  -9.413  0.00  0.00     0.024 H 
ENDBRANCH   1  56
BRANCH   5  60
ATOM     60  C   LIG d   1       3.868   2.676  -9.186  0.00  0.00    -0.049 C 
ATOM     61  H   LIG d   1       2.848   3.014  -9.004  0.00  0.00     0.024 H 
ATOM     62  H   LIG d   1       4.523   3.056  -8.403  0.00  0.00     0.024 H 
ATOM     63  H   LIG d   1       4.206   3.045 -10.155  0.00  0.00     0.024 H 
ENDBRANCH   5  60
BRANCH   5  64
ATOM     64  C   LIG d   1       4.278   0.650 -10.557  0.00  0.00     0.313 C 
ATOM     65  O   LIG d   1       5.381   0.868 -11.000  0.00  0.00    -0.250 OA
BRANCH  64  66
ATOM     66  O   LIG d   1       3.383  -0.032 -11.289  0.00  0.00    -0.468 OA
BRANCH  66  67
ATOM     67  C   LIG d   1       3.827  -0.526 -12.580  0.00  0.00     0.082 C 
ATOM     68  H   LIG d   1       3.593  -1.587 -12.664  0.00  0.00     0.066 H 
ATOM     69  H   LIG d   1       3.317   0.021 -13.373  0.00  0.00     0.066 H 
ATOM     70  H   LIG d   1       4.903  -0.381 -12.675  0.00  0.00     0.066 H 
ENDBRANCH  66  67
ENDBRANCH  64  66
ENDBRANCH   5  64
TORSDOF 12
ENDMDL
MODEL 7
REMARK VINA RESULT:      -6.5      2.896      7.015
REMARK  12 active torsions:
REMARK  status: ('A' for Active; 'I' for Inactive)
REMARK    1  A    between atoms: C_1  and  C_2 
REMARK    2  A    between atoms: C_6  and  C_32 
REMARK    3  A    between atoms: C_6  and  C_33 
REMARK    4  A    between atoms: C_13  and  C_15 
REMARK    5  A    between atoms: C_15  and  C_16 
REMARK    6  A    between atoms: C_16  and  C_17 
REMARK    7  A    between atoms: C_21  and  C_22 
REMARK    8  A    between atoms: C_22  and  O_23 
REMARK    9  A    between atoms: O_23  and  C_24 
REMARK   10  A    between atoms: C_24  and  C_26 
REMARK   11  A    between atoms: C_33  and  O_35 
REMARK   12  A    between atoms: O_35  and  C_36 
ROOT
ATOM      1  C   LIG d   1       4.393  -0.744  -9.112  0.00  0.00    -0.022 C 
ATOM      2  C   LIG d   1       4.094  -2.003  -8.293  0.00  0.00    -0.047 C 
ATOM      3  C   LIG d   1       3.424  -3.052  -9.181  0.00  0.00    -0.051 C 
ATOM      4  C   LIG d   1       2.113  -2.485  -9.730  0.00  0.00    -0.037 C 
ATOM      5  C   LIG d   1       2.413  -1.238 -10.563  0.00  0.00     0.068 C 
ATOM      6  C   LIG d   1       3.092  -0.181  -9.687  0.00  0.00    -0.019 C 
ATOM      7  H   LIG d   1       2.425   0.099  -8.870  0.00  0.00     0.032 H 
ATOM      8  C   LIG d   1       3.393   1.051 -10.545  0.00  0.00    -0.045 C 
ATOM      9  C   LIG d   1       3.993   2.154  -9.670  0.00  0.00    -0.031 C 
ATOM     10  C   LIG d   1       5.203   1.591  -8.957  0.00  0.00    -0.073 C 
ATOM     11  C   LIG d   1       6.359   2.206  -9.002  0.00  0.00    -0.099 C 
ATOM     12  C   LIG d   1       5.040   0.297  -8.192  0.00  0.00    -0.014 C 
ATOM     13  H   LIG d   1       4.404   0.462  -7.322  0.00  0.00     0.035 H 
ATOM     14  H   LIG d   1       5.025  -2.406  -7.895  0.00  0.00     0.027 H 
ATOM     15  H   LIG d   1       3.428  -1.748  -7.468  0.00  0.00     0.027 H 
ATOM     16  H   LIG d   1       3.217  -3.947  -8.594  0.00  0.00     0.027 H 
ATOM     17  H   LIG d   1       4.086  -3.305 -10.009  0.00  0.00     0.027 H 
ATOM     18  H   LIG d   1       1.455  -2.220  -8.902  0.00  0.00     0.028 H 
ATOM     19  H   LIG d   1       1.627  -3.233 -10.357  0.00  0.00     0.028 H 
ATOM     20  H   LIG d   1       4.101   0.783 -11.328  0.00  0.00     0.027 H 
ATOM     21  H   LIG d   1       2.469   1.410 -10.999  0.00  0.00     0.027 H 
ATOM     22  H   LIG d   1       4.294   2.995 -10.295  0.00  0.00     0.031 H 
ATOM     23  H   LIG d   1       3.256   2.484  -8.938  0.00  0.00     0.031 H 
ATOM     24  H   LIG d   1       7.237   1.736  -8.586  0.00  0.00     0.053 H 
ATOM     25  H   LIG d   1       6.432   3.183  -9.456  0.00  0.00     0.053 H 
ENDROOT
BRANCH  12  26
ATOM     26  C   LIG d   1       6.412  -0.204  -7.735  0.00  0.00    -0.042 C 
ATOM     27  H   LIG d   1       7.192   0.391  -8.209  0.00  0.00     0.027 H 
ATOM     28  H   LIG d   1       6.530  -1.250  -8.018  0.00  0.00     0.027 H 
BRANCH  26  29
ATOM     29  C   LIG d   1       6.523  -0.072  -6.215  0.00  0.00    -0.024 C 
ATOM     30  H   LIG d   1       5.690  -0.592  -5.743  0.00  0.00     0.031 H 
ATOM     31  H   LIG d   1       6.497   0.982  -5.939  0.00  0.00     0.031 H 
BRANCH  29  32
ATOM     32  C   LIG d   1       7.822  -0.681  -5.751  0.00  0.00    -0.003 A 
ATOM     33  C   LIG d   1       7.992  -1.910  -5.234  0.00  0.00     0.145 A 
ATOM     34  O   LIG d   1       9.292  -2.072  -4.941  0.00  0.00    -0.464 OA
ATOM     35  C   LIG d   1       9.967  -0.959  -5.274  0.00  0.00     0.092 A 
ATOM     36  C   LIG d   1       9.095  -0.068  -5.778  0.00  0.00    -0.020 A 
ATOM     37  H   LIG d   1      11.030  -0.806  -5.154  0.00  0.00     0.103 H 
ATOM     38  H   LIG d   1       9.324   0.926  -6.133  0.00  0.00     0.065 H 
BRANCH  33  39
ATOM     39  C   LIG d   1       6.905  -2.931  -5.013  0.00  0.00     0.150 C 
ATOM     40  H   LIG d   1       7.336  -3.932  -5.035  0.00  0.00     0.078 H 
ATOM     41  H   LIG d   1       6.156  -2.840  -5.800  0.00  0.00     0.078 H 
BRANCH  39  42
ATOM     42  O   LIG d   1       6.280  -2.701  -3.722  0.00  0.00    -0.453 OA
BRANCH  42  43
ATOM     43  C   LIG d   1       4.957  -2.444  -3.721  0.00  0.00     0.340 C 
ATOM     44  O   LIG d   1       4.170  -3.308  -4.051  0.00  0.00    -0.245 OA
BRANCH  43  45
ATOM     45  C   LIG d   1       4.465  -1.111  -3.316  0.00  0.00     0.059 A 
ATOM     46  C   LIG d   1       4.908  -0.533  -2.124  0.00  0.00    -0.048 A 
ATOM     47  C   LIG d   1       4.448   0.714  -1.754  0.00  0.00    -0.061 A 
ATOM     48  H   LIG d   1       5.608  -1.061  -1.495  0.00  0.00     0.063 H 
ATOM     49  C   LIG d   1       3.551   1.392  -2.561  0.00  0.00    -0.062 A 
ATOM     50  H   LIG d   1       4.789   1.163  -0.833  0.00  0.00     0.062 H 
ATOM     51  C   LIG d   1       3.107   0.824  -3.743  0.00  0.00    -0.061 A 
ATOM     52  H   LIG d   1       3.194   2.367  -2.267  0.00  0.00     0.062 H 
ATOM     53  C   LIG d   1       3.559  -0.422  -4.125  0.00  0.00    -0.048 A 
ATOM     54  H   LIG d   1       2.407   1.358  -4.367  0.00  0.00     0.062 H 
ATOM     55  H   LIG d   1       3.213  -0.864  -5.048  0.00  0.00     0.063 H 
ENDBRANCH  43  45
ENDBRANCH  42  43
ENDBRANCH  39  42
ENDBRANCH  33  39
ENDBRANCH  29  32
ENDBRANCH  26  29
ENDBRANCH  12  26
BRANCH   1  56
ATOM     56  C   LIG d   1       5.351  -1.086 -10.255  0.00  0.00    -0.059 C 
ATOM     57  H   LIG d   1       5.107  -2.071 -10.651  0.00  0.00     0.024 H 
ATOM     58  H   LIG d   1       5.255  -0.342 -11.046  0.00  0.00     0.024 H 
ATOM     59  H   LIG d   1       6.375  -1.088  -9.881  0.00  0.00     0.024 H 
ENDBRANCH   1  56
BRANCH   5  60
ATOM     60  C   LIG d   1       1.106  -0.672 -11.121  0.00  0.00    -0.049 C 
ATOM     61  H   LIG d   1       1.077  -0.823 -12.200  0.00  0.00     0.024 H 
ATOM     62  H   LIG d   1       0.262  -1.184 -10.659  0.00  0.00     0.024 H 
ATOM     63  H   LIG d   1       1.049   0.394 -10.901  0.00  0.00     0.024 H 
ENDBRANCH   5  60
BRANCH   5  64
ATOM     64  C   LIG d   1       3.328  -1.606 -11.703  0.00  0.00     0.313 C 
ATOM     65  O   LIG d   1       3.692  -2.750 -11.840  0.00  0.00    -0.250 OA
BRANCH  64  66
ATOM     66  O   LIG d   1       3.739  -0.663 -12.564  0.00  0.00    -0.468 OA
BRANCH  66  67
ATOM     67  C   LIG d   1       3.854  -1.050 -13.959  0.00  0.00     0.082 C 
ATOM     68  H   LIG d   1       2.862  -1.236 -14.368  0.00  0.00     0.066 H 
ATOM     69  H   LIG d   1       4.332  -0.246 -14.520  0.00  0.00     0.066 H 
ATOM     70  H   LIG d   1       4.457  -1.954 -14.037  0.00  0.00     0.066 H 
ENDBRANCH  66  67
ENDBRANCH  64  66
ENDBRANCH   5  64
TORSDOF 12
ENDMDL
MODEL 8
REMARK VINA RESULT:      -6.5      3.492      6.823
REMARK  12 active torsions:
REMARK  status: ('A' for Active; 'I' for Inactive)
REMARK    1  A    between atoms: C_1  and  C_2 
REMARK    2  A    between atoms: C_6  and  C_32 
REMARK    3  A    between atoms: C_6  and  C_33 
REMARK    4  A    between atoms: C_13  and  C_15 
REMARK    5  A    between atoms: C_15  and  C_16 
REMARK    6  A    between atoms: C_16  and  C_17 
REMARK    7  A    between atoms: C_21  and  C_22 
REMARK    8  A    between atoms: C_22  and  O_23 
REMARK    9  A    between atoms: O_23  and  C_24 
REMARK   10  A    between atoms: C_24  and  C_26 
REMARK   11  A    between atoms: C_33  and  O_35 
REMARK   12  A    between atoms: O_35  and  C_36 
ROOT
ATOM      1  C   LIG d   1       6.103  -1.046  -4.334  0.00  0.00    -0.022 C 
ATOM      2  C   LIG d   1       5.689  -2.471  -3.954  0.00  0.00    -0.047 C 
ATOM      3  C   LIG d   1       4.290  -2.456  -3.337  0.00  0.00    -0.051 C 
ATOM      4  C   LIG d   1       4.302  -1.583  -2.081  0.00  0.00    -0.037 C 
ATOM      5  C   LIG d   1       4.699  -0.156  -2.463  0.00  0.00     0.068 C 
ATOM      6  C   LIG d   1       6.095  -0.157  -3.089  0.00  0.00    -0.019 C 
ATOM      7  H   LIG d   1       6.819  -0.537  -2.367  0.00  0.00     0.032 H 
ATOM      8  C   LIG d   1       6.463   1.279  -3.474  0.00  0.00    -0.045 C 
ATOM      9  C   LIG d   1       7.892   1.315  -4.024  0.00  0.00    -0.031 C 
ATOM     10  C   LIG d   1       7.987   0.329  -5.167  0.00  0.00    -0.073 C 
ATOM     11  C   LIG d   1       8.463   0.691  -6.333  0.00  0.00    -0.099 C 
ATOM     12  C   LIG d   1       7.517  -1.088  -4.926  0.00  0.00    -0.014 C 
ATOM     13  H   LIG d   1       8.190  -1.585  -4.228  0.00  0.00     0.035 H 
ATOM     14  H   LIG d   1       5.686  -3.097  -4.846  0.00  0.00     0.027 H 
ATOM     15  H   LIG d   1       6.400  -2.873  -3.232  0.00  0.00     0.027 H 
ATOM     16  H   LIG d   1       3.999  -3.473  -3.072  0.00  0.00     0.027 H 
ATOM     17  H   LIG d   1       3.579  -2.051  -4.056  0.00  0.00     0.027 H 
ATOM     18  H   LIG d   1       5.023  -1.981  -1.366  0.00  0.00     0.028 H 
ATOM     19  H   LIG d   1       3.309  -1.577  -1.632  0.00  0.00     0.028 H 
ATOM     20  H   LIG d   1       5.772   1.639  -4.236  0.00  0.00     0.027 H 
ATOM     21  H   LIG d   1       6.397   1.918  -2.594  0.00  0.00     0.027 H 
ATOM     22  H   LIG d   1       8.121   2.318  -4.384  0.00  0.00     0.031 H 
ATOM     23  H   LIG d   1       8.594   1.036  -3.239  0.00  0.00     0.031 H 
ATOM     24  H   LIG d   1       8.419   0.010  -7.169  0.00  0.00     0.053 H 
ATOM     25  H   LIG d   1       8.898   1.672  -6.456  0.00  0.00     0.053 H 
ENDROOT
BRANCH  12  26
ATOM     26  C   LIG d   1       7.496  -1.854  -6.251  0.00  0.00    -0.042 C 
ATOM     27  H   LIG d   1       7.444  -1.145  -7.078  0.00  0.00     0.027 H 
ATOM     28  H   LIG d   1       6.624  -2.508  -6.279  0.00  0.00     0.027 H 
BRANCH  26  29
ATOM     29  C   LIG d   1       8.769  -2.693  -6.376  0.00  0.00    -0.024 C 
ATOM     30  H   LIG d   1       9.638  -2.065  -6.183  0.00  0.00     0.031 H 
ATOM     31  H   LIG d   1       8.835  -3.104  -7.384  0.00  0.00     0.031 H 
BRANCH  29  32
ATOM     32  C   LIG d   1       8.729  -3.818  -5.376  0.00  0.00    -0.003 A 
ATOM     33  C   LIG d   1       7.993  -4.941  -5.460  0.00  0.00     0.145 A 
ATOM     34  O   LIG d   1       8.233  -5.689  -4.370  0.00  0.00    -0.464 OA
ATOM     35  C   LIG d   1       9.126  -5.063  -3.586  0.00  0.00     0.092 A 
ATOM     36  C   LIG d   1       9.460  -3.897  -4.168  0.00  0.00    -0.020 A 
ATOM     37  H   LIG d   1       9.509  -5.433  -2.646  0.00  0.00     0.103 H 
ATOM     38  H   LIG d   1      10.153  -3.163  -3.786  0.00  0.00     0.065 H 
BRANCH  33  39
ATOM     39  C   LIG d   1       7.053  -5.295  -6.583  0.00  0.00     0.150 C 
ATOM     40  H   LIG d   1       7.593  -5.851  -7.349  0.00  0.00     0.078 H 
ATOM     41  H   LIG d   1       6.644  -4.382  -7.016  0.00  0.00     0.078 H 
BRANCH  39  42
ATOM     42  O   LIG d   1       5.968  -6.112  -6.067  0.00  0.00    -0.453 OA
BRANCH  42  43
ATOM     43  C   LIG d   1       4.748  -5.542  -6.009  0.00  0.00     0.340 C 
ATOM     44  O   LIG d   1       4.088  -5.622  -4.993  0.00  0.00    -0.245 OA
BRANCH  43  45
ATOM     45  C   LIG d   1       4.215  -4.819  -7.182  0.00  0.00     0.059 A 
ATOM     46  C   LIG d   1       4.259  -3.424  -7.224  0.00  0.00    -0.048 A 
ATOM     47  C   LIG d   1       3.764  -2.755  -8.324  0.00  0.00    -0.061 A 
ATOM     48  H   LIG d   1       4.679  -2.871  -6.398  0.00  0.00     0.063 H 
ATOM     49  C   LIG d   1       3.226  -3.463  -9.384  0.00  0.00    -0.062 A 
ATOM     50  H   LIG d   1       3.797  -1.676  -8.359  0.00  0.00     0.062 H 
ATOM     51  C   LIG d   1       3.179  -4.846  -9.349  0.00  0.00    -0.061 A 
ATOM     52  H   LIG d   1       2.840  -2.935 -10.243  0.00  0.00     0.062 H 
ATOM     53  C   LIG d   1       3.671  -5.528  -8.254  0.00  0.00    -0.048 A 
ATOM     54  H   LIG d   1       2.757  -5.392 -10.178  0.00  0.00     0.062 H 
ATOM     55  H   LIG d   1       3.634  -6.607  -8.228  0.00  0.00     0.063 H 
ENDBRANCH  43  45
ENDBRANCH  42  43
ENDBRANCH  39  42
ENDBRANCH  33  39
ENDBRANCH  29  32
ENDBRANCH  26  29
ENDBRANCH  12  26
BRANCH   1  56
ATOM     56  C   LIG d   1       5.129  -0.483  -5.371  0.00  0.00    -0.059 C 
ATOM     57  H   LIG d   1       5.545   0.427  -5.804  0.00  0.00     0.024 H 
ATOM     58  H   LIG d   1       4.968  -1.220  -6.158  0.00  0.00     0.024 H 
ATOM     59  H   LIG d   1       4.178  -0.253  -4.889  0.00  0.00     0.024 H 
ENDBRANCH   1  56
BRANCH   5  60
ATOM     60  C   LIG d   1       4.703   0.723  -1.211  0.00  0.00    -0.049 C 
ATOM     61  H   LIG d   1       3.882   0.430  -0.558  0.00  0.00     0.024 H 
ATOM     62  H   LIG d   1       5.649   0.599  -0.684  0.00  0.00     0.024 H 
ATOM     63  H   LIG d   1       4.583   1.768  -1.501  0.00  0.00     0.024 H 
ENDBRANCH   5  60
BRANCH   5  64
ATOM     64  C   LIG d   1       3.704   0.390  -3.456  0.00  0.00     0.313 C 
ATOM     65  O   LIG d   1       3.788   1.536  -3.827  0.00  0.00    -0.250 OA
BRANCH  64  66
ATOM     66  O   LIG d   1       2.726  -0.399  -3.927  0.00  0.00    -0.468 OA
BRANCH  66  67
ATOM     67  C   LIG d   1       1.836   0.177  -4.920  0.00  0.00     0.082 C 
ATOM     68  H   LIG d   1       1.255  -0.616  -5.391  0.00  0.00     0.066 H 
ATOM     69  H   LIG d   1       1.161   0.883  -4.436  0.00  0.00     0.066 H 
ATOM     70  H   LIG d   1       2.424   0.696  -5.676  0.00  0.00     0.066 H 
ENDBRANCH  66  67
ENDBRANCH  64  66
ENDBRANCH   5  64
TORSDOF 12
ENDMDL
MODEL 9
REMARK VINA RESULT:      -6.4      3.552      6.179
REMARK  12 active torsions:
REMARK  status: ('A' for Active; 'I' for Inactive)
REMARK    1  A    between atoms: C_1  and  C_2 
REMARK    2  A    between atoms: C_6  and  C_32 
REMARK    3  A    between atoms: C_6  and  C_33 
REMARK    4  A    between atoms: C_13  and  C_15 
REMARK    5  A    between atoms: C_15  and  C_16 
REMARK    6  A    between atoms: C_16  and  C_17 
REMARK    7  A    between atoms: C_21  and  C_22 
REMARK    8  A    between atoms: C_22  and  O_23 
REMARK    9  A    between atoms: O_23  and  C_24 
REMARK   10  A    between atoms: C_24  and  C_26 
REMARK   11  A    between atoms: C_33  and  O_35 
REMARK   12  A    between atoms: O_35  and  C_36 
ROOT
ATOM      1  C   LIG d   1      10.814   6.190  -3.194  0.00  0.00    -0.022 C 
ATOM      2  C   LIG d   1      11.248   4.920  -2.457  0.00  0.00    -0.047 C 
ATOM      3  C   LIG d   1      11.306   5.189  -0.953  0.00  0.00    -0.051 C 
ATOM      4  C   LIG d   1      12.320   6.303  -0.679  0.00  0.00    -0.037 C 
ATOM      5  C   LIG d   1      11.877   7.576  -1.401  0.00  0.00     0.068 C 
ATOM      6  C   LIG d   1      11.807   7.318  -2.908  0.00  0.00    -0.019 C 
ATOM      7  H   LIG d   1      12.793   7.036  -3.277  0.00  0.00     0.032 H 
ATOM      8  C   LIG d   1      11.349   8.603  -3.607  0.00  0.00    -0.045 C 
ATOM      9  C   LIG d   1      11.355   8.394  -5.123  0.00  0.00    -0.031 C 
ATOM     10  C   LIG d   1      10.503   7.186  -5.441  0.00  0.00    -0.073 C 
ATOM     11  C   LIG d   1       9.545   7.251  -6.332  0.00  0.00    -0.099 C 
ATOM     12  C   LIG d   1      10.788   5.899  -4.699  0.00  0.00    -0.014 C 
ATOM     13  H   LIG d   1      11.754   5.501  -5.011  0.00  0.00     0.035 H 
ATOM     14  H   LIG d   1      10.531   4.124  -2.656  0.00  0.00     0.027 H 
ATOM     15  H   LIG d   1      12.234   4.617  -2.810  0.00  0.00     0.027 H 
ATOM     16  H   LIG d   1      11.613   4.281  -0.433  0.00  0.00     0.027 H 
ATOM     17  H   LIG d   1      10.323   5.497  -0.599  0.00  0.00     0.027 H 
ATOM     18  H   LIG d   1      13.302   6.000  -1.044  0.00  0.00     0.028 H 
ATOM     19  H   LIG d   1      12.372   6.491   0.393  0.00  0.00     0.028 H 
ATOM     20  H   LIG d   1      10.342   8.855  -3.278  0.00  0.00     0.027 H 
ATOM     21  H   LIG d   1      12.029   9.416  -3.349  0.00  0.00     0.027 H 
ATOM     22  H   LIG d   1      10.942   9.275  -5.616  0.00  0.00     0.031 H 
ATOM     23  H   LIG d   1      12.376   8.225  -5.467  0.00  0.00     0.031 H 
ATOM     24  H   LIG d   1       8.874   6.416  -6.466  0.00  0.00     0.053 H 
ATOM     25  H   LIG d   1       9.428   8.141  -6.933  0.00  0.00     0.053 H 
ENDROOT
BRANCH  12  26
ATOM     26  C   LIG d   1       9.690   4.877  -5.005  0.00  0.00    -0.042 C 
ATOM     27  H   LIG d   1       8.958   5.323  -5.678  0.00  0.00     0.027 H 
ATOM     28  H   LIG d   1       9.200   4.582  -4.078  0.00  0.00     0.027 H 
BRANCH  26  29
ATOM     29  C   LIG d   1      10.310   3.646  -5.669  0.00  0.00    -0.024 C 
ATOM     30  H   LIG d   1      10.285   2.807  -4.974  0.00  0.00     0.031 H 
ATOM     31  H   LIG d   1      11.343   3.861  -5.941  0.00  0.00     0.031 H 
BRANCH  29  32
ATOM     32  C   LIG d   1       9.527   3.295  -6.908  0.00  0.00    -0.003 A 
ATOM     33  C   LIG d   1       8.741   2.218  -7.082  0.00  0.00     0.145 A 
ATOM     34  O   LIG d   1       8.225   2.263  -8.321  0.00  0.00    -0.464 OA
ATOM     35  C   LIG d   1       8.664   3.368  -8.948  0.00  0.00     0.092 A 
ATOM     36  C   LIG d   1       9.477   4.037  -8.111  0.00  0.00    -0.020 A 
ATOM     37  H   LIG d   1       8.410   3.665  -9.954  0.00  0.00     0.103 H 
ATOM     38  H   LIG d   1       9.993   4.962  -8.318  0.00  0.00     0.065 H 
BRANCH  33  39
ATOM     39  C   LIG d   1       8.487   1.139  -6.061  0.00  0.00     0.150 C 
ATOM     40  H   LIG d   1       9.305   1.121  -5.340  0.00  0.00     0.078 H 
ATOM     41  H   LIG d   1       8.422   0.172  -6.562  0.00  0.00     0.078 H 
BRANCH  39  42
ATOM     42  O   LIG d   1       7.238   1.410  -5.370  0.00  0.00    -0.453 OA
BRANCH  42  43
ATOM     43  C   LIG d   1       7.263   1.366  -4.024  0.00  0.00     0.340 C 
ATOM     44  O   LIG d   1       8.130   1.956  -3.412  0.00  0.00    -0.245 OA
BRANCH  43  45
ATOM     45  C   LIG d   1       6.232   0.600  -3.291  0.00  0.00     0.059 A 
ATOM     46  C   LIG d   1       6.249  -0.796  -3.314  0.00  0.00    -0.048 A 
ATOM     47  C   LIG d   1       5.287  -1.504  -2.623  0.00  0.00    -0.061 A 
ATOM     48  H   LIG d   1       7.012  -1.319  -3.869  0.00  0.00     0.063 H 
ATOM     49  C   LIG d   1       4.308  -0.834  -1.911  0.00  0.00    -0.062 A 
ATOM     50  H   LIG d   1       5.298  -2.584  -2.640  0.00  0.00     0.062 H 
ATOM     51  C   LIG d   1       4.286   0.549  -1.885  0.00  0.00    -0.061 A 
ATOM     52  H   LIG d   1       3.557  -1.393  -1.372  0.00  0.00     0.062 H 
ATOM     53  C   LIG d   1       5.242   1.270  -2.570  0.00  0.00    -0.048 A 
ATOM     54  H   LIG d   1       3.519   1.065  -1.328  0.00  0.00     0.062 H 
ATOM     55  H   LIG d   1       5.223   2.350  -2.549  0.00  0.00     0.063 H 
ENDBRANCH  43  45
ENDBRANCH  42  43
ENDBRANCH  39  42
ENDBRANCH  33  39
ENDBRANCH  29  32
ENDBRANCH  26  29
ENDBRANCH  12  26
BRANCH   1  56
ATOM     56  C   LIG d   1       9.417   6.608  -2.728  0.00  0.00    -0.059 C 
ATOM     57  H   LIG d   1       9.464   7.605  -2.291  0.00  0.00     0.024 H 
ATOM     58  H   LIG d   1       8.737   6.615  -3.580  0.00  0.00     0.024 H 
ATOM     59  H   LIG d   1       9.058   5.900  -1.981  0.00  0.00     0.024 H 
ENDBRANCH   1  56
BRANCH   5  60
ATOM     60  C   LIG d   1      12.883   8.695  -1.122  0.00  0.00    -0.049 C 
ATOM     61  H   LIG d   1      13.750   8.283  -0.607  0.00  0.00     0.024 H 
ATOM     62  H   LIG d   1      13.197   9.142  -2.065  0.00  0.00     0.024 H 
ATOM     63  H   LIG d   1      12.415   9.455  -0.497  0.00  0.00     0.024 H 
ENDBRANCH   5  60
BRANCH   5  64
ATOM     64  C   LIG d   1      10.517   7.987  -0.899  0.00  0.00     0.313 C 
ATOM     65  O   LIG d   1       9.953   7.320  -0.064  0.00  0.00    -0.250 OA
BRANCH  64  66
ATOM     66  O   LIG d   1       9.931   9.095  -1.380  0.00  0.00    -0.468 OA
BRANCH  66  67
ATOM     67  C   LIG d   1       8.837   9.652  -0.605  0.00  0.00     0.082 C 
ATOM     68  H   LIG d   1       8.379  10.471  -1.160  0.00  0.00     0.066 H 
ATOM     69  H   LIG d   1       8.093   8.878  -0.421  0.00  0.00     0.066 H 
ATOM     70  H   LIG d   1       9.217  10.024   0.346  0.00  0.00     0.066 H 
ENDBRANCH  66  67
ENDBRANCH  64  66
ENDBRANCH   5  64
TORSDOF 12
ENDMDL
