MODEL 1
REMARK VINA RESULT:      -6.9      0.000      0.000
REMARK  7 active torsions:
REMARK  status: ('A' for Active; 'I' for Inactive)
REMARK    1  A    between atoms: C_1  and  C_2 
REMARK    2  A    between atoms: C_2  and  C_3 
REMARK    3  A    between atoms: C_6  and  C_15 
REMARK    4  A    between atoms: C_13  and  O_14 
REMARK    5  A    between atoms: C_15  and  S_16 
REMARK    6  A    between atoms: S_16  and  C_17 
REMARK    7  A    between atoms: C_19  and  C_27 
ROOT
ATOM      1  C   LIG d   1       5.747  -2.711  -5.918  0.00  0.00     0.115 A 
ATOM      2  C   LIG d   1       6.602  -1.607  -6.091  0.00  0.00     0.095 A 
ATOM      3  C   LIG d   1       6.631  -0.625  -5.099  0.00  0.00     0.080 A 
ATOM      4  C   LIG d   1       5.807  -0.769  -3.988  0.00  0.00    -0.013 A 
ATOM      5  C   LIG d   1       4.991  -1.876  -3.887  0.00  0.00     0.046 A 
ATOM      6  N   LIG d   1       4.988  -2.799  -4.842  0.00  0.00    -0.244 NA
ATOM      7  C   LIG d   1       4.071  -2.092  -2.713  0.00  0.00    -0.010 C 
ATOM      8  C   LIG d   1       4.491  -1.220  -1.532  0.00  0.00    -0.047 C 
ATOM      9  C   LIG d   1       4.635   0.225  -2.025  0.00  0.00    -0.049 C 
ATOM     10  C   LIG d   1       5.861   0.303  -2.932  0.00  0.00    -0.025 C 
ATOM     11  C   LIG d   1       7.430  -1.496  -7.255  0.00  0.00     0.102 C 
ATOM     12  N   LIG d   1       8.086  -1.409  -8.178  0.00  0.00    -0.191 NA
ATOM     13  H   LIG d   1       3.051  -1.837  -3.003  0.00  0.00     0.033 H 
ATOM     14  H   LIG d   1       4.106  -3.140  -2.416  0.00  0.00     0.033 H 
ATOM     15  H   LIG d   1       3.731  -1.268  -0.751  0.00  0.00     0.027 H 
ATOM     16  H   LIG d   1       5.445  -1.570  -1.138  0.00  0.00     0.027 H 
ATOM     17  H   LIG d   1       3.745   0.513  -2.584  0.00  0.00     0.027 H 
ATOM     18  H   LIG d   1       4.765   0.892  -1.172  0.00  0.00     0.027 H 
ATOM     19  H   LIG d   1       5.889   1.280  -3.414  0.00  0.00     0.031 H 
ATOM     20  H   LIG d   1       6.761   0.171  -2.332  0.00  0.00     0.031 H 
ENDROOT
BRANCH   1  21
ATOM     21  S   LIG d   1       5.690  -3.978  -7.141  0.00  0.00    -0.100 SA
BRANCH  21  22
ATOM     22  C   LIG d   1       3.960  -3.837  -7.659  0.00  0.00     0.026 C 
ATOM     23  H   LIG d   1       3.595  -4.815  -7.974  0.00  0.00     0.043 H 
ATOM     24  H   LIG d   1       3.359  -3.477  -6.824  0.00  0.00     0.043 H 
BRANCH  22  25
ATOM     25  C   LIG d   1       3.857  -2.867  -8.807  0.00  0.00    -0.020 A 
ATOM     26  C   LIG d   1       3.563  -1.452  -8.572  0.00  0.00     0.022 A 
ATOM     27  C   LIG d   1       3.370  -0.962  -7.276  0.00  0.00    -0.044 A 
ATOM     28  C   LIG d   1       3.481  -0.580  -9.674  0.00  0.00     0.143 A 
ATOM     29  C   LIG d   1       3.098   0.362  -7.084  0.00  0.00    -0.005 A 
ATOM     30  H   LIG d   1       3.438  -1.629  -6.429  0.00  0.00     0.063 H 
ATOM     31  C   LIG d   1       3.009   1.228  -8.172  0.00  0.00     0.123 A 
ATOM     32  C   LIG d   1       3.208   0.762  -9.461  0.00  0.00     0.023 A 
ATOM     33  H   LIG d   1       3.138   1.440 -10.299  0.00  0.00     0.069 H 
ATOM     34  O   LIG d   1       3.662  -1.058 -10.924  0.00  0.00    -0.422 OA
ATOM     35  C   LIG d   1       3.926  -2.356 -11.147  0.00  0.00     0.338 A 
ATOM     36  C   LIG d   1       4.028  -3.283 -10.089  0.00  0.00     0.028 A 
ATOM     37  O   LIG d   1       4.083  -2.741 -12.291  0.00  0.00    -0.245 OA
ATOM     38  H   LIG d   1       4.242  -4.321 -10.297  0.00  0.00     0.069 H 
BRANCH  29  39
ATOM     39  C   LIG d   1       2.890   0.889  -5.688  0.00  0.00    -0.027 C 
ATOM     40  H   LIG d   1       3.852   0.956  -5.179  0.00  0.00     0.031 H 
ATOM     41  H   LIG d   1       2.437   1.879  -5.737  0.00  0.00     0.031 H 
BRANCH  39  42
ATOM     42  C   LIG d   1       1.969  -0.058  -4.917  0.00  0.00    -0.061 C 
ATOM     43  H   LIG d   1       2.566  -0.830  -4.431  0.00  0.00     0.023 H 
ATOM     44  H   LIG d   1       1.419   0.505  -4.162  0.00  0.00     0.023 H 
ATOM     45  H   LIG d   1       1.266  -0.522  -5.607  0.00  0.00     0.023 H 
ENDBRANCH  39  42
ENDBRANCH  29  39
BRANCH  31  46
ATOM     46  O   LIG d   1       2.737   2.542  -7.966  0.00  0.00    -0.506 OA
ATOM     47  H   LIG d   1       3.509   3.120  -8.039  0.00  0.00     0.292 HD
ENDBRANCH  31  46
ENDBRANCH  22  25
ENDBRANCH  21  22
ENDBRANCH   1  21
BRANCH   3  48
ATOM     48  C   LIG d   1       7.533   0.574  -5.233  0.00  0.00     0.419 C 
ATOM     49  F   LIG d   1       7.310   1.189  -6.469  0.00  0.00    -0.166 F 
ATOM     50  F   LIG d   1       7.258   1.481  -4.203  0.00  0.00    -0.166 F 
ATOM     51  F   LIG d   1       8.868   0.165  -5.149  0.00  0.00    -0.166 F 
ENDBRANCH   3  48
TORSDOF 7
ENDMDL
MODEL 2
REMARK VINA RESULT:      -6.8      2.079      2.470
REMARK  7 active torsions:
REMARK  status: ('A' for Active; 'I' for Inactive)
REMARK    1  A    between atoms: C_1  and  C_2 
REMARK    2  A    between atoms: C_2  and  C_3 
REMARK    3  A    between atoms: C_6  and  C_15 
REMARK    4  A    between atoms: C_13  and  O_14 
REMARK    5  A    between atoms: C_15  and  S_16 
REMARK    6  A    between atoms: S_16  and  C_17 
REMARK    7  A    between atoms: C_19  and  C_27 
ROOT
ATOM      1  C   LIG d   1       7.226  -2.027  -5.670  0.00  0.00     0.115 A 
ATOM      2  C   LIG d   1       7.709  -0.736  -5.386  0.00  0.00     0.095 A 
ATOM      3  C   LIG d   1       7.084   0.002  -4.379  0.00  0.00     0.080 A 
ATOM      4  C   LIG d   1       6.005  -0.560  -3.706  0.00  0.00    -0.013 A 
ATOM      5  C   LIG d   1       5.583  -1.829  -4.041  0.00  0.00     0.046 A 
ATOM      6  N   LIG d   1       6.199  -2.513  -4.998  0.00  0.00    -0.244 NA
ATOM      7  C   LIG d   1       4.417  -2.496  -3.355  0.00  0.00    -0.010 C 
ATOM      8  C   LIG d   1       4.105  -1.805  -2.030  0.00  0.00    -0.047 C 
ATOM      9  C   LIG d   1       3.969  -0.300  -2.289  0.00  0.00    -0.049 C 
ATOM     10  C   LIG d   1       5.352   0.257  -2.623  0.00  0.00    -0.025 C 
ATOM     11  C   LIG d   1       8.820  -0.194  -6.109  0.00  0.00     0.102 C 
ATOM     12  N   LIG d   1       9.702   0.236  -6.682  0.00  0.00    -0.191 NA
ATOM     13  H   LIG d   1       3.542  -2.444  -4.003  0.00  0.00     0.033 H 
ATOM     14  H   LIG d   1       4.661  -3.541  -3.166  0.00  0.00     0.033 H 
ATOM     15  H   LIG d   1       3.170  -2.193  -1.625  0.00  0.00     0.027 H 
ATOM     16  H   LIG d   1       4.914  -1.984  -1.323  0.00  0.00     0.027 H 
ATOM     17  H   LIG d   1       3.293  -0.130  -3.128  0.00  0.00     0.027 H 
ATOM     18  H   LIG d   1       3.579   0.193  -1.398  0.00  0.00     0.027 H 
ATOM     19  H   LIG d   1       5.252   1.288  -2.962  0.00  0.00     0.031 H 
ATOM     20  H   LIG d   1       5.975   0.231  -1.729  0.00  0.00     0.031 H 
ENDROOT
BRANCH   1  21
ATOM     21  S   LIG d   1       7.994  -2.995  -6.925  0.00  0.00    -0.100 SA
BRANCH  21  22
ATOM     22  C   LIG d   1       6.786  -2.795  -8.259  0.00  0.00     0.026 C 
ATOM     23  H   LIG d   1       6.938  -3.575  -9.007  0.00  0.00     0.043 H 
ATOM     24  H   LIG d   1       5.778  -2.876  -7.852  0.00  0.00     0.043 H 
BRANCH  22  25
ATOM     25  C   LIG d   1       6.963  -1.443  -8.899  0.00  0.00    -0.020 A 
ATOM     26  C   LIG d   1       5.942  -0.403  -8.755  0.00  0.00     0.022 A 
ATOM     27  C   LIG d   1       4.775  -0.637  -8.020  0.00  0.00    -0.044 A 
ATOM     28  C   LIG d   1       6.151   0.847  -9.366  0.00  0.00     0.143 A 
ATOM     29  C   LIG d   1       3.839   0.350  -7.901  0.00  0.00    -0.005 A 
ATOM     30  H   LIG d   1       4.615  -1.595  -7.547  0.00  0.00     0.063 H 
ATOM     31  C   LIG d   1       4.038   1.588  -8.509  0.00  0.00     0.123 A 
ATOM     32  C   LIG d   1       5.192   1.840  -9.231  0.00  0.00     0.023 A 
ATOM     33  H   LIG d   1       5.340   2.802  -9.699  0.00  0.00     0.069 H 
ATOM     34  O   LIG d   1       7.276   1.067 -10.080  0.00  0.00    -0.422 OA
ATOM     35  C   LIG d   1       8.214   0.116 -10.220  0.00  0.00     0.338 A 
ATOM     36  C   LIG d   1       8.072  -1.157  -9.631  0.00  0.00     0.028 A 
ATOM     37  O   LIG d   1       9.213   0.360 -10.873  0.00  0.00    -0.245 OA
ATOM     38  H   LIG d   1       8.842  -1.903  -9.761  0.00  0.00     0.069 H 
BRANCH  29  39
ATOM     39  C   LIG d   1       2.582   0.098  -7.109  0.00  0.00    -0.027 C 
ATOM     40  H   LIG d   1       1.810   0.801  -7.419  0.00  0.00     0.031 H 
ATOM     41  H   LIG d   1       2.237  -0.921  -7.288  0.00  0.00     0.031 H 
BRANCH  39  42
ATOM     42  C   LIG d   1       2.873   0.285  -5.619  0.00  0.00    -0.061 C 
ATOM     43  H   LIG d   1       1.934   0.314  -5.066  0.00  0.00     0.023 H 
ATOM     44  H   LIG d   1       3.480  -0.547  -5.260  0.00  0.00     0.023 H 
ATOM     45  H   LIG d   1       3.413   1.219  -5.468  0.00  0.00     0.023 H 
ENDBRANCH  39  42
ENDBRANCH  29  39
BRANCH  31  46
ATOM     46  O   LIG d   1       3.098   2.559  -8.381  0.00  0.00    -0.506 OA
ATOM     47  H   LIG d   1       3.312   3.229  -7.718  0.00  0.00     0.292 HD
ENDBRANCH  31  46
ENDBRANCH  22  25
ENDBRANCH  21  22
ENDBRANCH   1  21
BRANCH   3  48
ATOM     48  C   LIG d   1       7.566   1.387  -4.032  0.00  0.00     0.419 C 
ATOM     49  F   LIG d   1       7.656   2.155  -5.197  0.00  0.00    -0.166 F 
ATOM     50  F   LIG d   1       6.663   1.985  -3.146  0.00  0.00    -0.166 F 
ATOM     51  F   LIG d   1       8.825   1.305  -3.429  0.00  0.00    -0.166 F 
ENDBRANCH   3  48
TORSDOF 7
ENDMDL
MODEL 3
REMARK VINA RESULT:      -6.7      3.100      5.179
REMARK  7 active torsions:
REMARK  status: ('A' for Active; 'I' for Inactive)
REMARK    1  A    between atoms: C_1  and  C_2 
REMARK    2  A    between atoms: C_2  and  C_3 
REMARK    3  A    between atoms: C_6  and  C_15 
REMARK    4  A    between atoms: C_13  and  O_14 
REMARK    5  A    between atoms: C_15  and  S_16 
REMARK    6  A    between atoms: S_16  and  C_17 
REMARK    7  A    between atoms: C_19  and  C_27 
ROOT
ATOM      1  C   LIG d   1       4.996  -2.189  -8.196  0.00  0.00     0.115 A 
ATOM      2  C   LIG d   1       6.257  -1.611  -8.430  0.00  0.00     0.095 A 
ATOM      3  C   LIG d   1       6.321  -0.245  -8.713  0.00  0.00     0.080 A 
ATOM      4  C   LIG d   1       5.140   0.486  -8.765  0.00  0.00    -0.013 A 
ATOM      5  C   LIG d   1       3.939  -0.148  -8.529  0.00  0.00     0.046 A 
ATOM      6  N   LIG d   1       3.906  -1.447  -8.255  0.00  0.00    -0.244 NA
ATOM      7  C   LIG d   1       2.621   0.584  -8.573  0.00  0.00    -0.010 C 
ATOM      8  C   LIG d   1       2.838   2.090  -8.459  0.00  0.00    -0.047 C 
ATOM      9  C   LIG d   1       3.883   2.509  -9.500  0.00  0.00    -0.049 C 
ATOM     10  C   LIG d   1       5.239   1.957  -9.069  0.00  0.00    -0.025 C 
ATOM     11  C   LIG d   1       7.449  -2.404  -8.373  0.00  0.00     0.102 C 
ATOM     12  N   LIG d   1       8.393  -3.032  -8.327  0.00  0.00    -0.191 NA
ATOM     13  H   LIG d   1       2.119   0.363  -9.516  0.00  0.00     0.033 H 
ATOM     14  H   LIG d   1       1.995   0.248  -7.747  0.00  0.00     0.033 H 
ATOM     15  H   LIG d   1       1.900   2.612  -8.650  0.00  0.00     0.027 H 
ATOM     16  H   LIG d   1       3.198   2.335  -7.460  0.00  0.00     0.027 H 
ATOM     17  H   LIG d   1       3.614   2.103 -10.476  0.00  0.00     0.027 H 
ATOM     18  H   LIG d   1       3.929   3.598  -9.557  0.00  0.00     0.027 H 
ATOM     19  H   LIG d   1       5.961   2.110  -9.872  0.00  0.00     0.031 H 
ATOM     20  H   LIG d   1       5.576   2.487  -8.177  0.00  0.00     0.031 H 
ENDROOT
BRANCH   1  21
ATOM     21  S   LIG d   1       4.872  -3.906  -7.823  0.00  0.00    -0.100 SA
BRANCH  21  22
ATOM     22  C   LIG d   1       4.400  -3.815  -6.078  0.00  0.00     0.026 C 
ATOM     23  H   LIG d   1       3.590  -3.095  -5.957  0.00  0.00     0.043 H 
ATOM     24  H   LIG d   1       4.067  -4.796  -5.740  0.00  0.00     0.043 H 
BRANCH  22  25
ATOM     25  C   LIG d   1       5.587  -3.378  -5.259  0.00  0.00    -0.020 A 
ATOM     26  C   LIG d   1       5.563  -2.118  -4.513  0.00  0.00     0.022 A 
ATOM     27  C   LIG d   1       4.438  -1.286  -4.541  0.00  0.00    -0.044 A 
ATOM     28  C   LIG d   1       6.692  -1.751  -3.757  0.00  0.00     0.143 A 
ATOM     29  C   LIG d   1       4.442  -0.116  -3.837  0.00  0.00    -0.005 A 
ATOM     30  H   LIG d   1       3.570  -1.568  -5.118  0.00  0.00     0.063 H 
ATOM     31  C   LIG d   1       5.560   0.255  -3.092  0.00  0.00     0.123 A 
ATOM     32  C   LIG d   1       6.677  -0.562  -3.044  0.00  0.00     0.023 A 
ATOM     33  H   LIG d   1       7.539  -0.268  -2.464  0.00  0.00     0.069 H 
ATOM     34  O   LIG d   1       7.778  -2.554  -3.737  0.00  0.00    -0.422 OA
ATOM     35  C   LIG d   1       7.808  -3.708  -4.423  0.00  0.00     0.338 A 
ATOM     36  C   LIG d   1       6.710  -4.140  -5.196  0.00  0.00     0.028 A 
ATOM     37  O   LIG d   1       8.809  -4.401  -4.375  0.00  0.00    -0.245 OA
ATOM     38  H   LIG d   1       6.763  -5.072  -5.737  0.00  0.00     0.069 H 
BRANCH  29  39
ATOM     39  C   LIG d   1       3.231   0.780  -3.868  0.00  0.00    -0.027 C 
ATOM     40  H   LIG d   1       2.716   0.726  -2.908  0.00  0.00     0.031 H 
ATOM     41  H   LIG d   1       3.543   1.807  -4.055  0.00  0.00     0.031 H 
BRANCH  39  42
ATOM     42  C   LIG d   1       2.286   0.321  -4.980  0.00  0.00    -0.061 C 
ATOM     43  H   LIG d   1       1.647  -0.480  -4.608  0.00  0.00     0.023 H 
ATOM     44  H   LIG d   1       1.667   1.161  -5.299  0.00  0.00     0.023 H 
ATOM     45  H   LIG d   1       2.869  -0.042  -5.825  0.00  0.00     0.023 H 
ENDBRANCH  39  42
ENDBRANCH  29  39
BRANCH  31  46
ATOM     46  O   LIG d   1       5.548   1.421  -2.397  0.00  0.00    -0.506 OA
ATOM     47  H   LIG d   1       4.662   1.764  -2.218  0.00  0.00     0.292 HD
ENDBRANCH  31  46
ENDBRANCH  22  25
ENDBRANCH  21  22
ENDBRANCH   1  21
BRANCH   3  48
ATOM     48  C   LIG d   1       7.648   0.424  -8.966  0.00  0.00     0.419 C 
ATOM     49  F   LIG d   1       8.261  -0.163 -10.078  0.00  0.00    -0.166 F 
ATOM     50  F   LIG d   1       7.443   1.786  -9.209  0.00  0.00    -0.166 F 
ATOM     51  F   LIG d   1       8.469   0.269  -7.844  0.00  0.00    -0.166 F 
ENDBRANCH   3  48
TORSDOF 7
ENDMDL
MODEL 4
REMARK VINA RESULT:      -6.7      6.257      8.954
REMARK  7 active torsions:
REMARK  status: ('A' for Active; 'I' for Inactive)
REMARK    1  A    between atoms: C_1  and  C_2 
REMARK    2  A    between atoms: C_2  and  C_3 
REMARK    3  A    between atoms: C_6  and  C_15 
REMARK    4  A    between atoms: C_13  and  O_14 
REMARK    5  A    between atoms: C_15  and  S_16 
REMARK    6  A    between atoms: S_16  and  C_17 
REMARK    7  A    between atoms: C_19  and  C_27 
ROOT
ATOM      1  C   LIG d   1       7.765   1.445  -4.170  0.00  0.00     0.115 A 
ATOM      2  C   LIG d   1       8.105   0.125  -4.521  0.00  0.00     0.095 A 
ATOM      3  C   LIG d   1       7.260  -0.910  -4.116  0.00  0.00     0.080 A 
ATOM      4  C   LIG d   1       6.126  -0.600  -3.375  0.00  0.00    -0.013 A 
ATOM      5  C   LIG d   1       5.858   0.716  -3.064  0.00  0.00     0.046 A 
ATOM      6  N   LIG d   1       6.674   1.683  -3.467  0.00  0.00    -0.244 NA
ATOM      7  C   LIG d   1       4.649   1.122  -2.259  0.00  0.00    -0.010 C 
ATOM      8  C   LIG d   1       3.609   0.004  -2.249  0.00  0.00    -0.047 C 
ATOM      9  C   LIG d   1       4.301  -1.297  -1.826  0.00  0.00    -0.049 C 
ATOM     10  C   LIG d   1       5.231  -1.736  -2.954  0.00  0.00    -0.025 C 
ATOM     11  C   LIG d   1       9.287  -0.150  -5.282  0.00  0.00     0.102 C 
ATOM     12  N   LIG d   1      10.224  -0.367  -5.886  0.00  0.00    -0.191 NA
ATOM     13  H   LIG d   1       4.954   1.338  -1.235  0.00  0.00     0.033 H 
ATOM     14  H   LIG d   1       4.209   2.017  -2.697  0.00  0.00     0.033 H 
ATOM     15  H   LIG d   1       2.816   0.246  -1.541  0.00  0.00     0.027 H 
ATOM     16  H   LIG d   1       3.186  -0.113  -3.247  0.00  0.00     0.027 H 
ATOM     17  H   LIG d   1       4.879  -1.127  -0.917  0.00  0.00     0.027 H 
ATOM     18  H   LIG d   1       3.552  -2.069  -1.645  0.00  0.00     0.027 H 
ATOM     19  H   LIG d   1       5.846  -2.568  -2.610  0.00  0.00     0.031 H 
ATOM     20  H   LIG d   1       4.635  -2.058  -3.808  0.00  0.00     0.031 H 
ENDROOT
BRANCH   1  21
ATOM     21  S   LIG d   1       8.797   2.781  -4.672  0.00  0.00    -0.100 SA
BRANCH  21  22
ATOM     22  C   LIG d   1       9.546   3.213  -3.081  0.00  0.00     0.026 C 
ATOM     23  H   LIG d   1       9.056   4.100  -2.678  0.00  0.00     0.043 H 
ATOM     24  H   LIG d   1       9.425   2.384  -2.385  0.00  0.00     0.043 H 
BRANCH  22  25
ATOM     25  C   LIG d   1      11.013   3.495  -3.276  0.00  0.00    -0.020 A 
ATOM     26  C   LIG d   1      11.727   4.417  -2.390  0.00  0.00     0.022 A 
ATOM     27  C   LIG d   1      11.066   5.060  -1.338  0.00  0.00    -0.044 A 
ATOM     28  C   LIG d   1      13.098   4.647  -2.605  0.00  0.00     0.143 A 
ATOM     29  C   LIG d   1      11.754   5.915  -0.526  0.00  0.00    -0.005 A 
ATOM     30  H   LIG d   1      10.014   4.881  -1.168  0.00  0.00     0.063 H 
ATOM     31  C   LIG d   1      13.111   6.151  -0.738  0.00  0.00     0.123 A 
ATOM     32  C   LIG d   1      13.783   5.514  -1.768  0.00  0.00     0.023 A 
ATOM     33  H   LIG d   1      14.835   5.702  -1.927  0.00  0.00     0.069 H 
ATOM     34  O   LIG d   1      13.731   4.028  -3.626  0.00  0.00    -0.422 OA
ATOM     35  C   LIG d   1      13.082   3.186  -4.446  0.00  0.00     0.338 A 
ATOM     36  C   LIG d   1      11.709   2.905  -4.283  0.00  0.00     0.028 A 
ATOM     37  O   LIG d   1      13.694   2.650  -5.352  0.00  0.00    -0.245 OA
ATOM     38  H   LIG d   1      11.213   2.224  -4.958  0.00  0.00     0.069 H 
BRANCH  29  39
ATOM     39  C   LIG d   1      11.042   6.608   0.608  0.00  0.00    -0.027 C 
ATOM     40  H   LIG d   1      11.584   7.515   0.876  0.00  0.00     0.031 H 
ATOM     41  H   LIG d   1      10.031   6.868   0.296  0.00  0.00     0.031 H 
BRANCH  39  42
ATOM     42  C   LIG d   1      10.980   5.674   1.818  0.00  0.00    -0.061 C 
ATOM     43  H   LIG d   1      11.864   5.822   2.438  0.00  0.00     0.023 H 
ATOM     44  H   LIG d   1      10.085   5.894   2.401  0.00  0.00     0.023 H 
ATOM     45  H   LIG d   1      10.945   4.639   1.476  0.00  0.00     0.023 H 
ENDBRANCH  39  42
ENDBRANCH  29  39
BRANCH  31  46
ATOM     46  O   LIG d   1      13.782   7.003   0.078  0.00  0.00    -0.506 OA
ATOM     47  H   LIG d   1      13.947   6.652   0.964  0.00  0.00     0.292 HD
ENDBRANCH  31  46
ENDBRANCH  22  25
ENDBRANCH  21  22
ENDBRANCH   1  21
BRANCH   3  48
ATOM     48  C   LIG d   1       7.576  -2.340  -4.471  0.00  0.00     0.419 C 
ATOM     49  F   LIG d   1       6.535  -3.169  -4.038  0.00  0.00    -0.166 F 
ATOM     50  F   LIG d   1       7.719  -2.455  -5.858  0.00  0.00    -0.166 F 
ATOM     51  F   LIG d   1       8.767  -2.723  -3.847  0.00  0.00    -0.166 F 
ENDBRANCH   3  48
TORSDOF 7
ENDMDL
MODEL 5
REMARK VINA RESULT:      -6.7      4.101      6.407
REMARK  7 active torsions:
REMARK  status: ('A' for Active; 'I' for Inactive)
REMARK    1  A    between atoms: C_1  and  C_2 
REMARK    2  A    between atoms: C_2  and  C_3 
REMARK    3  A    between atoms: C_6  and  C_15 
REMARK    4  A    between atoms: C_13  and  O_14 
REMARK    5  A    between atoms: C_15  and  S_16 
REMARK    6  A    between atoms: S_16  and  C_17 
REMARK    7  A    between atoms: C_19  and  C_27 
ROOT
ATOM      1  C   LIG d   1       4.187  -3.496  -8.202  0.00  0.00     0.115 A 
ATOM      2  C   LIG d   1       3.148  -3.633  -9.141  0.00  0.00     0.095 A 
ATOM      3  C   LIG d   1       2.542  -2.477  -9.637  0.00  0.00     0.080 A 
ATOM      4  C   LIG d   1       2.978  -1.240  -9.177  0.00  0.00    -0.013 A 
ATOM      5  C   LIG d   1       3.998  -1.181  -8.252  0.00  0.00     0.046 A 
ATOM      6  N   LIG d   1       4.563  -2.296  -7.801  0.00  0.00    -0.244 NA
ATOM      7  C   LIG d   1       4.517   0.126  -7.707  0.00  0.00    -0.010 C 
ATOM      8  C   LIG d   1       4.102   1.286  -8.609  0.00  0.00    -0.047 C 
ATOM      9  C   LIG d   1       2.589   1.200  -8.843  0.00  0.00    -0.049 C 
ATOM     10  C   LIG d   1       2.309  -0.010  -9.731  0.00  0.00    -0.025 C 
ATOM     11  C   LIG d   1       2.726  -4.928  -9.583  0.00  0.00     0.102 C 
ATOM     12  N   LIG d   1       2.392  -5.955  -9.934  0.00  0.00    -0.191 NA
ATOM     13  H   LIG d   1       4.112   0.284  -6.708  0.00  0.00     0.033 H 
ATOM     14  H   LIG d   1       5.604   0.086  -7.651  0.00  0.00     0.033 H 
ATOM     15  H   LIG d   1       4.346   2.232  -8.125  0.00  0.00     0.027 H 
ATOM     16  H   LIG d   1       4.625   1.216  -9.562  0.00  0.00     0.027 H 
ATOM     17  H   LIG d   1       2.075   1.084  -7.888  0.00  0.00     0.027 H 
ATOM     18  H   LIG d   1       2.242   2.108  -9.338  0.00  0.00     0.027 H 
ATOM     19  H   LIG d   1       1.233  -0.178  -9.779  0.00  0.00     0.031 H 
ATOM     20  H   LIG d   1       2.688   0.184 -10.734  0.00  0.00     0.031 H 
ENDROOT
BRANCH   1  21
ATOM     21  S   LIG d   1       4.986  -4.928  -7.561  0.00  0.00    -0.100 SA
BRANCH  21  22
ATOM     22  C   LIG d   1       4.630  -4.724  -5.797  0.00  0.00     0.026 C 
ATOM     23  H   LIG d   1       3.728  -4.122  -5.676  0.00  0.00     0.043 H 
ATOM     24  H   LIG d   1       4.477  -5.702  -5.341  0.00  0.00     0.043 H 
BRANCH  22  25
ATOM     25  C   LIG d   1       5.788  -4.032  -5.127  0.00  0.00    -0.020 A 
ATOM     26  C   LIG d   1       5.587  -2.804  -4.355  0.00  0.00     0.022 A 
ATOM     27  C   LIG d   1       4.313  -2.240  -4.218  0.00  0.00    -0.044 A 
ATOM     28  C   LIG d   1       6.697  -2.194  -3.741  0.00  0.00     0.143 A 
ATOM     29  C   LIG d   1       4.153  -1.095  -3.493  0.00  0.00    -0.005 A 
ATOM     30  H   LIG d   1       3.460  -2.710  -4.685  0.00  0.00     0.063 H 
ATOM     31  C   LIG d   1       5.250  -0.483  -2.888  0.00  0.00     0.123 A 
ATOM     32  C   LIG d   1       6.515  -1.035  -3.004  0.00  0.00     0.023 A 
ATOM     33  H   LIG d   1       7.360  -0.555  -2.532  0.00  0.00     0.069 H 
ATOM     34  O   LIG d   1       7.925  -2.739  -3.880  0.00  0.00    -0.422 OA
ATOM     35  C   LIG d   1       8.117  -3.861  -4.591  0.00  0.00     0.338 A 
ATOM     36  C   LIG d   1       7.049  -4.528  -5.228  0.00  0.00     0.028 A 
ATOM     37  O   LIG d   1       9.243  -4.317  -4.688  0.00  0.00    -0.245 OA
ATOM     38  H   LIG d   1       7.234  -5.428  -5.793  0.00  0.00     0.069 H 
BRANCH  29  39
ATOM     39  C   LIG d   1       2.782  -0.488  -3.346  0.00  0.00    -0.027 C 
ATOM     40  H   LIG d   1       2.047  -1.281  -3.204  0.00  0.00     0.031 H 
ATOM     41  H   LIG d   1       2.769   0.177  -2.482  0.00  0.00     0.031 H 
BRANCH  39  42
ATOM     42  C   LIG d   1       2.437   0.306  -4.608  0.00  0.00    -0.061 C 
ATOM     43  H   LIG d   1       3.119   1.150  -4.704  0.00  0.00     0.023 H 
ATOM     44  H   LIG d   1       2.534  -0.341  -5.481  0.00  0.00     0.023 H 
ATOM     45  H   LIG d   1       1.413   0.672  -4.538  0.00  0.00     0.023 H 
ENDBRANCH  39  42
ENDBRANCH  29  39
BRANCH  31  46
ATOM     46  O   LIG d   1       5.074   0.655  -2.170  0.00  0.00    -0.506 OA
ATOM     47  H   LIG d   1       4.450   1.278  -2.566  0.00  0.00     0.292 HD
ENDBRANCH  31  46
ENDBRANCH  22  25
ENDBRANCH  21  22
ENDBRANCH   1  21
BRANCH   3  48
ATOM     48  C   LIG d   1       1.428  -2.569 -10.648  0.00  0.00     0.419 C 
ATOM     49  F   LIG d   1       0.934  -1.287 -10.916  0.00  0.00    -0.166 F 
ATOM     50  F   LIG d   1       1.919  -3.136 -11.829  0.00  0.00    -0.166 F 
ATOM     51  F   LIG d   1       0.400  -3.368 -10.139  0.00  0.00    -0.166 F 
ENDBRANCH   3  48
TORSDOF 7
ENDMDL
MODEL 6
REMARK VINA RESULT:      -6.6      2.740      3.583
REMARK  7 active torsions:
REMARK  status: ('A' for Active; 'I' for Inactive)
REMARK    1  A    between atoms: C_1  and  C_2 
REMARK    2  A    between atoms: C_2  and  C_3 
REMARK    3  A    between atoms: C_6  and  C_15 
REMARK    4  A    between atoms: C_13  and  O_14 
REMARK    5  A    between atoms: C_15  and  S_16 
REMARK    6  A    between atoms: S_16  and  C_17 
REMARK    7  A    between atoms: C_19  and  C_27 
ROOT
ATOM      1  C   LIG d   1       7.271  -0.073  -5.590  0.00  0.00     0.115 A 
ATOM      2  C   LIG d   1       6.798  -1.391  -5.720  0.00  0.00     0.095 A 
ATOM      3  C   LIG d   1       5.836  -1.846  -4.816  0.00  0.00     0.080 A 
ATOM      4  C   LIG d   1       5.394  -0.986  -3.817  0.00  0.00    -0.013 A 
ATOM      5  C   LIG d   1       5.906   0.292  -3.747  0.00  0.00     0.046 A 
ATOM      6  N   LIG d   1       6.815   0.702  -4.624  0.00  0.00    -0.244 NA
ATOM      7  C   LIG d   1       5.474   1.274  -2.687  0.00  0.00    -0.010 C 
ATOM      8  C   LIG d   1       4.156   0.837  -2.053  0.00  0.00    -0.047 C 
ATOM      9  C   LIG d   1       4.293  -0.624  -1.610  0.00  0.00    -0.049 C 
ATOM     10  C   LIG d   1       4.355  -1.502  -2.858  0.00  0.00    -0.025 C 
ATOM     11  C   LIG d   1       7.286  -2.246  -6.762  0.00  0.00     0.102 C 
ATOM     12  N   LIG d   1       7.673  -2.922  -7.587  0.00  0.00    -0.191 NA
ATOM     13  H   LIG d   1       6.242   1.331  -1.916  0.00  0.00     0.033 H 
ATOM     14  H   LIG d   1       5.346   2.258  -3.138  0.00  0.00     0.033 H 
ATOM     15  H   LIG d   1       3.938   1.464  -1.189  0.00  0.00     0.027 H 
ATOM     16  H   LIG d   1       3.351   0.924  -2.783  0.00  0.00     0.027 H 
ATOM     17  H   LIG d   1       5.207  -0.748  -1.028  0.00  0.00     0.027 H 
ATOM     18  H   LIG d   1       3.432  -0.907  -1.003  0.00  0.00     0.027 H 
ATOM     19  H   LIG d   1       4.609  -2.522  -2.568  0.00  0.00     0.031 H 
ATOM     20  H   LIG d   1       3.381  -1.499  -3.348  0.00  0.00     0.031 H 
ENDROOT
BRANCH   1  21
ATOM     21  S   LIG d   1       8.475   0.544  -6.717  0.00  0.00    -0.100 SA
BRANCH  21  22
ATOM     22  C   LIG d   1       7.402   1.459  -7.853  0.00  0.00     0.026 C 
ATOM     23  H   LIG d   1       6.475   1.722  -7.343  0.00  0.00     0.043 H 
ATOM     24  H   LIG d   1       7.908   2.369  -8.178  0.00  0.00     0.043 H 
BRANCH  22  25
ATOM     25  C   LIG d   1       7.091   0.602  -9.052  0.00  0.00    -0.020 A 
ATOM     26  C   LIG d   1       5.761   0.015  -9.232  0.00  0.00     0.022 A 
ATOM     27  C   LIG d   1       4.744   0.236  -8.297  0.00  0.00    -0.044 A 
ATOM     28  C   LIG d   1       5.513  -0.776 -10.370  0.00  0.00     0.143 A 
ATOM     29  C   LIG d   1       3.514  -0.323  -8.489  0.00  0.00    -0.005 A 
ATOM     30  H   LIG d   1       4.932   0.846  -7.426  0.00  0.00     0.063 H 
ATOM     31  C   LIG d   1       3.264  -1.112  -9.611  0.00  0.00     0.123 A 
ATOM     32  C   LIG d   1       4.256  -1.331 -10.552  0.00  0.00     0.023 A 
ATOM     33  H   LIG d   1       4.055  -1.943 -11.418  0.00  0.00     0.069 H 
ATOM     34  O   LIG d   1       6.499  -0.990 -11.267  0.00  0.00    -0.422 OA
ATOM     35  C   LIG d   1       7.722  -0.460 -11.105  0.00  0.00     0.338 A 
ATOM     36  C   LIG d   1       8.038   0.346  -9.992  0.00  0.00     0.028 A 
ATOM     37  O   LIG d   1       8.580  -0.681 -11.941  0.00  0.00    -0.245 OA
ATOM     38  H   LIG d   1       9.030   0.759  -9.887  0.00  0.00     0.069 H 
BRANCH  29  39
ATOM     39  C   LIG d   1       2.418  -0.085  -7.482  0.00  0.00    -0.027 C 
ATOM     40  H   LIG d   1       1.778   0.727  -7.826  0.00  0.00     0.031 H 
ATOM     41  H   LIG d   1       1.824  -0.992  -7.370  0.00  0.00     0.031 H 
BRANCH  39  42
ATOM     42  C   LIG d   1       3.037   0.290  -6.134  0.00  0.00    -0.061 C 
ATOM     43  H   LIG d   1       2.297   0.161  -5.345  0.00  0.00     0.023 H 
ATOM     44  H   LIG d   1       3.895  -0.354  -5.937  0.00  0.00     0.023 H 
ATOM     45  H   LIG d   1       3.363   1.330  -6.161  0.00  0.00     0.023 H 
ENDBRANCH  39  42
ENDBRANCH  29  39
BRANCH  31  46
ATOM     46  O   LIG d   1       2.035  -1.660  -9.788  0.00  0.00    -0.506 OA
ATOM     47  H   LIG d   1       1.677  -1.545 -10.679  0.00  0.00     0.292 HD
ENDBRANCH  31  46
ENDBRANCH  22  25
ENDBRANCH  21  22
ENDBRANCH   1  21
BRANCH   3  48
ATOM     48  C   LIG d   1       5.292  -3.248  -4.916  0.00  0.00     0.419 C 
ATOM     49  F   LIG d   1       6.353  -4.159  -4.937  0.00  0.00    -0.166 F 
ATOM     50  F   LIG d   1       4.473  -3.509  -3.812  0.00  0.00    -0.166 F 
ATOM     51  F   LIG d   1       4.545  -3.375  -6.091  0.00  0.00    -0.166 F 
ENDBRANCH   3  48
TORSDOF 7
ENDMDL
MODEL 7
REMARK VINA RESULT:      -6.6      6.100      7.941
REMARK  7 active torsions:
REMARK  status: ('A' for Active; 'I' for Inactive)
REMARK    1  A    between atoms: C_1  and  C_2 
REMARK    2  A    between atoms: C_2  and  C_3 
REMARK    3  A    between atoms: C_6  and  C_15 
REMARK    4  A    between atoms: C_13  and  O_14 
REMARK    5  A    between atoms: C_15  and  S_16 
REMARK    6  A    between atoms: S_16  and  C_17 
REMARK    7  A    between atoms: C_19  and  C_27 
ROOT
ATOM      1  C   LIG d   1      10.109   4.617  -4.176  0.00  0.00     0.115 A 
ATOM      2  C   LIG d   1       9.959   5.755  -4.989  0.00  0.00     0.095 A 
ATOM      3  C   LIG d   1       9.945   7.011  -4.379  0.00  0.00     0.080 A 
ATOM      4  C   LIG d   1      10.068   7.088  -2.997  0.00  0.00    -0.013 A 
ATOM      5  C   LIG d   1      10.208   5.930  -2.263  0.00  0.00     0.046 A 
ATOM      6  N   LIG d   1      10.224   4.747  -2.868  0.00  0.00    -0.244 NA
ATOM      7  C   LIG d   1      10.341   5.940  -0.761  0.00  0.00    -0.010 C 
ATOM      8  C   LIG d   1      10.740   7.328  -0.266  0.00  0.00    -0.047 C 
ATOM      9  C   LIG d   1       9.774   8.354  -0.869  0.00  0.00    -0.049 C 
ATOM     10  C   LIG d   1      10.054   8.455  -2.367  0.00  0.00    -0.025 C 
ATOM     11  C   LIG d   1       9.829   5.629  -6.410  0.00  0.00     0.102 C 
ATOM     12  N   LIG d   1       9.727   5.529  -7.537  0.00  0.00    -0.191 NA
ATOM     13  H   LIG d   1       9.387   5.659  -0.314  0.00  0.00     0.033 H 
ATOM     14  H   LIG d   1      11.102   5.220  -0.462  0.00  0.00     0.033 H 
ATOM     15  H   LIG d   1      10.680   7.362   0.822  0.00  0.00     0.027 H 
ATOM     16  H   LIG d   1      11.758   7.552  -0.584  0.00  0.00     0.027 H 
ATOM     17  H   LIG d   1       8.745   8.028  -0.709  0.00  0.00     0.027 H 
ATOM     18  H   LIG d   1       9.929   9.325  -0.399  0.00  0.00     0.027 H 
ATOM     19  H   LIG d   1       9.277   9.059  -2.837  0.00  0.00     0.031 H 
ATOM     20  H   LIG d   1      11.022   8.932  -2.520  0.00  0.00     0.031 H 
ENDROOT
BRANCH   1  21
ATOM     21  S   LIG d   1      10.143   3.014  -4.906  0.00  0.00    -0.100 SA
BRANCH  21  22
ATOM     22  C   LIG d   1       8.459   2.463  -4.533  0.00  0.00     0.026 C 
ATOM     23  H   LIG d   1       8.179   2.801  -3.535  0.00  0.00     0.043 H 
ATOM     24  H   LIG d   1       7.769   2.882  -5.265  0.00  0.00     0.043 H 
BRANCH  22  25
ATOM     25  C   LIG d   1       8.399   0.959  -4.589  0.00  0.00    -0.020 A 
ATOM     26  C   LIG d   1       7.323   0.224  -3.920  0.00  0.00     0.022 A 
ATOM     27  C   LIG d   1       6.322   0.899  -3.212  0.00  0.00    -0.044 A 
ATOM     28  C   LIG d   1       7.302  -1.181  -4.002  0.00  0.00     0.143 A 
ATOM     29  C   LIG d   1       5.330   0.190  -2.598  0.00  0.00    -0.005 A 
ATOM     30  H   LIG d   1       6.334   1.977  -3.152  0.00  0.00     0.063 H 
ATOM     31  C   LIG d   1       5.308  -1.202  -2.671  0.00  0.00     0.123 A 
ATOM     32  C   LIG d   1       6.285  -1.885  -3.377  0.00  0.00     0.023 A 
ATOM     33  H   LIG d   1       6.261  -2.963  -3.428  0.00  0.00     0.069 H 
ATOM     34  O   LIG d   1       8.273  -1.829  -4.681  0.00  0.00    -0.422 OA
ATOM     35  C   LIG d   1       9.266  -1.162  -5.292  0.00  0.00     0.338 A 
ATOM     36  C   LIG d   1       9.344   0.246  -5.255  0.00  0.00     0.028 A 
ATOM     37  O   LIG d   1      10.119  -1.788  -5.894  0.00  0.00    -0.245 OA
ATOM     38  H   LIG d   1      10.154   0.756  -5.755  0.00  0.00     0.069 H 
BRANCH  29  39
ATOM     39  C   LIG d   1       4.252   0.917  -1.836  0.00  0.00    -0.027 C 
ATOM     40  H   LIG d   1       3.625   0.193  -1.315  0.00  0.00     0.031 H 
ATOM     41  H   LIG d   1       4.710   1.589  -1.111  0.00  0.00     0.031 H 
BRANCH  39  42
ATOM     42  C   LIG d   1       3.394   1.725  -2.812  0.00  0.00    -0.061 C 
ATOM     43  H   LIG d   1       3.277   2.742  -2.437  0.00  0.00     0.023 H 
ATOM     44  H   LIG d   1       3.881   1.751  -3.787  0.00  0.00     0.023 H 
ATOM     45  H   LIG d   1       2.414   1.258  -2.907  0.00  0.00     0.023 H 
ENDBRANCH  39  42
ENDBRANCH  29  39
BRANCH  31  46
ATOM     46  O   LIG d   1       4.315  -1.892  -2.055  0.00  0.00    -0.506 OA
ATOM     47  H   LIG d   1       3.517  -1.997  -2.592  0.00  0.00     0.292 HD
ENDBRANCH  31  46
ENDBRANCH  22  25
ENDBRANCH  21  22
ENDBRANCH   1  21
BRANCH   3  48
ATOM     48  C   LIG d   1       9.793   8.262  -5.205  0.00  0.00     0.419 C 
ATOM     49  F   LIG d   1       8.672   8.141  -6.033  0.00  0.00    -0.166 F 
ATOM     50  F   LIG d   1       9.630   9.363  -4.357  0.00  0.00    -0.166 F 
ATOM     51  F   LIG d   1      10.935   8.445  -5.992  0.00  0.00    -0.166 F 
ENDBRANCH   3  48
TORSDOF 7
ENDMDL
MODEL 8
REMARK VINA RESULT:      -6.6      3.186      4.990
REMARK  7 active torsions:
REMARK  status: ('A' for Active; 'I' for Inactive)
REMARK    1  A    between atoms: C_1  and  C_2 
REMARK    2  A    between atoms: C_2  and  C_3 
REMARK    3  A    between atoms: C_6  and  C_15 
REMARK    4  A    between atoms: C_13  and  O_14 
REMARK    5  A    between atoms: C_15  and  S_16 
REMARK    6  A    between atoms: S_16  and  C_17 
REMARK    7  A    between atoms: C_19  and  C_27 
ROOT
ATOM      1  C   LIG d   1       7.079  -0.723  -4.670  0.00  0.00     0.115 A 
ATOM      2  C   LIG d   1       5.995  -0.658  -3.775  0.00  0.00     0.095 A 
ATOM      3  C   LIG d   1       5.168  -1.776  -3.649  0.00  0.00     0.080 A 
ATOM      4  C   LIG d   1       5.439  -2.902  -4.417  0.00  0.00    -0.013 A 
ATOM      5  C   LIG d   1       6.516  -2.894  -5.277  0.00  0.00     0.046 A 
ATOM      6  N   LIG d   1       7.292  -1.820  -5.374  0.00  0.00    -0.244 NA
ATOM      7  C   LIG d   1       6.865  -4.078  -6.143  0.00  0.00    -0.010 C 
ATOM      8  C   LIG d   1       6.189  -5.343  -5.620  0.00  0.00    -0.047 C 
ATOM      9  C   LIG d   1       4.695  -5.053  -5.435  0.00  0.00    -0.049 C 
ATOM     10  C   LIG d   1       4.533  -4.094  -4.258  0.00  0.00    -0.025 C 
ATOM     11  C   LIG d   1       5.749   0.526  -3.007  0.00  0.00     0.102 C 
ATOM     12  N   LIG d   1       5.555   1.464  -2.398  0.00  0.00    -0.191 NA
ATOM     13  H   LIG d   1       6.532  -3.888  -7.163  0.00  0.00     0.033 H 
ATOM     14  H   LIG d   1       7.945  -4.221  -6.139  0.00  0.00     0.033 H 
ATOM     15  H   LIG d   1       6.319  -6.153  -6.338  0.00  0.00     0.027 H 
ATOM     16  H   LIG d   1       6.628  -5.626  -4.664  0.00  0.00     0.027 H 
ATOM     17  H   LIG d   1       4.295  -4.594  -6.340  0.00  0.00     0.027 H 
ATOM     18  H   LIG d   1       4.162  -5.982  -5.229  0.00  0.00     0.027 H 
ATOM     19  H   LIG d   1       3.498  -3.755  -4.210  0.00  0.00     0.031 H 
ATOM     20  H   LIG d   1       4.784  -4.615  -3.333  0.00  0.00     0.031 H 
ENDROOT
BRANCH   1  21
ATOM     21  S   LIG d   1       8.153   0.661  -4.851  0.00  0.00    -0.100 SA
BRANCH  21  22
ATOM     22  C   LIG d   1       8.818   0.328  -6.502  0.00  0.00     0.026 C 
ATOM     23  H   LIG d   1       9.904   0.435  -6.485  0.00  0.00     0.043 H 
ATOM     24  H   LIG d   1       8.559  -0.687  -6.801  0.00  0.00     0.043 H 
BRANCH  22  25
ATOM     25  C   LIG d   1       8.233   1.306  -7.486  0.00  0.00    -0.020 A 
ATOM     26  C   LIG d   1       6.850   1.171  -7.949  0.00  0.00     0.022 A 
ATOM     27  C   LIG d   1       6.036   0.130  -7.490  0.00  0.00    -0.044 A 
ATOM     28  C   LIG d   1       6.342   2.111  -8.866  0.00  0.00     0.143 A 
ATOM     29  C   LIG d   1       4.750   0.026  -7.938  0.00  0.00    -0.005 A 
ATOM     30  H   LIG d   1       6.423  -0.590  -6.784  0.00  0.00     0.063 H 
ATOM     31  C   LIG d   1       4.244   0.951  -8.849  0.00  0.00     0.123 A 
ATOM     32  C   LIG d   1       5.032   1.994  -9.306  0.00  0.00     0.023 A 
ATOM     33  H   LIG d   1       4.633   2.706 -10.012  0.00  0.00     0.069 H 
ATOM     34  O   LIG d   1       7.133   3.111  -9.311  0.00  0.00    -0.422 OA
ATOM     35  C   LIG d   1       8.403   3.238  -8.895  0.00  0.00     0.338 A 
ATOM     36  C   LIG d   1       8.975   2.335  -7.973  0.00  0.00     0.028 A 
ATOM     37  O   LIG d   1       9.079   4.156  -9.323  0.00  0.00    -0.245 OA
ATOM     38  H   LIG d   1       9.999   2.461  -7.657  0.00  0.00     0.069 H 
BRANCH  29  39
ATOM     39  C   LIG d   1       3.873  -1.095  -7.443  0.00  0.00    -0.027 C 
ATOM     40  H   LIG d   1       4.046  -1.248  -6.377  0.00  0.00     0.031 H 
ATOM     41  H   LIG d   1       2.827  -0.838  -7.606  0.00  0.00     0.031 H 
BRANCH  39  42
ATOM     42  C   LIG d   1       4.209  -2.379  -8.203  0.00  0.00    -0.061 C 
ATOM     43  H   LIG d   1       5.054  -2.198  -8.868  0.00  0.00     0.023 H 
ATOM     44  H   LIG d   1       4.467  -3.165  -7.493  0.00  0.00     0.023 H 
ATOM     45  H   LIG d   1       3.345  -2.690  -8.791  0.00  0.00     0.023 H 
ENDBRANCH  39  42
ENDBRANCH  29  39
BRANCH  31  46
ATOM     46  O   LIG d   1       2.963   0.834  -9.285  0.00  0.00    -0.506 OA
ATOM     47  H   LIG d   1       2.351   0.490  -8.620  0.00  0.00     0.292 HD
ENDBRANCH  31  46
ENDBRANCH  22  25
ENDBRANCH  21  22
ENDBRANCH   1  21
BRANCH   3  48
ATOM     48  C   LIG d   1       3.997  -1.760  -2.700  0.00  0.00     0.419 C 
ATOM     49  F   LIG d   1       4.343  -1.051  -1.545  0.00  0.00    -0.166 F 
ATOM     50  F   LIG d   1       2.906  -1.142  -3.319  0.00  0.00    -0.166 F 
ATOM     51  F   LIG d   1       3.657  -3.072  -2.357  0.00  0.00    -0.166 F 
ENDBRANCH   3  48
TORSDOF 7
ENDMDL
MODEL 9
REMARK VINA RESULT:      -6.5      5.927      8.196
REMARK  7 active torsions:
REMARK  status: ('A' for Active; 'I' for Inactive)
REMARK    1  A    between atoms: C_1  and  C_2 
REMARK    2  A    between atoms: C_2  and  C_3 
REMARK    3  A    between atoms: C_6  and  C_15 
REMARK    4  A    between atoms: C_13  and  O_14 
REMARK    5  A    between atoms: C_15  and  S_16 
REMARK    6  A    between atoms: S_16  and  C_17 
REMARK    7  A    between atoms: C_19  and  C_27 
ROOT
ATOM      1  C   LIG d   1      10.034   4.577  -5.427  0.00  0.00     0.115 A 
ATOM      2  C   LIG d   1      10.130   5.386  -4.280  0.00  0.00     0.095 A 
ATOM      3  C   LIG d   1       9.961   6.765  -4.421  0.00  0.00     0.080 A 
ATOM      4  C   LIG d   1       9.718   7.284  -5.687  0.00  0.00    -0.013 A 
ATOM      5  C   LIG d   1       9.641   6.432  -6.767  0.00  0.00     0.046 A 
ATOM      6  N   LIG d   1       9.798   5.123  -6.605  0.00  0.00    -0.244 NA
ATOM      7  C   LIG d   1       9.384   6.929  -8.168  0.00  0.00    -0.010 C 
ATOM      8  C   LIG d   1       8.801   8.339  -8.140  0.00  0.00    -0.047 C 
ATOM      9  C   LIG d   1       9.701   9.217  -7.262  0.00  0.00    -0.049 C 
ATOM     10  C   LIG d   1       9.536   8.774  -5.810  0.00  0.00    -0.025 C 
ATOM     11  C   LIG d   1      10.389   4.808  -2.994  0.00  0.00     0.102 C 
ATOM     12  N   LIG d   1      10.593   4.350  -1.976  0.00  0.00    -0.191 NA
ATOM     13  H   LIG d   1      10.322   6.938  -8.724  0.00  0.00     0.033 H 
ATOM     14  H   LIG d   1       8.681   6.260  -8.664  0.00  0.00     0.033 H 
ATOM     15  H   LIG d   1       8.768   8.744  -9.152  0.00  0.00     0.027 H 
ATOM     16  H   LIG d   1       7.795   8.313  -7.722  0.00  0.00     0.027 H 
ATOM     17  H   LIG d   1      10.741   9.098  -7.567  0.00  0.00     0.027 H 
ATOM     18  H   LIG d   1       9.406  10.263  -7.364  0.00  0.00     0.027 H 
ATOM     19  H   LIG d   1      10.281   9.278  -5.194  0.00  0.00     0.031 H 
ATOM     20  H   LIG d   1       8.539   9.044  -5.463  0.00  0.00     0.031 H 
ENDROOT
BRANCH   1  21
ATOM     21  S   LIG d   1      10.229   2.832  -5.290  0.00  0.00    -0.100 SA
BRANCH  21  22
ATOM     22  C   LIG d   1       8.530   2.357  -4.883  0.00  0.00     0.026 C 
ATOM     23  H   LIG d   1       8.265   2.758  -3.904  0.00  0.00     0.043 H 
ATOM     24  H   LIG d   1       7.851   2.758  -5.635  0.00  0.00     0.043 H 
BRANCH  22  25
ATOM     25  C   LIG d   1       8.420   0.855  -4.858  0.00  0.00    -0.020 A 
ATOM     26  C   LIG d   1       7.368   0.191  -4.085  0.00  0.00     0.022 A 
ATOM     27  C   LIG d   1       6.436   0.933  -3.351  0.00  0.00    -0.044 A 
ATOM     28  C   LIG d   1       7.299  -1.215  -4.093  0.00  0.00     0.143 A 
ATOM     29  C   LIG d   1       5.465   0.289  -2.639  0.00  0.00    -0.005 A 
ATOM     30  H   LIG d   1       6.485   2.012  -3.347  0.00  0.00     0.063 H 
ATOM     31  C   LIG d   1       5.397  -1.103  -2.639  0.00  0.00     0.123 A 
ATOM     32  C   LIG d   1       6.304  -1.853  -3.369  0.00  0.00     0.023 A 
ATOM     33  H   LIG d   1       6.244  -2.931  -3.364  0.00  0.00     0.069 H 
ATOM     34  O   LIG d   1       8.204  -1.928  -4.799  0.00  0.00    -0.422 OA
ATOM     35  C   LIG d   1       9.174  -1.326  -5.505  0.00  0.00     0.338 A 
ATOM     36  C   LIG d   1       9.298   0.079  -5.545  0.00  0.00     0.028 A 
ATOM     37  O   LIG d   1       9.967  -2.009  -6.127  0.00  0.00    -0.245 OA
ATOM     38  H   LIG d   1      10.088   0.536  -6.121  0.00  0.00     0.069 H 
BRANCH  29  39
ATOM     39  C   LIG d   1       4.462   1.088  -1.848  0.00  0.00    -0.027 C 
ATOM     40  H   LIG d   1       3.962   0.437  -1.132  0.00  0.00     0.031 H 
ATOM     41  H   LIG d   1       4.974   1.888  -1.315  0.00  0.00     0.031 H 
BRANCH  39  42
ATOM     42  C   LIG d   1       3.426   1.690  -2.800  0.00  0.00    -0.061 C 
ATOM     43  H   LIG d   1       2.638   0.960  -2.988  0.00  0.00     0.023 H 
ATOM     44  H   LIG d   1       2.993   2.583  -2.348  0.00  0.00     0.023 H 
ATOM     45  H   LIG d   1       3.907   1.955  -3.740  0.00  0.00     0.023 H 
ENDBRANCH  39  42
ENDBRANCH  29  39
BRANCH  31  46
ATOM     46  O   LIG d   1       4.425  -1.729  -1.927  0.00  0.00    -0.506 OA
ATOM     47  H   LIG d   1       4.289  -1.364  -1.041  0.00  0.00     0.292 HD
ENDBRANCH  31  46
ENDBRANCH  22  25
ENDBRANCH  21  22
ENDBRANCH   1  21
BRANCH   3  48
ATOM     48  C   LIG d   1      10.049   7.675  -3.224  0.00  0.00     0.419 C 
ATOM     49  F   LIG d   1      11.342   7.623  -2.692  0.00  0.00    -0.166 F 
ATOM     50  F   LIG d   1       9.756   8.986  -3.613  0.00  0.00    -0.166 F 
ATOM     51  F   LIG d   1       9.129   7.261  -2.255  0.00  0.00    -0.166 F 
ENDBRANCH   3  48
TORSDOF 7
ENDMDL
MODEL 10
REMARK VINA RESULT:      -6.5      5.498      8.037
REMARK  7 active torsions:
REMARK  status: ('A' for Active; 'I' for Inactive)
REMARK    1  A    between atoms: C_1  and  C_2 
REMARK    2  A    between atoms: C_2  and  C_3 
REMARK    3  A    between atoms: C_6  and  C_15 
REMARK    4  A    between atoms: C_13  and  O_14 
REMARK    5  A    between atoms: C_15  and  S_16 
REMARK    6  A    between atoms: S_16  and  C_17 
REMARK    7  A    between atoms: C_19  and  C_27 
ROOT
ATOM      1  C   LIG d   1       8.138   0.546  -4.305  0.00  0.00     0.115 A 
ATOM      2  C   LIG d   1       8.103  -0.812  -4.671  0.00  0.00     0.095 A 
ATOM      3  C   LIG d   1       7.019  -1.587  -4.254  0.00  0.00     0.080 A 
ATOM      4  C   LIG d   1       6.025  -0.992  -3.486  0.00  0.00    -0.013 A 
ATOM      5  C   LIG d   1       6.127   0.344  -3.161  0.00  0.00     0.046 A 
ATOM      6  N   LIG d   1       7.165   1.061  -3.576  0.00  0.00    -0.244 NA
ATOM      7  C   LIG d   1       5.088   1.051  -2.328  0.00  0.00    -0.010 C 
ATOM      8  C   LIG d   1       3.786   0.254  -2.302  0.00  0.00    -0.047 C 
ATOM      9  C   LIG d   1       4.110  -1.190  -1.902  0.00  0.00    -0.049 C 
ATOM     10  C   LIG d   1       4.866  -1.850  -3.053  0.00  0.00    -0.025 C 
ATOM     11  C   LIG d   1       9.153  -1.386  -5.459  0.00  0.00     0.102 C 
ATOM     12  N   LIG d   1       9.985  -1.840  -6.084  0.00  0.00    -0.191 NA
ATOM     13  H   LIG d   1       5.460   1.165  -1.310  0.00  0.00     0.033 H 
ATOM     14  H   LIG d   1       4.897   2.037  -2.751  0.00  0.00     0.033 H 
ATOM     15  H   LIG d   1       3.101   0.692  -1.575  0.00  0.00     0.027 H 
ATOM     16  H   LIG d   1       3.328   0.266  -3.291  0.00  0.00     0.027 H 
ATOM     17  H   LIG d   1       4.731  -1.192  -1.005  0.00  0.00     0.027 H 
ATOM     18  H   LIG d   1       3.185  -1.734  -1.709  0.00  0.00     0.027 H 
ATOM     19  H   LIG d   1       5.240  -2.820  -2.727  0.00  0.00     0.031 H 
ATOM     20  H   LIG d   1       4.188  -1.989  -3.895  0.00  0.00     0.031 H 
ENDROOT
BRANCH   1  21
ATOM     21  S   LIG d   1       9.482   1.561  -4.821  0.00  0.00    -0.100 SA
BRANCH  21  22
ATOM     22  C   LIG d   1       9.273   2.958  -3.688  0.00  0.00     0.026 C 
ATOM     23  H   LIG d   1       8.243   2.986  -3.333  0.00  0.00     0.043 H 
ATOM     24  H   LIG d   1       9.947   2.842  -2.840  0.00  0.00     0.043 H 
BRANCH  22  25
ATOM     25  C   LIG d   1       9.590   4.242  -4.410  0.00  0.00    -0.020 A 
ATOM     26  C   LIG d   1       9.970   5.447  -3.670  0.00  0.00     0.022 A 
ATOM     27  C   LIG d   1      10.050   5.439  -2.273  0.00  0.00    -0.044 A 
ATOM     28  C   LIG d   1      10.263   6.623  -4.385  0.00  0.00     0.143 A 
ATOM     29  C   LIG d   1      10.408   6.576  -1.607  0.00  0.00    -0.005 A 
ATOM     30  H   LIG d   1       9.830   4.535  -1.723  0.00  0.00     0.063 H 
ATOM     31  C   LIG d   1      10.693   7.745  -2.310  0.00  0.00     0.123 A 
ATOM     32  C   LIG d   1      10.629   7.768  -3.693  0.00  0.00     0.023 A 
ATOM     33  H   LIG d   1      10.851   8.677  -4.231  0.00  0.00     0.069 H 
ATOM     34  O   LIG d   1      10.179   6.629  -5.733  0.00  0.00    -0.422 OA
ATOM     35  C   LIG d   1       9.825   5.529  -6.418  0.00  0.00     0.338 A 
ATOM     36  C   LIG d   1       9.524   4.315  -5.765  0.00  0.00     0.028 A 
ATOM     37  O   LIG d   1       9.764   5.581  -7.633  0.00  0.00    -0.245 OA
ATOM     38  H   LIG d   1       9.243   3.447  -6.341  0.00  0.00     0.069 H 
BRANCH  29  39
ATOM     39  C   LIG d   1      10.494   6.566  -0.103  0.00  0.00    -0.027 C 
ATOM     40  H   LIG d   1      10.677   7.579   0.257  0.00  0.00     0.031 H 
ATOM     41  H   LIG d   1       9.556   6.198   0.313  0.00  0.00     0.031 H 
BRANCH  39  42
ATOM     42  C   LIG d   1      11.641   5.655   0.337  0.00  0.00    -0.061 C 
ATOM     43  H   LIG d   1      12.567   6.229   0.378  0.00  0.00     0.023 H 
ATOM     44  H   LIG d   1      11.423   5.246   1.324  0.00  0.00     0.023 H 
ATOM     45  H   LIG d   1      11.751   4.839  -0.378  0.00  0.00     0.023 H 
ENDBRANCH  39  42
ENDBRANCH  29  39
BRANCH  31  46
ATOM     46  O   LIG d   1      11.047   8.867  -1.634  0.00  0.00    -0.506 OA
ATOM     47  H   LIG d   1      11.985   8.908  -1.402  0.00  0.00     0.292 HD
ENDBRANCH  31  46
ENDBRANCH  22  25
ENDBRANCH  21  22
ENDBRANCH   1  21
BRANCH   3  48
ATOM     48  C   LIG d   1       6.931  -3.045  -4.624  0.00  0.00     0.419 C 
ATOM     49  F   LIG d   1       5.685  -3.550  -4.238  0.00  0.00    -0.166 F 
ATOM     50  F   LIG d   1       7.084  -3.184  -6.008  0.00  0.00    -0.166 F 
ATOM     51  F   LIG d   1       7.945  -3.754  -3.970  0.00  0.00    -0.166 F 
ENDBRANCH   3  48
TORSDOF 7
ENDMDL
