MODEL 1
REMARK VINA RESULT:      -7.2      0.000      0.000
REMARK  6 active torsions:
REMARK  status: ('A' for Active; 'I' for Inactive)
REMARK    1  A    between atoms: C_1  and  C_2 
REMARK    2  A    between atoms: C_2  and  C_3 
REMARK    3  A    between atoms: C_3  and  C_4 
REMARK    4  A    between atoms: C_4  and  C_5 
REMARK    5  A    between atoms: N_17  and  C_20 
REMARK    6  A    between atoms: C_20  and  C_21 
ROOT
ATOM      1  C   LIG d   1       4.300  -1.959  -3.990  0.00  0.00    -0.030 A 
ATOM      2  C   LIG d   1       5.237  -2.885  -4.323  0.00  0.00     0.027 A 
ATOM      3  C   LIG d   1       5.788  -2.891  -5.621  0.00  0.00     0.338 A 
ATOM      4  O   LIG d   1       6.627  -3.727  -5.905  0.00  0.00    -0.245 OA
ATOM      5  O   LIG d   1       5.411  -1.999  -6.551  0.00  0.00    -0.422 OA
ATOM      6  C   LIG d   1       4.487  -1.051  -6.284  0.00  0.00     0.147 A 
ATOM      7  C   LIG d   1       3.891  -0.993  -5.011  0.00  0.00     0.021 A 
ATOM      8  C   LIG d   1       2.927  -0.016  -4.735  0.00  0.00    -0.047 A 
ATOM      9  C   LIG d   1       2.566   0.872  -5.705  0.00  0.00    -0.019 A 
ATOM     10  C   LIG d   1       3.150   0.818  -6.972  0.00  0.00     0.130 A 
ATOM     11  C   LIG d   1       4.114  -0.134  -7.257  0.00  0.00     0.051 A 
ATOM     12  C   LIG d   1       4.759  -0.199  -8.619  0.00  0.00     0.034 C 
ATOM     13  N   LIG d   1       3.949   0.558  -9.584  0.00  0.00    -0.262 N 
ATOM     14  C   LIG d   1       3.632   1.891  -9.044  0.00  0.00     0.144 C 
ATOM     15  O   LIG d   1       2.764   1.717  -7.914  0.00  0.00    -0.476 OA
ATOM     16  H   LIG d   1       5.559  -3.616  -3.595  0.00  0.00     0.069 H 
ATOM     17  H   LIG d   1       2.471   0.034  -3.758  0.00  0.00     0.063 H 
ATOM     18  H   LIG d   1       1.822   1.624  -5.492  0.00  0.00     0.065 H 
ATOM     19  H   LIG d   1       5.759   0.231  -8.567  0.00  0.00     0.048 H 
ATOM     20  H   LIG d   1       4.827  -1.238  -8.939  0.00  0.00     0.048 H 
ATOM     21  H   LIG d   1       4.551   2.393  -8.744  0.00  0.00     0.087 H 
ATOM     22  H   LIG d   1       3.121   2.482  -9.804  0.00  0.00     0.087 H 
ENDROOT
BRANCH  13  23
ATOM     23  C   LIG d   1       4.636   0.665 -10.878  0.00  0.00     0.027 C 
ATOM     24  H   LIG d   1       4.608   1.699 -11.220  0.00  0.00     0.048 H 
ATOM     25  H   LIG d   1       5.673   0.347 -10.767  0.00  0.00     0.048 H 
BRANCH  23  26
ATOM     26  C   LIG d   1       3.945  -0.216 -11.887  0.00  0.00    -0.032 A 
ATOM     27  C   LIG d   1       2.721  -0.782 -11.587  0.00  0.00    -0.039 A 
ATOM     28  C   LIG d   1       2.084  -1.585 -12.516  0.00  0.00     0.041 A 
ATOM     29  H   LIG d   1       2.259  -0.595 -10.628  0.00  0.00     0.064 H 
ATOM     30  C   LIG d   1       2.678  -1.830 -13.741  0.00  0.00    -0.043 A 
ATOM     31 CL   LIG d   1       0.543  -2.291 -12.142  0.00  0.00    -0.084 Cl
ATOM     32  C   LIG d   1       3.906  -1.268 -14.038  0.00  0.00    -0.060 A 
ATOM     33  H   LIG d   1       2.183  -2.460 -14.465  0.00  0.00     0.063 H 
ATOM     34  C   LIG d   1       4.539  -0.460 -13.112  0.00  0.00    -0.057 A 
ATOM     35  H   LIG d   1       4.369  -1.458 -14.995  0.00  0.00     0.062 H 
ATOM     36  H   LIG d   1       5.498  -0.021 -13.345  0.00  0.00     0.062 H 
ENDBRANCH  23  26
ENDBRANCH  13  23
BRANCH   1  37
ATOM     37  C   LIG d   1       3.694  -1.931  -2.611  0.00  0.00    -0.027 C 
ATOM     38  H   LIG d   1       3.505  -2.951  -2.276  0.00  0.00     0.031 H 
ATOM     39  H   LIG d   1       2.757  -1.376  -2.636  0.00  0.00     0.031 H 
BRANCH  37  40
ATOM     40  C   LIG d   1       4.664  -1.250  -1.642  0.00  0.00    -0.049 C 
ATOM     41  H   LIG d   1       5.686  -1.381  -2.000  0.00  0.00     0.027 H 
ATOM     42  H   LIG d   1       4.565  -1.696  -0.653  0.00  0.00     0.027 H 
BRANCH  40  43
ATOM     43  C   LIG d   1       4.339   0.244  -1.562  0.00  0.00    -0.056 C 
ATOM     44  H   LIG d   1       4.320   0.555  -0.518  0.00  0.00     0.026 H 
ATOM     45  H   LIG d   1       3.364   0.428  -2.014  0.00  0.00     0.026 H 
BRANCH  43  46
ATOM     46  C   LIG d   1       5.409   1.040  -2.312  0.00  0.00    -0.065 C 
ATOM     47  H   LIG d   1       5.044   1.289  -3.309  0.00  0.00     0.023 H 
ATOM     48  H   LIG d   1       5.630   1.956  -1.765  0.00  0.00     0.023 H 
ATOM     49  H   LIG d   1       6.315   0.440  -2.397  0.00  0.00     0.023 H 
ENDBRANCH  43  46
ENDBRANCH  40  43
ENDBRANCH  37  40
ENDBRANCH   1  37
TORSDOF 6
ENDMDL
MODEL 2
REMARK VINA RESULT:      -6.9      5.968      8.800
REMARK  6 active torsions:
REMARK  status: ('A' for Active; 'I' for Inactive)
REMARK    1  A    between atoms: C_1  and  C_2 
REMARK    2  A    between atoms: C_2  and  C_3 
REMARK    3  A    between atoms: C_3  and  C_4 
REMARK    4  A    between atoms: C_4  and  C_5 
REMARK    5  A    between atoms: N_17  and  C_20 
REMARK    6  A    between atoms: C_20  and  C_21 
ROOT
ATOM      1  C   LIG d   1      10.322   5.690  -5.347  0.00  0.00    -0.030 A 
ATOM      2  C   LIG d   1      10.414   6.010  -4.029  0.00  0.00     0.027 A 
ATOM      3  C   LIG d   1       9.951   5.103  -3.054  0.00  0.00     0.338 A 
ATOM      4  O   LIG d   1      10.040   5.402  -1.877  0.00  0.00    -0.245 OA
ATOM      5  O   LIG d   1       9.415   3.919  -3.390  0.00  0.00    -0.422 OA
ATOM      6  C   LIG d   1       9.297   3.540  -4.681  0.00  0.00     0.147 A 
ATOM      7  C   LIG d   1       9.732   4.399  -5.705  0.00  0.00     0.021 A 
ATOM      8  C   LIG d   1       9.604   4.012  -7.044  0.00  0.00    -0.047 A 
ATOM      9  C   LIG d   1       9.051   2.802  -7.349  0.00  0.00    -0.019 A 
ATOM     10  C   LIG d   1       8.613   1.945  -6.337  0.00  0.00     0.130 A 
ATOM     11  C   LIG d   1       8.745   2.309  -5.008  0.00  0.00     0.051 A 
ATOM     12  C   LIG d   1       8.283   1.390  -3.905  0.00  0.00     0.034 C 
ATOM     13  N   LIG d   1       7.384   0.368  -4.460  0.00  0.00    -0.262 N 
ATOM     14  C   LIG d   1       7.990  -0.249  -5.651  0.00  0.00     0.144 C 
ATOM     15  O   LIG d   1       8.066   0.750  -6.679  0.00  0.00    -0.476 OA
ATOM     16  H   LIG d   1      10.840   6.956  -3.730  0.00  0.00     0.069 H 
ATOM     17  H   LIG d   1       9.940   4.667  -7.833  0.00  0.00     0.063 H 
ATOM     18  H   LIG d   1       8.951   2.505  -8.382  0.00  0.00     0.065 H 
ATOM     19  H   LIG d   1       9.148   0.904  -3.453  0.00  0.00     0.048 H 
ATOM     20  H   LIG d   1       7.754   1.968  -3.149  0.00  0.00     0.048 H 
ATOM     21  H   LIG d   1       8.985  -0.619  -5.406  0.00  0.00     0.087 H 
ATOM     22  H   LIG d   1       7.364  -1.073  -5.995  0.00  0.00     0.087 H 
ENDROOT
BRANCH  13  23
ATOM     23  C   LIG d   1       7.055  -0.648  -3.450  0.00  0.00     0.027 C 
ATOM     24  H   LIG d   1       7.482  -1.606  -3.747  0.00  0.00     0.048 H 
ATOM     25  H   LIG d   1       7.466  -0.349  -2.486  0.00  0.00     0.048 H 
BRANCH  23  26
ATOM     26  C   LIG d   1       5.558  -0.779  -3.339  0.00  0.00    -0.032 A 
ATOM     27  C   LIG d   1       4.734   0.036  -4.093  0.00  0.00    -0.039 A 
ATOM     28  C   LIG d   1       3.360  -0.090  -3.995  0.00  0.00     0.041 A 
ATOM     29  H   LIG d   1       5.164   0.768  -4.761  0.00  0.00     0.064 H 
ATOM     30  C   LIG d   1       2.810  -1.023  -3.135  0.00  0.00    -0.043 A 
ATOM     31 CL   LIG d   1       2.325   0.929  -4.946  0.00  0.00    -0.084 Cl
ATOM     32  C   LIG d   1       3.636  -1.835  -2.378  0.00  0.00    -0.060 A 
ATOM     33  H   LIG d   1       1.738  -1.120  -3.056  0.00  0.00     0.063 H 
ATOM     34  C   LIG d   1       5.008  -1.713  -2.480  0.00  0.00    -0.057 A 
ATOM     35  H   LIG d   1       3.206  -2.565  -1.707  0.00  0.00     0.062 H 
ATOM     36  H   LIG d   1       5.652  -2.348  -1.889  0.00  0.00     0.062 H 
ENDBRANCH  23  26
ENDBRANCH  13  23
BRANCH   1  37
ATOM     37  C   LIG d   1      10.808   6.641  -6.410  0.00  0.00    -0.027 C 
ATOM     38  H   LIG d   1      10.331   6.400  -7.360  0.00  0.00     0.031 H 
ATOM     39  H   LIG d   1      11.889   6.550  -6.512  0.00  0.00     0.031 H 
BRANCH  37  40
ATOM     40  C   LIG d   1      10.453   8.075  -6.011  0.00  0.00    -0.049 C 
ATOM     41  H   LIG d   1      11.271   8.742  -6.287  0.00  0.00     0.027 H 
ATOM     42  H   LIG d   1      10.291   8.125  -4.935  0.00  0.00     0.027 H 
BRANCH  40  43
ATOM     43  C   LIG d   1       9.177   8.506  -6.739  0.00  0.00    -0.056 C 
ATOM     44  H   LIG d   1       9.135   9.593  -6.785  0.00  0.00     0.026 H 
ATOM     45  H   LIG d   1       8.307   8.131  -6.200  0.00  0.00     0.026 H 
BRANCH  43  46
ATOM     46  C   LIG d   1       9.182   7.935  -8.159  0.00  0.00    -0.065 C 
ATOM     47  H   LIG d   1      10.199   7.948  -8.552  0.00  0.00     0.023 H 
ATOM     48  H   LIG d   1       8.813   6.910  -8.140  0.00  0.00     0.023 H 
ATOM     49  H   LIG d   1       8.539   8.542  -8.796  0.00  0.00     0.023 H 
ENDBRANCH  43  46
ENDBRANCH  40  43
ENDBRANCH  37  40
ENDBRANCH   1  37
TORSDOF 6
ENDMDL
MODEL 3
REMARK VINA RESULT:      -6.5      2.953      8.104
REMARK  6 active torsions:
REMARK  status: ('A' for Active; 'I' for Inactive)
REMARK    1  A    between atoms: C_1  and  C_2 
REMARK    2  A    between atoms: C_2  and  C_3 
REMARK    3  A    between atoms: C_3  and  C_4 
REMARK    4  A    between atoms: C_4  and  C_5 
REMARK    5  A    between atoms: N_17  and  C_20 
REMARK    6  A    between atoms: C_20  and  C_21 
ROOT
ATOM      1  C   LIG d   1       4.506   0.370 -10.956  0.00  0.00    -0.030 A 
ATOM      2  C   LIG d   1       3.852   1.461 -10.478  0.00  0.00     0.027 A 
ATOM      3  C   LIG d   1       4.096   1.903  -9.162  0.00  0.00     0.338 A 
ATOM      4  O   LIG d   1       3.503   2.883  -8.746  0.00  0.00    -0.245 OA
ATOM      5  O   LIG d   1       4.964   1.273  -8.355  0.00  0.00    -0.422 OA
ATOM      6  C   LIG d   1       5.648   0.185  -8.770  0.00  0.00     0.147 A 
ATOM      7  C   LIG d   1       5.448  -0.315 -10.069  0.00  0.00     0.021 A 
ATOM      8  C   LIG d   1       6.149  -1.447 -10.499  0.00  0.00    -0.047 A 
ATOM      9  C   LIG d   1       7.022  -2.065  -9.651  0.00  0.00    -0.019 A 
ATOM     10  C   LIG d   1       7.223  -1.577  -8.358  0.00  0.00     0.130 A 
ATOM     11  C   LIG d   1       6.546  -0.450  -7.923  0.00  0.00     0.051 A 
ATOM     12  C   LIG d   1       6.760   0.092  -6.532  0.00  0.00     0.034 C 
ATOM     13  N   LIG d   1       7.403  -0.933  -5.698  0.00  0.00    -0.262 N 
ATOM     14  C   LIG d   1       8.571  -1.495  -6.396  0.00  0.00     0.144 C 
ATOM     15  O   LIG d   1       8.098  -2.219  -7.541  0.00  0.00    -0.476 OA
ATOM     16  H   LIG d   1       3.147   1.988 -11.105  0.00  0.00     0.069 H 
ATOM     17  H   LIG d   1       6.001  -1.831 -11.496  0.00  0.00     0.063 H 
ATOM     18  H   LIG d   1       7.562  -2.939  -9.982  0.00  0.00     0.065 H 
ATOM     19  H   LIG d   1       7.398   0.973  -6.581  0.00  0.00     0.048 H 
ATOM     20  H   LIG d   1       5.798   0.363  -6.097  0.00  0.00     0.048 H 
ATOM     21  H   LIG d   1       9.237  -0.689  -6.703  0.00  0.00     0.087 H 
ATOM     22  H   LIG d   1       9.101  -2.178  -5.731  0.00  0.00     0.087 H 
ENDROOT
BRANCH  13  23
ATOM     23  C   LIG d   1       7.786  -0.383  -4.390  0.00  0.00     0.027 C 
ATOM     24  H   LIG d   1       8.468  -1.071  -3.892  0.00  0.00     0.048 H 
ATOM     25  H   LIG d   1       8.279   0.579  -4.531  0.00  0.00     0.048 H 
BRANCH  23  26
ATOM     26  C   LIG d   1       6.554  -0.197  -3.543  0.00  0.00    -0.032 A 
ATOM     27  C   LIG d   1       5.757  -1.283  -3.234  0.00  0.00    -0.039 A 
ATOM     28  C   LIG d   1       4.629  -1.113  -2.451  0.00  0.00     0.041 A 
ATOM     29  H   LIG d   1       6.017  -2.265  -3.600  0.00  0.00     0.064 H 
ATOM     30  C   LIG d   1       4.293   0.146  -1.987  0.00  0.00    -0.043 A 
ATOM     31 CL   LIG d   1       3.632  -2.478  -2.057  0.00  0.00    -0.084 Cl
ATOM     32  C   LIG d   1       5.088   1.233  -2.302  0.00  0.00    -0.060 A 
ATOM     33  H   LIG d   1       3.411   0.280  -1.378  0.00  0.00     0.063 H 
ATOM     34  C   LIG d   1       6.218   1.062  -3.079  0.00  0.00    -0.057 A 
ATOM     35  H   LIG d   1       4.826   2.216  -1.938  0.00  0.00     0.062 H 
ATOM     36  H   LIG d   1       6.839   1.911  -3.324  0.00  0.00     0.062 H 
ENDBRANCH  23  26
ENDBRANCH  13  23
BRANCH   1  37
ATOM     37  C   LIG d   1       4.263  -0.125 -12.359  0.00  0.00    -0.027 C 
ATOM     38  H   LIG d   1       5.217  -0.233 -12.876  0.00  0.00     0.031 H 
ATOM     39  H   LIG d   1       3.638   0.590 -12.894  0.00  0.00     0.031 H 
BRANCH  37  40
ATOM     40  C   LIG d   1       3.556  -1.481 -12.306  0.00  0.00    -0.049 C 
ATOM     41  H   LIG d   1       3.744  -1.950 -11.340  0.00  0.00     0.027 H 
ATOM     42  H   LIG d   1       3.936  -2.121 -13.101  0.00  0.00     0.027 H 
BRANCH  40  43
ATOM     43  C   LIG d   1       2.050  -1.278 -12.490  0.00  0.00    -0.056 C 
ATOM     44  H   LIG d   1       1.644  -2.096 -13.084  0.00  0.00     0.026 H 
ATOM     45  H   LIG d   1       1.871  -0.333 -13.004  0.00  0.00     0.026 H 
BRANCH  43  46
ATOM     46  C   LIG d   1       1.367  -1.253 -11.121  0.00  0.00    -0.065 C 
ATOM     47  H   LIG d   1       1.479  -2.226 -10.642  0.00  0.00     0.023 H 
ATOM     48  H   LIG d   1       1.828  -0.486 -10.499  0.00  0.00     0.023 H 
ATOM     49  H   LIG d   1       0.308  -1.030 -11.249  0.00  0.00     0.023 H 
ENDBRANCH  43  46
ENDBRANCH  40  43
ENDBRANCH  37  40
ENDBRANCH   1  37
TORSDOF 6
ENDMDL
MODEL 4
REMARK VINA RESULT:      -6.1      3.321      4.117
REMARK  6 active torsions:
REMARK  status: ('A' for Active; 'I' for Inactive)
REMARK    1  A    between atoms: C_1  and  C_2 
REMARK    2  A    between atoms: C_2  and  C_3 
REMARK    3  A    between atoms: C_3  and  C_4 
REMARK    4  A    between atoms: C_4  and  C_5 
REMARK    5  A    between atoms: N_17  and  C_20 
REMARK    6  A    between atoms: C_20  and  C_21 
ROOT
ATOM      1  C   LIG d   1       5.442  -1.547  -5.553  0.00  0.00    -0.030 A 
ATOM      2  C   LIG d   1       6.053  -2.761  -5.539  0.00  0.00     0.027 A 
ATOM      3  C   LIG d   1       5.714  -3.728  -6.508  0.00  0.00     0.338 A 
ATOM      4  O   LIG d   1       6.270  -4.811  -6.484  0.00  0.00    -0.245 OA
ATOM      5  O   LIG d   1       4.793  -3.485  -7.454  0.00  0.00    -0.422 OA
ATOM      6  C   LIG d   1       4.151  -2.299  -7.524  0.00  0.00     0.147 A 
ATOM      7  C   LIG d   1       4.436  -1.292  -6.585  0.00  0.00     0.021 A 
ATOM      8  C   LIG d   1       3.766  -0.065  -6.651  0.00  0.00    -0.047 A 
ATOM      9  C   LIG d   1       2.834   0.146  -7.625  0.00  0.00    -0.019 A 
ATOM     10  C   LIG d   1       2.542  -0.851  -8.558  0.00  0.00     0.130 A 
ATOM     11  C   LIG d   1       3.206  -2.065  -8.514  0.00  0.00     0.051 A 
ATOM     12  C   LIG d   1       2.907  -3.147  -9.521  0.00  0.00     0.034 C 
ATOM     13  N   LIG d   1       1.630  -2.859 -10.189  0.00  0.00    -0.262 N 
ATOM     14  C   LIG d   1       1.609  -1.465 -10.662  0.00  0.00     0.144 C 
ATOM     15  O   LIG d   1       1.607  -0.606  -9.512  0.00  0.00    -0.476 OA
ATOM     16  H   LIG d   1       6.798  -2.984  -4.789  0.00  0.00     0.069 H 
ATOM     17  H   LIG d   1       3.984   0.711  -5.934  0.00  0.00     0.063 H 
ATOM     18  H   LIG d   1       2.316   1.091  -7.674  0.00  0.00     0.065 H 
ATOM     19  H   LIG d   1       3.705  -3.183 -10.262  0.00  0.00     0.048 H 
ATOM     20  H   LIG d   1       2.842  -4.108  -9.012  0.00  0.00     0.048 H 
ATOM     21  H   LIG d   1       2.486  -1.274 -11.278  0.00  0.00     0.087 H 
ATOM     22  H   LIG d   1       0.704  -1.290 -11.244  0.00  0.00     0.087 H 
ENDROOT
BRANCH  13  23
ATOM     23  C   LIG d   1       1.393  -3.795 -11.297  0.00  0.00     0.027 C 
ATOM     24  H   LIG d   1       0.871  -3.278 -12.103  0.00  0.00     0.048 H 
ATOM     25  H   LIG d   1       2.347  -4.171 -11.665  0.00  0.00     0.048 H 
BRANCH  23  26
ATOM     26  C   LIG d   1       0.552  -4.946 -10.811  0.00  0.00    -0.032 A 
ATOM     27  C   LIG d   1      -0.756  -4.731 -10.421  0.00  0.00    -0.039 A 
ATOM     28  C   LIG d   1      -1.530  -5.789  -9.981  0.00  0.00     0.041 A 
ATOM     29  H   LIG d   1      -1.176  -3.736 -10.463  0.00  0.00     0.064 H 
ATOM     30  C   LIG d   1      -0.991  -7.062  -9.920  0.00  0.00    -0.043 A 
ATOM     31 CL   LIG d   1      -3.175  -5.520  -9.497  0.00  0.00    -0.084 Cl
ATOM     32  C   LIG d   1       0.320  -7.275 -10.306  0.00  0.00    -0.060 A 
ATOM     33  H   LIG d   1      -1.593  -7.888  -9.574  0.00  0.00     0.063 H 
ATOM     34  C   LIG d   1       1.091  -6.218 -10.752  0.00  0.00    -0.057 A 
ATOM     35  H   LIG d   1       0.740  -8.269 -10.260  0.00  0.00     0.062 H 
ATOM     36  H   LIG d   1       2.114  -6.386 -11.053  0.00  0.00     0.062 H 
ENDBRANCH  23  26
ENDBRANCH  13  23
BRANCH   1  37
ATOM     37  C   LIG d   1       5.785  -0.496  -4.529  0.00  0.00    -0.027 C 
ATOM     38  H   LIG d   1       4.992   0.251  -4.495  0.00  0.00     0.031 H 
ATOM     39  H   LIG d   1       6.725  -0.016  -4.801  0.00  0.00     0.031 H 
BRANCH  37  40
ATOM     40  C   LIG d   1       5.927  -1.152  -3.154  0.00  0.00    -0.049 C 
ATOM     41  H   LIG d   1       6.789  -0.728  -2.637  0.00  0.00     0.027 H 
ATOM     42  H   LIG d   1       6.067  -2.225  -3.275  0.00  0.00     0.027 H 
BRANCH  40  43
ATOM     43  C   LIG d   1       4.662  -0.892  -2.332  0.00  0.00    -0.056 C 
ATOM     44  H   LIG d   1       4.120  -0.049  -2.758  0.00  0.00     0.026 H 
ATOM     45  H   LIG d   1       4.938  -0.665  -1.302  0.00  0.00     0.026 H 
BRANCH  43  46
ATOM     46  C   LIG d   1       3.772  -2.137  -2.359  0.00  0.00    -0.065 C 
ATOM     47  H   LIG d   1       4.370  -3.004  -2.640  0.00  0.00     0.023 H 
ATOM     48  H   LIG d   1       3.341  -2.297  -1.371  0.00  0.00     0.023 H 
ATOM     49  H   LIG d   1       2.973  -1.995  -3.086  0.00  0.00     0.023 H 
ENDBRANCH  43  46
ENDBRANCH  40  43
ENDBRANCH  37  40
ENDBRANCH   1  37
TORSDOF 6
ENDMDL
MODEL 5
REMARK VINA RESULT:      -6.1      7.640     10.076
REMARK  6 active torsions:
REMARK  status: ('A' for Active; 'I' for Inactive)
REMARK    1  A    between atoms: C_1  and  C_2 
REMARK    2  A    between atoms: C_2  and  C_3 
REMARK    3  A    between atoms: C_3  and  C_4 
REMARK    4  A    between atoms: C_4  and  C_5 
REMARK    5  A    between atoms: N_17  and  C_20 
REMARK    6  A    between atoms: C_20  and  C_21 
ROOT
ATOM      1  C   LIG d   1      10.386   8.152  -2.511  0.00  0.00    -0.030 A 
ATOM      2  C   LIG d   1      10.471   7.755  -1.214  0.00  0.00     0.027 A 
ATOM      3  C   LIG d   1      10.296   6.396  -0.885  0.00  0.00     0.338 A 
ATOM      4  O   LIG d   1      10.376   6.053   0.281  0.00  0.00    -0.245 OA
ATOM      5  O   LIG d   1      10.042   5.469  -1.823  0.00  0.00    -0.422 OA
ATOM      6  C   LIG d   1       9.948   5.798  -3.129  0.00  0.00     0.147 A 
ATOM      7  C   LIG d   1      10.105   7.137  -3.527  0.00  0.00     0.021 A 
ATOM      8  C   LIG d   1       9.999   7.481  -4.880  0.00  0.00    -0.047 A 
ATOM      9  C   LIG d   1       9.738   6.514  -5.806  0.00  0.00    -0.019 A 
ATOM     10  C   LIG d   1       9.577   5.183  -5.418  0.00  0.00     0.130 A 
ATOM     11  C   LIG d   1       9.691   4.825  -4.085  0.00  0.00     0.051 A 
ATOM     12  C   LIG d   1       9.527   3.390  -3.653  0.00  0.00     0.034 C 
ATOM     13  N   LIG d   1       8.870   2.625  -4.723  0.00  0.00    -0.262 N 
ATOM     14  C   LIG d   1       9.539   2.876  -6.010  0.00  0.00     0.144 C 
ATOM     15  O   LIG d   1       9.315   4.248  -6.367  0.00  0.00    -0.476 OA
ATOM     16  H   LIG d   1      10.673   8.479  -0.438  0.00  0.00     0.069 H 
ATOM     17  H   LIG d   1      10.123   8.508  -5.190  0.00  0.00     0.063 H 
ATOM     18  H   LIG d   1       9.655   6.780  -6.849  0.00  0.00     0.065 H 
ATOM     19  H   LIG d   1      10.507   2.959  -3.448  0.00  0.00     0.048 H 
ATOM     20  H   LIG d   1       8.917   3.350  -2.751  0.00  0.00     0.048 H 
ATOM     21  H   LIG d   1      10.606   2.677  -5.912  0.00  0.00     0.087 H 
ATOM     22  H   LIG d   1       9.113   2.229  -6.777  0.00  0.00     0.087 H 
ENDROOT
BRANCH  13  23
ATOM     23  C   LIG d   1       8.852   1.189  -4.409  0.00  0.00     0.027 C 
ATOM     24  H   LIG d   1       9.373   0.640  -5.194  0.00  0.00     0.048 H 
ATOM     25  H   LIG d   1       9.351   1.020  -3.455  0.00  0.00     0.048 H 
BRANCH  23  26
ATOM     26  C   LIG d   1       7.426   0.712  -4.324  0.00  0.00    -0.032 A 
ATOM     27  C   LIG d   1       6.662   1.011  -3.212  0.00  0.00    -0.039 A 
ATOM     28  C   LIG d   1       5.350   0.577  -3.138  0.00  0.00     0.041 A 
ATOM     29  H   LIG d   1       7.087   1.586  -2.403  0.00  0.00     0.064 H 
ATOM     30  C   LIG d   1       4.807  -0.165  -4.171  0.00  0.00    -0.043 A 
ATOM     31 CL   LIG d   1       4.388   0.958  -1.745  0.00  0.00    -0.084 Cl
ATOM     32  C   LIG d   1       5.575  -0.468  -5.281  0.00  0.00    -0.060 A 
ATOM     33  H   LIG d   1       3.785  -0.506  -4.113  0.00  0.00     0.063 H 
ATOM     34  C   LIG d   1       6.883  -0.029  -5.358  0.00  0.00    -0.057 A 
ATOM     35  H   LIG d   1       5.150  -1.047  -6.089  0.00  0.00     0.062 H 
ATOM     36  H   LIG d   1       7.482  -0.266  -6.226  0.00  0.00     0.062 H 
ENDBRANCH  23  26
ENDBRANCH  13  23
BRANCH   1  37
ATOM     37  C   LIG d   1      10.568   9.599  -2.891  0.00  0.00    -0.027 C 
ATOM     38  H   LIG d   1       9.599  10.039  -3.124  0.00  0.00     0.031 H 
ATOM     39  H   LIG d   1      11.218   9.667  -3.763  0.00  0.00     0.031 H 
BRANCH  37  40
ATOM     40  C   LIG d   1      11.203  10.357  -1.722  0.00  0.00    -0.049 C 
ATOM     41  H   LIG d   1      12.078  10.902  -2.076  0.00  0.00     0.027 H 
ATOM     42  H   LIG d   1      11.503   9.649  -0.950  0.00  0.00     0.027 H 
BRANCH  40  43
ATOM     43  C   LIG d   1      10.187  11.344  -1.143  0.00  0.00    -0.056 C 
ATOM     44  H   LIG d   1       9.184  11.061  -1.461  0.00  0.00     0.026 H 
ATOM     45  H   LIG d   1      10.412  12.349  -1.501  0.00  0.00     0.026 H 
BRANCH  43  46
ATOM     46  C   LIG d   1      10.263  11.317   0.385  0.00  0.00    -0.065 C 
ATOM     47  H   LIG d   1      11.154  11.854   0.714  0.00  0.00     0.023 H 
ATOM     48  H   LIG d   1       9.377  11.794   0.802  0.00  0.00     0.023 H 
ATOM     49  H   LIG d   1      10.316  10.284   0.728  0.00  0.00     0.023 H 
ENDBRANCH  43  46
ENDBRANCH  40  43
ENDBRANCH  37  40
ENDBRANCH   1  37
TORSDOF 6
ENDMDL
MODEL 6
REMARK VINA RESULT:      -6.0      5.302      8.566
REMARK  6 active torsions:
REMARK  status: ('A' for Active; 'I' for Inactive)
REMARK    1  A    between atoms: C_1  and  C_2 
REMARK    2  A    between atoms: C_2  and  C_3 
REMARK    3  A    between atoms: C_3  and  C_4 
REMARK    4  A    between atoms: C_4  and  C_5 
REMARK    5  A    between atoms: N_17  and  C_20 
REMARK    6  A    between atoms: C_20  and  C_21 
ROOT
ATOM      1  C   LIG d   1       6.675  -9.091  -5.418  0.00  0.00    -0.030 A 
ATOM      2  C   LIG d   1       5.484  -8.988  -6.064  0.00  0.00     0.027 A 
ATOM      3  C   LIG d   1       4.935  -7.716  -6.324  0.00  0.00     0.338 A 
ATOM      4  O   LIG d   1       3.867  -7.638  -6.905  0.00  0.00    -0.245 OA
ATOM      5  O   LIG d   1       5.559  -6.588  -5.948  0.00  0.00    -0.422 OA
ATOM      6  C   LIG d   1       6.746  -6.621  -5.305  0.00  0.00     0.147 A 
ATOM      7  C   LIG d   1       7.347  -7.857  -5.007  0.00  0.00     0.021 A 
ATOM      8  C   LIG d   1       8.573  -7.894  -4.334  0.00  0.00    -0.047 A 
ATOM      9  C   LIG d   1       9.178  -6.728  -3.964  0.00  0.00    -0.019 A 
ATOM     10  C   LIG d   1       8.585  -5.497  -4.252  0.00  0.00     0.130 A 
ATOM     11  C   LIG d   1       7.379  -5.444  -4.929  0.00  0.00     0.051 A 
ATOM     12  C   LIG d   1       6.732  -4.121  -5.254  0.00  0.00     0.034 C 
ATOM     13  N   LIG d   1       7.332  -3.063  -4.430  0.00  0.00    -0.262 N 
ATOM     14  C   LIG d   1       8.801  -3.138  -4.500  0.00  0.00     0.144 C 
ATOM     15  O   LIG d   1       9.215  -4.357  -3.866  0.00  0.00    -0.476 OA
ATOM     16  H   LIG d   1       4.959  -9.878  -6.378  0.00  0.00     0.069 H 
ATOM     17  H   LIG d   1       9.039  -8.840  -4.107  0.00  0.00     0.063 H 
ATOM     18  H   LIG d   1      10.122  -6.757  -3.442  0.00  0.00     0.065 H 
ATOM     19  H   LIG d   1       6.886  -3.892  -6.308  0.00  0.00     0.048 H 
ATOM     20  H   LIG d   1       5.663  -4.179  -5.048  0.00  0.00     0.048 H 
ATOM     21  H   LIG d   1       9.119  -3.124  -5.543  0.00  0.00     0.087 H 
ATOM     22  H   LIG d   1       9.237  -2.290  -3.971  0.00  0.00     0.087 H 
ENDROOT
BRANCH  13  23
ATOM     23  C   LIG d   1       6.852  -1.737  -4.843  0.00  0.00     0.027 C 
ATOM     24  H   LIG d   1       7.604  -0.986  -4.599  0.00  0.00     0.048 H 
ATOM     25  H   LIG d   1       6.672  -1.734  -5.918  0.00  0.00     0.048 H 
BRANCH  23  26
ATOM     26  C   LIG d   1       5.571  -1.419  -4.118  0.00  0.00    -0.032 A 
ATOM     27  C   LIG d   1       4.560  -0.735  -4.766  0.00  0.00    -0.039 A 
ATOM     28  C   LIG d   1       3.381  -0.449  -4.101  0.00  0.00     0.041 A 
ATOM     29  H   LIG d   1       4.689  -0.428  -5.794  0.00  0.00     0.064 H 
ATOM     30  C   LIG d   1       3.218  -0.838  -2.784  0.00  0.00    -0.043 A 
ATOM     31 CL   LIG d   1       2.109   0.404  -4.918  0.00  0.00    -0.084 Cl
ATOM     32  C   LIG d   1       4.233  -1.517  -2.134  0.00  0.00    -0.060 A 
ATOM     33  H   LIG d   1       2.300  -0.612  -2.263  0.00  0.00     0.063 H 
ATOM     34  C   LIG d   1       5.408  -1.808  -2.800  0.00  0.00    -0.057 A 
ATOM     35  H   LIG d   1       4.105  -1.821  -1.105  0.00  0.00     0.062 H 
ATOM     36  H   LIG d   1       6.199  -2.339  -2.292  0.00  0.00     0.062 H 
ENDBRANCH  23  26
ENDBRANCH  13  23
BRANCH   1  37
ATOM     37  C   LIG d   1       7.284 -10.438  -5.126  0.00  0.00    -0.027 C 
ATOM     38  H   LIG d   1       8.176 -10.309  -4.513  0.00  0.00     0.031 H 
ATOM     39  H   LIG d   1       7.553 -10.926  -6.063  0.00  0.00     0.031 H 
BRANCH  37  40
ATOM     40  C   LIG d   1       6.270 -11.303  -4.374  0.00  0.00    -0.049 C 
ATOM     41  H   LIG d   1       6.209 -12.285  -4.846  0.00  0.00     0.027 H 
ATOM     42  H   LIG d   1       5.291 -10.826  -4.403  0.00  0.00     0.027 H 
BRANCH  40  43
ATOM     43  C   LIG d   1       6.716 -11.464  -2.919  0.00  0.00    -0.056 C 
ATOM     44  H   LIG d   1       7.800 -11.368  -2.860  0.00  0.00     0.026 H 
ATOM     45  H   LIG d   1       6.418 -12.446  -2.554  0.00  0.00     0.026 H 
BRANCH  43  46
ATOM     46  C   LIG d   1       6.061 -10.379  -2.062  0.00  0.00    -0.065 C 
ATOM     47  H   LIG d   1       5.442 -10.847  -1.296  0.00  0.00     0.023 H 
ATOM     48  H   LIG d   1       6.834  -9.776  -1.586  0.00  0.00     0.023 H 
ATOM     49  H   LIG d   1       5.440  -9.744  -2.693  0.00  0.00     0.023 H 
ENDBRANCH  43  46
ENDBRANCH  40  43
ENDBRANCH  37  40
ENDBRANCH   1  37
TORSDOF 6
ENDMDL
MODEL 7
REMARK VINA RESULT:      -5.9      2.811      7.924
REMARK  6 active torsions:
REMARK  status: ('A' for Active; 'I' for Inactive)
REMARK    1  A    between atoms: C_1  and  C_2 
REMARK    2  A    between atoms: C_2  and  C_3 
REMARK    3  A    between atoms: C_3  and  C_4 
REMARK    4  A    between atoms: C_4  and  C_5 
REMARK    5  A    between atoms: N_17  and  C_20 
REMARK    6  A    between atoms: C_20  and  C_21 
ROOT
ATOM      1  C   LIG d   1       2.609  -1.912 -12.574  0.00  0.00    -0.030 A 
ATOM      2  C   LIG d   1       1.809  -2.949 -12.210  0.00  0.00     0.027 A 
ATOM      3  C   LIG d   1       1.348  -3.045 -10.881  0.00  0.00     0.338 A 
ATOM      4  O   LIG d   1       0.631  -3.979 -10.569  0.00  0.00    -0.245 OA
ATOM      5  O   LIG d   1       1.678  -2.135  -9.951  0.00  0.00    -0.422 OA
ATOM      6  C   LIG d   1       2.467  -1.080 -10.249  0.00  0.00     0.147 A 
ATOM      7  C   LIG d   1       2.968  -0.926 -11.554  0.00  0.00     0.021 A 
ATOM      8  C   LIG d   1       3.792   0.162 -11.862  0.00  0.00    -0.047 A 
ATOM      9  C   LIG d   1       4.111   1.067 -10.892  0.00  0.00    -0.019 A 
ATOM     10  C   LIG d   1       3.620   0.919  -9.593  0.00  0.00     0.130 A 
ATOM     11  C   LIG d   1       2.793  -0.145  -9.275  0.00  0.00     0.051 A 
ATOM     12  C   LIG d   1       2.251  -0.313  -7.879  0.00  0.00     0.034 C 
ATOM     13  N   LIG d   1       3.028   0.514  -6.945  0.00  0.00    -0.262 N 
ATOM     14  C   LIG d   1       3.153   1.885  -7.466  0.00  0.00     0.144 C 
ATOM     15  O   LIG d   1       3.960   1.838  -8.652  0.00  0.00    -0.476 OA
ATOM     16  H   LIG d   1       1.527  -3.697 -12.936  0.00  0.00     0.069 H 
ATOM     17  H   LIG d   1       4.176   0.286 -12.863  0.00  0.00     0.063 H 
ATOM     18  H   LIG d   1       4.748   1.905 -11.130  0.00  0.00     0.065 H 
ATOM     19  H   LIG d   1       1.206  -0.002  -7.856  0.00  0.00     0.048 H 
ATOM     20  H   LIG d   1       2.324  -1.360  -7.584  0.00  0.00     0.048 H 
ATOM     21  H   LIG d   1       2.164   2.282  -7.695  0.00  0.00     0.087 H 
ATOM     22  H   LIG d   1       3.641   2.516  -6.723  0.00  0.00     0.087 H 
ENDROOT
BRANCH  13  23
ATOM     23  C   LIG d   1       2.419   0.513  -5.608  0.00  0.00     0.027 C 
ATOM     24  H   LIG d   1       2.378   1.533  -5.227  0.00  0.00     0.048 H 
ATOM     25  H   LIG d   1       1.409   0.107  -5.669  0.00  0.00     0.048 H 
BRANCH  23  26
ATOM     26  C   LIG d   1       3.247  -0.337  -4.680  0.00  0.00    -0.032 A 
ATOM     27  C   LIG d   1       4.531  -0.702  -5.037  0.00  0.00    -0.039 A 
ATOM     28  C   LIG d   1       5.294  -1.476  -4.181  0.00  0.00     0.041 A 
ATOM     29  H   LIG d   1       4.941  -0.379  -5.983  0.00  0.00     0.064 H 
ATOM     30  C   LIG d   1       4.767  -1.895  -2.973  0.00  0.00    -0.043 A 
ATOM     31 CL   LIG d   1       6.909  -1.929  -4.627  0.00  0.00    -0.084 Cl
ATOM     32  C   LIG d   1       3.480  -1.534  -2.619  0.00  0.00    -0.060 A 
ATOM     33  H   LIG d   1       5.360  -2.503  -2.306  0.00  0.00     0.063 H 
ATOM     34  C   LIG d   1       2.721  -0.755  -3.471  0.00  0.00    -0.057 A 
ATOM     35  H   LIG d   1       3.069  -1.861  -1.675  0.00  0.00     0.062 H 
ATOM     36  H   LIG d   1       1.715  -0.473  -3.193  0.00  0.00     0.062 H 
ENDBRANCH  23  26
ENDBRANCH  13  23
BRANCH   1  37
ATOM     37  C   LIG d   1       3.116  -1.785 -13.987  0.00  0.00    -0.027 C 
ATOM     38  H   LIG d   1       3.550  -0.796 -14.130  0.00  0.00     0.031 H 
ATOM     39  H   LIG d   1       2.290  -1.924 -14.684  0.00  0.00     0.031 H 
BRANCH  37  40
ATOM     40  C   LIG d   1       4.183  -2.852 -14.243  0.00  0.00    -0.049 C 
ATOM     41  H   LIG d   1       4.051  -3.266 -15.243  0.00  0.00     0.027 H 
ATOM     42  H   LIG d   1       4.088  -3.647 -13.504  0.00  0.00     0.027 H 
BRANCH  40  43
ATOM     43  C   LIG d   1       5.573  -2.219 -14.133  0.00  0.00    -0.056 C 
ATOM     44  H   LIG d   1       5.478  -1.134 -14.136  0.00  0.00     0.026 H 
ATOM     45  H   LIG d   1       6.183  -2.533 -14.980  0.00  0.00     0.026 H 
BRANCH  43  46
ATOM     46  C   LIG d   1       6.237  -2.669 -12.830  0.00  0.00    -0.065 C 
ATOM     47  H   LIG d   1       5.669  -2.286 -11.982  0.00  0.00     0.023 H 
ATOM     48  H   LIG d   1       6.260  -3.758 -12.791  0.00  0.00     0.023 H 
ATOM     49  H   LIG d   1       7.255  -2.282 -12.790  0.00  0.00     0.023 H 
ENDBRANCH  43  46
ENDBRANCH  40  43
ENDBRANCH  37  40
ENDBRANCH   1  37
TORSDOF 6
ENDMDL
MODEL 8
REMARK VINA RESULT:      -5.6      6.402      8.743
REMARK  6 active torsions:
REMARK  status: ('A' for Active; 'I' for Inactive)
REMARK    1  A    between atoms: C_1  and  C_2 
REMARK    2  A    between atoms: C_2  and  C_3 
REMARK    3  A    between atoms: C_3  and  C_4 
REMARK    4  A    between atoms: C_4  and  C_5 
REMARK    5  A    between atoms: N_17  and  C_20 
REMARK    6  A    between atoms: C_20  and  C_21 
ROOT
ATOM      1  C   LIG d   1      13.060   2.897  -4.667  0.00  0.00    -0.030 A 
ATOM      2  C   LIG d   1      13.726   1.894  -4.038  0.00  0.00     0.027 A 
ATOM      3  C   LIG d   1      13.093   0.651  -3.835  0.00  0.00     0.338 A 
ATOM      4  O   LIG d   1      13.703  -0.240  -3.271  0.00  0.00    -0.245 OA
ATOM      5  O   LIG d   1      11.836   0.424  -4.248  0.00  0.00    -0.422 OA
ATOM      6  C   LIG d   1      11.120   1.378  -4.881  0.00  0.00     0.147 A 
ATOM      7  C   LIG d   1      11.688   2.644  -5.110  0.00  0.00     0.021 A 
ATOM      8  C   LIG d   1      10.945   3.636  -5.759  0.00  0.00    -0.047 A 
ATOM      9  C   LIG d   1       9.668   3.371  -6.162  0.00  0.00    -0.019 A 
ATOM     10  C   LIG d   1       9.096   2.118  -5.935  0.00  0.00     0.130 A 
ATOM     11  C   LIG d   1       9.823   1.122  -5.306  0.00  0.00     0.051 A 
ATOM     12  C   LIG d   1       9.220  -0.238  -5.061  0.00  0.00     0.034 C 
ATOM     13  N   LIG d   1       7.759  -0.163  -5.203  0.00  0.00    -0.262 N 
ATOM     14  C   LIG d   1       7.407   0.522  -6.458  0.00  0.00     0.144 C 
ATOM     15  O   LIG d   1       7.822   1.892  -6.348  0.00  0.00    -0.476 OA
ATOM     16  H   LIG d   1      14.739   2.048  -3.695  0.00  0.00     0.069 H 
ATOM     17  H   LIG d   1      11.378   4.607  -5.940  0.00  0.00     0.063 H 
ATOM     18  H   LIG d   1       9.095   4.138  -6.661  0.00  0.00     0.065 H 
ATOM     19  H   LIG d   1       9.619  -0.947  -5.786  0.00  0.00     0.048 H 
ATOM     20  H   LIG d   1       9.470  -0.570  -4.054  0.00  0.00     0.048 H 
ATOM     21  H   LIG d   1       7.910   0.037  -7.293  0.00  0.00     0.087 H 
ATOM     22  H   LIG d   1       6.327   0.484  -6.605  0.00  0.00     0.087 H 
ENDROOT
BRANCH  13  23
ATOM     23  C   LIG d   1       7.155  -1.500  -5.146  0.00  0.00     0.027 C 
ATOM     24  H   LIG d   1       6.761  -1.763  -6.127  0.00  0.00     0.048 H 
ATOM     25  H   LIG d   1       7.910  -2.229  -4.850  0.00  0.00     0.048 H 
BRANCH  23  26
ATOM     26  C   LIG d   1       6.034  -1.502  -4.139  0.00  0.00    -0.032 A 
ATOM     27  C   LIG d   1       5.829  -0.401  -3.330  0.00  0.00    -0.039 A 
ATOM     28  C   LIG d   1       4.796  -0.400  -2.410  0.00  0.00     0.041 A 
ATOM     29  H   LIG d   1       6.474   0.462  -3.418  0.00  0.00     0.064 H 
ATOM     30  C   LIG d   1       3.974  -1.507  -2.292  0.00  0.00    -0.043 A 
ATOM     31 CL   LIG d   1       4.534   0.986  -1.398  0.00  0.00    -0.084 Cl
ATOM     32  C   LIG d   1       4.184  -2.611  -3.098  0.00  0.00    -0.060 A 
ATOM     33  H   LIG d   1       3.170  -1.509  -1.572  0.00  0.00     0.063 H 
ATOM     34  C   LIG d   1       5.212  -2.608  -4.022  0.00  0.00    -0.057 A 
ATOM     35  H   LIG d   1       3.542  -3.475  -3.007  0.00  0.00     0.062 H 
ATOM     36  H   LIG d   1       5.375  -3.471  -4.651  0.00  0.00     0.062 H 
ENDBRANCH  23  26
ENDBRANCH  13  23
BRANCH   1  37
ATOM     37  C   LIG d   1      13.713   4.236  -4.896  0.00  0.00    -0.027 C 
ATOM     38  H   LIG d   1      13.110   4.821  -5.591  0.00  0.00     0.031 H 
ATOM     39  H   LIG d   1      14.709   4.089  -5.314  0.00  0.00     0.031 H 
BRANCH  37  40
ATOM     40  C   LIG d   1      13.823   4.983  -3.565  0.00  0.00    -0.049 C 
ATOM     41  H   LIG d   1      14.819   5.420  -3.476  0.00  0.00     0.027 H 
ATOM     42  H   LIG d   1      13.656   4.289  -2.743  0.00  0.00     0.027 H 
BRANCH  40  43
ATOM     43  C   LIG d   1      12.773   6.095  -3.516  0.00  0.00    -0.056 C 
ATOM     44  H   LIG d   1      12.399   6.286  -4.521  0.00  0.00     0.026 H 
ATOM     45  H   LIG d   1      13.224   7.004  -3.118  0.00  0.00     0.026 H 
BRANCH  43  46
ATOM     46  C   LIG d   1      11.614   5.663  -2.615  0.00  0.00    -0.065 C 
ATOM     47  H   LIG d   1      11.199   4.724  -2.983  0.00  0.00     0.023 H 
ATOM     48  H   LIG d   1      11.977   5.527  -1.597  0.00  0.00     0.023 H 
ATOM     49  H   LIG d   1      10.841   6.431  -2.626  0.00  0.00     0.023 H 
ENDBRANCH  43  46
ENDBRANCH  40  43
ENDBRANCH  37  40
ENDBRANCH   1  37
TORSDOF 6
ENDMDL
MODEL 9
REMARK VINA RESULT:      -5.5      4.366      6.113
REMARK  6 active torsions:
REMARK  status: ('A' for Active; 'I' for Inactive)
REMARK    1  A    between atoms: C_1  and  C_2 
REMARK    2  A    between atoms: C_2  and  C_3 
REMARK    3  A    between atoms: C_3  and  C_4 
REMARK    4  A    between atoms: C_4  and  C_5 
REMARK    5  A    between atoms: N_17  and  C_20 
REMARK    6  A    between atoms: C_20  and  C_21 
ROOT
ATOM      1  C   LIG d   1       4.852  -6.936  -6.701  0.00  0.00    -0.030 A 
ATOM      2  C   LIG d   1       4.873  -5.987  -5.728  0.00  0.00     0.027 A 
ATOM      3  C   LIG d   1       4.291  -4.726  -5.968  0.00  0.00     0.338 A 
ATOM      4  O   LIG d   1       4.316  -3.885  -5.087  0.00  0.00    -0.245 OA
ATOM      5  O   LIG d   1       3.710  -4.428  -7.141  0.00  0.00    -0.422 OA
ATOM      6  C   LIG d   1       3.654  -5.327  -8.147  0.00  0.00     0.147 A 
ATOM      7  C   LIG d   1       4.222  -6.603  -7.978  0.00  0.00     0.021 A 
ATOM      8  C   LIG d   1       4.172  -7.533  -9.022  0.00  0.00    -0.047 A 
ATOM      9  C   LIG d   1       3.576  -7.196 -10.203  0.00  0.00    -0.019 A 
ATOM     10  C   LIG d   1       3.014  -5.930 -10.379  0.00  0.00     0.130 A 
ATOM     11  C   LIG d   1       3.044  -5.003  -9.351  0.00  0.00     0.051 A 
ATOM     12  C   LIG d   1       2.434  -3.635  -9.525  0.00  0.00     0.034 C 
ATOM     13  N   LIG d   1       2.227  -3.366 -10.955  0.00  0.00    -0.262 N 
ATOM     14  C   LIG d   1       1.541  -4.503 -11.590  0.00  0.00     0.144 C 
ATOM     15  O   LIG d   1       2.432  -5.628 -11.568  0.00  0.00    -0.476 OA
ATOM     16  H   LIG d   1       5.334  -6.198  -4.774  0.00  0.00     0.069 H 
ATOM     17  H   LIG d   1       4.603  -8.514  -8.896  0.00  0.00     0.063 H 
ATOM     18  H   LIG d   1       3.539  -7.913 -11.008  0.00  0.00     0.065 H 
ATOM     19  H   LIG d   1       1.476  -3.597  -9.006  0.00  0.00     0.048 H 
ATOM     20  H   LIG d   1       3.103  -2.883  -9.107  0.00  0.00     0.048 H 
ATOM     21  H   LIG d   1       0.626  -4.730 -11.044  0.00  0.00     0.087 H 
ATOM     22  H   LIG d   1       1.300  -4.254 -12.624  0.00  0.00     0.087 H 
ENDROOT
BRANCH  13  23
ATOM     23  C   LIG d   1       1.474  -2.119 -11.153  0.00  0.00     0.027 C 
ATOM     24  H   LIG d   1       1.055  -2.104 -12.159  0.00  0.00     0.048 H 
ATOM     25  H   LIG d   1       0.667  -2.062 -10.422  0.00  0.00     0.048 H 
BRANCH  23  26
ATOM     26  C   LIG d   1       2.397  -0.942 -10.975  0.00  0.00    -0.032 A 
ATOM     27  C   LIG d   1       2.209  -0.068  -9.922  0.00  0.00    -0.039 A 
ATOM     28  C   LIG d   1       3.061   1.009  -9.756  0.00  0.00     0.041 A 
ATOM     29  H   LIG d   1       1.398  -0.228  -9.226  0.00  0.00     0.064 H 
ATOM     30  C   LIG d   1       4.095   1.218 -10.651  0.00  0.00    -0.043 A 
ATOM     31 CL   LIG d   1       2.829   2.104  -8.429  0.00  0.00    -0.084 Cl
ATOM     32  C   LIG d   1       4.279   0.345 -11.708  0.00  0.00    -0.060 A 
ATOM     33  H   LIG d   1       4.758   2.060 -10.524  0.00  0.00     0.063 H 
ATOM     34  C   LIG d   1       3.431  -0.735 -11.870  0.00  0.00    -0.057 A 
ATOM     35  H   LIG d   1       5.087   0.507 -12.407  0.00  0.00     0.062 H 
ATOM     36  H   LIG d   1       3.576  -1.416 -12.696  0.00  0.00     0.062 H 
ENDBRANCH  23  26
ENDBRANCH  13  23
BRANCH   1  37
ATOM     37  C   LIG d   1       5.468  -8.293  -6.471  0.00  0.00    -0.027 C 
ATOM     38  H   LIG d   1       6.521  -8.267  -6.755  0.00  0.00     0.031 H 
ATOM     39  H   LIG d   1       4.947  -9.036  -7.075  0.00  0.00     0.031 H 
BRANCH  37  40
ATOM     40  C   LIG d   1       5.348  -8.663  -4.991  0.00  0.00    -0.049 C 
ATOM     41  H   LIG d   1       4.881  -7.841  -4.448  0.00  0.00     0.027 H 
ATOM     42  H   LIG d   1       6.340  -8.851  -4.582  0.00  0.00     0.027 H 
BRANCH  40  43
ATOM     43  C   LIG d   1       4.490  -9.922  -4.849  0.00  0.00    -0.056 C 
ATOM     44  H   LIG d   1       5.117 -10.804  -4.977  0.00  0.00     0.026 H 
ATOM     45  H   LIG d   1       3.709  -9.918  -5.610  0.00  0.00     0.026 H 
BRANCH  43  46
ATOM     46  C   LIG d   1       3.850  -9.949  -3.460  0.00  0.00    -0.065 C 
ATOM     47  H   LIG d   1       2.787 -10.175  -3.554  0.00  0.00     0.023 H 
ATOM     48  H   LIG d   1       4.332 -10.714  -2.852  0.00  0.00     0.023 H 
ATOM     49  H   LIG d   1       3.973  -8.976  -2.985  0.00  0.00     0.023 H 
ENDBRANCH  43  46
ENDBRANCH  40  43
ENDBRANCH  37  40
ENDBRANCH   1  37
TORSDOF 6
ENDMDL
