MODEL 1
REMARK VINA RESULT:      -7.7      0.000      0.000
REMARK  9 active torsions:
REMARK  status: ('A' for Active; 'I' for Inactive)
REMARK    1  A    between atoms: C_4  and  C_7 
REMARK    2  A    between atoms: C_7  and  C_8 
REMARK    3  A    between atoms: C_8  and  C_10 
REMARK    4  A    between atoms: C_8  and  N_29 
REMARK       I    between atoms: C_10  and  N_12 
REMARK    5  A    between atoms: C_15  and  C_18 
REMARK       I    between atoms: C_18  and  N_20 
REMARK    6  A    between atoms: N_20  and  C_21 
REMARK    7  A    between atoms: C_21  and  C_22 
REMARK       I    between atoms: C_22  and  N_24 
REMARK    8  A    between atoms: N_24  and  C_25 
REMARK    9  A    between atoms: C_25  and  C_26 
ROOT
ATOM      1  C   LIG d   1       3.208   0.452  -7.711  0.00  0.00     0.233 C 
ATOM      2  O   LIG d   1       2.925   1.630  -7.737  0.00  0.00    -0.274 OA
ATOM      3  N   LIG d   1       3.173  -0.274  -8.846  0.00  0.00    -0.300 N 
ATOM      4  C   LIG d   1       3.508  -1.704  -8.831  0.00  0.00     0.015 C 
ATOM      5  C   LIG d   1       2.358  -2.488  -9.472  0.00  0.00    -0.026 C 
ATOM      6  C   LIG d   1       2.075  -1.923 -10.866  0.00  0.00     0.038 C 
ATOM      7  C   LIG d   1       1.655  -0.456 -10.749  0.00  0.00    -0.026 C 
ATOM      8  C   LIG d   1       2.792   0.349 -10.121  0.00  0.00     0.015 C 
ATOM      9  H   LIG d   1       4.424  -1.871  -9.399  0.00  0.00     0.046 H 
ATOM     10  H   LIG d   1       3.648  -2.036  -7.802  0.00  0.00     0.046 H 
ATOM     11  H   LIG d   1       2.635  -3.538  -9.554  0.00  0.00     0.029 H 
ATOM     12  H   LIG d   1       1.465  -2.394  -8.853  0.00  0.00     0.029 H 
ATOM     13  H   LIG d   1       2.976  -1.995 -11.476  0.00  0.00     0.040 H 
ATOM     14  H   LIG d   1       1.432  -0.061 -11.739  0.00  0.00     0.029 H 
ATOM     15  H   LIG d   1       0.769  -0.382 -10.118  0.00  0.00     0.029 H 
ATOM     16  H   LIG d   1       2.459   1.371  -9.944  0.00  0.00     0.046 H 
ATOM     17  H   LIG d   1       3.648   0.354 -10.796  0.00  0.00     0.046 H 
ENDROOT
BRANCH   1  18
ATOM     18  C   LIG d   1       3.602  -0.201  -6.411  0.00  0.00     0.086 C 
ATOM     19  H   LIG d   1       3.443  -1.277  -6.482  0.00  0.00     0.056 H 
BRANCH  18  20
ATOM     20  C   LIG d   1       2.748   0.368  -5.276  0.00  0.00    -0.004 C 
ATOM     21  H   LIG d   1       1.736  -0.030  -5.348  0.00  0.00     0.033 H 
ATOM     22  H   LIG d   1       2.719   1.454  -5.353  0.00  0.00     0.033 H 
BRANCH  20  23
ATOM     23  C   LIG d   1       3.349  -0.025  -3.951  0.00  0.00    -0.045 A 
ATOM     24  C   LIG d   1       3.834   0.947  -3.096  0.00  0.00    -0.059 A 
ATOM     25  C   LIG d   1       4.384   0.587  -1.880  0.00  0.00    -0.061 A 
ATOM     26  H   LIG d   1       3.783   1.988  -3.379  0.00  0.00     0.062 H 
ATOM     27  C   LIG d   1       4.449  -0.746  -1.519  0.00  0.00    -0.062 A 
ATOM     28  H   LIG d   1       4.763   1.346  -1.213  0.00  0.00     0.062 H 
ATOM     29  C   LIG d   1       3.963  -1.718  -2.373  0.00  0.00    -0.061 A 
ATOM     30  H   LIG d   1       4.882  -1.028  -0.571  0.00  0.00     0.062 H 
ATOM     31  C   LIG d   1       3.414  -1.358  -3.589  0.00  0.00    -0.059 A 
ATOM     32  H   LIG d   1       4.013  -2.759  -2.091  0.00  0.00     0.062 H 
ATOM     33  H   LIG d   1       3.034  -2.118  -4.257  0.00  0.00     0.062 H 
ENDBRANCH  20  23
ENDBRANCH  18  20
BRANCH  18  34
ATOM     34  N   LIG d   1       5.020   0.067  -6.139  0.00  0.00    -0.320 N 
ATOM     35  H   LIG d   1       5.567   0.016  -6.984  0.00  0.00     0.119 HD
ATOM     36  H   LIG d   1       5.139   0.960  -5.684  0.00  0.00     0.119 HD
ENDBRANCH  18  34
ENDBRANCH   1  18
BRANCH   6  37
ATOM     37  C   LIG d   1       0.968  -2.713 -11.512  0.00  0.00     0.217 C 
ATOM     38  O   LIG d   1       0.412  -2.282 -12.500  0.00  0.00    -0.276 OA
ATOM     39  N   LIG d   1       0.593  -3.899 -10.991  0.00  0.00    -0.306 N 
ATOM     40  H   LIG d   1       1.038  -4.243 -10.201  0.00  0.00     0.149 HD
BRANCH  39  41
ATOM     41  C   LIG d   1      -0.485  -4.667 -11.619  0.00  0.00     0.088 C 
ATOM     42  H   LIG d   1      -0.938  -4.075 -12.413  0.00  0.00     0.056 H 
ATOM     43  H   LIG d   1      -0.078  -5.587 -12.039  0.00  0.00     0.056 H 
BRANCH  41  44
ATOM     44  C   LIG d   1      -1.529  -5.005 -10.587  0.00  0.00     0.231 C 
ATOM     45  O   LIG d   1      -1.233  -5.681  -9.624  0.00  0.00    -0.274 OA
ATOM     46  N   LIG d   1      -2.790  -4.556 -10.732  0.00  0.00    -0.309 N 
ATOM     47  H   LIG d   1      -3.027  -4.015 -11.502  0.00  0.00     0.149 HD
BRANCH  46  48
ATOM     48  C   LIG d   1      -3.807  -4.885  -9.728  0.00  0.00     0.051 C 
ATOM     49  H   LIG d   1      -4.264  -5.843  -9.975  0.00  0.00     0.052 H 
ATOM     50  H   LIG d   1      -3.338  -4.948  -8.746  0.00  0.00     0.052 H 
BRANCH  48  51
ATOM     51  C   LIG d   1      -4.864  -3.811  -9.712  0.00  0.00     0.059 C 
ATOM     52  O   LIG d   1      -5.352  -3.452  -8.655  0.00  0.00    -0.548 OA
ATOM     53  O   LIG d   1      -5.229  -3.301 -10.758  0.00  0.00    -0.548 OA
ENDBRANCH  48  51
ENDBRANCH  46  48
ENDBRANCH  41  44
ENDBRANCH  39  41
ENDBRANCH   6  37
TORSDOF 9
ENDMDL
MODEL 2
REMARK VINA RESULT:      -7.3      1.352      1.839
REMARK  9 active torsions:
REMARK  status: ('A' for Active; 'I' for Inactive)
REMARK    1  A    between atoms: C_4  and  C_7 
REMARK    2  A    between atoms: C_7  and  C_8 
REMARK    3  A    between atoms: C_8  and  C_10 
REMARK    4  A    between atoms: C_8  and  N_29 
REMARK       I    between atoms: C_10  and  N_12 
REMARK    5  A    between atoms: C_15  and  C_18 
REMARK       I    between atoms: C_18  and  N_20 
REMARK    6  A    between atoms: N_20  and  C_21 
REMARK    7  A    between atoms: C_21  and  C_22 
REMARK       I    between atoms: C_22  and  N_24 
REMARK    8  A    between atoms: N_24  and  C_25 
REMARK    9  A    between atoms: C_25  and  C_26 
ROOT
ATOM      1  C   LIG d   1       3.345   0.474  -7.708  0.00  0.00     0.233 C 
ATOM      2  O   LIG d   1       2.965   1.624  -7.689  0.00  0.00    -0.274 OA
ATOM      3  N   LIG d   1       3.474  -0.175  -8.883  0.00  0.00    -0.300 N 
ATOM      4  C   LIG d   1       3.929  -1.571  -8.922  0.00  0.00     0.015 C 
ATOM      5  C   LIG d   1       2.912  -2.399  -9.715  0.00  0.00    -0.026 C 
ATOM      6  C   LIG d   1       2.708  -1.765 -11.094  0.00  0.00     0.038 C 
ATOM      7  C   LIG d   1       2.154  -0.348 -10.929  0.00  0.00    -0.026 C 
ATOM      8  C   LIG d   1       3.156   0.501 -10.148  0.00  0.00     0.015 C 
ATOM      9  H   LIG d   1       4.902  -1.624  -9.410  0.00  0.00     0.046 H 
ATOM     10  H   LIG d   1       4.004  -1.959  -7.907  0.00  0.00     0.046 H 
ATOM     11  H   LIG d   1       3.285  -3.415  -9.834  0.00  0.00     0.029 H 
ATOM     12  H   LIG d   1       1.963  -2.419  -9.180  0.00  0.00     0.029 H 
ATOM     13  H   LIG d   1       3.662  -1.723 -11.619  0.00  0.00     0.040 H 
ATOM     14  H   LIG d   1       1.987   0.094 -11.910  0.00  0.00     0.029 H 
ATOM     15  H   LIG d   1       1.211  -0.388 -10.381  0.00  0.00     0.029 H 
ATOM     16  H   LIG d   1       2.722   1.479  -9.943  0.00  0.00     0.046 H 
ATOM     17  H   LIG d   1       4.065   0.621 -10.738  0.00  0.00     0.046 H 
ENDROOT
BRANCH   1  18
ATOM     18  C   LIG d   1       3.676  -0.233  -6.418  0.00  0.00     0.086 C 
ATOM     19  H   LIG d   1       3.515  -1.304  -6.539  0.00  0.00     0.056 H 
BRANCH  18  20
ATOM     20  C   LIG d   1       2.773   0.297  -5.301  0.00  0.00    -0.004 C 
ATOM     21  H   LIG d   1       1.782  -0.148  -5.394  0.00  0.00     0.033 H 
ATOM     22  H   LIG d   1       2.695   1.380  -5.382  0.00  0.00     0.033 H 
BRANCH  20  23
ATOM     23  C   LIG d   1       3.365  -0.067  -3.964  0.00  0.00    -0.045 A 
ATOM     24  C   LIG d   1       3.446  -1.392  -3.580  0.00  0.00    -0.059 A 
ATOM     25  C   LIG d   1       3.990  -1.725  -2.354  0.00  0.00    -0.061 A 
ATOM     26  H   LIG d   1       3.084  -2.167  -4.239  0.00  0.00     0.062 H 
ATOM     27  C   LIG d   1       4.454  -0.732  -1.511  0.00  0.00    -0.062 A 
ATOM     28  H   LIG d   1       4.052  -2.760  -2.054  0.00  0.00     0.062 H 
ATOM     29  C   LIG d   1       4.375   0.594  -1.895  0.00  0.00    -0.061 A 
ATOM     30  H   LIG d   1       4.875  -0.992  -0.552  0.00  0.00     0.062 H 
ATOM     31  C   LIG d   1       3.829   0.927  -3.121  0.00  0.00    -0.059 A 
ATOM     32  H   LIG d   1       4.737   1.369  -1.237  0.00  0.00     0.062 H 
ATOM     33  H   LIG d   1       3.767   1.962  -3.421  0.00  0.00     0.062 H 
ENDBRANCH  20  23
ENDBRANCH  18  20
BRANCH  18  34
ATOM     34  N   LIG d   1       5.082   0.016  -6.071  0.00  0.00    -0.320 N 
ATOM     35  H   LIG d   1       5.581   0.417  -6.850  0.00  0.00     0.119 HD
ATOM     36  H   LIG d   1       5.154   0.602  -5.254  0.00  0.00     0.119 HD
ENDBRANCH  18  34
ENDBRANCH   1  18
BRANCH   6  37
ATOM     37  C   LIG d   1       1.735  -2.595 -11.888  0.00  0.00     0.217 C 
ATOM     38  O   LIG d   1       2.097  -3.150 -12.904  0.00  0.00    -0.276 OA
ATOM     39  N   LIG d   1       0.459  -2.723 -11.470  0.00  0.00    -0.306 N 
ATOM     40  H   LIG d   1       0.169  -2.279 -10.657  0.00  0.00     0.149 HD
BRANCH  39  41
ATOM     41  C   LIG d   1      -0.488  -3.531 -12.242  0.00  0.00     0.088 C 
ATOM     42  H   LIG d   1      -1.426  -2.986 -12.350  0.00  0.00     0.056 H 
ATOM     43  H   LIG d   1      -0.072  -3.735 -13.228  0.00  0.00     0.056 H 
BRANCH  41  44
ATOM     44  C   LIG d   1      -0.742  -4.830 -11.524  0.00  0.00     0.231 C 
ATOM     45  O   LIG d   1       0.190  -5.479 -11.096  0.00  0.00    -0.274 OA
ATOM     46  N   LIG d   1      -2.004  -5.273 -11.356  0.00  0.00    -0.309 N 
ATOM     47  H   LIG d   1      -2.749  -4.754 -11.698  0.00  0.00     0.149 HD
BRANCH  46  48
ATOM     48  C   LIG d   1      -2.251  -6.538 -10.658  0.00  0.00     0.051 C 
ATOM     49  H   LIG d   1      -3.145  -7.009 -11.067  0.00  0.00     0.052 H 
ATOM     50  H   LIG d   1      -1.396  -7.200 -10.793  0.00  0.00     0.052 H 
BRANCH  48  51
ATOM     51  C   LIG d   1      -2.450  -6.269  -9.188  0.00  0.00     0.059 C 
ATOM     52  O   LIG d   1      -1.586  -6.586  -8.389  0.00  0.00    -0.548 OA
ATOM     53  O   LIG d   1      -3.476  -5.735  -8.800  0.00  0.00    -0.548 OA
ENDBRANCH  48  51
ENDBRANCH  46  48
ENDBRANCH  41  44
ENDBRANCH  39  41
ENDBRANCH   6  37
TORSDOF 9
ENDMDL
MODEL 3
REMARK VINA RESULT:      -7.2      6.896     11.058
REMARK  9 active torsions:
REMARK  status: ('A' for Active; 'I' for Inactive)
REMARK    1  A    between atoms: C_4  and  C_7 
REMARK    2  A    between atoms: C_7  and  C_8 
REMARK    3  A    between atoms: C_8  and  C_10 
REMARK    4  A    between atoms: C_8  and  N_29 
REMARK       I    between atoms: C_10  and  N_12 
REMARK    5  A    between atoms: C_15  and  C_18 
REMARK       I    between atoms: C_18  and  N_20 
REMARK    6  A    between atoms: N_20  and  C_21 
REMARK    7  A    between atoms: C_21  and  C_22 
REMARK       I    between atoms: C_22  and  N_24 
REMARK    8  A    between atoms: N_24  and  C_25 
REMARK    9  A    between atoms: C_25  and  C_26 
ROOT
ATOM      1  C   LIG d   1       6.207  -2.793  -4.945  0.00  0.00     0.233 C 
ATOM      2  O   LIG d   1       6.871  -3.560  -4.281  0.00  0.00    -0.274 OA
ATOM      3  N   LIG d   1       6.814  -1.912  -5.765  0.00  0.00    -0.300 N 
ATOM      4  C   LIG d   1       6.024  -0.973  -6.572  0.00  0.00     0.015 C 
ATOM      5  C   LIG d   1       6.524   0.450  -6.304  0.00  0.00    -0.026 C 
ATOM      6  C   LIG d   1       8.032   0.515  -6.560  0.00  0.00     0.038 C 
ATOM      7  C   LIG d   1       8.754  -0.440  -5.607  0.00  0.00    -0.026 C 
ATOM      8  C   LIG d   1       8.279  -1.869  -5.863  0.00  0.00     0.015 C 
ATOM      9  H   LIG d   1       6.146  -1.209  -7.629  0.00  0.00     0.046 H 
ATOM     10  H   LIG d   1       4.973  -1.049  -6.297  0.00  0.00     0.046 H 
ATOM     11  H   LIG d   1       6.012   1.146  -6.967  0.00  0.00     0.029 H 
ATOM     12  H   LIG d   1       6.320   0.718  -5.267  0.00  0.00     0.029 H 
ATOM     13  H   LIG d   1       8.237   0.223  -7.590  0.00  0.00     0.040 H 
ATOM     14  H   LIG d   1       9.829  -0.377  -5.774  0.00  0.00     0.029 H 
ATOM     15  H   LIG d   1       8.528  -0.164  -4.576  0.00  0.00     0.029 H 
ATOM     16  H   LIG d   1       8.716  -2.536  -5.120  0.00  0.00     0.046 H 
ATOM     17  H   LIG d   1       8.589  -2.180  -6.861  0.00  0.00     0.046 H 
ENDROOT
BRANCH   1  18
ATOM     18  C   LIG d   1       4.702  -2.826  -4.856  0.00  0.00     0.086 C 
ATOM     19  H   LIG d   1       4.286  -2.011  -5.447  0.00  0.00     0.056 H 
BRANCH  18  20
ATOM     20  C   LIG d   1       4.275  -2.668  -3.395  0.00  0.00    -0.004 C 
ATOM     21  H   LIG d   1       5.047  -3.079  -2.744  0.00  0.00     0.033 H 
ATOM     22  H   LIG d   1       3.339  -3.201  -3.231  0.00  0.00     0.033 H 
BRANCH  20  23
ATOM     23  C   LIG d   1       4.081  -1.206  -3.085  0.00  0.00    -0.045 A 
ATOM     24  C   LIG d   1       4.659  -0.656  -1.956  0.00  0.00    -0.059 A 
ATOM     25  C   LIG d   1       4.483   0.685  -1.672  0.00  0.00    -0.061 A 
ATOM     26  H   LIG d   1       5.249  -1.275  -1.296  0.00  0.00     0.062 H 
ATOM     27  C   LIG d   1       3.728   1.477  -2.518  0.00  0.00    -0.062 A 
ATOM     28  H   LIG d   1       4.933   1.114  -0.790  0.00  0.00     0.062 H 
ATOM     29  C   LIG d   1       3.151   0.928  -3.647  0.00  0.00    -0.061 A 
ATOM     30  H   LIG d   1       3.587   2.524  -2.294  0.00  0.00     0.062 H 
ATOM     31  C   LIG d   1       3.326  -0.414  -3.931  0.00  0.00    -0.059 A 
ATOM     32  H   LIG d   1       2.562   1.546  -4.308  0.00  0.00     0.062 H 
ATOM     33  H   LIG d   1       2.875  -0.843  -4.813  0.00  0.00     0.062 H 
ENDBRANCH  20  23
ENDBRANCH  18  20
BRANCH  18  34
ATOM     34  N   LIG d   1       4.209  -4.109  -5.375  0.00  0.00    -0.320 N 
ATOM     35  H   LIG d   1       4.965  -4.765  -5.493  0.00  0.00     0.119 HD
ATOM     36  H   LIG d   1       3.491  -4.488  -4.777  0.00  0.00     0.119 HD
ENDBRANCH  18  34
ENDBRANCH   1  18
BRANCH   6  37
ATOM     37  C   LIG d   1       8.520   1.920  -6.329  0.00  0.00     0.217 C 
ATOM     38  O   LIG d   1       8.869   2.603  -7.269  0.00  0.00    -0.276 OA
ATOM     39  N   LIG d   1       8.570   2.420  -5.078  0.00  0.00    -0.306 N 
ATOM     40  H   LIG d   1       8.290   1.873  -4.326  0.00  0.00     0.149 HD
BRANCH  39  41
ATOM     41  C   LIG d   1       9.044   3.787  -4.853  0.00  0.00     0.088 C 
ATOM     42  H   LIG d   1       9.759   4.056  -5.630  0.00  0.00     0.056 H 
ATOM     43  H   LIG d   1       8.199   4.475  -4.883  0.00  0.00     0.056 H 
BRANCH  41  44
ATOM     44  C   LIG d   1       9.713   3.872  -3.505  0.00  0.00     0.231 C 
ATOM     45  O   LIG d   1       9.728   2.904  -2.774  0.00  0.00    -0.274 OA
ATOM     46  N   LIG d   1      10.293   5.022  -3.112  0.00  0.00    -0.309 N 
ATOM     47  H   LIG d   1      10.281   5.796  -3.696  0.00  0.00     0.149 HD
BRANCH  46  48
ATOM     48  C   LIG d   1      10.943   5.105  -1.800  0.00  0.00     0.051 C 
ATOM     49  H   LIG d   1      10.897   4.131  -1.311  0.00  0.00     0.052 H 
ATOM     50  H   LIG d   1      11.985   5.398  -1.930  0.00  0.00     0.052 H 
BRANCH  48  51
ATOM     51  C   LIG d   1      10.235   6.129  -0.952  0.00  0.00     0.059 C 
ATOM     52  O   LIG d   1       9.514   6.961  -1.476  0.00  0.00    -0.548 OA
ATOM     53  O   LIG d   1      10.382   6.124   0.259  0.00  0.00    -0.548 OA
ENDBRANCH  48  51
ENDBRANCH  46  48
ENDBRANCH  41  44
ENDBRANCH  39  41
ENDBRANCH   6  37
TORSDOF 9
ENDMDL
MODEL 4
REMARK VINA RESULT:      -7.2      6.839     11.391
REMARK  9 active torsions:
REMARK  status: ('A' for Active; 'I' for Inactive)
REMARK    1  A    between atoms: C_4  and  C_7 
REMARK    2  A    between atoms: C_7  and  C_8 
REMARK    3  A    between atoms: C_8  and  C_10 
REMARK    4  A    between atoms: C_8  and  N_29 
REMARK       I    between atoms: C_10  and  N_12 
REMARK    5  A    between atoms: C_15  and  C_18 
REMARK       I    between atoms: C_18  and  N_20 
REMARK    6  A    between atoms: N_20  and  C_21 
REMARK    7  A    between atoms: C_21  and  C_22 
REMARK       I    between atoms: C_22  and  N_24 
REMARK    8  A    between atoms: N_24  and  C_25 
REMARK    9  A    between atoms: C_25  and  C_26 
ROOT
ATOM      1  C   LIG d   1       6.173  -2.961  -5.209  0.00  0.00     0.233 C 
ATOM      2  O   LIG d   1       6.745  -4.020  -5.066  0.00  0.00    -0.274 OA
ATOM      3  N   LIG d   1       6.878  -1.844  -5.476  0.00  0.00    -0.300 N 
ATOM      4  C   LIG d   1       6.198  -0.552  -5.646  0.00  0.00     0.015 C 
ATOM      5  C   LIG d   1       6.836   0.469  -4.698  0.00  0.00    -0.026 C 
ATOM      6  C   LIG d   1       8.346   0.516  -4.944  0.00  0.00     0.038 C 
ATOM      7  C   LIG d   1       8.954  -0.859  -4.655  0.00  0.00    -0.026 C 
ATOM      8  C   LIG d   1       8.341  -1.894  -5.596  0.00  0.00     0.015 C 
ATOM      9  H   LIG d   1       6.311  -0.213  -6.676  0.00  0.00     0.046 H 
ATOM     10  H   LIG d   1       5.141  -0.661  -5.408  0.00  0.00     0.046 H 
ATOM     11  H   LIG d   1       6.407   1.453  -4.883  0.00  0.00     0.029 H 
ATOM     12  H   LIG d   1       6.644   0.176  -3.666  0.00  0.00     0.029 H 
ATOM     13  H   LIG d   1       8.536   0.785  -5.983  0.00  0.00     0.040 H 
ATOM     14  H   LIG d   1      10.032  -0.819  -4.808  0.00  0.00     0.029 H 
ATOM     15  H   LIG d   1       8.743  -1.139  -3.622  0.00  0.00     0.029 H 
ATOM     16  H   LIG d   1       8.697  -2.888  -5.326  0.00  0.00     0.046 H 
ATOM     17  H   LIG d   1       8.632  -1.667  -6.622  0.00  0.00     0.046 H 
ENDROOT
BRANCH   1  18
ATOM     18  C   LIG d   1       4.671  -2.893  -5.089  0.00  0.00     0.086 C 
ATOM     19  H   LIG d   1       4.310  -1.980  -5.560  0.00  0.00     0.056 H 
BRANCH  18  20
ATOM     20  C   LIG d   1       4.278  -2.896  -3.610  0.00  0.00    -0.004 C 
ATOM     21  H   LIG d   1       5.074  -3.354  -3.023  0.00  0.00     0.033 H 
ATOM     22  H   LIG d   1       3.357  -3.464  -3.481  0.00  0.00     0.033 H 
BRANCH  20  23
ATOM     23  C   LIG d   1       4.063  -1.478  -3.146  0.00  0.00    -0.045 A 
ATOM     24  C   LIG d   1       4.753  -0.998  -2.049  0.00  0.00    -0.059 A 
ATOM     25  C   LIG d   1       4.557   0.303  -1.624  0.00  0.00    -0.061 A 
ATOM     26  H   LIG d   1       5.445  -1.639  -1.524  0.00  0.00     0.062 H 
ATOM     27  C   LIG d   1       3.671   1.124  -2.297  0.00  0.00    -0.062 A 
ATOM     28  H   LIG d   1       5.095   0.678  -0.767  0.00  0.00     0.062 H 
ATOM     29  C   LIG d   1       2.982   0.643  -3.395  0.00  0.00    -0.061 A 
ATOM     30  H   LIG d   1       3.514   2.138  -1.963  0.00  0.00     0.062 H 
ATOM     31  C   LIG d   1       3.177  -0.657  -3.819  0.00  0.00    -0.059 A 
ATOM     32  H   LIG d   1       2.290   1.285  -3.921  0.00  0.00     0.062 H 
ATOM     33  H   LIG d   1       2.638  -1.033  -4.677  0.00  0.00     0.062 H 
ENDBRANCH  20  23
ENDBRANCH  18  20
BRANCH  18  34
ATOM     34  N   LIG d   1       4.075  -4.058  -5.757  0.00  0.00    -0.320 N 
ATOM     35  H   LIG d   1       4.785  -4.644  -6.166  0.00  0.00     0.119 HD
ATOM     36  H   LIG d   1       3.497  -4.583  -5.118  0.00  0.00     0.119 HD
ENDBRANCH  18  34
ENDBRANCH   1  18
BRANCH   6  37
ATOM     37  C   LIG d   1       8.970   1.543  -4.037  0.00  0.00     0.217 C 
ATOM     38  O   LIG d   1       8.267   2.293  -3.395  0.00  0.00    -0.276 OA
ATOM     39  N   LIG d   1      10.313   1.629  -3.939  0.00  0.00    -0.306 N 
ATOM     40  H   LIG d   1      10.875   1.027  -4.453  0.00  0.00     0.149 HD
BRANCH  39  41
ATOM     41  C   LIG d   1      10.921   2.627  -3.057  0.00  0.00     0.088 C 
ATOM     42  H   LIG d   1      10.494   2.537  -2.058  0.00  0.00     0.056 H 
ATOM     43  H   LIG d   1      11.997   2.462  -3.009  0.00  0.00     0.056 H 
BRANCH  41  44
ATOM     44  C   LIG d   1      10.647   4.007  -3.596  0.00  0.00     0.231 C 
ATOM     45  O   LIG d   1      11.123   4.349  -4.659  0.00  0.00    -0.274 OA
ATOM     46  N   LIG d   1       9.874   4.862  -2.899  0.00  0.00    -0.309 N 
ATOM     47  H   LIG d   1       9.493   4.590  -2.049  0.00  0.00     0.149 HD
BRANCH  46  48
ATOM     48  C   LIG d   1       9.608   6.205  -3.423  0.00  0.00     0.051 C 
ATOM     49  H   LIG d   1      10.322   6.433  -4.215  0.00  0.00     0.052 H 
ATOM     50  H   LIG d   1       8.596   6.244  -3.825  0.00  0.00     0.052 H 
BRANCH  48  51
ATOM     51  C   LIG d   1       9.747   7.215  -2.313  0.00  0.00     0.059 C 
ATOM     52  O   LIG d   1      10.583   8.099  -2.395  0.00  0.00    -0.548 OA
ATOM     53  O   LIG d   1       9.023   7.147  -1.334  0.00  0.00    -0.548 OA
ENDBRANCH  48  51
ENDBRANCH  46  48
ENDBRANCH  41  44
ENDBRANCH  39  41
ENDBRANCH   6  37
TORSDOF 9
ENDMDL
MODEL 5
REMARK VINA RESULT:      -7.1      2.395      3.738
REMARK  9 active torsions:
REMARK  status: ('A' for Active; 'I' for Inactive)
REMARK    1  A    between atoms: C_4  and  C_7 
REMARK    2  A    between atoms: C_7  and  C_8 
REMARK    3  A    between atoms: C_8  and  C_10 
REMARK    4  A    between atoms: C_8  and  N_29 
REMARK       I    between atoms: C_10  and  N_12 
REMARK    5  A    between atoms: C_15  and  C_18 
REMARK       I    between atoms: C_18  and  N_20 
REMARK    6  A    between atoms: N_20  and  C_21 
REMARK    7  A    between atoms: C_21  and  C_22 
REMARK       I    between atoms: C_22  and  N_24 
REMARK    8  A    between atoms: N_24  and  C_25 
REMARK    9  A    between atoms: C_25  and  C_26 
ROOT
ATOM      1  C   LIG d   1       7.338   0.580  -5.920  0.00  0.00     0.233 C 
ATOM      2  O   LIG d   1       7.638   1.751  -6.002  0.00  0.00    -0.274 OA
ATOM      3  N   LIG d   1       6.715  -0.030  -6.948  0.00  0.00    -0.300 N 
ATOM      4  C   LIG d   1       6.341  -1.448  -6.862  0.00  0.00     0.015 C 
ATOM      5  C   LIG d   1       4.848  -1.584  -7.177  0.00  0.00    -0.026 C 
ATOM      6  C   LIG d   1       4.555  -0.937  -8.534  0.00  0.00     0.038 C 
ATOM      7  C   LIG d   1       4.904   0.552  -8.477  0.00  0.00    -0.026 C 
ATOM      8  C   LIG d   1       6.393   0.713  -8.173  0.00  0.00     0.015 C 
ATOM      9  H   LIG d   1       6.920  -2.023  -7.584  0.00  0.00     0.046 H 
ATOM     10  H   LIG d   1       6.536  -1.817  -5.856  0.00  0.00     0.046 H 
ATOM     11  H   LIG d   1       4.578  -2.639  -7.211  0.00  0.00     0.029 H 
ATOM     12  H   LIG d   1       4.265  -1.083  -6.403  0.00  0.00     0.029 H 
ATOM     13  H   LIG d   1       5.156  -1.422  -9.303  0.00  0.00     0.040 H 
ATOM     14  H   LIG d   1       4.675   1.016  -9.435  0.00  0.00     0.029 H 
ATOM     15  H   LIG d   1       4.321   1.032  -7.690  0.00  0.00     0.029 H 
ATOM     16  H   LIG d   1       6.623   1.769  -8.033  0.00  0.00     0.046 H 
ATOM     17  H   LIG d   1       6.976   0.318  -9.005  0.00  0.00     0.046 H 
ENDROOT
BRANCH   1  18
ATOM     18  C   LIG d   1       7.663  -0.197  -4.669  0.00  0.00     0.086 C 
ATOM     19  H   LIG d   1       7.216  -1.189  -4.731  0.00  0.00     0.056 H 
BRANCH  18  20
ATOM     20  C   LIG d   1       7.102   0.542  -3.451  0.00  0.00    -0.004 C 
ATOM     21  H   LIG d   1       7.042   1.608  -3.669  0.00  0.00     0.033 H 
ATOM     22  H   LIG d   1       7.758   0.381  -2.596  0.00  0.00     0.033 H 
BRANCH  20  23
ATOM     23  C   LIG d   1       5.726   0.014  -3.135  0.00  0.00    -0.045 A 
ATOM     24  C   LIG d   1       5.476  -1.344  -3.194  0.00  0.00    -0.059 A 
ATOM     25  C   LIG d   1       4.214  -1.827  -2.902  0.00  0.00    -0.061 A 
ATOM     26  H   LIG d   1       6.266  -2.026  -3.467  0.00  0.00     0.062 H 
ATOM     27  C   LIG d   1       3.203  -0.952  -2.552  0.00  0.00    -0.062 A 
ATOM     28  H   LIG d   1       4.018  -2.887  -2.949  0.00  0.00     0.062 H 
ATOM     29  C   LIG d   1       3.454   0.406  -2.492  0.00  0.00    -0.061 A 
ATOM     30  H   LIG d   1       2.216  -1.329  -2.328  0.00  0.00     0.062 H 
ATOM     31  C   LIG d   1       4.715   0.890  -2.784  0.00  0.00    -0.059 A 
ATOM     32  H   LIG d   1       2.664   1.090  -2.217  0.00  0.00     0.062 H 
ATOM     33  H   LIG d   1       4.911   1.951  -2.738  0.00  0.00     0.062 H 
ENDBRANCH  20  23
ENDBRANCH  18  20
BRANCH  18  34
ATOM     34  N   LIG d   1       9.121  -0.323  -4.537  0.00  0.00    -0.320 N 
ATOM     35  H   LIG d   1       9.499   0.423  -3.974  0.00  0.00     0.119 HD
ATOM     36  H   LIG d   1       9.372  -1.224  -4.159  0.00  0.00     0.119 HD
ENDBRANCH  18  34
ENDBRANCH   1  18
BRANCH   6  37
ATOM     37  C   LIG d   1       3.095  -1.099  -8.862  0.00  0.00     0.217 C 
ATOM     38  O   LIG d   1       2.260  -0.473  -8.242  0.00  0.00    -0.276 OA
ATOM     39  N   LIG d   1       2.713  -1.940  -9.845  0.00  0.00    -0.306 N 
ATOM     40  H   LIG d   1       3.381  -2.440 -10.340  0.00  0.00     0.149 HD
BRANCH  39  41
ATOM     41  C   LIG d   1       1.292  -2.097 -10.164  0.00  0.00     0.088 C 
ATOM     42  H   LIG d   1       0.691  -1.769  -9.316  0.00  0.00     0.056 H 
ATOM     43  H   LIG d   1       1.047  -1.493 -11.038  0.00  0.00     0.056 H 
BRANCH  41  44
ATOM     44  C   LIG d   1       1.000  -3.546 -10.456  0.00  0.00     0.231 C 
ATOM     45  O   LIG d   1       1.857  -4.250 -10.949  0.00  0.00    -0.274 OA
ATOM     46  N   LIG d   1      -0.212  -4.060 -10.172  0.00  0.00    -0.309 N 
ATOM     47  H   LIG d   1      -0.897  -3.497  -9.778  0.00  0.00     0.149 HD
BRANCH  46  48
ATOM     48  C   LIG d   1      -0.497  -5.469 -10.456  0.00  0.00     0.051 C 
ATOM     49  H   LIG d   1      -0.929  -5.558 -11.453  0.00  0.00     0.052 H 
ATOM     50  H   LIG d   1       0.429  -6.043 -10.410  0.00  0.00     0.052 H 
BRANCH  48  51
ATOM     51  C   LIG d   1      -1.469  -6.002  -9.436  0.00  0.00     0.059 C 
ATOM     52  O   LIG d   1      -1.182  -6.986  -8.776  0.00  0.00    -0.548 OA
ATOM     53  O   LIG d   1      -2.542  -5.447  -9.270  0.00  0.00    -0.548 OA
ENDBRANCH  48  51
ENDBRANCH  46  48
ENDBRANCH  41  44
ENDBRANCH  39  41
ENDBRANCH   6  37
TORSDOF 9
ENDMDL
MODEL 6
REMARK VINA RESULT:      -6.9      2.915      3.924
REMARK  9 active torsions:
REMARK  status: ('A' for Active; 'I' for Inactive)
REMARK    1  A    between atoms: C_4  and  C_7 
REMARK    2  A    between atoms: C_7  and  C_8 
REMARK    3  A    between atoms: C_8  and  C_10 
REMARK    4  A    between atoms: C_8  and  N_29 
REMARK       I    between atoms: C_10  and  N_12 
REMARK    5  A    between atoms: C_15  and  C_18 
REMARK       I    between atoms: C_18  and  N_20 
REMARK    6  A    between atoms: N_20  and  C_21 
REMARK    7  A    between atoms: C_21  and  C_22 
REMARK       I    between atoms: C_22  and  N_24 
REMARK    8  A    between atoms: N_24  and  C_25 
REMARK    9  A    between atoms: C_25  and  C_26 
ROOT
ATOM      1  C   LIG d   1       7.599  -2.330  -5.484  0.00  0.00     0.233 C 
ATOM      2  O   LIG d   1       8.586  -1.764  -5.903  0.00  0.00    -0.274 OA
ATOM      3  N   LIG d   1       6.770  -2.961  -6.340  0.00  0.00    -0.300 N 
ATOM      4  C   LIG d   1       5.568  -3.647  -5.849  0.00  0.00     0.015 C 
ATOM      5  C   LIG d   1       4.352  -3.124  -6.620  0.00  0.00    -0.026 C 
ATOM      6  C   LIG d   1       4.598  -3.284  -8.123  0.00  0.00     0.038 C 
ATOM      7  C   LIG d   1       5.821  -2.460  -8.532  0.00  0.00    -0.026 C 
ATOM      8  C   LIG d   1       7.050  -2.971  -7.782  0.00  0.00     0.015 C 
ATOM      9  H   LIG d   1       5.668  -4.721  -6.011  0.00  0.00     0.046 H 
ATOM     10  H   LIG d   1       5.441  -3.446  -4.786  0.00  0.00     0.046 H 
ATOM     11  H   LIG d   1       3.468  -3.693  -6.334  0.00  0.00     0.029 H 
ATOM     12  H   LIG d   1       4.199  -2.070  -6.387  0.00  0.00     0.029 H 
ATOM     13  H   LIG d   1       4.775  -4.334  -8.352  0.00  0.00     0.040 H 
ATOM     14  H   LIG d   1       5.982  -2.555  -9.605  0.00  0.00     0.029 H 
ATOM     15  H   LIG d   1       5.654  -1.412  -8.280  0.00  0.00     0.029 H 
ATOM     16  H   LIG d   1       7.901  -2.323  -7.995  0.00  0.00     0.046 H 
ATOM     17  H   LIG d   1       7.274  -3.987  -8.105  0.00  0.00     0.046 H 
ENDROOT
BRANCH   1  18
ATOM     18  C   LIG d   1       7.299  -2.330  -4.007  0.00  0.00     0.086 C 
ATOM     19  H   LIG d   1       6.358  -2.849  -3.828  0.00  0.00     0.056 H 
BRANCH  18  20
ATOM     20  C   LIG d   1       7.190  -0.887  -3.509  0.00  0.00    -0.004 C 
ATOM     21  H   LIG d   1       7.487  -0.205  -4.306  0.00  0.00     0.033 H 
ATOM     22  H   LIG d   1       7.845  -0.750  -2.649  0.00  0.00     0.033 H 
BRANCH  20  23
ATOM     23  C   LIG d   1       5.766  -0.602  -3.107  0.00  0.00    -0.045 A 
ATOM     24  C   LIG d   1       5.391   0.681  -2.755  0.00  0.00    -0.059 A 
ATOM     25  C   LIG d   1       4.085   0.944  -2.388  0.00  0.00    -0.061 A 
ATOM     26  H   LIG d   1       6.119   1.479  -2.769  0.00  0.00     0.062 H 
ATOM     27  C   LIG d   1       3.153  -0.078  -2.371  0.00  0.00    -0.062 A 
ATOM     28  H   LIG d   1       3.792   1.945  -2.113  0.00  0.00     0.062 H 
ATOM     29  C   LIG d   1       3.528  -1.361  -2.724  0.00  0.00    -0.061 A 
ATOM     30  H   LIG d   1       2.134   0.126  -2.080  0.00  0.00     0.062 H 
ATOM     31  C   LIG d   1       4.835  -1.624  -3.091  0.00  0.00    -0.059 A 
ATOM     32  H   LIG d   1       2.800  -2.159  -2.711  0.00  0.00     0.062 H 
ATOM     33  H   LIG d   1       5.128  -2.626  -3.366  0.00  0.00     0.062 H 
ENDBRANCH  20  23
ENDBRANCH  18  20
BRANCH  18  34
ATOM     34  N   LIG d   1       8.381  -3.016  -3.288  0.00  0.00    -0.320 N 
ATOM     35  H   LIG d   1       9.272  -2.587  -3.482  0.00  0.00     0.119 HD
ATOM     36  H   LIG d   1       8.198  -3.039  -2.296  0.00  0.00     0.119 HD
ENDBRANCH  18  34
ENDBRANCH   1  18
BRANCH   6  37
ATOM     37  C   LIG d   1       3.390  -2.801  -8.882  0.00  0.00     0.217 C 
ATOM     38  O   LIG d   1       3.143  -1.615  -8.940  0.00  0.00    -0.276 OA
ATOM     39  N   LIG d   1       2.582  -3.688  -9.499  0.00  0.00    -0.306 N 
ATOM     40  H   LIG d   1       2.781  -4.637  -9.453  0.00  0.00     0.149 HD
BRANCH  39  41
ATOM     41  C   LIG d   1       1.408  -3.219 -10.238  0.00  0.00     0.088 C 
ATOM     42  H   LIG d   1       0.864  -2.494  -9.632  0.00  0.00     0.056 H 
ATOM     43  H   LIG d   1       1.728  -2.748 -11.168  0.00  0.00     0.056 H 
BRANCH  41  44
ATOM     44  C   LIG d   1       0.510  -4.388 -10.549  0.00  0.00     0.231 C 
ATOM     45  O   LIG d   1       0.959  -5.364 -11.114  0.00  0.00    -0.274 OA
ATOM     46  N   LIG d   1      -0.791  -4.350 -10.201  0.00  0.00    -0.309 N 
ATOM     47  H   LIG d   1      -1.149  -3.570  -9.749  0.00  0.00     0.149 HD
BRANCH  46  48
ATOM     48  C   LIG d   1      -1.664  -5.488 -10.504  0.00  0.00     0.051 C 
ATOM     49  H   LIG d   1      -2.560  -5.131 -11.013  0.00  0.00     0.052 H 
ATOM     50  H   LIG d   1      -1.135  -6.190 -11.148  0.00  0.00     0.052 H 
BRANCH  48  51
ATOM     51  C   LIG d   1      -2.054  -6.177  -9.222  0.00  0.00     0.059 C 
ATOM     52  O   LIG d   1      -1.277  -6.946  -8.683  0.00  0.00    -0.548 OA
ATOM     53  O   LIG d   1      -3.147  -5.965  -8.725  0.00  0.00    -0.548 OA
ENDBRANCH  48  51
ENDBRANCH  46  48
ENDBRANCH  41  44
ENDBRANCH  39  41
ENDBRANCH   6  37
TORSDOF 9
ENDMDL
MODEL 7
REMARK VINA RESULT:      -6.8      7.822      9.878
REMARK  9 active torsions:
REMARK  status: ('A' for Active; 'I' for Inactive)
REMARK    1  A    between atoms: C_4  and  C_7 
REMARK    2  A    between atoms: C_7  and  C_8 
REMARK    3  A    between atoms: C_8  and  C_10 
REMARK    4  A    between atoms: C_8  and  N_29 
REMARK       I    between atoms: C_10  and  N_12 
REMARK    5  A    between atoms: C_15  and  C_18 
REMARK       I    between atoms: C_18  and  N_20 
REMARK    6  A    between atoms: N_20  and  C_21 
REMARK    7  A    between atoms: C_21  and  C_22 
REMARK       I    between atoms: C_22  and  N_24 
REMARK    8  A    between atoms: N_24  and  C_25 
REMARK    9  A    between atoms: C_25  and  C_26 
ROOT
ATOM      1  C   LIG d   1       8.295  -3.397  -5.217  0.00  0.00     0.233 C 
ATOM      2  O   LIG d   1       7.769  -3.605  -6.289  0.00  0.00    -0.274 OA
ATOM      3  N   LIG d   1       9.081  -4.340  -4.658  0.00  0.00    -0.300 N 
ATOM      4  C   LIG d   1       9.722  -4.106  -3.357  0.00  0.00     0.015 C 
ATOM      5  C   LIG d   1       9.368  -5.263  -2.418  0.00  0.00    -0.026 C 
ATOM      6  C   LIG d   1       9.754  -6.589  -3.079  0.00  0.00     0.038 C 
ATOM      7  C   LIG d   1       8.964  -6.761  -4.378  0.00  0.00    -0.026 C 
ATOM      8  C   LIG d   1       9.308  -5.623  -5.337  0.00  0.00     0.015 C 
ATOM      9  H   LIG d   1      10.803  -4.058  -3.486  0.00  0.00     0.046 H 
ATOM     10  H   LIG d   1       9.360  -3.169  -2.935  0.00  0.00     0.046 H 
ATOM     11  H   LIG d   1       9.914  -5.151  -1.482  0.00  0.00     0.029 H 
ATOM     12  H   LIG d   1       8.296  -5.255  -2.218  0.00  0.00     0.029 H 
ATOM     13  H   LIG d   1      10.821  -6.586  -3.301  0.00  0.00     0.040 H 
ATOM     14  H   LIG d   1       9.221  -7.715  -4.837  0.00  0.00     0.029 H 
ATOM     15  H   LIG d   1       7.895  -6.739  -4.159  0.00  0.00     0.029 H 
ATOM     16  H   LIG d   1       8.673  -5.687  -6.221  0.00  0.00     0.046 H 
ATOM     17  H   LIG d   1      10.354  -5.701  -5.631  0.00  0.00     0.046 H 
ENDROOT
BRANCH   1  18
ATOM     18  C   LIG d   1       8.073  -2.086  -4.508  0.00  0.00     0.086 C 
ATOM     19  H   LIG d   1       8.002  -2.260  -3.435  0.00  0.00     0.056 H 
BRANCH  18  20
ATOM     20  C   LIG d   1       6.775  -1.449  -5.009  0.00  0.00    -0.004 C 
ATOM     21  H   LIG d   1       6.213  -2.180  -5.591  0.00  0.00     0.033 H 
ATOM     22  H   LIG d   1       7.010  -0.589  -5.635  0.00  0.00     0.033 H 
BRANCH  20  23
ATOM     23  C   LIG d   1       5.948  -1.003  -3.831  0.00  0.00    -0.045 A 
ATOM     24  C   LIG d   1       5.186  -1.921  -3.133  0.00  0.00    -0.059 A 
ATOM     25  C   LIG d   1       4.429  -1.512  -2.052  0.00  0.00    -0.061 A 
ATOM     26  H   LIG d   1       5.183  -2.958  -3.433  0.00  0.00     0.062 H 
ATOM     27  C   LIG d   1       4.434  -0.183  -1.668  0.00  0.00    -0.062 A 
ATOM     28  H   LIG d   1       3.834  -2.228  -1.507  0.00  0.00     0.062 H 
ATOM     29  C   LIG d   1       5.196   0.735  -2.366  0.00  0.00    -0.061 A 
ATOM     30  H   LIG d   1       3.839   0.138  -0.826  0.00  0.00     0.062 H 
ATOM     31  C   LIG d   1       5.952   0.326  -3.448  0.00  0.00    -0.059 A 
ATOM     32  H   LIG d   1       5.200   1.773  -2.066  0.00  0.00     0.062 H 
ATOM     33  H   LIG d   1       6.548   1.043  -3.993  0.00  0.00     0.062 H 
ENDBRANCH  20  23
ENDBRANCH  18  20
BRANCH  18  34
ATOM     34  N   LIG d   1       9.199  -1.184  -4.785  0.00  0.00    -0.320 N 
ATOM     35  H   LIG d   1       9.500  -0.713  -3.946  0.00  0.00     0.119 HD
ATOM     36  H   LIG d   1       9.964  -1.682  -5.214  0.00  0.00     0.119 HD
ENDBRANCH  18  34
ENDBRANCH   1  18
BRANCH   6  37
ATOM     37  C   LIG d   1       9.438  -7.726  -2.144  0.00  0.00     0.217 C 
ATOM     38  O   LIG d   1      10.216  -8.019  -1.261  0.00  0.00    -0.276 OA
ATOM     39  N   LIG d   1       8.290  -8.419  -2.289  0.00  0.00    -0.306 N 
ATOM     40  H   LIG d   1       7.668  -8.184  -2.995  0.00  0.00     0.149 HD
BRANCH  39  41
ATOM     41  C   LIG d   1       7.983  -9.526  -1.380  0.00  0.00     0.088 C 
ATOM     42  H   LIG d   1       8.781 -10.266  -1.426  0.00  0.00     0.056 H 
ATOM     43  H   LIG d   1       7.899  -9.146  -0.361  0.00  0.00     0.056 H 
BRANCH  41  44
ATOM     44  C   LIG d   1       6.681 -10.164  -1.787  0.00  0.00     0.231 C 
ATOM     45  O   LIG d   1       5.949 -10.641  -0.945  0.00  0.00    -0.274 OA
ATOM     46  N   LIG d   1       6.328 -10.206  -3.087  0.00  0.00    -0.309 N 
ATOM     47  H   LIG d   1       6.913  -9.824  -3.761  0.00  0.00     0.149 HD
BRANCH  46  48
ATOM     48  C   LIG d   1       5.061 -10.827  -3.484  0.00  0.00     0.051 C 
ATOM     49  H   LIG d   1       5.226 -11.460  -4.357  0.00  0.00     0.052 H 
ATOM     50  H   LIG d   1       4.682 -11.434  -2.662  0.00  0.00     0.052 H 
BRANCH  48  51
ATOM     51  C   LIG d   1       4.059  -9.754  -3.821  0.00  0.00     0.059 C 
ATOM     52  O   LIG d   1       4.256  -9.013  -4.769  0.00  0.00    -0.548 OA
ATOM     53  O   LIG d   1       3.051  -9.628  -3.146  0.00  0.00    -0.548 OA
ENDBRANCH  48  51
ENDBRANCH  46  48
ENDBRANCH  41  44
ENDBRANCH  39  41
ENDBRANCH   6  37
TORSDOF 9
ENDMDL
MODEL 8
REMARK VINA RESULT:      -6.7      8.274     12.810
REMARK  9 active torsions:
REMARK  status: ('A' for Active; 'I' for Inactive)
REMARK    1  A    between atoms: C_4  and  C_7 
REMARK    2  A    between atoms: C_7  and  C_8 
REMARK    3  A    between atoms: C_8  and  C_10 
REMARK    4  A    between atoms: C_8  and  N_29 
REMARK       I    between atoms: C_10  and  N_12 
REMARK    5  A    between atoms: C_15  and  C_18 
REMARK       I    between atoms: C_18  and  N_20 
REMARK    6  A    between atoms: N_20  and  C_21 
REMARK    7  A    between atoms: C_21  and  C_22 
REMARK       I    between atoms: C_22  and  N_24 
REMARK    8  A    between atoms: N_24  and  C_25 
REMARK    9  A    between atoms: C_25  and  C_26 
ROOT
ATOM      1  C   LIG d   1       8.715  -0.965  -4.987  0.00  0.00     0.233 C 
ATOM      2  O   LIG d   1       9.577  -1.815  -4.940  0.00  0.00    -0.274 OA
ATOM      3  N   LIG d   1       9.055   0.334  -5.109  0.00  0.00    -0.300 N 
ATOM      4  C   LIG d   1       8.022   1.377  -5.163  0.00  0.00     0.015 C 
ATOM      5  C   LIG d   1       8.326   2.428  -4.090  0.00  0.00    -0.026 C 
ATOM      6  C   LIG d   1       9.754   2.947  -4.279  0.00  0.00     0.038 C 
ATOM      7  C   LIG d   1      10.744   1.791  -4.119  0.00  0.00    -0.026 C 
ATOM      8  C   LIG d   1      10.467   0.733  -5.185  0.00  0.00     0.015 C 
ATOM      9  H   LIG d   1       8.028   1.847  -6.146  0.00  0.00     0.046 H 
ATOM     10  H   LIG d   1       7.045   0.933  -4.973  0.00  0.00     0.046 H 
ATOM     11  H   LIG d   1       7.623   3.255  -4.182  0.00  0.00     0.029 H 
ATOM     12  H   LIG d   1       8.231   1.977  -3.102  0.00  0.00     0.029 H 
ATOM     13  H   LIG d   1       9.855   3.375  -5.276  0.00  0.00     0.040 H 
ATOM     14  H   LIG d   1      11.761   2.165  -4.231  0.00  0.00     0.029 H 
ATOM     15  H   LIG d   1      10.625   1.346  -3.130  0.00  0.00     0.029 H 
ATOM     16  H   LIG d   1      11.103  -0.135  -5.011  0.00  0.00     0.046 H 
ATOM     17  H   LIG d   1      10.677   1.149  -6.171  0.00  0.00     0.046 H 
ENDROOT
BRANCH   1  18
ATOM     18  C   LIG d   1       7.262  -1.359  -4.911  0.00  0.00     0.086 C 
ATOM     19  H   LIG d   1       6.642  -0.526  -5.241  0.00  0.00     0.056 H 
BRANCH  18  20
ATOM     20  C   LIG d   1       6.907  -1.720  -3.467  0.00  0.00    -0.004 C 
ATOM     21  H   LIG d   1       7.697  -1.373  -2.801  0.00  0.00     0.033 H 
ATOM     22  H   LIG d   1       6.804  -2.801  -3.378  0.00  0.00     0.033 H 
BRANCH  20  23
ATOM     23  C   LIG d   1       5.606  -1.059  -3.090  0.00  0.00    -0.045 A 
ATOM     24  C   LIG d   1       5.591   0.267  -2.700  0.00  0.00    -0.059 A 
ATOM     25  C   LIG d   1       4.398   0.873  -2.356  0.00  0.00    -0.061 A 
ATOM     26  H   LIG d   1       6.513   0.829  -2.665  0.00  0.00     0.062 H 
ATOM     27  C   LIG d   1       3.218   0.153  -2.402  0.00  0.00    -0.062 A 
ATOM     28  H   LIG d   1       4.386   1.908  -2.051  0.00  0.00     0.062 H 
ATOM     29  C   LIG d   1       3.233  -1.173  -2.793  0.00  0.00    -0.061 A 
ATOM     30  H   LIG d   1       2.287   0.625  -2.129  0.00  0.00     0.062 H 
ATOM     31  C   LIG d   1       4.426  -1.779  -3.137  0.00  0.00    -0.059 A 
ATOM     32  H   LIG d   1       2.311  -1.735  -2.830  0.00  0.00     0.062 H 
ATOM     33  H   LIG d   1       4.438  -2.815  -3.442  0.00  0.00     0.062 H 
ENDBRANCH  20  23
ENDBRANCH  18  20
BRANCH  18  34
ATOM     34  N   LIG d   1       7.024  -2.520  -5.779  0.00  0.00    -0.320 N 
ATOM     35  H   LIG d   1       6.044  -2.755  -5.808  0.00  0.00     0.119 HD
ATOM     36  H   LIG d   1       7.385  -2.357  -6.707  0.00  0.00     0.119 HD
ENDBRANCH  18  34
ENDBRANCH   1  18
BRANCH   6  37
ATOM     37  C   LIG d   1      10.044   4.004  -3.247  0.00  0.00     0.217 C 
ATOM     38  O   LIG d   1      10.677   3.723  -2.251  0.00  0.00    -0.276 OA
ATOM     39  N   LIG d   1       9.600   5.264  -3.429  0.00  0.00    -0.306 N 
ATOM     40  H   LIG d   1       9.093   5.489  -4.226  0.00  0.00     0.149 HD
BRANCH  39  41
ATOM     41  C   LIG d   1       9.882   6.293  -2.426  0.00  0.00     0.088 C 
ATOM     42  H   LIG d   1       8.969   6.523  -1.876  0.00  0.00     0.056 H 
ATOM     43  H   LIG d   1      10.640   5.927  -1.734  0.00  0.00     0.056 H 
BRANCH  41  44
ATOM     44  C   LIG d   1      10.384   7.538  -3.110  0.00  0.00     0.231 C 
ATOM     45  O   LIG d   1      11.545   7.869  -2.991  0.00  0.00    -0.274 OA
ATOM     46  N   LIG d   1       9.543   8.284  -3.852  0.00  0.00    -0.309 N 
ATOM     47  H   LIG d   1       8.615   8.020  -3.947  0.00  0.00     0.149 HD
BRANCH  46  48
ATOM     48  C   LIG d   1      10.032   9.496  -4.518  0.00  0.00     0.051 C 
ATOM     49  H   LIG d   1      11.122   9.505  -4.500  0.00  0.00     0.052 H 
ATOM     50  H   LIG d   1       9.685   9.507  -5.551  0.00  0.00     0.052 H 
BRANCH  48  51
ATOM     51  C   LIG d   1       9.505  10.711  -3.798  0.00  0.00     0.059 C 
ATOM     52  O   LIG d   1       8.547  11.317  -4.247  0.00  0.00    -0.548 OA
ATOM     53  O   LIG d   1      10.038  11.087  -2.768  0.00  0.00    -0.548 OA
ENDBRANCH  48  51
ENDBRANCH  46  48
ENDBRANCH  41  44
ENDBRANCH  39  41
ENDBRANCH   6  37
TORSDOF 9
ENDMDL
MODEL 9
REMARK VINA RESULT:      -6.4     13.260     15.516
REMARK  9 active torsions:
REMARK  status: ('A' for Active; 'I' for Inactive)
REMARK    1  A    between atoms: C_4  and  C_7 
REMARK    2  A    between atoms: C_7  and  C_8 
REMARK    3  A    between atoms: C_8  and  C_10 
REMARK    4  A    between atoms: C_8  and  N_29 
REMARK       I    between atoms: C_10  and  N_12 
REMARK    5  A    between atoms: C_15  and  C_18 
REMARK       I    between atoms: C_18  and  N_20 
REMARK    6  A    between atoms: N_20  and  C_21 
REMARK    7  A    between atoms: C_21  and  C_22 
REMARK       I    between atoms: C_22  and  N_24 
REMARK    8  A    between atoms: N_24  and  C_25 
REMARK    9  A    between atoms: C_25  and  C_26 
ROOT
ATOM      1  C   LIG d   1      11.705   5.694  -0.850  0.00  0.00     0.233 C 
ATOM      2  O   LIG d   1      12.879   5.453  -0.670  0.00  0.00    -0.274 OA
ATOM      3  N   LIG d   1      11.138   5.423  -2.043  0.00  0.00    -0.300 N 
ATOM      4  C   LIG d   1       9.717   5.714  -2.279  0.00  0.00     0.015 C 
ATOM      5  C   LIG d   1       9.593   6.579  -3.537  0.00  0.00    -0.026 C 
ATOM      6  C   LIG d   1      10.295   5.879  -4.705  0.00  0.00     0.038 C 
ATOM      7  C   LIG d   1      11.780   5.708  -4.380  0.00  0.00    -0.026 C 
ATOM      8  C   LIG d   1      11.930   4.839  -3.133  0.00  0.00     0.015 C 
ATOM      9  H   LIG d   1       9.173   4.780  -2.423  0.00  0.00     0.046 H 
ATOM     10  H   LIG d   1       9.307   6.251  -1.425  0.00  0.00     0.046 H 
ATOM     11  H   LIG d   1       8.540   6.721  -3.778  0.00  0.00     0.029 H 
ATOM     12  H   LIG d   1      10.060   7.548  -3.360  0.00  0.00     0.029 H 
ATOM     13  H   LIG d   1       9.843   4.900  -4.865  0.00  0.00     0.040 H 
ATOM     14  H   LIG d   1      12.284   5.231  -5.220  0.00  0.00     0.029 H 
ATOM     15  H   LIG d   1      12.227   6.685  -4.195  0.00  0.00     0.029 H 
ATOM     16  H   LIG d   1      12.980   4.798  -2.842  0.00  0.00     0.046 H 
ATOM     17  H   LIG d   1      11.571   3.832  -3.348  0.00  0.00     0.046 H 
ENDROOT
BRANCH   1  18
ATOM     18  C   LIG d   1      10.878   6.293   0.259  0.00  0.00     0.086 C 
ATOM     19  H   LIG d   1       9.837   6.354  -0.057  0.00  0.00     0.056 H 
BRANCH  18  20
ATOM     20  C   LIG d   1      11.398   7.696   0.581  0.00  0.00    -0.004 C 
ATOM     21  H   LIG d   1      12.487   7.677   0.632  0.00  0.00     0.033 H 
ATOM     22  H   LIG d   1      10.994   8.022   1.538  0.00  0.00     0.033 H 
BRANCH  20  23
ATOM     23  C   LIG d   1      10.963   8.652  -0.500  0.00  0.00    -0.045 A 
ATOM     24  C   LIG d   1      11.870   9.079  -1.452  0.00  0.00    -0.059 A 
ATOM     25  C   LIG d   1      11.470   9.955  -2.444  0.00  0.00    -0.061 A 
ATOM     26  H   LIG d   1      12.890   8.727  -1.420  0.00  0.00     0.062 H 
ATOM     27  C   LIG d   1      10.163  10.404  -2.483  0.00  0.00    -0.062 A 
ATOM     28  H   LIG d   1      12.178  10.289  -3.186  0.00  0.00     0.062 H 
ATOM     29  C   LIG d   1       9.256   9.976  -1.532  0.00  0.00    -0.061 A 
ATOM     30  H   LIG d   1       9.852  11.092  -3.255  0.00  0.00     0.062 H 
ATOM     31  C   LIG d   1       9.656   9.101  -0.540  0.00  0.00    -0.059 A 
ATOM     32  H   LIG d   1       8.235  10.327  -1.563  0.00  0.00     0.062 H 
ATOM     33  H   LIG d   1       8.947   8.767   0.204  0.00  0.00     0.062 H 
ENDBRANCH  20  23
ENDBRANCH  18  20
BRANCH  18  34
ATOM     34  N   LIG d   1      10.978   5.447   1.455  0.00  0.00    -0.320 N 
ATOM     35  H   LIG d   1      10.118   5.462   1.982  0.00  0.00     0.119 HD
ATOM     36  H   LIG d   1      11.236   4.503   1.210  0.00  0.00     0.119 HD
ENDBRANCH  18  34
ENDBRANCH   1  18
BRANCH   6  37
ATOM     37  C   LIG d   1      10.145   6.711  -5.951  0.00  0.00     0.217 C 
ATOM     38  O   LIG d   1      10.696   6.372  -6.977  0.00  0.00    -0.276 OA
ATOM     39  N   LIG d   1       9.400   7.835  -5.926  0.00  0.00    -0.306 N 
ATOM     40  H   LIG d   1       8.959   8.106  -5.105  0.00  0.00     0.149 HD
BRANCH  39  41
ATOM     41  C   LIG d   1       9.254   8.644  -7.138  0.00  0.00     0.088 C 
ATOM     42  H   LIG d   1       9.659   8.098  -7.990  0.00  0.00     0.056 H 
ATOM     43  H   LIG d   1       8.199   8.855  -7.310  0.00  0.00     0.056 H 
BRANCH  41  44
ATOM     44  C   LIG d   1      10.004   9.940  -6.970  0.00  0.00     0.231 C 
ATOM     45  O   LIG d   1      11.144  10.038  -7.374  0.00  0.00    -0.274 OA
ATOM     46  N   LIG d   1       9.410  10.990  -6.370  0.00  0.00    -0.309 N 
ATOM     47  H   LIG d   1       8.499  10.912  -6.047  0.00  0.00     0.149 HD
BRANCH  46  48
ATOM     48  C   LIG d   1      10.140  12.251  -6.207  0.00  0.00     0.051 C 
ATOM     49  H   LIG d   1      10.145  12.533  -5.153  0.00  0.00     0.052 H 
ATOM     50  H   LIG d   1      11.165  12.124  -6.554  0.00  0.00     0.052 H 
BRANCH  48  51
ATOM     51  C   LIG d   1       9.466  13.330  -7.014  0.00  0.00     0.059 C 
ATOM     52  O   LIG d   1       9.344  14.451  -6.551  0.00  0.00    -0.548 OA
ATOM     53  O   LIG d   1       9.045  13.081  -8.131  0.00  0.00    -0.548 OA
ENDBRANCH  48  51
ENDBRANCH  46  48
ENDBRANCH  41  44
ENDBRANCH  39  41
ENDBRANCH   6  37
TORSDOF 9
ENDMDL
MODEL 10
REMARK VINA RESULT:      -6.3      6.859     11.707
REMARK  9 active torsions:
REMARK  status: ('A' for Active; 'I' for Inactive)
REMARK    1  A    between atoms: C_4  and  C_7 
REMARK    2  A    between atoms: C_7  and  C_8 
REMARK    3  A    between atoms: C_8  and  C_10 
REMARK    4  A    between atoms: C_8  and  N_29 
REMARK       I    between atoms: C_10  and  N_12 
REMARK    5  A    between atoms: C_15  and  C_18 
REMARK       I    between atoms: C_18  and  N_20 
REMARK    6  A    between atoms: N_20  and  C_21 
REMARK    7  A    between atoms: C_21  and  C_22 
REMARK       I    between atoms: C_22  and  N_24 
REMARK    8  A    between atoms: N_24  and  C_25 
REMARK    9  A    between atoms: C_25  and  C_26 
ROOT
ATOM      1  C   LIG d   1       6.158  -2.968  -5.155  0.00  0.00     0.233 C 
ATOM      2  O   LIG d   1       6.712  -4.033  -4.989  0.00  0.00    -0.274 OA
ATOM      3  N   LIG d   1       6.882  -1.873  -5.460  0.00  0.00    -0.300 N 
ATOM      4  C   LIG d   1       6.227  -0.573  -5.659  0.00  0.00     0.015 C 
ATOM      5  C   LIG d   1       6.895   0.461  -4.747  0.00  0.00    -0.026 C 
ATOM      6  C   LIG d   1       8.403   0.470  -5.010  0.00  0.00     0.038 C 
ATOM      7  C   LIG d   1       8.987  -0.907  -4.688  0.00  0.00    -0.026 C 
ATOM      8  C   LIG d   1       8.343  -1.956  -5.594  0.00  0.00     0.015 C 
ATOM      9  H   LIG d   1       6.335  -0.265  -6.699  0.00  0.00     0.046 H 
ATOM     10  H   LIG d   1       5.170  -0.654  -5.407  0.00  0.00     0.046 H 
ATOM     11  H   LIG d   1       6.483   1.448  -4.954  0.00  0.00     0.029 H 
ATOM     12  H   LIG d   1       6.709   0.200  -3.705  0.00  0.00     0.029 H 
ATOM     13  H   LIG d   1       8.587   0.707  -6.058  0.00  0.00     0.040 H 
ATOM     14  H   LIG d   1      10.064  -0.894  -4.854  0.00  0.00     0.029 H 
ATOM     15  H   LIG d   1       8.781  -1.155  -3.647  0.00  0.00     0.029 H 
ATOM     16  H   LIG d   1       8.682  -2.948  -5.299  0.00  0.00     0.046 H 
ATOM     17  H   LIG d   1       8.627  -1.763  -6.629  0.00  0.00     0.046 H 
ENDROOT
BRANCH   1  18
ATOM     18  C   LIG d   1       4.660  -2.867  -5.021  0.00  0.00     0.086 C 
ATOM     19  H   LIG d   1       4.313  -1.955  -5.507  0.00  0.00     0.056 H 
BRANCH  18  20
ATOM     20  C   LIG d   1       4.282  -2.832  -3.539  0.00  0.00    -0.004 C 
ATOM     21  H   LIG d   1       5.086  -3.273  -2.949  0.00  0.00     0.033 H 
ATOM     22  H   LIG d   1       3.364  -3.399  -3.385  0.00  0.00     0.033 H 
BRANCH  20  23
ATOM     23  C   LIG d   1       4.067  -1.404  -3.109  0.00  0.00    -0.045 A 
ATOM     24  C   LIG d   1       4.749  -0.900  -2.017  0.00  0.00    -0.059 A 
ATOM     25  C   LIG d   1       4.553   0.410  -1.624  0.00  0.00    -0.061 A 
ATOM     26  H   LIG d   1       5.435  -1.531  -1.472  0.00  0.00     0.062 H 
ATOM     27  C   LIG d   1       3.675   1.218  -2.324  0.00  0.00    -0.062 A 
ATOM     28  H   LIG d   1       5.085   0.803  -0.771  0.00  0.00     0.062 H 
ATOM     29  C   LIG d   1       2.995   0.715  -3.416  0.00  0.00    -0.061 A 
ATOM     30  H   LIG d   1       3.519   2.240  -2.014  0.00  0.00     0.062 H 
ATOM     31  C   LIG d   1       3.189  -0.596  -3.809  0.00  0.00    -0.059 A 
ATOM     32  H   LIG d   1       2.309   1.345  -3.963  0.00  0.00     0.062 H 
ATOM     33  H   LIG d   1       2.657  -0.990  -4.663  0.00  0.00     0.062 H 
ENDBRANCH  20  23
ENDBRANCH  18  20
BRANCH  18  34
ATOM     34  N   LIG d   1       4.033  -4.032  -5.660  0.00  0.00    -0.320 N 
ATOM     35  H   LIG d   1       3.928  -4.791  -5.005  0.00  0.00     0.119 HD
ATOM     36  H   LIG d   1       3.145  -3.784  -6.071  0.00  0.00     0.119 HD
ENDBRANCH  18  34
ENDBRANCH   1  18
BRANCH   6  37
ATOM     37  C   LIG d   1       9.057   1.509  -4.139  0.00  0.00     0.217 C 
ATOM     38  O   LIG d   1       8.378   2.328  -3.556  0.00  0.00    -0.276 OA
ATOM     39  N   LIG d   1      10.399   1.531  -4.006  0.00  0.00    -0.306 N 
ATOM     40  H   LIG d   1      10.942   0.875  -4.472  0.00  0.00     0.149 HD
BRANCH  39  41
ATOM     41  C   LIG d   1      11.036   2.541  -3.158  0.00  0.00     0.088 C 
ATOM     42  H   LIG d   1      10.340   2.851  -2.379  0.00  0.00     0.056 H 
ATOM     43  H   LIG d   1      11.930   2.119  -2.700  0.00  0.00     0.056 H 
BRANCH  41  44
ATOM     44  C   LIG d   1      11.415   3.734  -3.997  0.00  0.00     0.231 C 
ATOM     45  O   LIG d   1      11.037   4.842  -3.680  0.00  0.00    -0.274 OA
ATOM     46  N   LIG d   1      12.173   3.570  -5.098  0.00  0.00    -0.309 N 
ATOM     47  H   LIG d   1      12.475   2.683  -5.352  0.00  0.00     0.149 HD
BRANCH  46  48
ATOM     48  C   LIG d   1      12.542   4.730  -5.914  0.00  0.00     0.051 C 
ATOM     49  H   LIG d   1      11.812   4.858  -6.715  0.00  0.00     0.052 H 
ATOM     50  H   LIG d   1      12.556   5.623  -5.290  0.00  0.00     0.052 H 
BRANCH  48  51
ATOM     51  C   LIG d   1      13.909   4.512  -6.510  0.00  0.00     0.059 C 
ATOM     52  O   LIG d   1      14.796   4.019  -5.834  0.00  0.00    -0.548 OA
ATOM     53  O   LIG d   1      14.127   4.829  -7.667  0.00  0.00    -0.548 OA
ENDBRANCH  48  51
ENDBRANCH  46  48
ENDBRANCH  41  44
ENDBRANCH  39  41
ENDBRANCH   6  37
TORSDOF 9
ENDMDL
