MODEL 1
REMARK VINA RESULT:      -6.1      0.000      0.000
REMARK  6 active torsions:
REMARK  status: ('A' for Active; 'I' for Inactive)
REMARK    1  A    between atoms: C_4  and  C_7 
REMARK    2  A    between atoms: C_7  and  C_9 
REMARK    3  A    between atoms: C_7  and  O_19 
REMARK    4  A    between atoms: C_9  and  C_10 
REMARK    5  A    between atoms: C_10  and  O_12 
REMARK    6  A    between atoms: O_12  and  C_13 
ROOT
ATOM      1  C   LIG d   1       3.597  -0.756  -6.766  0.00  0.00     0.075 C 
ATOM      2  H   LIG d   1       3.485  -1.637  -6.134  0.00  0.00     0.041 H 
ATOM      3  H   LIG d   1       3.176  -0.959  -7.750  0.00  0.00     0.041 H 
ENDROOT
BRANCH   1   4
ATOM      4  C   LIG d   1       5.081  -0.412  -6.907  0.00  0.00     0.090 C 
ATOM      5  H   LIG d   1       5.204   0.671  -6.920  0.00  0.00     0.065 H 
BRANCH   4   6
ATOM      6  C   LIG d   1       5.843  -0.990  -5.741  0.00  0.00    -0.019 A 
ATOM      7  C   LIG d   1       5.792  -2.347  -5.487  0.00  0.00    -0.056 A 
ATOM      8  C   LIG d   1       6.490  -2.876  -4.417  0.00  0.00    -0.061 A 
ATOM      9  H   LIG d   1       5.208  -2.995  -6.123  0.00  0.00     0.062 H 
ATOM     10  C   LIG d   1       7.239  -2.047  -3.602  0.00  0.00    -0.062 A 
ATOM     11  H   LIG d   1       6.451  -3.937  -4.217  0.00  0.00     0.062 H 
ATOM     12  C   LIG d   1       7.289  -0.689  -3.857  0.00  0.00    -0.061 A 
ATOM     13  H   LIG d   1       7.784  -2.460  -2.767  0.00  0.00     0.062 H 
ATOM     14  C   LIG d   1       6.594  -0.161  -4.929  0.00  0.00    -0.056 A 
ATOM     15  H   LIG d   1       7.873  -0.041  -3.220  0.00  0.00     0.062 H 
ATOM     16  H   LIG d   1       6.637   0.899  -5.130  0.00  0.00     0.062 H 
ENDBRANCH   4   6
BRANCH   4  17
ATOM     17  O   LIG d   1       5.584  -0.964  -8.125  0.00  0.00    -0.387 OA
ATOM     18  H   LIG d   1       4.902  -1.145  -8.786  0.00  0.00     0.210 HD
ENDBRANCH   4  17
ENDBRANCH   1   4
BRANCH   1  19
ATOM     19  C   LIG d   1       2.870   0.406  -6.138  0.00  0.00     0.315 C 
ATOM     20  O   LIG d   1       2.885   1.488  -6.675  0.00  0.00    -0.250 OA
BRANCH  19  21
ATOM     21  O   LIG d   1       2.205   0.238  -4.985  0.00  0.00    -0.426 OA
BRANCH  21  22
ATOM     22  C   LIG d   1       2.950   0.048  -3.864  0.00  0.00     0.132 A 
ATOM     23  C   LIG d   1       3.100  -1.227  -3.338  0.00  0.00    -0.019 A 
ATOM     24  C   LIG d   1       3.862  -1.418  -2.201  0.00  0.00    -0.058 A 
ATOM     25  H   LIG d   1       2.623  -2.069  -3.818  0.00  0.00     0.065 H 
ATOM     26  C   LIG d   1       4.466  -0.340  -1.584  0.00  0.00    -0.061 A 
ATOM     27  H   LIG d   1       3.981  -2.411  -1.793  0.00  0.00     0.062 H 
ATOM     28  C   LIG d   1       4.319   0.931  -2.106  0.00  0.00    -0.058 A 
ATOM     29  H   LIG d   1       5.059  -0.492  -0.693  0.00  0.00     0.062 H 
ATOM     30  C   LIG d   1       3.562   1.127  -3.245  0.00  0.00    -0.019 A 
ATOM     31  H   LIG d   1       4.797   1.772  -1.623  0.00  0.00     0.062 H 
ATOM     32  H   LIG d   1       3.447   2.121  -3.652  0.00  0.00     0.065 H 
ENDBRANCH  21  22
ENDBRANCH  19  21
ENDBRANCH   1  19
TORSDOF 6
ENDMDL
MODEL 2
REMARK VINA RESULT:      -6.1      2.465      5.562
REMARK  6 active torsions:
REMARK  status: ('A' for Active; 'I' for Inactive)
REMARK    1  A    between atoms: C_4  and  C_7 
REMARK    2  A    between atoms: C_7  and  C_9 
REMARK    3  A    between atoms: C_7  and  O_19 
REMARK    4  A    between atoms: C_9  and  C_10 
REMARK    5  A    between atoms: C_10  and  O_12 
REMARK    6  A    between atoms: O_12  and  C_13 
ROOT
ATOM      1  C   LIG d   1       2.481  -0.181  -5.979  0.00  0.00     0.075 C 
ATOM      2  H   LIG d   1       1.547  -0.318  -6.523  0.00  0.00     0.041 H 
ATOM      3  H   LIG d   1       2.886  -1.154  -5.701  0.00  0.00     0.041 H 
ENDROOT
BRANCH   1   4
ATOM      4  C   LIG d   1       2.221   0.643  -4.716  0.00  0.00     0.090 C 
ATOM      5  H   LIG d   1       1.166   0.573  -4.448  0.00  0.00     0.065 H 
BRANCH   4   6
ATOM      6  C   LIG d   1       3.063   0.108  -3.586  0.00  0.00    -0.019 A 
ATOM      7  C   LIG d   1       3.748   0.981  -2.761  0.00  0.00    -0.056 A 
ATOM      8  C   LIG d   1       4.520   0.490  -1.726  0.00  0.00    -0.061 A 
ATOM      9  H   LIG d   1       3.679   2.046  -2.926  0.00  0.00     0.062 H 
ATOM     10  C   LIG d   1       4.608  -0.874  -1.514  0.00  0.00    -0.062 A 
ATOM     11  H   LIG d   1       5.055   1.171  -1.080  0.00  0.00     0.062 H 
ATOM     12  C   LIG d   1       3.922  -1.746  -2.340  0.00  0.00    -0.061 A 
ATOM     13  H   LIG d   1       5.211  -1.257  -0.705  0.00  0.00     0.062 H 
ATOM     14  C   LIG d   1       3.146  -1.255  -3.373  0.00  0.00    -0.056 A 
ATOM     15  H   LIG d   1       3.991  -2.811  -2.175  0.00  0.00     0.062 H 
ATOM     16  H   LIG d   1       2.608  -1.937  -4.014  0.00  0.00     0.062 H 
ENDBRANCH   4   6
BRANCH   4  17
ATOM     17  O   LIG d   1       2.561   2.009  -4.959  0.00  0.00    -0.387 OA
ATOM     18  H   LIG d   1       1.921   2.642  -4.608  0.00  0.00     0.210 HD
ENDBRANCH   4  17
ENDBRANCH   1   4
BRANCH   1  19
ATOM     19  C   LIG d   1       3.470   0.543  -6.856  0.00  0.00     0.315 C 
ATOM     20  O   LIG d   1       4.656   0.404  -6.670  0.00  0.00    -0.250 OA
BRANCH  19  21
ATOM     21  O   LIG d   1       3.035   1.341  -7.843  0.00  0.00    -0.426 OA
BRANCH  21  22
ATOM     22  C   LIG d   1       3.070   0.837  -9.105  0.00  0.00     0.132 A 
ATOM     23  C   LIG d   1       4.020   1.291 -10.009  0.00  0.00    -0.019 A 
ATOM     24  C   LIG d   1       4.056   0.774 -11.289  0.00  0.00    -0.058 A 
ATOM     25  H   LIG d   1       4.732   2.046  -9.710  0.00  0.00     0.065 H 
ATOM     26  C   LIG d   1       3.140  -0.187 -11.673  0.00  0.00    -0.061 A 
ATOM     27  H   LIG d   1       4.797   1.125 -11.991  0.00  0.00     0.062 H 
ATOM     28  C   LIG d   1       2.192  -0.641 -10.775  0.00  0.00    -0.058 A 
ATOM     29  H   LIG d   1       3.168  -0.587 -12.676  0.00  0.00     0.062 H 
ATOM     30  C   LIG d   1       2.155  -0.131  -9.492  0.00  0.00    -0.019 A 
ATOM     31  H   LIG d   1       1.480  -1.396 -11.077  0.00  0.00     0.062 H 
ATOM     32  H   LIG d   1       1.414  -0.486  -8.791  0.00  0.00     0.065 H 
ENDBRANCH  21  22
ENDBRANCH  19  21
ENDBRANCH   1  19
TORSDOF 6
ENDMDL
MODEL 3
REMARK VINA RESULT:      -5.5      2.279      4.995
REMARK  6 active torsions:
REMARK  status: ('A' for Active; 'I' for Inactive)
REMARK    1  A    between atoms: C_4  and  C_7 
REMARK    2  A    between atoms: C_7  and  C_9 
REMARK    3  A    between atoms: C_7  and  O_19 
REMARK    4  A    between atoms: C_9  and  C_10 
REMARK    5  A    between atoms: C_10  and  O_12 
REMARK    6  A    between atoms: O_12  and  C_13 
ROOT
ATOM      1  C   LIG d   1       5.292  -1.334  -6.444  0.00  0.00     0.075 C 
ATOM      2  H   LIG d   1       6.357  -1.437  -6.656  0.00  0.00     0.041 H 
ATOM      3  H   LIG d   1       5.044  -0.277  -6.340  0.00  0.00     0.041 H 
ENDROOT
BRANCH   1   4
ATOM      4  C   LIG d   1       4.957  -2.066  -5.143  0.00  0.00     0.090 C 
ATOM      5  H   LIG d   1       5.842  -2.591  -4.784  0.00  0.00     0.065 H 
BRANCH   4   6
ATOM      6  C   LIG d   1       4.509  -1.068  -4.107  0.00  0.00    -0.019 A 
ATOM      7  C   LIG d   1       3.677  -0.024  -4.466  0.00  0.00    -0.056 A 
ATOM      8  C   LIG d   1       3.267   0.891  -3.515  0.00  0.00    -0.061 A 
ATOM      9  H   LIG d   1       3.348   0.076  -5.489  0.00  0.00     0.062 H 
ATOM     10  C   LIG d   1       3.688   0.763  -2.204  0.00  0.00    -0.062 A 
ATOM     11  H   LIG d   1       2.617   1.707  -3.795  0.00  0.00     0.062 H 
ATOM     12  C   LIG d   1       4.520  -0.282  -1.846  0.00  0.00    -0.061 A 
ATOM     13  H   LIG d   1       3.367   1.477  -1.462  0.00  0.00     0.062 H 
ATOM     14  C   LIG d   1       4.926  -1.200  -2.796  0.00  0.00    -0.056 A 
ATOM     15  H   LIG d   1       4.849  -0.382  -0.822  0.00  0.00     0.062 H 
ATOM     16  H   LIG d   1       5.573  -2.018  -2.513  0.00  0.00     0.062 H 
ENDBRANCH   4   6
BRANCH   4  17
ATOM     17  O   LIG d   1       3.909  -3.008  -5.383  0.00  0.00    -0.387 OA
ATOM     18  H   LIG d   1       3.313  -3.132  -4.632  0.00  0.00     0.210 HD
ENDBRANCH   4  17
ENDBRANCH   1   4
BRANCH   1  19
ATOM     19  C   LIG d   1       4.495  -1.929  -7.576  0.00  0.00     0.315 C 
ATOM     20  O   LIG d   1       4.891  -2.925  -8.134  0.00  0.00    -0.250 OA
BRANCH  19  21
ATOM     21  O   LIG d   1       3.347  -1.354  -7.964  0.00  0.00    -0.426 OA
BRANCH  21  22
ATOM     22  C   LIG d   1       3.438  -0.143  -8.576  0.00  0.00     0.132 A 
ATOM     23  C   LIG d   1       2.919   0.987  -7.961  0.00  0.00    -0.019 A 
ATOM     24  C   LIG d   1       3.017   2.217  -8.583  0.00  0.00    -0.058 A 
ATOM     25  H   LIG d   1       2.441   0.905  -6.996  0.00  0.00     0.065 H 
ATOM     26  C   LIG d   1       3.623   2.320  -9.821  0.00  0.00    -0.061 A 
ATOM     27  H   LIG d   1       2.616   3.097  -8.102  0.00  0.00     0.062 H 
ATOM     28  C   LIG d   1       4.141   1.195 -10.436  0.00  0.00    -0.058 A 
ATOM     29  H   LIG d   1       3.695   3.282 -10.306  0.00  0.00     0.062 H 
ATOM     30  C   LIG d   1       4.049  -0.036  -9.816  0.00  0.00    -0.019 A 
ATOM     31  H   LIG d   1       4.617   1.280 -11.402  0.00  0.00     0.062 H 
ATOM     32  H   LIG d   1       4.454  -0.914 -10.298  0.00  0.00     0.065 H 
ENDBRANCH  21  22
ENDBRANCH  19  21
ENDBRANCH   1  19
TORSDOF 6
ENDMDL
MODEL 4
REMARK VINA RESULT:      -5.3      2.876      4.946
REMARK  6 active torsions:
REMARK  status: ('A' for Active; 'I' for Inactive)
REMARK    1  A    between atoms: C_4  and  C_7 
REMARK    2  A    between atoms: C_7  and  C_9 
REMARK    3  A    between atoms: C_7  and  O_19 
REMARK    4  A    between atoms: C_9  and  C_10 
REMARK    5  A    between atoms: C_10  and  O_12 
REMARK    6  A    between atoms: O_12  and  C_13 
ROOT
ATOM      1  C   LIG d   1       2.733  -0.074  -7.315  0.00  0.00     0.075 C 
ATOM      2  H   LIG d   1       3.134  -1.086  -7.387  0.00  0.00     0.041 H 
ATOM      3  H   LIG d   1       1.644  -0.112  -7.338  0.00  0.00     0.041 H 
ENDROOT
BRANCH   1   4
ATOM      4  C   LIG d   1       3.239   0.761  -8.493  0.00  0.00     0.090 C 
ATOM      5  H   LIG d   1       4.325   0.847  -8.438  0.00  0.00     0.065 H 
BRANCH   4   6
ATOM      6  C   LIG d   1       2.853   0.088  -9.786  0.00  0.00    -0.019 A 
ATOM      7  C   LIG d   1       3.733   0.083 -10.852  0.00  0.00    -0.056 A 
ATOM      8  C   LIG d   1       3.379  -0.533 -12.037  0.00  0.00    -0.061 A 
ATOM      9  H   LIG d   1       4.697   0.560 -10.759  0.00  0.00     0.062 H 
ATOM     10  C   LIG d   1       2.144  -1.144 -12.157  0.00  0.00    -0.062 A 
ATOM     11  H   LIG d   1       4.066  -0.537 -12.871  0.00  0.00     0.062 H 
ATOM     12  C   LIG d   1       1.264  -1.139 -11.090  0.00  0.00    -0.061 A 
ATOM     13  H   LIG d   1       1.867  -1.626 -13.083  0.00  0.00     0.062 H 
ATOM     14  C   LIG d   1       1.621  -0.526  -9.903  0.00  0.00    -0.056 A 
ATOM     15  H   LIG d   1       0.300  -1.616 -11.184  0.00  0.00     0.062 H 
ATOM     16  H   LIG d   1       0.935  -0.527  -9.069  0.00  0.00     0.062 H 
ENDBRANCH   4   6
BRANCH   4  17
ATOM     17  O   LIG d   1       2.654   2.063  -8.441  0.00  0.00    -0.387 OA
ATOM     18  H   LIG d   1       2.872   2.623  -9.198  0.00  0.00     0.210 HD
ENDBRANCH   4  17
ENDBRANCH   1   4
BRANCH   1  19
ATOM     19  C   LIG d   1       3.188   0.554  -6.023  0.00  0.00     0.315 C 
ATOM     20  O   LIG d   1       2.486   1.366  -5.467  0.00  0.00    -0.250 OA
BRANCH  19  21
ATOM     21  O   LIG d   1       4.370   0.212  -5.488  0.00  0.00    -0.426 OA
BRANCH  21  22
ATOM     22  C   LIG d   1       4.354  -0.300  -4.229  0.00  0.00     0.132 A 
ATOM     23  C   LIG d   1       4.635   0.518  -3.143  0.00  0.00    -0.019 A 
ATOM     24  C   LIG d   1       4.613  -0.004  -1.864  0.00  0.00    -0.058 A 
ATOM     25  H   LIG d   1       4.868   1.561  -3.299  0.00  0.00     0.065 H 
ATOM     26  C   LIG d   1       4.321  -1.340  -1.666  0.00  0.00    -0.061 A 
ATOM     27  H   LIG d   1       4.828   0.633  -1.019  0.00  0.00     0.062 H 
ATOM     28  C   LIG d   1       4.041  -2.157  -2.746  0.00  0.00    -0.058 A 
ATOM     29  H   LIG d   1       4.308  -1.746  -0.665  0.00  0.00     0.062 H 
ATOM     30  C   LIG d   1       4.057  -1.639  -4.027  0.00  0.00    -0.019 A 
ATOM     31  H   LIG d   1       3.809  -3.200  -2.588  0.00  0.00     0.062 H 
ATOM     32  H   LIG d   1       3.838  -2.278  -4.870  0.00  0.00     0.065 H 
ENDBRANCH  21  22
ENDBRANCH  19  21
ENDBRANCH   1  19
TORSDOF 6
ENDMDL
MODEL 5
REMARK VINA RESULT:      -5.3      2.408      4.321
REMARK  6 active torsions:
REMARK  status: ('A' for Active; 'I' for Inactive)
REMARK    1  A    between atoms: C_4  and  C_7 
REMARK    2  A    between atoms: C_7  and  C_9 
REMARK    3  A    between atoms: C_7  and  O_19 
REMARK    4  A    between atoms: C_9  and  C_10 
REMARK    5  A    between atoms: C_10  and  O_12 
REMARK    6  A    between atoms: O_12  and  C_13 
ROOT
ATOM      1  C   LIG d   1       6.335  -0.566  -6.679  0.00  0.00     0.075 C 
ATOM      2  H   LIG d   1       6.889  -1.470  -6.937  0.00  0.00     0.041 H 
ATOM      3  H   LIG d   1       5.276  -0.805  -6.582  0.00  0.00     0.041 H 
ENDROOT
BRANCH   1   4
ATOM      4  C   LIG d   1       6.524   0.480  -7.779  0.00  0.00     0.090 C 
ATOM      5  H   LIG d   1       7.056   0.033  -8.619  0.00  0.00     0.065 H 
BRANCH   4   6
ATOM      6  C   LIG d   1       5.175   0.970  -8.241  0.00  0.00    -0.019 A 
ATOM      7  C   LIG d   1       5.088   2.063  -9.083  0.00  0.00    -0.056 A 
ATOM      8  C   LIG d   1       3.851   2.511  -9.506  0.00  0.00    -0.061 A 
ATOM      9  H   LIG d   1       5.985   2.566  -9.410  0.00  0.00     0.062 H 
ATOM     10  C   LIG d   1       2.701   1.867  -9.088  0.00  0.00    -0.062 A 
ATOM     11  H   LIG d   1       3.781   3.366 -10.164  0.00  0.00     0.062 H 
ATOM     12  C   LIG d   1       2.789   0.774  -8.246  0.00  0.00    -0.061 A 
ATOM     13  H   LIG d   1       1.735   2.217  -9.419  0.00  0.00     0.062 H 
ATOM     14  C   LIG d   1       4.027   0.322  -7.827  0.00  0.00    -0.056 A 
ATOM     15  H   LIG d   1       1.891   0.270  -7.920  0.00  0.00     0.062 H 
ATOM     16  H   LIG d   1       4.094  -0.535  -7.173  0.00  0.00     0.062 H 
ENDBRANCH   4   6
BRANCH   4  17
ATOM     17  O   LIG d   1       7.279   1.579  -7.267  0.00  0.00    -0.387 OA
ATOM     18  H   LIG d   1       7.404   1.558  -6.308  0.00  0.00     0.210 HD
ENDBRANCH   4  17
ENDBRANCH   1   4
BRANCH   1  19
ATOM     19  C   LIG d   1       6.850  -0.020  -5.372  0.00  0.00     0.315 C 
ATOM     20  O   LIG d   1       8.003  -0.196  -5.057  0.00  0.00    -0.250 OA
BRANCH  19  21
ATOM     21  O   LIG d   1       6.028   0.662  -4.559  0.00  0.00    -0.426 OA
BRANCH  21  22
ATOM     22  C   LIG d   1       5.075  -0.053  -3.904  0.00  0.00     0.132 A 
ATOM     23  C   LIG d   1       5.442  -0.984  -2.943  0.00  0.00    -0.019 A 
ATOM     24  C   LIG d   1       4.471  -1.705  -2.275  0.00  0.00    -0.058 A 
ATOM     25  H   LIG d   1       6.486  -1.142  -2.715  0.00  0.00     0.065 H 
ATOM     26  C   LIG d   1       3.136  -1.506  -2.571  0.00  0.00    -0.061 A 
ATOM     27  H   LIG d   1       4.757  -2.427  -1.524  0.00  0.00     0.062 H 
ATOM     28  C   LIG d   1       2.767  -0.579  -3.528  0.00  0.00    -0.058 A 
ATOM     29  H   LIG d   1       2.379  -2.074  -2.049  0.00  0.00     0.062 H 
ATOM     30  C   LIG d   1       3.734   0.148  -4.195  0.00  0.00    -0.019 A 
ATOM     31  H   LIG d   1       1.722  -0.423  -3.753  0.00  0.00     0.062 H 
ATOM     32  H   LIG d   1       3.445   0.872  -4.942  0.00  0.00     0.065 H 
ENDBRANCH  21  22
ENDBRANCH  19  21
ENDBRANCH   1  19
TORSDOF 6
ENDMDL
MODEL 6
REMARK VINA RESULT:      -5.3      2.274      4.094
REMARK  6 active torsions:
REMARK  status: ('A' for Active; 'I' for Inactive)
REMARK    1  A    between atoms: C_4  and  C_7 
REMARK    2  A    between atoms: C_7  and  C_9 
REMARK    3  A    between atoms: C_7  and  O_19 
REMARK    4  A    between atoms: C_9  and  C_10 
REMARK    5  A    between atoms: C_10  and  O_12 
REMARK    6  A    between atoms: O_12  and  C_13 
ROOT
ATOM      1  C   LIG d   1       5.316  -1.343  -6.502  0.00  0.00     0.075 C 
ATOM      2  H   LIG d   1       5.790  -0.445  -6.104  0.00  0.00     0.041 H 
ATOM      3  H   LIG d   1       5.933  -1.756  -7.299  0.00  0.00     0.041 H 
ENDROOT
BRANCH   1   4
ATOM      4  C   LIG d   1       3.935  -0.988  -7.057  0.00  0.00     0.090 C 
ATOM      5  H   LIG d   1       3.234  -0.857  -6.232  0.00  0.00     0.065 H 
BRANCH   4   6
ATOM      6  C   LIG d   1       4.026   0.292  -7.847  0.00  0.00    -0.019 A 
ATOM      7  C   LIG d   1       5.232   0.679  -8.401  0.00  0.00    -0.056 A 
ATOM      8  C   LIG d   1       5.315   1.853  -9.125  0.00  0.00    -0.061 A 
ATOM      9  H   LIG d   1       6.109   0.064  -8.268  0.00  0.00     0.062 H 
ATOM     10  C   LIG d   1       4.192   2.642  -9.295  0.00  0.00    -0.062 A 
ATOM     11  H   LIG d   1       6.258   2.156  -9.558  0.00  0.00     0.062 H 
ATOM     12  C   LIG d   1       2.986   2.255  -8.741  0.00  0.00    -0.061 A 
ATOM     13  H   LIG d   1       4.257   3.559  -9.861  0.00  0.00     0.062 H 
ATOM     14  C   LIG d   1       2.902   1.078  -8.021  0.00  0.00    -0.056 A 
ATOM     15  H   LIG d   1       2.109   2.870  -8.875  0.00  0.00     0.062 H 
ATOM     16  H   LIG d   1       1.958   0.774  -7.593  0.00  0.00     0.062 H 
ENDBRANCH   4   6
BRANCH   4  17
ATOM     17  O   LIG d   1       3.478  -2.041  -7.907  0.00  0.00    -0.387 OA
ATOM     18  H   LIG d   1       3.962  -2.111  -8.741  0.00  0.00     0.210 HD
ENDBRANCH   4  17
ENDBRANCH   1   4
BRANCH   1  19
ATOM     19  C   LIG d   1       5.168  -2.362  -5.401  0.00  0.00     0.315 C 
ATOM     20  O   LIG d   1       4.653  -3.430  -5.633  0.00  0.00    -0.250 OA
BRANCH  19  21
ATOM     21  O   LIG d   1       5.608  -2.083  -4.164  0.00  0.00    -0.426 OA
BRANCH  21  22
ATOM     22  C   LIG d   1       5.024  -1.038  -3.521  0.00  0.00     0.132 A 
ATOM     23  C   LIG d   1       3.657  -1.044  -3.284  0.00  0.00    -0.019 A 
ATOM     24  C   LIG d   1       3.066   0.017  -2.626  0.00  0.00    -0.058 A 
ATOM     25  H   LIG d   1       3.056  -1.880  -3.612  0.00  0.00     0.065 H 
ATOM     26  C   LIG d   1       3.835   1.089  -2.213  0.00  0.00    -0.061 A 
ATOM     27  H   LIG d   1       2.003   0.010  -2.439  0.00  0.00     0.062 H 
ATOM     28  C   LIG d   1       5.197   1.098  -2.447  0.00  0.00    -0.058 A 
ATOM     29  H   LIG d   1       3.369   1.919  -1.701  0.00  0.00     0.062 H 
ATOM     30  C   LIG d   1       5.793   0.037  -3.101  0.00  0.00    -0.019 A 
ATOM     31  H   LIG d   1       5.795   1.936  -2.119  0.00  0.00     0.062 H 
ATOM     32  H   LIG d   1       6.858   0.045  -3.284  0.00  0.00     0.065 H 
ENDBRANCH  21  22
ENDBRANCH  19  21
ENDBRANCH   1  19
TORSDOF 6
ENDMDL
MODEL 7
REMARK VINA RESULT:      -5.2      1.857      4.564
REMARK  6 active torsions:
REMARK  status: ('A' for Active; 'I' for Inactive)
REMARK    1  A    between atoms: C_4  and  C_7 
REMARK    2  A    between atoms: C_7  and  C_9 
REMARK    3  A    between atoms: C_7  and  O_19 
REMARK    4  A    between atoms: C_9  and  C_10 
REMARK    5  A    between atoms: C_10  and  O_12 
REMARK    6  A    between atoms: O_12  and  C_13 
ROOT
ATOM      1  C   LIG d   1       2.227  -0.351  -4.160  0.00  0.00     0.075 C 
ATOM      2  H   LIG d   1       1.192  -0.119  -3.906  0.00  0.00     0.041 H 
ATOM      3  H   LIG d   1       2.262  -1.279  -4.731  0.00  0.00     0.041 H 
ENDROOT
BRANCH   1   4
ATOM      4  C   LIG d   1       3.045  -0.511  -2.877  0.00  0.00     0.090 C 
ATOM      5  H   LIG d   1       2.506  -1.156  -2.182  0.00  0.00     0.065 H 
BRANCH   4   6
ATOM      6  C   LIG d   1       4.378  -1.131  -3.207  0.00  0.00    -0.019 A 
ATOM      7  C   LIG d   1       5.548  -0.469  -2.884  0.00  0.00    -0.056 A 
ATOM      8  C   LIG d   1       6.770  -1.038  -3.187  0.00  0.00    -0.061 A 
ATOM      9  H   LIG d   1       5.506   0.493  -2.395  0.00  0.00     0.062 H 
ATOM     10  C   LIG d   1       6.824  -2.269  -3.814  0.00  0.00    -0.062 A 
ATOM     11  H   LIG d   1       7.685  -0.520  -2.935  0.00  0.00     0.062 H 
ATOM     12  C   LIG d   1       5.654  -2.931  -4.137  0.00  0.00    -0.061 A 
ATOM     13  H   LIG d   1       7.779  -2.714  -4.050  0.00  0.00     0.062 H 
ATOM     14  C   LIG d   1       4.432  -2.364  -3.829  0.00  0.00    -0.056 A 
ATOM     15  H   LIG d   1       5.696  -3.893  -4.626  0.00  0.00     0.062 H 
ATOM     16  H   LIG d   1       3.518  -2.885  -4.078  0.00  0.00     0.062 H 
ENDBRANCH   4   6
BRANCH   4  17
ATOM     17  O   LIG d   1       3.250   0.770  -2.279  0.00  0.00    -0.387 OA
ATOM     18  H   LIG d   1       2.479   1.110  -1.805  0.00  0.00     0.210 HD
ENDBRANCH   4  17
ENDBRANCH   1   4
BRANCH   1  19
ATOM     19  C   LIG d   1       2.803   0.770  -4.986  0.00  0.00     0.315 C 
ATOM     20  O   LIG d   1       2.447   1.908  -4.791  0.00  0.00    -0.250 OA
BRANCH  19  21
ATOM     21  O   LIG d   1       3.711   0.505  -5.938  0.00  0.00    -0.426 OA
BRANCH  21  22
ATOM     22  C   LIG d   1       3.252   0.373  -7.211  0.00  0.00     0.132 A 
ATOM     23  C   LIG d   1       3.001   1.501  -7.979  0.00  0.00    -0.019 A 
ATOM     24  C   LIG d   1       2.538   1.363  -9.274  0.00  0.00    -0.058 A 
ATOM     25  H   LIG d   1       3.170   2.484  -7.567  0.00  0.00     0.065 H 
ATOM     26  C   LIG d   1       2.316   0.104  -9.800  0.00  0.00    -0.061 A 
ATOM     27  H   LIG d   1       2.346   2.241  -9.874  0.00  0.00     0.062 H 
ATOM     28  C   LIG d   1       2.565  -1.021  -9.036  0.00  0.00    -0.058 A 
ATOM     29  H   LIG d   1       1.951   0.000 -10.811  0.00  0.00     0.062 H 
ATOM     30  C   LIG d   1       3.032  -0.889  -7.743  0.00  0.00    -0.019 A 
ATOM     31  H   LIG d   1       2.395  -2.003  -9.452  0.00  0.00     0.062 H 
ATOM     32  H   LIG d   1       3.227  -1.769  -7.147  0.00  0.00     0.065 H 
ENDBRANCH  21  22
ENDBRANCH  19  21
ENDBRANCH   1  19
TORSDOF 6
ENDMDL
MODEL 8
REMARK VINA RESULT:      -5.1      2.011      4.807
REMARK  6 active torsions:
REMARK  status: ('A' for Active; 'I' for Inactive)
REMARK    1  A    between atoms: C_4  and  C_7 
REMARK    2  A    between atoms: C_7  and  C_9 
REMARK    3  A    between atoms: C_7  and  O_19 
REMARK    4  A    between atoms: C_9  and  C_10 
REMARK    5  A    between atoms: C_10  and  O_12 
REMARK    6  A    between atoms: O_12  and  C_13 
ROOT
ATOM      1  C   LIG d   1       6.172  -2.599  -3.849  0.00  0.00     0.075 C 
ATOM      2  H   LIG d   1       6.518  -3.599  -3.589  0.00  0.00     0.041 H 
ATOM      3  H   LIG d   1       6.663  -1.866  -3.208  0.00  0.00     0.041 H 
ENDROOT
BRANCH   1   4
ATOM      4  C   LIG d   1       4.657  -2.515  -3.652  0.00  0.00     0.090 C 
ATOM      5  H   LIG d   1       4.351  -3.225  -2.884  0.00  0.00     0.065 H 
BRANCH   4   6
ATOM      6  C   LIG d   1       4.284  -1.119  -3.224  0.00  0.00    -0.019 A 
ATOM      7  C   LIG d   1       4.764  -0.609  -2.032  0.00  0.00    -0.056 A 
ATOM      8  C   LIG d   1       4.421   0.671  -1.640  0.00  0.00    -0.061 A 
ATOM      9  H   LIG d   1       5.408  -1.211  -1.408  0.00  0.00     0.062 H 
ATOM     10  C   LIG d   1       3.597   1.442  -2.438  0.00  0.00    -0.062 A 
ATOM     11  H   LIG d   1       4.797   1.070  -0.708  0.00  0.00     0.062 H 
ATOM     12  C   LIG d   1       3.116   0.932  -3.630  0.00  0.00    -0.061 A 
ATOM     13  H   LIG d   1       3.329   2.442  -2.132  0.00  0.00     0.062 H 
ATOM     14  C   LIG d   1       3.463  -0.347  -4.025  0.00  0.00    -0.056 A 
ATOM     15  H   LIG d   1       2.472   1.534  -4.254  0.00  0.00     0.062 H 
ATOM     16  H   LIG d   1       3.091  -0.743  -4.958  0.00  0.00     0.062 H 
ENDBRANCH   4   6
BRANCH   4  17
ATOM     17  O   LIG d   1       3.998  -2.828  -4.881  0.00  0.00    -0.387 OA
ATOM     18  H   LIG d   1       3.293  -2.210  -5.117  0.00  0.00     0.210 HD
ENDBRANCH   4  17
ENDBRANCH   1   4
BRANCH   1  19
ATOM     19  C   LIG d   1       6.508  -2.311  -5.290  0.00  0.00     0.315 C 
ATOM     20  O   LIG d   1       6.800  -3.217  -6.034  0.00  0.00    -0.250 OA
BRANCH  19  21
ATOM     21  O   LIG d   1       6.483  -1.049  -5.746  0.00  0.00    -0.426 OA
BRANCH  21  22
ATOM     22  C   LIG d   1       7.416  -0.194  -5.250  0.00  0.00     0.132 A 
ATOM     23  C   LIG d   1       7.034   0.833  -4.398  0.00  0.00    -0.019 A 
ATOM     24  C   LIG d   1       7.984   1.697  -3.891  0.00  0.00    -0.058 A 
ATOM     25  H   LIG d   1       5.995   0.954  -4.130  0.00  0.00     0.065 H 
ATOM     26  C   LIG d   1       9.314   1.546  -4.239  0.00  0.00    -0.061 A 
ATOM     27  H   LIG d   1       7.688   2.494  -3.226  0.00  0.00     0.062 H 
ATOM     28  C   LIG d   1       9.697   0.524  -5.088  0.00  0.00    -0.058 A 
ATOM     29  H   LIG d   1      10.054   2.226  -3.844  0.00  0.00     0.062 H 
ATOM     30  C   LIG d   1       8.751  -0.346  -5.593  0.00  0.00    -0.019 A 
ATOM     31  H   LIG d   1      10.737   0.406  -5.354  0.00  0.00     0.062 H 
ATOM     32  H   LIG d   1       9.052  -1.144  -6.256  0.00  0.00     0.065 H 
ENDBRANCH  21  22
ENDBRANCH  19  21
ENDBRANCH   1  19
TORSDOF 6
ENDMDL
MODEL 9
REMARK VINA RESULT:      -5.1      2.056      4.618
REMARK  6 active torsions:
REMARK  status: ('A' for Active; 'I' for Inactive)
REMARK    1  A    between atoms: C_4  and  C_7 
REMARK    2  A    between atoms: C_7  and  C_9 
REMARK    3  A    between atoms: C_7  and  O_19 
REMARK    4  A    between atoms: C_9  and  C_10 
REMARK    5  A    between atoms: C_10  and  O_12 
REMARK    6  A    between atoms: O_12  and  C_13 
ROOT
ATOM      1  C   LIG d   1       5.835  -3.278  -4.321  0.00  0.00     0.075 C 
ATOM      2  H   LIG d   1       5.126  -3.325  -3.494  0.00  0.00     0.041 H 
ATOM      3  H   LIG d   1       6.510  -4.133  -4.270  0.00  0.00     0.041 H 
ENDROOT
BRANCH   1   4
ATOM      4  C   LIG d   1       6.645  -1.984  -4.227  0.00  0.00     0.090 C 
ATOM      5  H   LIG d   1       6.793  -1.574  -5.227  0.00  0.00     0.065 H 
BRANCH   4   6
ATOM      6  C   LIG d   1       5.899  -0.986  -3.380  0.00  0.00    -0.019 A 
ATOM      7  C   LIG d   1       4.926  -1.418  -2.498  0.00  0.00    -0.056 A 
ATOM      8  C   LIG d   1       4.242  -0.502  -1.721  0.00  0.00    -0.061 A 
ATOM      9  H   LIG d   1       4.702  -2.470  -2.414  0.00  0.00     0.062 H 
ATOM     10  C   LIG d   1       4.529   0.847  -1.827  0.00  0.00    -0.062 A 
ATOM     11  H   LIG d   1       3.482  -0.839  -1.031  0.00  0.00     0.062 H 
ATOM     12  C   LIG d   1       5.502   1.278  -2.710  0.00  0.00    -0.061 A 
ATOM     13  H   LIG d   1       3.994   1.562  -1.220  0.00  0.00     0.062 H 
ATOM     14  C   LIG d   1       6.190   0.362  -3.483  0.00  0.00    -0.056 A 
ATOM     15  H   LIG d   1       5.726   2.332  -2.792  0.00  0.00     0.062 H 
ATOM     16  H   LIG d   1       6.952   0.700  -4.169  0.00  0.00     0.062 H 
ENDBRANCH   4   6
BRANCH   4  17
ATOM     17  O   LIG d   1       7.915  -2.258  -3.633  0.00  0.00    -0.387 OA
ATOM     18  H   LIG d   1       8.486  -1.482  -3.549  0.00  0.00     0.210 HD
ENDBRANCH   4  17
ENDBRANCH   1   4
BRANCH   1  19
ATOM     19  C   LIG d   1       5.084  -3.307  -5.628  0.00  0.00     0.315 C 
ATOM     20  O   LIG d   1       4.178  -4.090  -5.785  0.00  0.00    -0.250 OA
BRANCH  19  21
ATOM     21  O   LIG d   1       5.421  -2.464  -6.615  0.00  0.00    -0.426 OA
BRANCH  21  22
ATOM     22  C   LIG d   1       4.428  -1.698  -7.140  0.00  0.00     0.132 A 
ATOM     23  C   LIG d   1       3.961  -0.593  -6.443  0.00  0.00    -0.019 A 
ATOM     24  C   LIG d   1       2.955   0.186  -6.981  0.00  0.00    -0.058 A 
ATOM     25  H   LIG d   1       4.386  -0.341  -5.482  0.00  0.00     0.065 H 
ATOM     26  C   LIG d   1       2.407  -0.141  -8.207  0.00  0.00    -0.061 A 
ATOM     27  H   LIG d   1       2.593   1.048  -6.440  0.00  0.00     0.062 H 
ATOM     28  C   LIG d   1       2.870  -1.241  -8.903  0.00  0.00    -0.058 A 
ATOM     29  H   LIG d   1       1.618   0.468  -8.623  0.00  0.00     0.062 H 
ATOM     30  C   LIG d   1       3.880  -2.021  -8.372  0.00  0.00    -0.019 A 
ATOM     31  H   LIG d   1       2.443  -1.491  -9.864  0.00  0.00     0.062 H 
ATOM     32  H   LIG d   1       4.241  -2.880  -8.917  0.00  0.00     0.065 H 
ENDBRANCH  21  22
ENDBRANCH  19  21
ENDBRANCH   1  19
TORSDOF 6
ENDMDL
