MODEL 1
REMARK VINA RESULT:      -5.7      0.000      0.000
REMARK  3 active torsions:
REMARK  status: ('A' for Active; 'I' for Inactive)
REMARK    1  A    between atoms: C_1  and  C_2 
REMARK    2  A    between atoms: C_2  and  C_3 
REMARK    3  A    between atoms: C_3  and  C_11 
ROOT
ATOM      1  C   LIG d   1       5.300  -1.809  -4.414  0.00  0.00     0.072 C 
ATOM      2  C   LIG d   1       5.277  -1.504  -5.916  0.00  0.00    -0.027 C 
ATOM      3  C   LIG d   1       5.766  -2.743  -6.673  0.00  0.00     0.026 C 
ATOM      4  C   LIG d   1       4.920  -3.926  -6.284  0.00  0.00     0.219 C 
ATOM      5  O   LIG d   1       4.754  -4.826  -7.080  0.00  0.00    -0.275 OA
ATOM      6  N   LIG d   1       4.347  -4.005  -5.073  0.00  0.00    -0.256 N 
ATOM      7  C   LIG d   1       4.479  -3.044  -4.148  0.00  0.00     0.230 C 
ATOM      8  O   LIG d   1       3.927  -3.170  -3.076  0.00  0.00    -0.274 OA
ATOM      9  H   LIG d   1       4.260  -1.264  -6.224  0.00  0.00     0.028 H 
ATOM     10  H   LIG d   1       5.935  -0.661  -6.128  0.00  0.00     0.028 H 
ATOM     11  H   LIG d   1       5.681  -2.571  -7.746  0.00  0.00     0.036 H 
ATOM     12  H   LIG d   1       6.807  -2.939  -6.416  0.00  0.00     0.036 H 
ATOM     13  H   LIG d   1       3.816  -4.788  -4.860  0.00  0.00     0.158 HD
ENDROOT
BRANCH   1  14
ATOM     14  C   LIG d   1       6.742  -2.048  -3.963  0.00  0.00    -0.038 C 
ATOM     15  H   LIG d   1       7.087  -3.011  -4.340  0.00  0.00     0.028 H 
ATOM     16  H   LIG d   1       6.787  -2.047  -2.874  0.00  0.00     0.028 H 
BRANCH  14  17
ATOM     17  C   LIG d   1       7.639  -0.936  -4.512  0.00  0.00    -0.064 C 
ATOM     18  H   LIG d   1       8.390  -0.673  -3.767  0.00  0.00     0.023 H 
ATOM     19  H   LIG d   1       8.135  -1.285  -5.419  0.00  0.00     0.023 H 
ATOM     20  H   LIG d   1       7.034  -0.060  -4.743  0.00  0.00     0.023 H 
ENDBRANCH  14  17
ENDBRANCH   1  14
BRANCH   1  21
ATOM     21  C   LIG d   1       4.720  -0.645  -3.653  0.00  0.00    -0.032 A 
ATOM     22  C   LIG d   1       3.727   0.128  -4.227  0.00  0.00    -0.058 A 
ATOM     23  C   LIG d   1       3.191   1.194  -3.528  0.00  0.00    -0.061 A 
ATOM     24  H   LIG d   1       3.368  -0.102  -5.218  0.00  0.00     0.062 H 
ATOM     25  C   LIG d   1       3.655   1.492  -2.259  0.00  0.00    -0.062 A 
ATOM     26  H   LIG d   1       2.413   1.795  -3.973  0.00  0.00     0.062 H 
ATOM     27  C   LIG d   1       4.651   0.722  -1.689  0.00  0.00    -0.061 A 
ATOM     28  H   LIG d   1       3.239   2.327  -1.715  0.00  0.00     0.062 H 
ATOM     29  C   LIG d   1       5.183  -0.346  -2.386  0.00  0.00    -0.058 A 
ATOM     30  H   LIG d   1       5.013   0.955  -0.699  0.00  0.00     0.062 H 
ATOM     31  H   LIG d   1       5.962  -0.948  -1.940  0.00  0.00     0.062 H 
ENDBRANCH   1  21
TORSDOF 3
ENDMDL
MODEL 2
REMARK VINA RESULT:      -5.6      2.561      3.490
REMARK  3 active torsions:
REMARK  status: ('A' for Active; 'I' for Inactive)
REMARK    1  A    between atoms: C_1  and  C_2 
REMARK    2  A    between atoms: C_2  and  C_3 
REMARK    3  A    between atoms: C_3  and  C_11 
ROOT
ATOM      1  C   LIG d   1       6.205  -1.282  -4.422  0.00  0.00     0.072 C 
ATOM      2  C   LIG d   1       7.051  -2.018  -3.376  0.00  0.00    -0.027 C 
ATOM      3  C   LIG d   1       8.125  -2.832  -4.104  0.00  0.00     0.026 C 
ATOM      4  C   LIG d   1       8.924  -1.917  -4.992  0.00  0.00     0.219 C 
ATOM      5  O   LIG d   1      10.083  -2.183  -5.233  0.00  0.00    -0.275 OA
ATOM      6  N   LIG d   1       8.379  -0.812  -5.524  0.00  0.00    -0.256 N 
ATOM      7  C   LIG d   1       7.109  -0.451  -5.294  0.00  0.00     0.230 C 
ATOM      8  O   LIG d   1       6.678   0.565  -5.796  0.00  0.00    -0.274 OA
ATOM      9  H   LIG d   1       7.526  -1.293  -2.716  0.00  0.00     0.028 H 
ATOM     10  H   LIG d   1       6.415  -2.684  -2.795  0.00  0.00     0.028 H 
ATOM     11  H   LIG d   1       8.786  -3.299  -3.373  0.00  0.00     0.036 H 
ATOM     12  H   LIG d   1       7.648  -3.604  -4.710  0.00  0.00     0.036 H 
ATOM     13  H   LIG d   1       8.926  -0.253  -6.098  0.00  0.00     0.158 HD
ENDROOT
BRANCH   1  14
ATOM     14  C   LIG d   1       5.460  -2.302  -5.285  0.00  0.00    -0.038 C 
ATOM     15  H   LIG d   1       6.165  -2.802  -5.949  0.00  0.00     0.028 H 
ATOM     16  H   LIG d   1       4.701  -1.791  -5.878  0.00  0.00     0.028 H 
BRANCH  14  17
ATOM     17  C   LIG d   1       4.788  -3.340  -4.383  0.00  0.00    -0.064 C 
ATOM     18  H   LIG d   1       3.996  -3.844  -4.936  0.00  0.00     0.023 H 
ATOM     19  H   LIG d   1       5.528  -4.074  -4.061  0.00  0.00     0.023 H 
ATOM     20  H   LIG d   1       4.364  -2.845  -3.510  0.00  0.00     0.023 H 
ENDBRANCH  14  17
ENDBRANCH   1  14
BRANCH   1  21
ATOM     21  C   LIG d   1       5.211  -0.387  -3.728  0.00  0.00    -0.032 A 
ATOM     22  C   LIG d   1       5.494   0.115  -2.471  0.00  0.00    -0.058 A 
ATOM     23  C   LIG d   1       4.585   0.940  -1.836  0.00  0.00    -0.061 A 
ATOM     24  H   LIG d   1       6.427  -0.134  -1.988  0.00  0.00     0.062 H 
ATOM     25  C   LIG d   1       3.388   1.255  -2.453  0.00  0.00    -0.062 A 
ATOM     26  H   LIG d   1       4.808   1.336  -0.856  0.00  0.00     0.062 H 
ATOM     27  C   LIG d   1       3.103   0.748  -3.707  0.00  0.00    -0.061 A 
ATOM     28  H   LIG d   1       2.676   1.896  -1.955  0.00  0.00     0.062 H 
ATOM     29  C   LIG d   1       4.015  -0.073  -4.344  0.00  0.00    -0.058 A 
ATOM     30  H   LIG d   1       2.169   0.994  -4.189  0.00  0.00     0.062 H 
ATOM     31  H   LIG d   1       3.792  -0.468  -5.324  0.00  0.00     0.062 H 
ENDBRANCH   1  21
TORSDOF 3
ENDMDL
MODEL 3
REMARK VINA RESULT:      -5.5      2.318      4.883
REMARK  3 active torsions:
REMARK  status: ('A' for Active; 'I' for Inactive)
REMARK    1  A    between atoms: C_1  and  C_2 
REMARK    2  A    between atoms: C_2  and  C_3 
REMARK    3  A    between atoms: C_3  and  C_11 
ROOT
ATOM      1  C   LIG d   1       5.597  -1.269  -3.579  0.00  0.00     0.072 C 
ATOM      2  C   LIG d   1       4.751  -1.522  -2.326  0.00  0.00    -0.027 C 
ATOM      3  C   LIG d   1       4.494  -0.181  -1.632  0.00  0.00     0.026 C 
ATOM      4  C   LIG d   1       3.856   0.768  -2.610  0.00  0.00     0.219 C 
ATOM      5  O   LIG d   1       3.111   1.634  -2.200  0.00  0.00    -0.275 OA
ATOM      6  N   LIG d   1       4.095   0.677  -3.927  0.00  0.00    -0.256 N 
ATOM      7  C   LIG d   1       4.898  -0.260  -4.452  0.00  0.00     0.230 C 
ATOM      8  O   LIG d   1       5.066  -0.296  -5.652  0.00  0.00    -0.274 OA
ATOM      9  H   LIG d   1       3.802  -1.974  -2.612  0.00  0.00     0.028 H 
ATOM     10  H   LIG d   1       5.288  -2.188  -1.651  0.00  0.00     0.028 H 
ATOM     11  H   LIG d   1       3.828  -0.332  -0.783  0.00  0.00     0.036 H 
ATOM     12  H   LIG d   1       5.440   0.236  -1.284  0.00  0.00     0.036 H 
ATOM     13  H   LIG d   1       3.670   1.313  -4.523  0.00  0.00     0.158 HD
ENDROOT
BRANCH   1  14
ATOM     14  C   LIG d   1       6.968  -0.728  -3.169  0.00  0.00    -0.038 C 
ATOM     15  H   LIG d   1       7.732  -1.478  -3.373  0.00  0.00     0.028 H 
ATOM     16  H   LIG d   1       6.963  -0.495  -2.104  0.00  0.00     0.028 H 
BRANCH  14  17
ATOM     17  C   LIG d   1       7.276   0.541  -3.967  0.00  0.00    -0.064 C 
ATOM     18  H   LIG d   1       7.120   0.350  -5.029  0.00  0.00     0.023 H 
ATOM     19  H   LIG d   1       6.613   1.344  -3.642  0.00  0.00     0.023 H 
ATOM     20  H   LIG d   1       8.311   0.835  -3.798  0.00  0.00     0.023 H 
ENDBRANCH  14  17
ENDBRANCH   1  14
BRANCH   1  21
ATOM     21  C   LIG d   1       5.771  -2.558  -4.339  0.00  0.00    -0.032 A 
ATOM     22  C   LIG d   1       4.673  -3.351  -4.614  0.00  0.00    -0.058 A 
ATOM     23  C   LIG d   1       4.831  -4.532  -5.316  0.00  0.00    -0.061 A 
ATOM     24  H   LIG d   1       3.690  -3.047  -4.285  0.00  0.00     0.062 H 
ATOM     25  C   LIG d   1       6.089  -4.925  -5.734  0.00  0.00    -0.062 A 
ATOM     26  H   LIG d   1       3.973  -5.149  -5.535  0.00  0.00     0.062 H 
ATOM     27  C   LIG d   1       7.188  -4.134  -5.453  0.00  0.00    -0.061 A 
ATOM     28  H   LIG d   1       6.214  -5.848  -6.278  0.00  0.00     0.062 H 
ATOM     29  C   LIG d   1       7.029  -2.951  -4.756  0.00  0.00    -0.058 A 
ATOM     30  H   LIG d   1       8.171  -4.440  -5.779  0.00  0.00     0.062 H 
ATOM     31  H   LIG d   1       7.888  -2.333  -4.537  0.00  0.00     0.062 H 
ENDBRANCH   1  21
TORSDOF 3
ENDMDL
MODEL 4
REMARK VINA RESULT:      -5.5      2.811      4.869
REMARK  3 active torsions:
REMARK  status: ('A' for Active; 'I' for Inactive)
REMARK    1  A    between atoms: C_1  and  C_2 
REMARK    2  A    between atoms: C_2  and  C_3 
REMARK    3  A    between atoms: C_3  and  C_11 
ROOT
ATOM      1  C   LIG d   1       4.233  -0.813  -4.661  0.00  0.00     0.072 C 
ATOM      2  C   LIG d   1       3.024  -0.363  -3.833  0.00  0.00    -0.027 C 
ATOM      3  C   LIG d   1       3.454  -0.243  -2.368  0.00  0.00     0.026 C 
ATOM      4  C   LIG d   1       4.633   0.689  -2.273  0.00  0.00     0.219 C 
ATOM      5  O   LIG d   1       4.802   1.333  -1.258  0.00  0.00    -0.275 OA
ATOM      6  N   LIG d   1       5.500   0.822  -3.288  0.00  0.00    -0.256 N 
ATOM      7  C   LIG d   1       5.370   0.151  -4.441  0.00  0.00     0.230 C 
ATOM      8  O   LIG d   1       6.182   0.322  -5.324  0.00  0.00    -0.274 OA
ATOM      9  H   LIG d   1       2.675   0.605  -4.193  0.00  0.00     0.028 H 
ATOM     10  H   LIG d   1       2.226  -1.098  -3.922  0.00  0.00     0.028 H 
ATOM     11  H   LIG d   1       2.628   0.153  -1.777  0.00  0.00     0.036 H 
ATOM     12  H   LIG d   1       3.736  -1.226  -1.989  0.00  0.00     0.036 H 
ATOM     13  H   LIG d   1       6.251   1.427  -3.183  0.00  0.00     0.158 HD
ENDROOT
BRANCH   1  14
ATOM     14  C   LIG d   1       4.659  -2.215  -4.222  0.00  0.00    -0.038 C 
ATOM     15  H   LIG d   1       4.446  -2.927  -5.020  0.00  0.00     0.028 H 
ATOM     16  H   LIG d   1       4.108  -2.498  -3.325  0.00  0.00     0.028 H 
BRANCH  14  17
ATOM     17  C   LIG d   1       6.160  -2.222  -3.923  0.00  0.00    -0.064 C 
ATOM     18  H   LIG d   1       6.337  -2.700  -2.959  0.00  0.00     0.023 H 
ATOM     19  H   LIG d   1       6.683  -2.777  -4.704  0.00  0.00     0.023 H 
ATOM     20  H   LIG d   1       6.531  -1.198  -3.895  0.00  0.00     0.023 H 
ENDBRANCH  14  17
ENDBRANCH   1  14
BRANCH   1  21
ATOM     21  C   LIG d   1       3.865  -0.832  -6.123  0.00  0.00    -0.032 A 
ATOM     22  C   LIG d   1       3.034   0.145  -6.638  0.00  0.00    -0.058 A 
ATOM     23  C   LIG d   1       2.699   0.130  -7.979  0.00  0.00    -0.061 A 
ATOM     24  H   LIG d   1       2.649   0.922  -5.994  0.00  0.00     0.062 H 
ATOM     25  C   LIG d   1       3.188  -0.867  -8.803  0.00  0.00    -0.062 A 
ATOM     26  H   LIG d   1       2.054   0.896  -8.383  0.00  0.00     0.062 H 
ATOM     27  C   LIG d   1       4.015  -1.847  -8.286  0.00  0.00    -0.061 A 
ATOM     28  H   LIG d   1       2.924  -0.881  -9.850  0.00  0.00     0.062 H 
ATOM     29  C   LIG d   1       4.353  -1.829  -6.946  0.00  0.00    -0.058 A 
ATOM     30  H   LIG d   1       4.397  -2.626  -8.928  0.00  0.00     0.062 H 
ATOM     31  H   LIG d   1       4.999  -2.595  -6.542  0.00  0.00     0.062 H 
ENDBRANCH   1  21
TORSDOF 3
ENDMDL
MODEL 5
REMARK VINA RESULT:      -5.4      2.394      4.677
REMARK  3 active torsions:
REMARK  status: ('A' for Active; 'I' for Inactive)
REMARK    1  A    between atoms: C_1  and  C_2 
REMARK    2  A    between atoms: C_2  and  C_3 
REMARK    3  A    between atoms: C_3  and  C_11 
ROOT
ATOM      1  C   LIG d   1       5.287  -1.332  -3.802  0.00  0.00     0.072 C 
ATOM      2  C   LIG d   1       3.954  -1.968  -3.391  0.00  0.00    -0.027 C 
ATOM      3  C   LIG d   1       2.912  -0.857  -3.230  0.00  0.00     0.026 C 
ATOM      4  C   LIG d   1       2.835  -0.063  -4.507  0.00  0.00     0.219 C 
ATOM      5  O   LIG d   1       1.791   0.474  -4.811  0.00  0.00    -0.275 OA
ATOM      6  N   LIG d   1       3.898   0.062  -5.315  0.00  0.00    -0.256 N 
ATOM      7  C   LIG d   1       5.080  -0.512  -5.048  0.00  0.00     0.230 C 
ATOM      8  O   LIG d   1       6.000  -0.370  -5.824  0.00  0.00    -0.274 OA
ATOM      9  H   LIG d   1       3.629  -2.666  -4.162  0.00  0.00     0.028 H 
ATOM     10  H   LIG d   1       4.076  -2.496  -2.445  0.00  0.00     0.028 H 
ATOM     11  H   LIG d   1       1.939  -1.298  -3.016  0.00  0.00     0.036 H 
ATOM     12  H   LIG d   1       3.204  -0.200  -2.410  0.00  0.00     0.036 H 
ATOM     13  H   LIG d   1       3.809   0.589  -6.125  0.00  0.00     0.158 HD
ENDROOT
BRANCH   1  14
ATOM     14  C   LIG d   1       5.791  -0.430  -2.674  0.00  0.00    -0.038 C 
ATOM     15  H   LIG d   1       6.639  -0.905  -2.180  0.00  0.00     0.028 H 
ATOM     16  H   LIG d   1       4.991  -0.271  -1.950  0.00  0.00     0.028 H 
BRANCH  14  17
ATOM     17  C   LIG d   1       6.229   0.917  -3.255  0.00  0.00    -0.064 C 
ATOM     18  H   LIG d   1       5.623   1.713  -2.824  0.00  0.00     0.023 H 
ATOM     19  H   LIG d   1       7.279   1.091  -3.015  0.00  0.00     0.023 H 
ATOM     20  H   LIG d   1       6.101   0.906  -4.336  0.00  0.00     0.023 H 
ENDBRANCH  14  17
ENDBRANCH   1  14
BRANCH   1  21
ATOM     21  C   LIG d   1       6.300  -2.415  -4.072  0.00  0.00    -0.032 A 
ATOM     22  C   LIG d   1       7.551  -2.350  -3.488  0.00  0.00    -0.058 A 
ATOM     23  C   LIG d   1       8.480  -3.345  -3.732  0.00  0.00    -0.061 A 
ATOM     24  H   LIG d   1       7.802  -1.526  -2.838  0.00  0.00     0.062 H 
ATOM     25  C   LIG d   1       8.160  -4.399  -4.568  0.00  0.00    -0.062 A 
ATOM     26  H   LIG d   1       9.455  -3.298  -3.273  0.00  0.00     0.062 H 
ATOM     27  C   LIG d   1       6.910  -4.460  -5.156  0.00  0.00    -0.061 A 
ATOM     28  H   LIG d   1       8.886  -5.174  -4.762  0.00  0.00     0.062 H 
ATOM     29  C   LIG d   1       5.981  -3.468  -4.908  0.00  0.00    -0.058 A 
ATOM     30  H   LIG d   1       6.660  -5.283  -5.809  0.00  0.00     0.062 H 
ATOM     31  H   LIG d   1       5.004  -3.515  -5.368  0.00  0.00     0.062 H 
ENDBRANCH   1  21
TORSDOF 3
ENDMDL
MODEL 6
REMARK VINA RESULT:      -5.3      1.944      2.465
REMARK  3 active torsions:
REMARK  status: ('A' for Active; 'I' for Inactive)
REMARK    1  A    between atoms: C_1  and  C_2 
REMARK    2  A    between atoms: C_2  and  C_3 
REMARK    3  A    between atoms: C_3  and  C_11 
ROOT
ATOM      1  C   LIG d   1       5.808  -2.218  -4.713  0.00  0.00     0.072 C 
ATOM      2  C   LIG d   1       4.806  -3.379  -4.691  0.00  0.00    -0.027 C 
ATOM      3  C   LIG d   1       5.282  -4.453  -5.674  0.00  0.00     0.026 C 
ATOM      4  C   LIG d   1       6.687  -4.860  -5.320  0.00  0.00     0.219 C 
ATOM      5  O   LIG d   1       7.062  -5.986  -5.574  0.00  0.00    -0.275 OA
ATOM      6  N   LIG d   1       7.533  -4.003  -4.730  0.00  0.00    -0.256 N 
ATOM      7  C   LIG d   1       7.185  -2.748  -4.411  0.00  0.00     0.230 C 
ATOM      8  O   LIG d   1       7.993  -2.025  -3.870  0.00  0.00    -0.274 OA
ATOM      9  H   LIG d   1       4.756  -3.798  -3.687  0.00  0.00     0.028 H 
ATOM     10  H   LIG d   1       3.822  -3.018  -4.989  0.00  0.00     0.028 H 
ATOM     11  H   LIG d   1       4.624  -5.320  -5.613  0.00  0.00     0.036 H 
ATOM     12  H   LIG d   1       5.263  -4.052  -6.688  0.00  0.00     0.036 H 
ATOM     13  H   LIG d   1       8.433  -4.303  -4.525  0.00  0.00     0.158 HD
ENDROOT
BRANCH   1  14
ATOM     14  C   LIG d   1       5.803  -1.566  -6.097  0.00  0.00    -0.038 C 
ATOM     15  H   LIG d   1       6.207  -2.265  -6.830  0.00  0.00     0.028 H 
ATOM     16  H   LIG d   1       6.417  -0.666  -6.077  0.00  0.00     0.028 H 
BRANCH  14  17
ATOM     17  C   LIG d   1       4.368  -1.198  -6.484  0.00  0.00    -0.064 C 
ATOM     18  H   LIG d   1       3.789  -0.996  -5.583  0.00  0.00     0.023 H 
ATOM     19  H   LIG d   1       4.380  -0.309  -7.115  0.00  0.00     0.023 H 
ATOM     20  H   LIG d   1       3.915  -2.025  -7.030  0.00  0.00     0.023 H 
ENDBRANCH  14  17
ENDBRANCH   1  14
BRANCH   1  21
ATOM     21  C   LIG d   1       5.421  -1.198  -3.674  0.00  0.00    -0.032 A 
ATOM     22  C   LIG d   1       5.835   0.114  -3.808  0.00  0.00    -0.058 A 
ATOM     23  C   LIG d   1       5.476   1.053  -2.858  0.00  0.00    -0.061 A 
ATOM     24  H   LIG d   1       6.435   0.408  -4.656  0.00  0.00     0.062 H 
ATOM     25  C   LIG d   1       4.712   0.676  -1.769  0.00  0.00    -0.062 A 
ATOM     26  H   LIG d   1       5.796   2.078  -2.964  0.00  0.00     0.062 H 
ATOM     27  C   LIG d   1       4.302  -0.637  -1.633  0.00  0.00    -0.061 A 
ATOM     28  H   LIG d   1       4.435   1.407  -1.025  0.00  0.00     0.062 H 
ATOM     29  C   LIG d   1       4.657  -1.574  -2.586  0.00  0.00    -0.058 A 
ATOM     30  H   LIG d   1       3.706  -0.932  -0.783  0.00  0.00     0.062 H 
ATOM     31  H   LIG d   1       4.337  -2.600  -2.480  0.00  0.00     0.062 H 
ENDBRANCH   1  21
TORSDOF 3
ENDMDL
MODEL 7
REMARK VINA RESULT:      -5.0      1.812      2.316
REMARK  3 active torsions:
REMARK  status: ('A' for Active; 'I' for Inactive)
REMARK    1  A    between atoms: C_1  and  C_2 
REMARK    2  A    between atoms: C_2  and  C_3 
REMARK    3  A    between atoms: C_3  and  C_11 
ROOT
ATOM      1  C   LIG d   1       4.711  -0.750  -5.923  0.00  0.00     0.072 C 
ATOM      2  C   LIG d   1       3.583  -0.199  -6.803  0.00  0.00    -0.027 C 
ATOM      3  C   LIG d   1       3.705  -0.819  -8.198  0.00  0.00     0.026 C 
ATOM      4  C   LIG d   1       3.697  -2.319  -8.075  0.00  0.00     0.219 C 
ATOM      5  O   LIG d   1       3.262  -2.989  -8.988  0.00  0.00    -0.275 OA
ATOM      6  N   LIG d   1       4.163  -2.931  -6.975  0.00  0.00    -0.256 N 
ATOM      7  C   LIG d   1       4.649  -2.254  -5.924  0.00  0.00     0.230 C 
ATOM      8  O   LIG d   1       5.046  -2.865  -4.955  0.00  0.00    -0.274 OA
ATOM      9  H   LIG d   1       2.619  -0.462  -6.367  0.00  0.00     0.028 H 
ATOM     10  H   LIG d   1       3.671   0.885  -6.874  0.00  0.00     0.028 H 
ATOM     11  H   LIG d   1       2.864  -0.499  -8.813  0.00  0.00     0.036 H 
ATOM     12  H   LIG d   1       4.638  -0.496  -8.660  0.00  0.00     0.036 H 
ATOM     13  H   LIG d   1       4.148  -3.900  -6.939  0.00  0.00     0.158 HD
ENDROOT
BRANCH   1  14
ATOM     14  C   LIG d   1       6.061  -0.294  -6.480  0.00  0.00    -0.038 C 
ATOM     15  H   LIG d   1       6.495   0.455  -5.816  0.00  0.00     0.028 H 
ATOM     16  H   LIG d   1       5.919   0.138  -7.471  0.00  0.00     0.028 H 
BRANCH  14  17
ATOM     17  C   LIG d   1       7.006  -1.494  -6.577  0.00  0.00    -0.064 C 
ATOM     18  H   LIG d   1       7.708  -1.473  -5.744  0.00  0.00     0.023 H 
ATOM     19  H   LIG d   1       6.425  -2.417  -6.538  0.00  0.00     0.023 H 
ATOM     20  H   LIG d   1       7.554  -1.451  -7.518  0.00  0.00     0.023 H 
ENDBRANCH  14  17
ENDBRANCH   1  14
BRANCH   1  21
ATOM     21  C   LIG d   1       4.549  -0.239  -4.515  0.00  0.00    -0.032 A 
ATOM     22  C   LIG d   1       5.644   0.250  -3.827  0.00  0.00    -0.058 A 
ATOM     23  C   LIG d   1       5.495   0.723  -2.537  0.00  0.00    -0.061 A 
ATOM     24  H   LIG d   1       6.615   0.266  -4.299  0.00  0.00     0.062 H 
ATOM     25  C   LIG d   1       4.253   0.698  -1.930  0.00  0.00    -0.062 A 
ATOM     26  H   LIG d   1       6.349   1.109  -2.001  0.00  0.00     0.062 H 
ATOM     27  C   LIG d   1       3.159   0.204  -2.617  0.00  0.00    -0.061 A 
ATOM     28  H   LIG d   1       4.137   1.064  -0.922  0.00  0.00     0.062 H 
ATOM     29  C   LIG d   1       3.308  -0.264  -3.909  0.00  0.00    -0.058 A 
ATOM     30  H   LIG d   1       2.189   0.185  -2.144  0.00  0.00     0.062 H 
ATOM     31  H   LIG d   1       2.453  -0.650  -4.445  0.00  0.00     0.062 H 
ENDBRANCH   1  21
TORSDOF 3
ENDMDL
MODEL 8
REMARK VINA RESULT:      -4.8      3.121      4.636
REMARK  3 active torsions:
REMARK  status: ('A' for Active; 'I' for Inactive)
REMARK    1  A    between atoms: C_1  and  C_2 
REMARK    2  A    between atoms: C_2  and  C_3 
REMARK    3  A    between atoms: C_3  and  C_11 
ROOT
ATOM      1  C   LIG d   1       4.439  -0.727  -6.503  0.00  0.00     0.072 C 
ATOM      2  C   LIG d   1       4.498  -2.259  -6.521  0.00  0.00    -0.027 C 
ATOM      3  C   LIG d   1       5.014  -2.745  -5.163  0.00  0.00     0.026 C 
ATOM      4  C   LIG d   1       4.139  -2.186  -4.073  0.00  0.00     0.219 C 
ATOM      5  O   LIG d   1       4.007  -2.808  -3.040  0.00  0.00    -0.275 OA
ATOM      6  N   LIG d   1       3.503  -1.014  -4.221  0.00  0.00    -0.256 N 
ATOM      7  C   LIG d   1       3.596  -0.279  -5.338  0.00  0.00     0.230 C 
ATOM      8  O   LIG d   1       2.988   0.767  -5.415  0.00  0.00    -0.274 OA
ATOM      9  H   LIG d   1       3.500  -2.660  -6.698  0.00  0.00     0.028 H 
ATOM     10  H   LIG d   1       5.173  -2.590  -7.310  0.00  0.00     0.028 H 
ATOM     11  H   LIG d   1       4.987  -3.834  -5.131  0.00  0.00     0.036 H 
ATOM     12  H   LIG d   1       6.039  -2.401  -5.020  0.00  0.00     0.036 H 
ATOM     13  H   LIG d   1       2.955  -0.686  -3.491  0.00  0.00     0.158 HD
ENDROOT
BRANCH   1  14
ATOM     14  C   LIG d   1       5.854  -0.165  -6.355  0.00  0.00    -0.038 C 
ATOM     15  H   LIG d   1       6.221  -0.361  -5.346  0.00  0.00     0.028 H 
ATOM     16  H   LIG d   1       5.838   0.911  -6.533  0.00  0.00     0.028 H 
BRANCH  14  17
ATOM     17  C   LIG d   1       6.780  -0.837  -7.371  0.00  0.00    -0.064 C 
ATOM     18  H   LIG d   1       6.822  -0.235  -8.279  0.00  0.00     0.023 H 
ATOM     19  H   LIG d   1       7.782  -0.923  -6.948  0.00  0.00     0.023 H 
ATOM     20  H   LIG d   1       6.400  -1.830  -7.609  0.00  0.00     0.023 H 
ENDBRANCH  14  17
ENDBRANCH   1  14
BRANCH   1  21
ATOM     21  C   LIG d   1       3.831  -0.230  -7.788  0.00  0.00    -0.032 A 
ATOM     22  C   LIG d   1       2.895  -1.000  -8.453  0.00  0.00    -0.058 A 
ATOM     23  C   LIG d   1       2.333  -0.543  -9.630  0.00  0.00    -0.061 A 
ATOM     24  H   LIG d   1       2.601  -1.958  -8.051  0.00  0.00     0.062 H 
ATOM     25  C   LIG d   1       2.714   0.682 -10.147  0.00  0.00    -0.062 A 
ATOM     26  H   LIG d   1       1.599  -1.142 -10.147  0.00  0.00     0.062 H 
ATOM     27  C   LIG d   1       3.653   1.450  -9.485  0.00  0.00    -0.061 A 
ATOM     28  H   LIG d   1       2.277   1.039 -11.068  0.00  0.00     0.062 H 
ATOM     29  C   LIG d   1       4.211   0.994  -8.305  0.00  0.00    -0.058 A 
ATOM     30  H   LIG d   1       3.951   2.406  -9.888  0.00  0.00     0.062 H 
ATOM     31  H   LIG d   1       4.946   1.594  -7.788  0.00  0.00     0.062 H 
ENDBRANCH   1  21
TORSDOF 3
ENDMDL
MODEL 9
REMARK VINA RESULT:      -4.8      2.086      3.183
REMARK  3 active torsions:
REMARK  status: ('A' for Active; 'I' for Inactive)
REMARK    1  A    between atoms: C_1  and  C_2 
REMARK    2  A    between atoms: C_2  and  C_3 
REMARK    3  A    between atoms: C_3  and  C_11 
ROOT
ATOM      1  C   LIG d   1       6.220  -1.254  -4.465  0.00  0.00     0.072 C 
ATOM      2  C   LIG d   1       6.932  -2.439  -5.128  0.00  0.00    -0.027 C 
ATOM      3  C   LIG d   1       6.070  -3.692  -4.942  0.00  0.00     0.026 C 
ATOM      4  C   LIG d   1       4.693  -3.430  -5.491  0.00  0.00     0.219 C 
ATOM      5  O   LIG d   1       4.042  -4.354  -5.932  0.00  0.00    -0.275 OA
ATOM      6  N   LIG d   1       4.170  -2.194  -5.501  0.00  0.00    -0.256 N 
ATOM      7  C   LIG d   1       4.834  -1.125  -5.040  0.00  0.00     0.230 C 
ATOM      8  O   LIG d   1       4.310  -0.033  -5.086  0.00  0.00    -0.274 OA
ATOM      9  H   LIG d   1       7.062  -2.239  -6.191  0.00  0.00     0.028 H 
ATOM     10  H   LIG d   1       7.904  -2.590  -4.659  0.00  0.00     0.028 H 
ATOM     11  H   LIG d   1       6.522  -4.528  -5.475  0.00  0.00     0.036 H 
ATOM     12  H   LIG d   1       5.999  -3.931  -3.880  0.00  0.00     0.036 H 
ATOM     13  H   LIG d   1       3.276  -2.070  -5.856  0.00  0.00     0.158 HD
ENDROOT
BRANCH   1  14
ATOM     14  C   LIG d   1       6.128  -1.492  -2.957  0.00  0.00    -0.038 C 
ATOM     15  H   LIG d   1       6.794  -0.803  -2.437  0.00  0.00     0.028 H 
ATOM     16  H   LIG d   1       6.420  -2.518  -2.732  0.00  0.00     0.028 H 
BRANCH  14  17
ATOM     17  C   LIG d   1       4.689  -1.258  -2.490  0.00  0.00    -0.064 C 
ATOM     18  H   LIG d   1       4.344  -0.288  -2.848  0.00  0.00     0.023 H 
ATOM     19  H   LIG d   1       4.045  -2.042  -2.890  0.00  0.00     0.023 H 
ATOM     20  H   LIG d   1       4.652  -1.278  -1.401  0.00  0.00     0.023 H 
ENDBRANCH  14  17
ENDBRANCH   1  14
BRANCH   1  21
ATOM     21  C   LIG d   1       6.995   0.012  -4.729  0.00  0.00    -0.032 A 
ATOM     22  C   LIG d   1       7.404   0.315  -6.014  0.00  0.00    -0.058 A 
ATOM     23  C   LIG d   1       8.111   1.478  -6.257  0.00  0.00    -0.061 A 
ATOM     24  H   LIG d   1       7.169  -0.354  -6.828  0.00  0.00     0.062 H 
ATOM     25  C   LIG d   1       8.417   2.333  -5.214  0.00  0.00    -0.062 A 
ATOM     26  H   LIG d   1       8.427   1.718  -7.261  0.00  0.00     0.062 H 
ATOM     27  C   LIG d   1       8.012   2.026  -3.928  0.00  0.00    -0.061 A 
ATOM     28  H   LIG d   1       8.972   3.239  -5.403  0.00  0.00     0.062 H 
ATOM     29  C   LIG d   1       7.301   0.865  -3.686  0.00  0.00    -0.058 A 
ATOM     30  H   LIG d   1       8.251   2.692  -3.113  0.00  0.00     0.062 H 
ATOM     31  H   LIG d   1       6.985   0.625  -2.681  0.00  0.00     0.062 H 
ENDBRANCH   1  21
TORSDOF 3
ENDMDL
MODEL 10
REMARK VINA RESULT:      -4.7      1.951      3.046
REMARK  3 active torsions:
REMARK  status: ('A' for Active; 'I' for Inactive)
REMARK    1  A    between atoms: C_1  and  C_2 
REMARK    2  A    between atoms: C_2  and  C_3 
REMARK    3  A    between atoms: C_3  and  C_11 
ROOT
ATOM      1  C   LIG d   1       5.343  -1.597  -4.238  0.00  0.00     0.072 C 
ATOM      2  C   LIG d   1       6.742  -1.065  -4.568  0.00  0.00    -0.027 C 
ATOM      3  C   LIG d   1       7.779  -1.957  -3.878  0.00  0.00     0.026 C 
ATOM      4  C   LIG d   1       7.561  -3.386  -4.299  0.00  0.00     0.219 C 
ATOM      5  O   LIG d   1       8.504  -4.148  -4.330  0.00  0.00    -0.275 OA
ATOM      6  N   LIG d   1       6.343  -3.834  -4.641  0.00  0.00    -0.256 N 
ATOM      7  C   LIG d   1       5.258  -3.046  -4.640  0.00  0.00     0.230 C 
ATOM      8  O   LIG d   1       4.187  -3.509  -4.968  0.00  0.00    -0.274 OA
ATOM      9  H   LIG d   1       6.897  -1.090  -5.646  0.00  0.00     0.028 H 
ATOM     10  H   LIG d   1       6.839  -0.042  -4.206  0.00  0.00     0.028 H 
ATOM     11  H   LIG d   1       8.781  -1.641  -4.166  0.00  0.00     0.036 H 
ATOM     12  H   LIG d   1       7.667  -1.875  -2.796  0.00  0.00     0.036 H 
ATOM     13  H   LIG d   1       6.244  -4.763  -4.899  0.00  0.00     0.158 HD
ENDROOT
BRANCH   1  14
ATOM     14  C   LIG d   1       5.089  -1.468  -2.735  0.00  0.00    -0.038 C 
ATOM     15  H   LIG d   1       4.896  -0.424  -2.487  0.00  0.00     0.028 H 
ATOM     16  H   LIG d   1       5.965  -1.815  -2.187  0.00  0.00     0.028 H 
BRANCH  14  17
ATOM     17  C   LIG d   1       3.875  -2.316  -2.347  0.00  0.00    -0.064 C 
ATOM     18  H   LIG d   1       3.038  -2.073  -3.001  0.00  0.00     0.023 H 
ATOM     19  H   LIG d   1       4.123  -3.373  -2.452  0.00  0.00     0.023 H 
ATOM     20  H   LIG d   1       3.602  -2.108  -1.313  0.00  0.00     0.023 H 
ENDBRANCH  14  17
ENDBRANCH   1  14
BRANCH   1  21
ATOM     21  C   LIG d   1       4.310  -0.803  -4.994  0.00  0.00    -0.032 A 
ATOM     22  C   LIG d   1       4.323  -0.792  -6.376  0.00  0.00    -0.058 A 
ATOM     23  C   LIG d   1       3.372  -0.067  -7.071  0.00  0.00    -0.061 A 
ATOM     24  H   LIG d   1       5.073  -1.352  -6.914  0.00  0.00     0.062 H 
ATOM     25  C   LIG d   1       2.414   0.655  -6.382  0.00  0.00    -0.062 A 
ATOM     26  H   LIG d   1       3.379  -0.062  -8.150  0.00  0.00     0.062 H 
ATOM     27  C   LIG d   1       2.405   0.647  -5.000  0.00  0.00    -0.061 A 
ATOM     28  H   LIG d   1       1.674   1.224  -6.924  0.00  0.00     0.062 H 
ATOM     29  C   LIG d   1       3.352  -0.082  -4.306  0.00  0.00    -0.058 A 
ATOM     30  H   LIG d   1       1.657   1.210  -4.462  0.00  0.00     0.062 H 
ATOM     31  H   LIG d   1       3.345  -0.087  -3.226  0.00  0.00     0.062 H 
ENDBRANCH   1  21
TORSDOF 3
ENDMDL
