MODEL 1
REMARK VINA RESULT:      -7.2      0.000      0.000
REMARK  5 active torsions:
REMARK  status: ('A' for Active; 'I' for Inactive)
REMARK    1  A    between atoms: C_4  and  C_7 
REMARK    2  A    between atoms: N_19  and  C_22 
REMARK    3  A    between atoms: C_22  and  C_23 
REMARK    4  A    between atoms: C_23  and  C_24 
REMARK    5  A    between atoms: C_24  and  N_25 
ROOT
ATOM      1  C   LIG d   1       5.083  -2.129  -4.214  0.00  0.00     0.064 C 
ATOM      2  C   LIG d   1       4.197  -3.052  -4.670  0.00  0.00     0.104 C 
ATOM      3  O   LIG d   1       4.573  -4.161  -5.309  0.00  0.00    -0.462 OA
ATOM      4  C   LIG d   1       5.847  -4.597  -5.284  0.00  0.00     0.146 A 
ATOM      5  C   LIG d   1       6.881  -3.746  -4.856  0.00  0.00     0.065 A 
ATOM      6  C   LIG d   1       6.521  -2.378  -4.431  0.00  0.00     0.200 C 
ATOM      7  O   LIG d   1       7.361  -1.509  -4.265  0.00  0.00    -0.286 OA
ATOM      8  C   LIG d   1       8.202  -4.191  -4.840  0.00  0.00    -0.044 A 
ATOM      9  C   LIG d   1       8.490  -5.466  -5.235  0.00  0.00    -0.019 A 
ATOM     10  C   LIG d   1       7.472  -6.324  -5.655  0.00  0.00     0.130 A 
ATOM     11  C   LIG d   1       6.158  -5.894  -5.677  0.00  0.00     0.051 A 
ATOM     12  C   LIG d   1       5.050  -6.815  -6.121  0.00  0.00     0.034 C 
ATOM     13  N   LIG d   1       5.619  -7.949  -6.863  0.00  0.00    -0.266 N 
ATOM     14  C   LIG d   1       6.735  -8.541  -6.108  0.00  0.00     0.144 C 
ATOM     15  O   LIG d   1       7.797  -7.586  -6.041  0.00  0.00    -0.476 OA
ATOM     16  H   LIG d   1       3.142  -2.882  -4.508  0.00  0.00     0.104 H 
ATOM     17  H   LIG d   1       8.993  -3.531  -4.516  0.00  0.00     0.063 H 
ATOM     18  H   LIG d   1       9.513  -5.812  -5.224  0.00  0.00     0.065 H 
ATOM     19  H   LIG d   1       4.515  -7.186  -5.246  0.00  0.00     0.048 H 
ATOM     20  H   LIG d   1       4.360  -6.269  -6.763  0.00  0.00     0.048 H 
ATOM     21  H   LIG d   1       6.403  -8.791  -5.100  0.00  0.00     0.087 H 
ATOM     22  H   LIG d   1       7.084  -9.440  -6.616  0.00  0.00     0.087 H 
ENDROOT
BRANCH  13  23
ATOM     23  C   LIG d   1       4.589  -8.955  -7.158  0.00  0.00     0.004 C 
ATOM     24  H   LIG d   1       3.730  -8.796  -6.506  0.00  0.00     0.043 H 
ATOM     25  H   LIG d   1       4.278  -8.863  -8.198  0.00  0.00     0.043 H 
BRANCH  23  26
ATOM     26  C   LIG d   1       5.160 -10.354  -6.917  0.00  0.00    -0.024 C 
ATOM     27  H   LIG d   1       5.200 -10.898  -7.861  0.00  0.00     0.029 H 
ATOM     28  H   LIG d   1       6.164 -10.270  -6.501  0.00  0.00     0.029 H 
BRANCH  26  29
ATOM     29  C   LIG d   1       4.264 -11.107  -5.932  0.00  0.00     0.016 C 
ATOM     30  H   LIG d   1       3.274 -10.650  -5.917  0.00  0.00     0.046 H 
ATOM     31  H   LIG d   1       4.178 -12.148  -6.241  0.00  0.00     0.046 H 
BRANCH  29  32
ATOM     32  N   LIG d   1       4.849 -11.043  -4.591  0.00  0.00    -0.301 N 
ATOM     33  C   LIG d   1       4.338 -10.332  -3.572  0.00  0.00     0.216 C 
ATOM     34  C   LIG d   1       5.201 -10.490  -2.340  0.00  0.00     0.026 C 
ATOM     35  O   LIG d   1       3.328  -9.662  -3.631  0.00  0.00    -0.276 OA
ATOM     36  C   LIG d   1       6.534 -11.054  -2.884  0.00  0.00    -0.029 C 
ATOM     37  H   LIG d   1       4.748 -11.191  -1.639  0.00  0.00     0.036 H 
ATOM     38  H   LIG d   1       5.362  -9.522  -1.863  0.00  0.00     0.036 H 
ATOM     39  C   LIG d   1       6.075 -11.743  -4.189  0.00  0.00     0.015 C 
ATOM     40  H   LIG d   1       6.963 -11.778  -2.191  0.00  0.00     0.029 H 
ATOM     41  H   LIG d   1       7.241 -10.252  -3.094  0.00  0.00     0.029 H 
ATOM     42  H   LIG d   1       5.866 -12.796  -4.006  0.00  0.00     0.046 H 
ATOM     43  H   LIG d   1       6.840 -11.637  -4.959  0.00  0.00     0.046 H 
ENDBRANCH  29  32
ENDBRANCH  26  29
ENDBRANCH  23  26
ENDBRANCH  13  23
BRANCH   1  44
ATOM     44  C   LIG d   1       4.619  -0.902  -3.523  0.00  0.00    -0.011 A 
ATOM     45  C   LIG d   1       3.819   0.020  -4.196  0.00  0.00    -0.054 A 
ATOM     46  C   LIG d   1       3.389   1.159  -3.548  0.00  0.00    -0.061 A 
ATOM     47  H   LIG d   1       3.535  -0.158  -5.223  0.00  0.00     0.062 H 
ATOM     48  C   LIG d   1       3.751   1.389  -2.232  0.00  0.00    -0.062 A 
ATOM     49  H   LIG d   1       2.769   1.874  -4.068  0.00  0.00     0.062 H 
ATOM     50  C   LIG d   1       4.544   0.477  -1.559  0.00  0.00    -0.061 A 
ATOM     51  H   LIG d   1       3.415   2.283  -1.730  0.00  0.00     0.062 H 
ATOM     52  C   LIG d   1       4.980  -0.666  -2.198  0.00  0.00    -0.054 A 
ATOM     53  H   LIG d   1       4.823   0.660  -0.532  0.00  0.00     0.062 H 
ATOM     54  H   LIG d   1       5.599  -1.377  -1.671  0.00  0.00     0.062 H 
ENDBRANCH   1  44
TORSDOF 5
ENDMDL
MODEL 2
REMARK VINA RESULT:      -7.1      8.192     11.458
REMARK  5 active torsions:
REMARK  status: ('A' for Active; 'I' for Inactive)
REMARK    1  A    between atoms: C_4  and  C_7 
REMARK    2  A    between atoms: N_19  and  C_22 
REMARK    3  A    between atoms: C_22  and  C_23 
REMARK    4  A    between atoms: C_23  and  C_24 
REMARK    5  A    between atoms: C_24  and  N_25 
ROOT
ATOM      1  C   LIG d   1      10.254   7.992  -1.986  0.00  0.00     0.064 C 
ATOM      2  C   LIG d   1       9.932   6.752  -1.534  0.00  0.00     0.104 C 
ATOM      3  O   LIG d   1       9.512   5.776  -2.340  0.00  0.00    -0.462 OA
ATOM      4  C   LIG d   1       9.661   5.845  -3.676  0.00  0.00     0.146 A 
ATOM      5  C   LIG d   1       9.972   7.069  -4.293  0.00  0.00     0.065 A 
ATOM      6  C   LIG d   1      10.138   8.257  -3.433  0.00  0.00     0.200 C 
ATOM      7  O   LIG d   1      10.181   9.387  -3.889  0.00  0.00    -0.286 OA
ATOM      8  C   LIG d   1      10.116   7.146  -5.678  0.00  0.00    -0.044 A 
ATOM      9  C   LIG d   1       9.960   6.021  -6.437  0.00  0.00    -0.019 A 
ATOM     10  C   LIG d   1       9.659   4.798  -5.836  0.00  0.00     0.130 A 
ATOM     11  C   LIG d   1       9.512   4.709  -4.464  0.00  0.00     0.051 A 
ATOM     12  C   LIG d   1       9.195   3.391  -3.804  0.00  0.00     0.034 C 
ATOM     13  N   LIG d   1       8.684   2.447  -4.808  0.00  0.00    -0.266 N 
ATOM     14  C   LIG d   1       9.572   2.424  -5.981  0.00  0.00     0.144 C 
ATOM     15  O   LIG d   1       9.511   3.700  -6.623  0.00  0.00    -0.476 OA
ATOM     16  H   LIG d   1      10.023   6.547  -0.477  0.00  0.00     0.104 H 
ATOM     17  H   LIG d   1      10.349   8.090  -6.148  0.00  0.00     0.063 H 
ATOM     18  H   LIG d   1      10.070   6.079  -7.510  0.00  0.00     0.065 H 
ATOM     19  H   LIG d   1      10.100   2.984  -3.352  0.00  0.00     0.048 H 
ATOM     20  H   LIG d   1       8.441   3.544  -3.032  0.00  0.00     0.048 H 
ATOM     21  H   LIG d   1      10.595   2.223  -5.662  0.00  0.00     0.087 H 
ATOM     22  H   LIG d   1       9.243   1.650  -6.674  0.00  0.00     0.087 H 
ENDROOT
BRANCH  13  23
ATOM     23  C   LIG d   1       8.531   1.102  -4.236  0.00  0.00     0.004 C 
ATOM     24  H   LIG d   1       9.219   0.417  -4.731  0.00  0.00     0.043 H 
ATOM     25  H   LIG d   1       8.752   1.133  -3.169  0.00  0.00     0.043 H 
BRANCH  23  26
ATOM     26  C   LIG d   1       7.094   0.620  -4.445  0.00  0.00    -0.024 C 
ATOM     27  H   LIG d   1       6.670   1.109  -5.322  0.00  0.00     0.029 H 
ATOM     28  H   LIG d   1       7.090  -0.460  -4.591  0.00  0.00     0.029 H 
BRANCH  26  29
ATOM     29  C   LIG d   1       6.255   0.968  -3.213  0.00  0.00     0.016 C 
ATOM     30  H   LIG d   1       6.872   0.887  -2.318  0.00  0.00     0.046 H 
ATOM     31  H   LIG d   1       5.882   1.988  -3.305  0.00  0.00     0.046 H 
BRANCH  29  32
ATOM     32  N   LIG d   1       5.126   0.042  -3.113  0.00  0.00    -0.301 N 
ATOM     33  C   LIG d   1       3.839   0.393  -3.283  0.00  0.00     0.216 C 
ATOM     34  C   LIG d   1       2.942  -0.812  -3.102  0.00  0.00     0.026 C 
ATOM     35  O   LIG d   1       3.454   1.512  -3.546  0.00  0.00    -0.276 OA
ATOM     36  C   LIG d   1       3.839  -1.844  -2.380  0.00  0.00    -0.029 C 
ATOM     37  H   LIG d   1       2.617  -1.198  -4.067  0.00  0.00     0.036 H 
ATOM     38  H   LIG d   1       2.082  -0.554  -2.483  0.00  0.00     0.036 H 
ATOM     39  C   LIG d   1       5.252  -1.388  -2.807  0.00  0.00     0.015 C 
ATOM     40  H   LIG d   1       3.632  -2.855  -2.733  0.00  0.00     0.029 H 
ATOM     41  H   LIG d   1       3.718  -1.778  -1.299  0.00  0.00     0.029 H 
ATOM     42  H   LIG d   1       5.574  -1.936  -3.692  0.00  0.00     0.046 H 
ATOM     43  H   LIG d   1       5.959  -1.538  -1.991  0.00  0.00     0.046 H 
ENDBRANCH  29  32
ENDBRANCH  26  29
ENDBRANCH  23  26
ENDBRANCH  13  23
BRANCH   1  44
ATOM     44  C   LIG d   1      10.702   9.052  -1.050  0.00  0.00    -0.011 A 
ATOM     45  C   LIG d   1       9.766   9.862  -0.410  0.00  0.00    -0.054 A 
ATOM     46  C   LIG d   1      10.188  10.846   0.459  0.00  0.00    -0.061 A 
ATOM     47  H   LIG d   1       8.711   9.718  -0.593  0.00  0.00     0.062 H 
ATOM     48  C   LIG d   1      11.539  11.031   0.696  0.00  0.00    -0.062 A 
ATOM     49  H   LIG d   1       9.463  11.474   0.957  0.00  0.00     0.062 H 
ATOM     50  C   LIG d   1      12.473  10.230   0.063  0.00  0.00    -0.061 A 
ATOM     51  H   LIG d   1      11.865  11.805   1.374  0.00  0.00     0.062 H 
ATOM     52  C   LIG d   1      12.061   9.243  -0.809  0.00  0.00    -0.054 A 
ATOM     53  H   LIG d   1      13.526  10.378   0.251  0.00  0.00     0.062 H 
ATOM     54  H   LIG d   1      12.791   8.619  -1.302  0.00  0.00     0.062 H 
ENDBRANCH   1  44
TORSDOF 5
ENDMDL
MODEL 3
REMARK VINA RESULT:      -7.0      7.008     10.091
REMARK  5 active torsions:
REMARK  status: ('A' for Active; 'I' for Inactive)
REMARK    1  A    between atoms: C_4  and  C_7 
REMARK    2  A    between atoms: N_19  and  C_22 
REMARK    3  A    between atoms: C_22  and  C_23 
REMARK    4  A    between atoms: C_23  and  C_24 
REMARK    5  A    between atoms: C_24  and  N_25 
ROOT
ATOM      1  C   LIG d   1      10.170   6.086  -2.812  0.00  0.00     0.064 C 
ATOM      2  C   LIG d   1       9.943   4.827  -2.354  0.00  0.00     0.104 C 
ATOM      3  O   LIG d   1       9.505   3.841  -3.138  0.00  0.00    -0.462 OA
ATOM      4  C   LIG d   1       9.544   3.931  -4.481  0.00  0.00     0.146 A 
ATOM      5  C   LIG d   1       9.749   5.175  -5.103  0.00  0.00     0.065 A 
ATOM      6  C   LIG d   1       9.928   6.360  -4.241  0.00  0.00     0.200 C 
ATOM      7  O   LIG d   1       9.882   7.496  -4.683  0.00  0.00    -0.286 OA
ATOM      8  C   LIG d   1       9.778   5.273  -6.494  0.00  0.00    -0.044 A 
ATOM      9  C   LIG d   1       9.614   4.151  -7.253  0.00  0.00    -0.019 A 
ATOM     10  C   LIG d   1       9.418   2.909  -6.649  0.00  0.00     0.130 A 
ATOM     11  C   LIG d   1       9.385   2.798  -5.271  0.00  0.00     0.051 A 
ATOM     12  C   LIG d   1       9.182   1.460  -4.607  0.00  0.00     0.034 C 
ATOM     13  N   LIG d   1       8.637   0.504  -5.581  0.00  0.00    -0.266 N 
ATOM     14  C   LIG d   1       9.429   0.535  -6.820  0.00  0.00     0.144 C 
ATOM     15  O   LIG d   1       9.259   1.813  -7.438  0.00  0.00    -0.476 OA
ATOM     16  H   LIG d   1      10.127   4.615  -1.310  0.00  0.00     0.104 H 
ATOM     17  H   LIG d   1       9.929   6.232  -6.967  0.00  0.00     0.063 H 
ATOM     18  H   LIG d   1       9.636   4.226  -8.331  0.00  0.00     0.065 H 
ATOM     19  H   LIG d   1      10.138   1.091  -4.234  0.00  0.00     0.048 H 
ATOM     20  H   LIG d   1       8.486   1.569  -3.776  0.00  0.00     0.048 H 
ATOM     21  H   LIG d   1      10.482   0.379  -6.586  0.00  0.00     0.087 H 
ATOM     22  H   LIG d   1       9.082  -0.246  -7.497  0.00  0.00     0.087 H 
ENDROOT
BRANCH  13  23
ATOM     23  C   LIG d   1       8.592  -0.853  -5.018  0.00  0.00     0.004 C 
ATOM     24  H   LIG d   1       9.309  -1.486  -5.540  0.00  0.00     0.043 H 
ATOM     25  H   LIG d   1       8.843  -0.816  -3.958  0.00  0.00     0.043 H 
BRANCH  23  26
ATOM     26  C   LIG d   1       7.184  -1.429  -5.189  0.00  0.00    -0.024 C 
ATOM     27  H   LIG d   1       7.121  -1.957  -6.140  0.00  0.00     0.029 H 
ATOM     28  H   LIG d   1       6.973  -2.120  -4.372  0.00  0.00     0.029 H 
BRANCH  26  29
ATOM     29  C   LIG d   1       6.162  -0.291  -5.169  0.00  0.00     0.016 C 
ATOM     30  H   LIG d   1       6.680   0.665  -5.255  0.00  0.00     0.046 H 
ATOM     31  H   LIG d   1       5.473  -0.407  -6.004  0.00  0.00     0.046 H 
BRANCH  29  32
ATOM     32  N   LIG d   1       5.414  -0.328  -3.910  0.00  0.00    -0.301 N 
ATOM     33  C   LIG d   1       5.436   0.647  -2.985  0.00  0.00     0.216 C 
ATOM     34  C   LIG d   1       4.554   0.273  -1.813  0.00  0.00     0.026 C 
ATOM     35  O   LIG d   1       6.067   1.678  -3.078  0.00  0.00    -0.276 OA
ATOM     36  C   LIG d   1       4.339  -1.249  -1.974  0.00  0.00    -0.029 C 
ATOM     37  H   LIG d   1       3.602   0.801  -1.864  0.00  0.00     0.036 H 
ATOM     38  H   LIG d   1       5.063   0.490  -0.873  0.00  0.00     0.036 H 
ATOM     39  C   LIG d   1       4.550  -1.439  -3.493  0.00  0.00     0.015 C 
ATOM     40  H   LIG d   1       3.328  -1.533  -1.682  0.00  0.00     0.029 H 
ATOM     41  H   LIG d   1       5.080  -1.810  -1.405  0.00  0.00     0.029 H 
ATOM     42  H   LIG d   1       3.595  -1.390  -4.015  0.00  0.00     0.046 H 
ATOM     43  H   LIG d   1       5.040  -2.393  -3.689  0.00  0.00     0.046 H 
ENDBRANCH  29  32
ENDBRANCH  26  29
ENDBRANCH  23  26
ENDBRANCH  13  23
BRANCH   1  44
ATOM     44  C   LIG d   1      10.643   7.156  -1.900  0.00  0.00    -0.011 A 
ATOM     45  C   LIG d   1      12.005   7.422  -1.781  0.00  0.00    -0.054 A 
ATOM     46  C   LIG d   1      12.439   8.419  -0.932  0.00  0.00    -0.061 A 
ATOM     47  H   LIG d   1      12.720   6.850  -2.354  0.00  0.00     0.062 H 
ATOM     48  C   LIG d   1      11.524   9.153  -0.198  0.00  0.00    -0.062 A 
ATOM     49  H   LIG d   1      13.495   8.627  -0.839  0.00  0.00     0.062 H 
ATOM     50  C   LIG d   1      10.171   8.893  -0.312  0.00  0.00    -0.061 A 
ATOM     51  H   LIG d   1      11.869   9.930   0.468  0.00  0.00     0.062 H 
ATOM     52  C   LIG d   1       9.726   7.898  -1.159  0.00  0.00    -0.054 A 
ATOM     53  H   LIG d   1       9.461   9.469   0.262  0.00  0.00     0.062 H 
ATOM     54  H   LIG d   1       8.668   7.696  -1.247  0.00  0.00     0.062 H 
ENDBRANCH   1  44
TORSDOF 5
ENDMDL
MODEL 4
REMARK VINA RESULT:      -6.9      4.872      7.411
REMARK  5 active torsions:
REMARK  status: ('A' for Active; 'I' for Inactive)
REMARK    1  A    between atoms: C_4  and  C_7 
REMARK    2  A    between atoms: N_19  and  C_22 
REMARK    3  A    between atoms: C_22  and  C_23 
REMARK    4  A    between atoms: C_23  and  C_24 
REMARK    5  A    between atoms: C_24  and  N_25 
ROOT
ATOM      1  C   LIG d   1       4.545  -1.519  -5.380  0.00  0.00     0.064 C 
ATOM      2  C   LIG d   1       4.605  -1.011  -6.638  0.00  0.00     0.104 C 
ATOM      3  O   LIG d   1       4.702  -1.780  -7.724  0.00  0.00    -0.462 OA
ATOM      4  C   LIG d   1       4.445  -3.101  -7.684  0.00  0.00     0.146 A 
ATOM      5  C   LIG d   1       4.376  -3.773  -6.451  0.00  0.00     0.065 A 
ATOM      6  C   LIG d   1       4.580  -2.986  -5.219  0.00  0.00     0.200 C 
ATOM      7  O   LIG d   1       4.763  -3.514  -4.135  0.00  0.00    -0.286 OA
ATOM      8  C   LIG d   1       4.121  -5.144  -6.407  0.00  0.00    -0.044 A 
ATOM      9  C   LIG d   1       3.931  -5.833  -7.570  0.00  0.00    -0.019 A 
ATOM     10  C   LIG d   1       3.990  -5.177  -8.800  0.00  0.00     0.130 A 
ATOM     11  C   LIG d   1       4.244  -3.818  -8.858  0.00  0.00     0.051 A 
ATOM     12  C   LIG d   1       4.301  -3.097 -10.180  0.00  0.00     0.034 C 
ATOM     13  N   LIG d   1       4.474  -4.072 -11.266  0.00  0.00    -0.266 N 
ATOM     14  C   LIG d   1       3.497  -5.164 -11.128  0.00  0.00     0.144 C 
ATOM     15  O   LIG d   1       3.796  -5.895  -9.937  0.00  0.00    -0.476 OA
ATOM     16  H   LIG d   1       4.571   0.062  -6.765  0.00  0.00     0.104 H 
ATOM     17  H   LIG d   1       4.075  -5.657  -5.458  0.00  0.00     0.063 H 
ATOM     18  H   LIG d   1       3.735  -6.895  -7.538  0.00  0.00     0.065 H 
ATOM     19  H   LIG d   1       3.374  -2.545 -10.334  0.00  0.00     0.048 H 
ATOM     20  H   LIG d   1       5.141  -2.403 -10.178  0.00  0.00     0.048 H 
ATOM     21  H   LIG d   1       2.491  -4.749 -11.060  0.00  0.00     0.087 H 
ATOM     22  H   LIG d   1       3.564  -5.827 -11.991  0.00  0.00     0.087 H 
ENDROOT
BRANCH  13  23
ATOM     23  C   LIG d   1       4.358  -3.424 -12.580  0.00  0.00     0.004 C 
ATOM     24  H   LIG d   1       4.949  -2.507 -12.585  0.00  0.00     0.043 H 
ATOM     25  H   LIG d   1       4.726  -4.098 -13.352  0.00  0.00     0.043 H 
BRANCH  23  26
ATOM     26  C   LIG d   1       2.891  -3.086 -12.854  0.00  0.00    -0.024 C 
ATOM     27  H   LIG d   1       2.545  -3.649 -13.721  0.00  0.00     0.029 H 
ATOM     28  H   LIG d   1       2.289  -3.350 -11.984  0.00  0.00     0.029 H 
BRANCH  26  29
ATOM     29  C   LIG d   1       2.756  -1.588 -13.130  0.00  0.00     0.016 C 
ATOM     30  H   LIG d   1       3.675  -1.218 -13.585  0.00  0.00     0.046 H 
ATOM     31  H   LIG d   1       1.921  -1.417 -13.809  0.00  0.00     0.046 H 
BRANCH  29  32
ATOM     32  N   LIG d   1       2.515  -0.878 -11.872  0.00  0.00    -0.301 N 
ATOM     33  C   LIG d   1       3.378  -0.015 -11.310  0.00  0.00     0.216 C 
ATOM     34  C   LIG d   1       2.808   0.524 -10.016  0.00  0.00     0.026 C 
ATOM     35  O   LIG d   1       4.456   0.291 -11.775  0.00  0.00    -0.276 OA
ATOM     36  C   LIG d   1       1.669  -0.460  -9.667  0.00  0.00    -0.029 C 
ATOM     37  H   LIG d   1       2.413   1.530 -10.159  0.00  0.00     0.036 H 
ATOM     38  H   LIG d   1       3.570   0.520  -9.237  0.00  0.00     0.036 H 
ATOM     39  C   LIG d   1       1.303  -1.025 -11.058  0.00  0.00     0.015 C 
ATOM     40  H   LIG d   1       0.823   0.063  -9.223  0.00  0.00     0.029 H 
ATOM     41  H   LIG d   1       2.026  -1.251  -9.007  0.00  0.00     0.029 H 
ATOM     42  H   LIG d   1       0.484  -0.452 -11.493  0.00  0.00     0.046 H 
ATOM     43  H   LIG d   1       1.027  -2.077 -10.977  0.00  0.00     0.046 H 
ENDBRANCH  29  32
ENDBRANCH  26  29
ENDBRANCH  23  26
ENDBRANCH  13  23
BRANCH   1  44
ATOM     44  C   LIG d   1       4.454  -0.626  -4.199  0.00  0.00    -0.011 A 
ATOM     45  C   LIG d   1       3.248  -0.495  -3.514  0.00  0.00    -0.054 A 
ATOM     46  C   LIG d   1       3.168   0.337  -2.416  0.00  0.00    -0.061 A 
ATOM     47  H   LIG d   1       2.377  -1.044  -3.840  0.00  0.00     0.062 H 
ATOM     48  C   LIG d   1       4.283   1.042  -1.996  0.00  0.00    -0.062 A 
ATOM     49  H   LIG d   1       2.234   0.440  -1.883  0.00  0.00     0.062 H 
ATOM     50  C   LIG d   1       5.483   0.915  -2.673  0.00  0.00    -0.061 A 
ATOM     51  H   LIG d   1       4.215   1.695  -1.139  0.00  0.00     0.062 H 
ATOM     52  C   LIG d   1       5.573   0.086  -3.772  0.00  0.00    -0.054 A 
ATOM     53  H   LIG d   1       6.350   1.467  -2.342  0.00  0.00     0.062 H 
ATOM     54  H   LIG d   1       6.511  -0.012  -4.300  0.00  0.00     0.062 H 
ENDBRANCH   1  44
TORSDOF 5
ENDMDL
MODEL 5
REMARK VINA RESULT:      -6.9      3.183      8.469
REMARK  5 active torsions:
REMARK  status: ('A' for Active; 'I' for Inactive)
REMARK    1  A    between atoms: C_4  and  C_7 
REMARK    2  A    between atoms: N_19  and  C_22 
REMARK    3  A    between atoms: C_22  and  C_23 
REMARK    4  A    between atoms: C_23  and  C_24 
REMARK    5  A    between atoms: C_24  and  N_25 
ROOT
ATOM      1  C   LIG d   1       5.103  -7.590  -5.739  0.00  0.00     0.064 C 
ATOM      2  C   LIG d   1       5.285  -6.312  -5.315  0.00  0.00     0.104 C 
ATOM      3  O   LIG d   1       5.101  -5.254  -6.106  0.00  0.00    -0.462 OA
ATOM      4  C   LIG d   1       4.437  -5.349  -7.274  0.00  0.00     0.146 A 
ATOM      5  C   LIG d   1       4.193  -6.607  -7.852  0.00  0.00     0.065 A 
ATOM      6  C   LIG d   1       4.674  -7.804  -7.135  0.00  0.00     0.200 C 
ATOM      7  O   LIG d   1       4.710  -8.904  -7.660  0.00  0.00    -0.286 OA
ATOM      8  C   LIG d   1       3.517  -6.707  -9.067  0.00  0.00    -0.044 A 
ATOM      9  C   LIG d   1       3.083  -5.575  -9.694  0.00  0.00    -0.019 A 
ATOM     10  C   LIG d   1       3.312  -4.320  -9.128  0.00  0.00     0.130 A 
ATOM     11  C   LIG d   1       3.984  -4.207  -7.924  0.00  0.00     0.051 A 
ATOM     12  C   LIG d   1       4.229  -2.857  -7.299  0.00  0.00     0.034 C 
ATOM     13  N   LIG d   1       4.051  -1.806  -8.311  0.00  0.00    -0.266 N 
ATOM     14  C   LIG d   1       2.781  -2.002  -9.028  0.00  0.00     0.144 C 
ATOM     15  O   LIG d   1       2.867  -3.214  -9.781  0.00  0.00    -0.476 OA
ATOM     16  H   LIG d   1       5.591  -6.145  -4.291  0.00  0.00     0.104 H 
ATOM     17  H   LIG d   1       3.337  -7.676  -9.510  0.00  0.00     0.063 H 
ATOM     18  H   LIG d   1       2.560  -5.651 -10.636  0.00  0.00     0.065 H 
ATOM     19  H   LIG d   1       3.522  -2.700  -6.485  0.00  0.00     0.048 H 
ATOM     20  H   LIG d   1       5.246  -2.818  -6.910  0.00  0.00     0.048 H 
ATOM     21  H   LIG d   1       1.962  -2.073  -8.311  0.00  0.00     0.087 H 
ATOM     22  H   LIG d   1       2.608  -1.164  -9.704  0.00  0.00     0.087 H 
ENDROOT
BRANCH  13  23
ATOM     23  C   LIG d   1       4.109  -0.471  -7.699  0.00  0.00     0.004 C 
ATOM     24  H   LIG d   1       4.851   0.135  -8.219  0.00  0.00     0.043 H 
ATOM     25  H   LIG d   1       3.132   0.006  -7.773  0.00  0.00     0.043 H 
BRANCH  23  26
ATOM     26  C   LIG d   1       4.502  -0.602  -6.225  0.00  0.00    -0.024 C 
ATOM     27  H   LIG d   1       4.667  -1.653  -5.986  0.00  0.00     0.029 H 
ATOM     28  H   LIG d   1       5.415  -0.037  -6.041  0.00  0.00     0.029 H 
BRANCH  26  29
ATOM     29  C   LIG d   1       3.377  -0.051  -5.347  0.00  0.00     0.016 C 
ATOM     30  H   LIG d   1       3.262   1.018  -5.531  0.00  0.00     0.046 H 
ATOM     31  H   LIG d   1       2.445  -0.562  -5.587  0.00  0.00     0.046 H 
BRANCH  29  32
ATOM     32  N   LIG d   1       3.705  -0.271  -3.937  0.00  0.00    -0.301 N 
ATOM     33  C   LIG d   1       4.149   0.685  -3.103  0.00  0.00     0.216 C 
ATOM     34  C   LIG d   1       4.392   0.104  -1.727  0.00  0.00     0.026 C 
ATOM     35  O   LIG d   1       4.327   1.845  -3.409  0.00  0.00    -0.276 OA
ATOM     36  C   LIG d   1       4.437  -1.422  -1.965  0.00  0.00    -0.029 C 
ATOM     37  H   LIG d   1       3.577   0.362  -1.051  0.00  0.00     0.036 H 
ATOM     38  H   LIG d   1       5.345   0.457  -1.330  0.00  0.00     0.036 H 
ATOM     39  C   LIG d   1       3.598  -1.566  -3.254  0.00  0.00     0.015 C 
ATOM     40  H   LIG d   1       3.975  -1.960  -1.137  0.00  0.00     0.029 H 
ATOM     41  H   LIG d   1       5.460  -1.763  -2.126  0.00  0.00     0.029 H 
ATOM     42  H   LIG d   1       2.558  -1.776  -3.006  0.00  0.00     0.046 H 
ATOM     43  H   LIG d   1       4.004  -2.358  -3.883  0.00  0.00     0.046 H 
ENDBRANCH  29  32
ENDBRANCH  26  29
ENDBRANCH  23  26
ENDBRANCH  13  23
BRANCH   1  44
ATOM     44  C   LIG d   1       5.336  -8.737  -4.828  0.00  0.00    -0.011 A 
ATOM     45  C   LIG d   1       4.255  -9.428  -4.285  0.00  0.00    -0.054 A 
ATOM     46  C   LIG d   1       4.477 -10.495  -3.439  0.00  0.00    -0.061 A 
ATOM     47  H   LIG d   1       3.245  -9.131  -4.527  0.00  0.00     0.062 H 
ATOM     48  C   LIG d   1       5.770 -10.878  -3.129  0.00  0.00    -0.062 A 
ATOM     49  H   LIG d   1       3.640 -11.032  -3.017  0.00  0.00     0.062 H 
ATOM     50  C   LIG d   1       6.846 -10.196  -3.665  0.00  0.00    -0.061 A 
ATOM     51  H   LIG d   1       5.939 -11.711  -2.463  0.00  0.00     0.062 H 
ATOM     52  C   LIG d   1       6.636  -9.127  -4.513  0.00  0.00    -0.054 A 
ATOM     53  H   LIG d   1       7.853 -10.499  -3.420  0.00  0.00     0.062 H 
ATOM     54  H   LIG d   1       7.477  -8.595  -4.931  0.00  0.00     0.062 H 
ENDBRANCH   1  44
TORSDOF 5
ENDMDL
MODEL 6
REMARK VINA RESULT:      -6.8      6.447      9.524
REMARK  5 active torsions:
REMARK  status: ('A' for Active; 'I' for Inactive)
REMARK    1  A    between atoms: C_4  and  C_7 
REMARK    2  A    between atoms: N_19  and  C_22 
REMARK    3  A    between atoms: C_22  and  C_23 
REMARK    4  A    between atoms: C_23  and  C_24 
REMARK    5  A    between atoms: C_24  and  N_25 
ROOT
ATOM      1  C   LIG d   1      10.262   4.501  -3.270  0.00  0.00     0.064 C 
ATOM      2  C   LIG d   1       9.560   3.353  -3.082  0.00  0.00     0.104 C 
ATOM      3  O   LIG d   1       8.874   2.758  -4.059  0.00  0.00    -0.462 OA
ATOM      4  C   LIG d   1       9.067   3.070  -5.355  0.00  0.00     0.146 A 
ATOM      5  C   LIG d   1       9.759   4.243  -5.707  0.00  0.00     0.065 A 
ATOM      6  C   LIG d   1      10.267   5.101  -4.618  0.00  0.00     0.200 C 
ATOM      7  O   LIG d   1      10.671   6.233  -4.820  0.00  0.00    -0.286 OA
ATOM      8  C   LIG d   1       9.951   4.575  -7.047  0.00  0.00    -0.044 A 
ATOM      9  C   LIG d   1       9.469   3.750  -8.023  0.00  0.00    -0.019 A 
ATOM     10  C   LIG d   1       8.788   2.579  -7.688  0.00  0.00     0.130 A 
ATOM     11  C   LIG d   1       8.589   2.239  -6.362  0.00  0.00     0.051 A 
ATOM     12  C   LIG d   1       7.862   0.973  -5.988  0.00  0.00     0.034 C 
ATOM     13  N   LIG d   1       7.105   0.479  -7.147  0.00  0.00    -0.266 N 
ATOM     14  C   LIG d   1       7.968   0.442  -8.338  0.00  0.00     0.144 C 
ATOM     15  O   LIG d   1       8.322   1.783  -8.686  0.00  0.00    -0.476 OA
ATOM     16  H   LIG d   1       9.558   2.902  -2.100  0.00  0.00     0.104 H 
ATOM     17  H   LIG d   1      10.477   5.480  -7.312  0.00  0.00     0.063 H 
ATOM     18  H   LIG d   1       9.616   4.007  -9.062  0.00  0.00     0.065 H 
ATOM     19  H   LIG d   1       8.584   0.217  -5.679  0.00  0.00     0.048 H 
ATOM     20  H   LIG d   1       7.177   1.177  -5.167  0.00  0.00     0.048 H 
ATOM     21  H   LIG d   1       8.869  -0.131  -8.120  0.00  0.00     0.087 H 
ATOM     22  H   LIG d   1       7.430  -0.019  -9.167  0.00  0.00     0.087 H 
ENDROOT
BRANCH  13  23
ATOM     23  C   LIG d   1       6.527  -0.844  -6.873  0.00  0.00     0.004 C 
ATOM     24  H   LIG d   1       6.581  -1.456  -7.774  0.00  0.00     0.043 H 
ATOM     25  H   LIG d   1       7.086  -1.326  -6.072  0.00  0.00     0.043 H 
BRANCH  23  26
ATOM     26  C   LIG d   1       5.065  -0.684  -6.452  0.00  0.00    -0.024 C 
ATOM     27  H   LIG d   1       4.829   0.375  -6.351  0.00  0.00     0.029 H 
ATOM     28  H   LIG d   1       4.418  -1.131  -7.207  0.00  0.00     0.029 H 
BRANCH  26  29
ATOM     29  C   LIG d   1       4.841  -1.387  -5.111  0.00  0.00     0.016 C 
ATOM     30  H   LIG d   1       3.954  -2.016  -5.173  0.00  0.00     0.046 H 
ATOM     31  H   LIG d   1       5.708  -2.004  -4.876  0.00  0.00     0.046 H 
BRANCH  29  32
ATOM     32  N   LIG d   1       4.656  -0.385  -4.060  0.00  0.00    -0.301 N 
ATOM     33  C   LIG d   1       5.584  -0.069  -3.140  0.00  0.00     0.216 C 
ATOM     34  C   LIG d   1       5.052   0.999  -2.208  0.00  0.00     0.026 C 
ATOM     35  O   LIG d   1       6.688  -0.566  -3.069  0.00  0.00    -0.276 OA
ATOM     36  C   LIG d   1       3.524   0.972  -2.438  0.00  0.00    -0.029 C 
ATOM     37  H   LIG d   1       5.461   1.975  -2.469  0.00  0.00     0.036 H 
ATOM     38  H   LIG d   1       5.288   0.749  -1.173  0.00  0.00     0.036 H 
ATOM     39  C   LIG d   1       3.430   0.400  -3.870  0.00  0.00     0.015 C 
ATOM     40  H   LIG d   1       3.105   1.977  -2.391  0.00  0.00     0.029 H 
ATOM     41  H   LIG d   1       3.033   0.313  -1.722  0.00  0.00     0.029 H 
ATOM     42  H   LIG d   1       3.384   1.210  -4.597  0.00  0.00     0.046 H 
ATOM     43  H   LIG d   1       2.553  -0.242  -3.963  0.00  0.00     0.046 H 
ENDBRANCH  29  32
ENDBRANCH  26  29
ENDBRANCH  23  26
ENDBRANCH  13  23
BRANCH   1  44
ATOM     44  C   LIG d   1      10.998   5.136  -2.150  0.00  0.00    -0.011 A 
ATOM     45  C   LIG d   1      10.313   5.902  -1.209  0.00  0.00    -0.054 A 
ATOM     46  C   LIG d   1      11.001   6.491  -0.168  0.00  0.00    -0.061 A 
ATOM     47  H   LIG d   1       9.244   6.033  -1.292  0.00  0.00     0.062 H 
ATOM     48  C   LIG d   1      12.371   6.323  -0.059  0.00  0.00    -0.062 A 
ATOM     49  H   LIG d   1      10.472   7.084   0.562  0.00  0.00     0.062 H 
ATOM     50  C   LIG d   1      13.056   5.564  -0.990  0.00  0.00    -0.061 A 
ATOM     51  H   LIG d   1      12.906   6.789   0.754  0.00  0.00     0.062 H 
ATOM     52  C   LIG d   1      12.376   4.971  -2.035  0.00  0.00    -0.054 A 
ATOM     53  H   LIG d   1      14.124   5.436  -0.901  0.00  0.00     0.062 H 
ATOM     54  H   LIG d   1      12.913   4.378  -2.762  0.00  0.00     0.062 H 
ENDBRANCH   1  44
TORSDOF 5
ENDMDL
MODEL 7
REMARK VINA RESULT:      -6.7      7.588     12.484
REMARK  5 active torsions:
REMARK  status: ('A' for Active; 'I' for Inactive)
REMARK    1  A    between atoms: C_4  and  C_7 
REMARK    2  A    between atoms: N_19  and  C_22 
REMARK    3  A    between atoms: C_22  and  C_23 
REMARK    4  A    between atoms: C_23  and  C_24 
REMARK    5  A    between atoms: C_24  and  N_25 
ROOT
ATOM      1  C   LIG d   1       6.443   0.541  -4.219  0.00  0.00     0.064 C 
ATOM      2  C   LIG d   1       7.065   1.497  -3.482  0.00  0.00     0.104 C 
ATOM      3  O   LIG d   1       8.121   2.181  -3.928  0.00  0.00    -0.462 OA
ATOM      4  C   LIG d   1       8.458   2.194  -5.232  0.00  0.00     0.146 A 
ATOM      5  C   LIG d   1       7.912   1.248  -6.116  0.00  0.00     0.065 A 
ATOM      6  C   LIG d   1       6.959   0.260  -5.573  0.00  0.00     0.200 C 
ATOM      7  O   LIG d   1       6.615  -0.725  -6.204  0.00  0.00    -0.286 OA
ATOM      8  C   LIG d   1       8.268   1.252  -7.464  0.00  0.00    -0.044 A 
ATOM      9  C   LIG d   1       9.148   2.188  -7.927  0.00  0.00    -0.019 A 
ATOM     10  C   LIG d   1       9.693   3.137  -7.061  0.00  0.00     0.130 A 
ATOM     11  C   LIG d   1       9.349   3.143  -5.721  0.00  0.00     0.051 A 
ATOM     12  C   LIG d   1       9.924   4.169  -4.779  0.00  0.00     0.034 C 
ATOM     13  N   LIG d   1      11.113   4.783  -5.386  0.00  0.00    -0.266 N 
ATOM     14  C   LIG d   1      10.816   5.213  -6.761  0.00  0.00     0.144 C 
ATOM     15  O   LIG d   1      10.566   4.053  -7.557  0.00  0.00    -0.476 OA
ATOM     16  H   LIG d   1       6.688   1.716  -2.493  0.00  0.00     0.104 H 
ATOM     17  H   LIG d   1       7.850   0.519  -8.138  0.00  0.00     0.063 H 
ATOM     18  H   LIG d   1       9.427   2.191  -8.971  0.00  0.00     0.065 H 
ATOM     19  H   LIG d   1       9.178   4.940  -4.583  0.00  0.00     0.048 H 
ATOM     20  H   LIG d   1      10.202   3.686  -3.843  0.00  0.00     0.048 H 
ATOM     21  H   LIG d   1       9.935   5.856  -6.762  0.00  0.00     0.087 H 
ATOM     22  H   LIG d   1      11.670   5.758  -7.167  0.00  0.00     0.087 H 
ENDROOT
BRANCH  13  23
ATOM     23  C   LIG d   1      11.596   5.909  -4.574  0.00  0.00     0.004 C 
ATOM     24  H   LIG d   1      12.591   5.680  -4.191  0.00  0.00     0.043 H 
ATOM     25  H   LIG d   1      11.641   6.808  -5.189  0.00  0.00     0.043 H 
BRANCH  23  26
ATOM     26  C   LIG d   1      10.640   6.140  -3.402  0.00  0.00    -0.024 C 
ATOM     27  H   LIG d   1       9.795   5.455  -3.482  0.00  0.00     0.029 H 
ATOM     28  H   LIG d   1      11.166   5.963  -2.464  0.00  0.00     0.029 H 
BRANCH  26  29
ATOM     29  C   LIG d   1      10.131   7.582  -3.436  0.00  0.00     0.016 C 
ATOM     30  H   LIG d   1      10.573   8.104  -4.285  0.00  0.00     0.046 H 
ATOM     31  H   LIG d   1       9.046   7.583  -3.535  0.00  0.00     0.046 H 
BRANCH  29  32
ATOM     32  N   LIG d   1      10.508   8.263  -2.196  0.00  0.00    -0.301 N 
ATOM     33  C   LIG d   1       9.766   8.266  -1.076  0.00  0.00     0.216 C 
ATOM     34  C   LIG d   1      10.455   9.070   0.005  0.00  0.00     0.026 C 
ATOM     35  O   LIG d   1       8.699   7.703  -0.949  0.00  0.00    -0.276 OA
ATOM     36  C   LIG d   1      11.510   9.902  -0.760  0.00  0.00    -0.029 C 
ATOM     37  H   LIG d   1      10.938   8.412   0.726  0.00  0.00     0.036 H 
ATOM     38  H   LIG d   1       9.740   9.725   0.503  0.00  0.00     0.036 H 
ATOM     39  C   LIG d   1      11.743   9.036  -2.018  0.00  0.00     0.015 C 
ATOM     40  H   LIG d   1      12.426  10.000  -0.178  0.00  0.00     0.029 H 
ATOM     41  H   LIG d   1      11.115  10.881  -1.029  0.00  0.00     0.029 H 
ATOM     42  H   LIG d   1      12.589   8.366  -1.862  0.00  0.00     0.046 H 
ATOM     43  H   LIG d   1      11.919   9.671  -2.886  0.00  0.00     0.046 H 
ENDBRANCH  29  32
ENDBRANCH  26  29
ENDBRANCH  23  26
ENDBRANCH  13  23
BRANCH   1  44
ATOM     44  C   LIG d   1       5.282  -0.205  -3.676  0.00  0.00    -0.011 A 
ATOM     45  C   LIG d   1       5.480  -1.385  -2.962  0.00  0.00    -0.054 A 
ATOM     46  C   LIG d   1       4.397  -2.075  -2.458  0.00  0.00    -0.061 A 
ATOM     47  H   LIG d   1       6.481  -1.759  -2.802  0.00  0.00     0.062 H 
ATOM     48  C   LIG d   1       3.114  -1.597  -2.662  0.00  0.00    -0.062 A 
ATOM     49  H   LIG d   1       4.550  -2.990  -1.904  0.00  0.00     0.062 H 
ATOM     50  C   LIG d   1       2.911  -0.427  -3.369  0.00  0.00    -0.061 A 
ATOM     51  H   LIG d   1       2.269  -2.142  -2.269  0.00  0.00     0.062 H 
ATOM     52  C   LIG d   1       3.988   0.271  -3.877  0.00  0.00    -0.054 A 
ATOM     53  H   LIG d   1       1.908  -0.058  -3.525  0.00  0.00     0.062 H 
ATOM     54  H   LIG d   1       3.827   1.185  -4.430  0.00  0.00     0.062 H 
ENDBRANCH   1  44
TORSDOF 5
ENDMDL
MODEL 8
REMARK VINA RESULT:      -6.5      1.924      2.900
REMARK  5 active torsions:
REMARK  status: ('A' for Active; 'I' for Inactive)
REMARK    1  A    between atoms: C_4  and  C_7 
REMARK    2  A    between atoms: N_19  and  C_22 
REMARK    3  A    between atoms: C_22  and  C_23 
REMARK    4  A    between atoms: C_23  and  C_24 
REMARK    5  A    between atoms: C_24  and  N_25 
ROOT
ATOM      1  C   LIG d   1       6.157  -1.379  -4.117  0.00  0.00     0.064 C 
ATOM      2  C   LIG d   1       5.917  -2.716  -4.087  0.00  0.00     0.104 C 
ATOM      3  O   LIG d   1       6.770  -3.615  -4.581  0.00  0.00    -0.462 OA
ATOM      4  C   LIG d   1       8.048  -3.299  -4.865  0.00  0.00     0.146 A 
ATOM      5  C   LIG d   1       8.444  -1.953  -4.954  0.00  0.00     0.065 A 
ATOM      6  C   LIG d   1       7.424  -0.914  -4.715  0.00  0.00     0.200 C 
ATOM      7  O   LIG d   1       7.616   0.259  -4.990  0.00  0.00    -0.286 OA
ATOM      8  C   LIG d   1       9.764  -1.624  -5.259  0.00  0.00    -0.044 A 
ATOM      9  C   LIG d   1      10.677  -2.618  -5.467  0.00  0.00    -0.019 A 
ATOM     10  C   LIG d   1      10.299  -3.958  -5.375  0.00  0.00     0.130 A 
ATOM     11  C   LIG d   1       8.993  -4.298  -5.074  0.00  0.00     0.051 A 
ATOM     12  C   LIG d   1       8.575  -5.742  -4.963  0.00  0.00     0.034 C 
ATOM     13  N   LIG d   1       9.582  -6.597  -5.608  0.00  0.00    -0.266 N 
ATOM     14  C   LIG d   1      10.928  -6.240  -5.135  0.00  0.00     0.144 C 
ATOM     15  O   LIG d   1      11.235  -4.919  -5.588  0.00  0.00    -0.476 OA
ATOM     16  H   LIG d   1       4.996  -3.066  -3.643  0.00  0.00     0.104 H 
ATOM     17  H   LIG d   1      10.062  -0.589  -5.332  0.00  0.00     0.063 H 
ATOM     18  H   LIG d   1      11.700  -2.364  -5.705  0.00  0.00     0.065 H 
ATOM     19  H   LIG d   1       8.488  -6.015  -3.912  0.00  0.00     0.048 H 
ATOM     20  H   LIG d   1       7.613  -5.880  -5.455  0.00  0.00     0.048 H 
ATOM     21  H   LIG d   1      10.953  -6.269  -4.045  0.00  0.00     0.087 H 
ATOM     22  H   LIG d   1      11.657  -6.943  -5.539  0.00  0.00     0.087 H 
ENDROOT
BRANCH  13  23
ATOM     23  C   LIG d   1       9.298  -8.018  -5.367  0.00  0.00     0.004 C 
ATOM     24  H   LIG d   1       9.023  -8.498  -6.307  0.00  0.00     0.043 H 
ATOM     25  H   LIG d   1      10.184  -8.502  -4.958  0.00  0.00     0.043 H 
BRANCH  23  26
ATOM     26  C   LIG d   1       8.142  -8.146  -4.373  0.00  0.00    -0.024 C 
ATOM     27  H   LIG d   1       8.447  -8.780  -3.540  0.00  0.00     0.029 H 
ATOM     28  H   LIG d   1       7.874  -7.157  -3.999  0.00  0.00     0.029 H 
BRANCH  26  29
ATOM     29  C   LIG d   1       6.934  -8.770  -5.073  0.00  0.00     0.016 C 
ATOM     30  H   LIG d   1       6.305  -7.981  -5.487  0.00  0.00     0.046 H 
ATOM     31  H   LIG d   1       7.276  -9.421  -5.877  0.00  0.00     0.046 H 
BRANCH  29  32
ATOM     32  N   LIG d   1       6.160  -9.553  -4.107  0.00  0.00    -0.301 N 
ATOM     33  C   LIG d   1       4.826  -9.711  -4.153  0.00  0.00     0.216 C 
ATOM     34  C   LIG d   1       4.364 -10.574  -2.999  0.00  0.00     0.026 C 
ATOM     35  O   LIG d   1       4.099  -9.234  -4.998  0.00  0.00    -0.276 OA
ATOM     36  C   LIG d   1       5.556 -10.558  -2.015  0.00  0.00    -0.029 C 
ATOM     37  H   LIG d   1       4.160 -11.590  -3.335  0.00  0.00     0.036 H 
ATOM     38  H   LIG d   1       3.478 -10.140  -2.533  0.00  0.00     0.036 H 
ATOM     39  C   LIG d   1       6.741 -10.262  -2.960  0.00  0.00     0.015 C 
ATOM     40  H   LIG d   1       5.675 -11.527  -1.531  0.00  0.00     0.029 H 
ATOM     41  H   LIG d   1       5.441  -9.766  -1.275  0.00  0.00     0.029 H 
ATOM     42  H   LIG d   1       7.204 -11.192  -3.287  0.00  0.00     0.046 H 
ATOM     43  H   LIG d   1       7.475  -9.630  -2.459  0.00  0.00     0.046 H 
ENDBRANCH  29  32
ENDBRANCH  26  29
ENDBRANCH  23  26
ENDBRANCH  13  23
BRANCH   1  44
ATOM     44  C   LIG d   1       5.173  -0.414  -3.570  0.00  0.00    -0.011 A 
ATOM     45  C   LIG d   1       5.364   0.140  -2.306  0.00  0.00    -0.054 A 
ATOM     46  C   LIG d   1       4.446   1.037  -1.803  0.00  0.00    -0.061 A 
ATOM     47  H   LIG d   1       6.231  -0.132  -1.722  0.00  0.00     0.062 H 
ATOM     48  C   LIG d   1       3.335   1.387  -2.550  0.00  0.00    -0.062 A 
ATOM     49  H   LIG d   1       4.593   1.468  -0.823  0.00  0.00     0.062 H 
ATOM     50  C   LIG d   1       3.140   0.840  -3.805  0.00  0.00    -0.061 A 
ATOM     51  H   LIG d   1       2.617   2.087  -2.150  0.00  0.00     0.062 H 
ATOM     52  C   LIG d   1       4.053  -0.058  -4.319  0.00  0.00    -0.054 A 
ATOM     53  H   LIG d   1       2.272   1.117  -4.385  0.00  0.00     0.062 H 
ATOM     54  H   LIG d   1       3.898  -0.485  -5.299  0.00  0.00     0.062 H 
ENDBRANCH   1  44
TORSDOF 5
ENDMDL
MODEL 9
REMARK VINA RESULT:      -6.5      2.723      8.219
REMARK  5 active torsions:
REMARK  status: ('A' for Active; 'I' for Inactive)
REMARK    1  A    between atoms: C_4  and  C_7 
REMARK    2  A    between atoms: N_19  and  C_22 
REMARK    3  A    between atoms: C_22  and  C_23 
REMARK    4  A    between atoms: C_23  and  C_24 
REMARK    5  A    between atoms: C_24  and  N_25 
ROOT
ATOM      1  C   LIG d   1       5.620  -8.345  -5.002  0.00  0.00     0.064 C 
ATOM      2  C   LIG d   1       5.097  -7.161  -5.413  0.00  0.00     0.104 C 
ATOM      3  O   LIG d   1       5.809  -6.034  -5.462  0.00  0.00    -0.462 OA
ATOM      4  C   LIG d   1       7.154  -6.041  -5.403  0.00  0.00     0.146 A 
ATOM      5  C   LIG d   1       7.839  -7.191  -4.973  0.00  0.00     0.065 A 
ATOM      6  C   LIG d   1       7.041  -8.377  -4.605  0.00  0.00     0.200 C 
ATOM      7  O   LIG d   1       7.525  -9.326  -4.012  0.00  0.00    -0.286 OA
ATOM      8  C   LIG d   1       9.232  -7.197  -4.899  0.00  0.00    -0.044 A 
ATOM      9  C   LIG d   1       9.932  -6.081  -5.255  0.00  0.00    -0.019 A 
ATOM     10  C   LIG d   1       9.265  -4.935  -5.691  0.00  0.00     0.130 A 
ATOM     11  C   LIG d   1       7.884  -4.915  -5.767  0.00  0.00     0.051 A 
ATOM     12  C   LIG d   1       7.153  -3.686  -6.245  0.00  0.00     0.034 C 
ATOM     13  N   LIG d   1       8.049  -2.523  -6.177  0.00  0.00    -0.266 N 
ATOM     14  C   LIG d   1       9.338  -2.838  -6.813  0.00  0.00     0.144 C 
ATOM     15  O   LIG d   1       9.995  -3.843  -6.037  0.00  0.00    -0.476 OA
ATOM     16  H   LIG d   1       4.059  -7.130  -5.715  0.00  0.00     0.104 H 
ATOM     17  H   LIG d   1       9.753  -8.081  -4.562  0.00  0.00     0.063 H 
ATOM     18  H   LIG d   1      11.011  -6.084  -5.197  0.00  0.00     0.065 H 
ATOM     19  H   LIG d   1       6.829  -3.834  -7.275  0.00  0.00     0.048 H 
ATOM     20  H   LIG d   1       6.284  -3.513  -5.611  0.00  0.00     0.048 H 
ATOM     21  H   LIG d   1       9.167  -3.210  -7.824  0.00  0.00     0.087 H 
ATOM     22  H   LIG d   1       9.958  -1.942  -6.850  0.00  0.00     0.087 H 
ENDROOT
BRANCH  13  23
ATOM     23  C   LIG d   1       7.429  -1.345  -6.799  0.00  0.00     0.004 C 
ATOM     24  H   LIG d   1       8.059  -0.471  -6.630  0.00  0.00     0.043 H 
ATOM     25  H   LIG d   1       7.321  -1.513  -7.870  0.00  0.00     0.043 H 
BRANCH  23  26
ATOM     26  C   LIG d   1       6.051  -1.107  -6.178  0.00  0.00    -0.024 C 
ATOM     27  H   LIG d   1       5.353  -0.789  -6.953  0.00  0.00     0.029 H 
ATOM     28  H   LIG d   1       5.693  -2.030  -5.721  0.00  0.00     0.029 H 
BRANCH  26  29
ATOM     29  C   LIG d   1       6.155  -0.017  -5.109  0.00  0.00     0.016 C 
ATOM     30  H   LIG d   1       7.196   0.097  -4.806  0.00  0.00     0.046 H 
ATOM     31  H   LIG d   1       5.789   0.926  -5.514  0.00  0.00     0.046 H 
BRANCH  29  32
ATOM     32  N   LIG d   1       5.348  -0.395  -3.947  0.00  0.00    -0.301 N 
ATOM     33  C   LIG d   1       5.273   0.319  -2.810  0.00  0.00     0.216 C 
ATOM     34  C   LIG d   1       4.355  -0.367  -1.823  0.00  0.00     0.026 C 
ATOM     35  O   LIG d   1       5.856   1.363  -2.607  0.00  0.00    -0.276 OA
ATOM     36  C   LIG d   1       4.225  -1.808  -2.367  0.00  0.00    -0.029 C 
ATOM     37  H   LIG d   1       3.381   0.121  -1.800  0.00  0.00     0.036 H 
ATOM     38  H   LIG d   1       4.804  -0.373  -0.829  0.00  0.00     0.036 H 
ATOM     39  C   LIG d   1       4.521  -1.605  -3.870  0.00  0.00     0.015 C 
ATOM     40  H   LIG d   1       3.217  -2.193  -2.217  0.00  0.00     0.029 H 
ATOM     41  H   LIG d   1       4.964  -2.466  -1.910  0.00  0.00     0.029 H 
ATOM     42  H   LIG d   1       3.592  -1.463  -4.421  0.00  0.00     0.046 H 
ATOM     43  H   LIG d   1       5.068  -2.461  -4.266  0.00  0.00     0.046 H 
ENDBRANCH  29  32
ENDBRANCH  26  29
ENDBRANCH  23  26
ENDBRANCH  13  23
BRANCH   1  44
ATOM     44  C   LIG d   1       4.786  -9.570  -4.949  0.00  0.00    -0.011 A 
ATOM     45  C   LIG d   1       4.064  -9.875  -3.797  0.00  0.00    -0.054 A 
ATOM     46  C   LIG d   1       3.289 -11.015  -3.752  0.00  0.00    -0.061 A 
ATOM     47  H   LIG d   1       4.110  -9.218  -2.940  0.00  0.00     0.062 H 
ATOM     48  C   LIG d   1       3.229 -11.857  -4.849  0.00  0.00    -0.062 A 
ATOM     49  H   LIG d   1       2.729 -11.253  -2.860  0.00  0.00     0.062 H 
ATOM     50  C   LIG d   1       3.944 -11.560  -5.995  0.00  0.00    -0.061 A 
ATOM     51  H   LIG d   1       2.625 -12.751  -4.809  0.00  0.00     0.062 H 
ATOM     52  C   LIG d   1       4.722 -10.421  -6.050  0.00  0.00    -0.054 A 
ATOM     53  H   LIG d   1       3.893 -12.219  -6.849  0.00  0.00     0.062 H 
ATOM     54  H   LIG d   1       5.279 -10.191  -6.946  0.00  0.00     0.062 H 
ENDBRANCH   1  44
TORSDOF 5
ENDMDL
