MODEL 1
REMARK VINA RESULT:      -7.2      0.000      0.000
REMARK  16 active torsions:
REMARK  status: ('A' for Active; 'I' for Inactive)
REMARK    1  A    between atoms: C_1  and  C_2 
REMARK    2  A    between atoms: C_6  and  O_8 
REMARK    3  A    between atoms: O_8  and  C_9 
REMARK    4  A    between atoms: C_9  and  C_10 
REMARK    5  A    between atoms: C_10  and  O_12 
REMARK    6  A    between atoms: O_12  and  C_13 
REMARK    7  A    between atoms: C_17  and  C_45 
REMARK    8  A    between atoms: C_22  and  C_44 
REMARK    9  A    between atoms: C_33  and  C_35 
REMARK   10  A    between atoms: C_35  and  C_37 
REMARK   11  A    between atoms: C_35  and  C_38 
REMARK   12  A    between atoms: C_38  and  C_39 
REMARK   13  A    between atoms: C_39  and  C_40 
REMARK   14  A    between atoms: C_40  and  C_41 
REMARK   15  A    between atoms: C_41  and  C_42 
REMARK   16  A    between atoms: C_41  and  C_43 
ROOT
ATOM      1  C   LIG d   1       6.025   0.369  -7.957  0.00  0.00     0.107 C 
ATOM      2  H   LIG d   1       6.754  -0.383  -8.256  0.00  0.00     0.074 H 
ATOM      3  C   LIG d   1       4.842  -0.312  -7.266  0.00  0.00    -0.015 C 
ATOM      4  C   LIG d   1       4.241  -1.368  -8.195  0.00  0.00    -0.040 C 
ATOM      5  C   LIG d   1       3.696  -0.688  -9.454  0.00  0.00    -0.008 C 
ATOM      6  C   LIG d   1       3.108  -1.726 -10.394  0.00  0.00    -0.029 C 
ATOM      7  H   LIG d   1       3.772  -2.591 -10.407  0.00  0.00     0.031 H 
ATOM      8  C   LIG d   1       1.743  -2.175  -9.880  0.00  0.00    -0.049 C 
ATOM      9  C   LIG d   1       1.072  -3.171 -10.839  0.00  0.00    -0.047 C 
ATOM     10  C   LIG d   1       0.963  -2.487 -12.188  0.00  0.00    -0.026 C 
ATOM     11  C   LIG d   1       2.411  -2.251 -12.697  0.00  0.00    -0.032 C 
ATOM     12  H   LIG d   1       2.989  -3.172 -12.641  0.00  0.00     0.031 H 
ATOM     13  C   LIG d   1       3.013  -1.168 -11.821  0.00  0.00    -0.031 C 
ATOM     14  H   LIG d   1       2.392  -0.272 -11.834  0.00  0.00     0.031 H 
ATOM     15  C   LIG d   1       4.432  -0.860 -12.310  0.00  0.00    -0.031 C 
ATOM     16  C   LIG d   1       5.095   0.079 -11.343  0.00  0.00    -0.084 C 
ATOM     17  C   LIG d   1       4.778   0.139 -10.082  0.00  0.00    -0.064 C 
ATOM     18  C   LIG d   1       5.528   1.120  -9.196  0.00  0.00     0.006 C 
ATOM     19  C   LIG d   1       2.167  -1.864 -14.161  0.00  0.00    -0.049 C 
ATOM     20  C   LIG d   1       1.060  -2.860 -14.603  0.00  0.00    -0.049 C 
ATOM     21  C   LIG d   1       0.326  -3.299 -13.311  0.00  0.00    -0.033 C 
ATOM     22  H   LIG d   1       0.472  -4.365 -13.137  0.00  0.00     0.031 H 
ATOM     23  H   LIG d   1       5.184  -0.788  -6.348  0.00  0.00     0.030 H 
ATOM     24  H   LIG d   1       4.083   0.434  -7.026  0.00  0.00     0.030 H 
ATOM     25  H   LIG d   1       5.012  -2.086  -8.475  0.00  0.00     0.028 H 
ATOM     26  H   LIG d   1       3.431  -1.885  -7.681  0.00  0.00     0.028 H 
ATOM     27  H   LIG d   1       1.869  -2.649  -8.907  0.00  0.00     0.027 H 
ATOM     28  H   LIG d   1       1.101  -1.301  -9.768  0.00  0.00     0.027 H 
ATOM     29  H   LIG d   1       1.682  -4.071 -10.926  0.00  0.00     0.027 H 
ATOM     30  H   LIG d   1       0.079  -3.427 -10.471  0.00  0.00     0.027 H 
ATOM     31  H   LIG d   1       5.005  -1.784 -12.370  0.00  0.00     0.031 H 
ATOM     32  H   LIG d   1       4.385  -0.395 -13.295  0.00  0.00     0.031 H 
ATOM     33  H   LIG d   1       5.878   0.726 -11.709  0.00  0.00     0.057 H 
ATOM     34  H   LIG d   1       4.860   1.926  -8.894  0.00  0.00     0.035 H 
ATOM     35  H   LIG d   1       6.377   1.530  -9.742  0.00  0.00     0.035 H 
ATOM     36  H   LIG d   1       1.812  -0.836 -14.234  0.00  0.00     0.027 H 
ATOM     37  H   LIG d   1       3.071  -2.005 -14.752  0.00  0.00     0.027 H 
ATOM     38  H   LIG d   1       0.363  -2.368 -15.281  0.00  0.00     0.027 H 
ATOM     39  H   LIG d   1       1.509  -3.725 -15.090  0.00  0.00     0.027 H 
ENDROOT
BRANCH   1  40
ATOM     40  O   LIG d   1       6.636   1.294  -7.054  0.00  0.00    -0.459 OA
BRANCH  40  41
ATOM     41  C   LIG d   1       7.879   1.007  -6.638  0.00  0.00     0.345 C 
ATOM     42  O   LIG d   1       8.775   0.894  -7.441  0.00  0.00    -0.247 OA
BRANCH  41  43
ATOM     43  C   LIG d   1       8.157   0.823  -5.168  0.00  0.00     0.186 C 
ATOM     44  H   LIG d   1       7.497   1.468  -4.590  0.00  0.00     0.082 H 
ATOM     45  H   LIG d   1       9.194   1.084  -4.960  0.00  0.00     0.082 H 
BRANCH  43  46
ATOM     46  O   LIG d   1       7.928  -0.541  -4.807  0.00  0.00    -0.480 OA
BRANCH  46  47
ATOM     47  C   LIG d   1       6.772  -0.817  -4.151  0.00  0.00     0.133 A 
ATOM     48  C   LIG d   1       6.089  -2.019  -4.398  0.00  0.00     0.063 A 
ATOM     49  C   LIG d   1       4.893  -2.298  -3.716  0.00  0.00     0.143 A 
ATOM     50  C   LIG d   1       6.611  -2.995  -5.363  0.00  0.00    -0.023 A 
ATOM     51  C   LIG d   1       4.397  -1.381  -2.801  0.00  0.00    -0.015 A 
ATOM     52  O   LIG d   1       4.241  -3.455  -3.959  0.00  0.00    -0.422 OA
ATOM     53  C   LIG d   1       5.076  -0.202  -2.567  0.00  0.00    -0.043 A 
ATOM     54  H   LIG d   1       3.478  -1.588  -2.272  0.00  0.00     0.066 H 
ATOM     55  C   LIG d   1       6.253   0.084  -3.240  0.00  0.00    -0.016 A 
ATOM     56  H   LIG d   1       6.770   1.013  -3.048  0.00  0.00     0.066 H 
ATOM     57  C   LIG d   1       4.710  -4.347  -4.842  0.00  0.00     0.341 A 
ATOM     58  C   LIG d   1       5.915  -4.136  -5.558  0.00  0.00     0.041 A 
ATOM     59  O   LIG d   1       4.081  -5.372  -5.035  0.00  0.00    -0.245 OA
ATOM     60  C   LIG d   1       6.369  -5.212  -6.508  0.00  0.00    -0.021 C 
ATOM     61  C   LIG d   1       7.400  -4.662  -7.492  0.00  0.00    -0.049 C 
ATOM     62  H   LIG d   1       6.815  -6.028  -5.941  0.00  0.00     0.032 H 
ATOM     63  H   LIG d   1       5.510  -5.588  -7.062  0.00  0.00     0.032 H 
ATOM     64  C   LIG d   1       8.493  -3.941  -6.695  0.00  0.00    -0.049 C 
ATOM     65  H   LIG d   1       7.840  -5.482  -8.061  0.00  0.00     0.027 H 
ATOM     66  H   LIG d   1       6.919  -3.959  -8.174  0.00  0.00     0.027 H 
ATOM     67  C   LIG d   1       7.888  -2.677  -6.087  0.00  0.00    -0.026 C 
ATOM     68  H   LIG d   1       8.858  -4.593  -5.900  0.00  0.00     0.027 H 
ATOM     69  H   LIG d   1       9.316  -3.675  -7.357  0.00  0.00     0.027 H 
ATOM     70  H   LIG d   1       7.681  -1.961  -6.883  0.00  0.00     0.031 H 
ATOM     71  H   LIG d   1       8.600  -2.239  -5.388  0.00  0.00     0.031 H 
BRANCH  53  72
ATOM     72  C   LIG d   1       4.528   0.788  -1.572  0.00  0.00    -0.040 C 
ATOM     73  H   LIG d   1       5.340   1.410  -1.193  0.00  0.00     0.028 H 
ATOM     74  H   LIG d   1       3.784   1.420  -2.058  0.00  0.00     0.028 H 
ATOM     75  H   LIG d   1       4.064   0.252  -0.744  0.00  0.00     0.028 H 
ENDBRANCH  53  72
ENDBRANCH  46  47
ENDBRANCH  43  46
ENDBRANCH  41  43
ENDBRANCH  40  41
ENDBRANCH   1  40
BRANCH   5  76
ATOM     76  C   LIG d   1       2.563   0.251  -9.033  0.00  0.00    -0.056 C 
ATOM     77  H   LIG d   1       2.826   1.276  -9.289  0.00  0.00     0.024 H 
ATOM     78  H   LIG d   1       1.647  -0.030  -9.554  0.00  0.00     0.024 H 
ATOM     79  H   LIG d   1       2.407   0.173  -7.957  0.00  0.00     0.024 H 
ENDBRANCH   5  76
BRANCH  10  80
ATOM     80  C   LIG d   1       0.235  -1.150 -12.036  0.00  0.00    -0.059 C 
ATOM     81  H   LIG d   1      -0.592  -1.265 -11.334  0.00  0.00     0.024 H 
ATOM     82  H   LIG d   1       0.929  -0.399 -11.660  0.00  0.00     0.024 H 
ATOM     83  H   LIG d   1      -0.152  -0.835 -13.005  0.00  0.00     0.024 H 
ENDBRANCH  10  80
BRANCH  21  84
ATOM     84  C   LIG d   1      -1.167  -2.979 -13.415  0.00  0.00    -0.041 C 
ATOM     85  H   LIG d   1      -1.394  -2.104 -12.805  0.00  0.00     0.030 H 
BRANCH  84  86
ATOM     86  C   LIG d   1      -1.981  -4.174 -12.915  0.00  0.00    -0.062 C 
ATOM     87  H   LIG d   1      -2.065  -4.127 -11.829  0.00  0.00     0.023 H 
ATOM     88  H   LIG d   1      -2.977  -4.145 -13.358  0.00  0.00     0.023 H 
ATOM     89  H   LIG d   1      -1.483  -5.099 -13.201  0.00  0.00     0.023 H 
ENDBRANCH  84  86
BRANCH  84  90
ATOM     90  C   LIG d   1      -1.526  -2.691 -14.874  0.00  0.00    -0.050 C 
ATOM     91  H   LIG d   1      -0.702  -2.163 -15.355  0.00  0.00     0.027 H 
ATOM     92  H   LIG d   1      -1.708  -3.631 -15.396  0.00  0.00     0.027 H 
BRANCH  90  93
ATOM     93  C   LIG d   1      -2.787  -1.826 -14.928  0.00  0.00    -0.053 C 
ATOM     94  H   LIG d   1      -3.307  -1.998 -15.870  0.00  0.00     0.026 H 
ATOM     95  H   LIG d   1      -3.443  -2.089 -14.098  0.00  0.00     0.026 H 
BRANCH  93  96
ATOM     96  C   LIG d   1      -2.397  -0.350 -14.821  0.00  0.00    -0.051 C 
ATOM     97  H   LIG d   1      -1.316  -0.251 -14.922  0.00  0.00     0.027 H 
ATOM     98  H   LIG d   1      -2.890   0.214 -15.614  0.00  0.00     0.027 H 
BRANCH  96  99
ATOM     99  C   LIG d   1      -2.835   0.196 -13.461  0.00  0.00    -0.047 C 
ATOM    100  H   LIG d   1      -2.155  -0.165 -12.689  0.00  0.00     0.029 H 
BRANCH  99 101
ATOM    101  C   LIG d   1      -2.808   1.725 -13.492  0.00  0.00    -0.063 C 
ATOM    102  H   LIG d   1      -2.261   2.096 -12.624  0.00  0.00     0.023 H 
ATOM    103  H   LIG d   1      -2.314   2.061 -14.403  0.00  0.00     0.023 H 
ATOM    104  H   LIG d   1      -3.828   2.107 -13.468  0.00  0.00     0.023 H 
ENDBRANCH  99 101
BRANCH  99 105
ATOM    105  C   LIG d   1      -4.255  -0.283 -13.153  0.00  0.00    -0.063 C 
ATOM    106  H   LIG d   1      -4.217  -1.088 -12.419  0.00  0.00     0.023 H 
ATOM    107  H   LIG d   1      -4.839   0.546 -12.751  0.00  0.00     0.023 H 
ATOM    108  H   LIG d   1      -4.723  -0.647 -14.067  0.00  0.00     0.023 H 
ENDBRANCH  99 105
ENDBRANCH  96  99
ENDBRANCH  93  96
ENDBRANCH  90  93
ENDBRANCH  84  90
ENDBRANCH  21  84
TORSDOF 16
ENDMDL
MODEL 2
REMARK VINA RESULT:      -7.2      3.620     10.088
REMARK  16 active torsions:
REMARK  status: ('A' for Active; 'I' for Inactive)
REMARK    1  A    between atoms: C_1  and  C_2 
REMARK    2  A    between atoms: C_6  and  O_8 
REMARK    3  A    between atoms: O_8  and  C_9 
REMARK    4  A    between atoms: C_9  and  C_10 
REMARK    5  A    between atoms: C_10  and  O_12 
REMARK    6  A    between atoms: O_12  and  C_13 
REMARK    7  A    between atoms: C_17  and  C_45 
REMARK    8  A    between atoms: C_22  and  C_44 
REMARK    9  A    between atoms: C_33  and  C_35 
REMARK   10  A    between atoms: C_35  and  C_37 
REMARK   11  A    between atoms: C_35  and  C_38 
REMARK   12  A    between atoms: C_38  and  C_39 
REMARK   13  A    between atoms: C_39  and  C_40 
REMARK   14  A    between atoms: C_40  and  C_41 
REMARK   15  A    between atoms: C_41  and  C_42 
REMARK   16  A    between atoms: C_41  and  C_43 
ROOT
ATOM      1  C   LIG d   1       1.571  -2.294 -12.462  0.00  0.00     0.107 C 
ATOM      2  H   LIG d   1       2.317  -2.954 -12.904  0.00  0.00     0.074 H 
ATOM      3  C   LIG d   1       2.190  -0.917 -12.214  0.00  0.00    -0.015 C 
ATOM      4  C   LIG d   1       3.433  -1.061 -11.334  0.00  0.00    -0.040 C 
ATOM      5  C   LIG d   1       3.027  -1.625  -9.969  0.00  0.00    -0.008 C 
ATOM      6  C   LIG d   1       4.254  -1.788  -9.088  0.00  0.00    -0.029 C 
ATOM      7  H   LIG d   1       5.063  -2.191  -9.698  0.00  0.00     0.031 H 
ATOM      8  C   LIG d   1       4.689  -0.428  -8.549  0.00  0.00    -0.049 C 
ATOM      9  C   LIG d   1       5.882  -0.549  -7.589  0.00  0.00    -0.047 C 
ATOM     10  C   LIG d   1       5.462  -1.484  -6.471  0.00  0.00    -0.026 C 
ATOM     11  C   LIG d   1       5.230  -2.880  -7.107  0.00  0.00    -0.032 C 
ATOM     12  H   LIG d   1       6.087  -3.169  -7.714  0.00  0.00     0.031 H 
ATOM     13  C   LIG d   1       3.970  -2.776  -7.948  0.00  0.00    -0.031 C 
ATOM     14  H   LIG d   1       3.133  -2.425  -7.345  0.00  0.00     0.031 H 
ATOM     15  C   LIG d   1       3.666  -4.145  -8.565  0.00  0.00    -0.031 C 
ATOM     16  C   LIG d   1       2.527  -4.008  -9.535  0.00  0.00    -0.084 C 
ATOM     17  C   LIG d   1       2.261  -2.899 -10.163  0.00  0.00    -0.064 C 
ATOM     18  C   LIG d   1       1.090  -2.884 -11.133  0.00  0.00     0.006 C 
ATOM     19  C   LIG d   1       5.130  -3.776  -5.867  0.00  0.00    -0.049 C 
ATOM     20  C   LIG d   1       6.258  -3.226  -4.951  0.00  0.00    -0.049 C 
ATOM     21  C   LIG d   1       6.502  -1.760  -5.390  0.00  0.00    -0.033 C 
ATOM     22  H   LIG d   1       7.507  -1.650  -5.797  0.00  0.00     0.031 H 
ATOM     23  H   LIG d   1       2.470  -0.468 -13.166  0.00  0.00     0.030 H 
ATOM     24  H   LIG d   1       1.463  -0.278 -11.712  0.00  0.00     0.030 H 
ATOM     25  H   LIG d   1       4.140  -1.741 -11.812  0.00  0.00     0.028 H 
ATOM     26  H   LIG d   1       3.899  -0.086 -11.201  0.00  0.00     0.028 H 
ATOM     27  H   LIG d   1       4.970   0.211  -9.387  0.00  0.00     0.027 H 
ATOM     28  H   LIG d   1       3.851   0.029  -8.021  0.00  0.00     0.027 H 
ATOM     29  H   LIG d   1       6.742  -0.963  -8.116  0.00  0.00     0.027 H 
ATOM     30  H   LIG d   1       6.130   0.430  -7.181  0.00  0.00     0.027 H 
ATOM     31  H   LIG d   1       4.547  -4.512  -9.089  0.00  0.00     0.031 H 
ATOM     32  H   LIG d   1       3.390  -4.847  -7.778  0.00  0.00     0.031 H 
ATOM     33  H   LIG d   1       1.908  -4.871  -9.728  0.00  0.00     0.057 H 
ATOM     34  H   LIG d   1       0.287  -2.269 -10.727  0.00  0.00     0.035 H 
ATOM     35  H   LIG d   1       0.732  -3.900 -11.291  0.00  0.00     0.035 H 
ATOM     36  H   LIG d   1       4.157  -3.665  -5.388  0.00  0.00     0.027 H 
ATOM     37  H   LIG d   1       5.318  -4.817  -6.126  0.00  0.00     0.027 H 
ATOM     38  H   LIG d   1       5.942  -3.257  -3.909  0.00  0.00     0.027 H 
ATOM     39  H   LIG d   1       7.167  -3.812  -5.084  0.00  0.00     0.027 H 
ENDROOT
BRANCH   1  40
ATOM     40  O   LIG d   1       0.461  -2.164 -13.354  0.00  0.00    -0.459 OA
BRANCH  40  41
ATOM     41  C   LIG d   1       0.539  -2.822 -14.521  0.00  0.00     0.345 C 
ATOM     42  O   LIG d   1       0.457  -2.217 -15.563  0.00  0.00    -0.247 OA
BRANCH  41  43
ATOM     43  C   LIG d   1       0.729  -4.318 -14.530  0.00  0.00     0.186 C 
ATOM     44  H   LIG d   1       1.676  -4.567 -14.054  0.00  0.00     0.082 H 
ATOM     45  H   LIG d   1       0.733  -4.677 -15.559  0.00  0.00     0.082 H 
BRANCH  43  46
ATOM     46  O   LIG d   1      -0.342  -4.938 -13.814  0.00  0.00    -0.480 OA
BRANCH  46  47
ATOM     47  C   LIG d   1      -0.010  -5.657 -12.713  0.00  0.00     0.133 A 
ATOM     48  C   LIG d   1      -0.899  -5.742 -11.629  0.00  0.00     0.063 A 
ATOM     49  C   LIG d   1      -0.548  -6.488 -10.491  0.00  0.00     0.143 A 
ATOM     50  C   LIG d   1      -2.199  -5.060 -11.668  0.00  0.00    -0.023 A 
ATOM     51  C   LIG d   1       0.677  -7.137 -10.450  0.00  0.00    -0.015 A 
ATOM     52  O   LIG d   1      -1.407  -6.564  -9.453  0.00  0.00    -0.422 OA
ATOM     53  C   LIG d   1       1.544  -7.046 -11.521  0.00  0.00    -0.043 A 
ATOM     54  H   LIG d   1       0.954  -7.713  -9.579  0.00  0.00     0.066 H 
ATOM     55  C   LIG d   1       1.209  -6.308 -12.644  0.00  0.00    -0.016 A 
ATOM     56  H   LIG d   1       1.900  -6.243 -13.471  0.00  0.00     0.066 H 
ATOM     57  C   LIG d   1      -2.592  -5.940  -9.481  0.00  0.00     0.341 A 
ATOM     58  C   LIG d   1      -3.015  -5.179 -10.599  0.00  0.00     0.041 A 
ATOM     59  O   LIG d   1      -3.329  -6.029  -8.516  0.00  0.00    -0.245 OA
ATOM     60  C   LIG d   1      -4.377  -4.537 -10.542  0.00  0.00    -0.021 C 
ATOM     61  C   LIG d   1      -4.495  -3.431 -11.588  0.00  0.00    -0.049 C 
ATOM     62  H   LIG d   1      -5.138  -5.293 -10.731  0.00  0.00     0.032 H 
ATOM     63  H   LIG d   1      -4.532  -4.112  -9.551  0.00  0.00     0.032 H 
ATOM     64  C   LIG d   1      -4.058  -3.999 -12.944  0.00  0.00    -0.049 C 
ATOM     65  H   LIG d   1      -5.530  -3.092 -11.649  0.00  0.00     0.027 H 
ATOM     66  H   LIG d   1      -3.850  -2.596 -11.315  0.00  0.00     0.027 H 
ATOM     67  C   LIG d   1      -2.554  -4.262 -12.891  0.00  0.00    -0.026 C 
ATOM     68  H   LIG d   1      -4.588  -4.932 -13.140  0.00  0.00     0.027 H 
ATOM     69  H   LIG d   1      -4.279  -3.279 -13.732  0.00  0.00     0.027 H 
ATOM     70  H   LIG d   1      -2.025  -3.309 -12.864  0.00  0.00     0.031 H 
ATOM     71  H   LIG d   1      -2.255  -4.814 -13.781  0.00  0.00     0.031 H 
BRANCH  53  72
ATOM     72  C   LIG d   1       2.873  -7.755 -11.465  0.00  0.00    -0.040 C 
ATOM     73  H   LIG d   1       2.710  -8.824 -11.329  0.00  0.00     0.028 H 
ATOM     74  H   LIG d   1       3.415  -7.586 -12.397  0.00  0.00     0.028 H 
ATOM     75  H   LIG d   1       3.458  -7.367 -10.631  0.00  0.00     0.028 H 
ENDBRANCH  53  72
ENDBRANCH  46  47
ENDBRANCH  43  46
ENDBRANCH  41  43
ENDBRANCH  40  41
ENDBRANCH   1  40
BRANCH   5  76
ATOM     76  C   LIG d   1       2.102  -0.611  -9.292  0.00  0.00    -0.056 C 
ATOM     77  H   LIG d   1       2.700   0.163  -8.813  0.00  0.00     0.024 H 
ATOM     78  H   LIG d   1       1.452  -0.157 -10.041  0.00  0.00     0.024 H 
ATOM     79  H   LIG d   1       1.494  -1.118  -8.544  0.00  0.00     0.024 H 
ENDBRANCH   5  76
BRANCH  10  80
ATOM     80  C   LIG d   1       4.169  -0.977  -5.829  0.00  0.00    -0.059 C 
ATOM     81  H   LIG d   1       4.147   0.112  -5.866  0.00  0.00     0.024 H 
ATOM     82  H   LIG d   1       3.312  -1.376  -6.373  0.00  0.00     0.024 H 
ATOM     83  H   LIG d   1       4.125  -1.306  -4.791  0.00  0.00     0.024 H 
ENDBRANCH  10  80
BRANCH  21  84
ATOM     84  C   LIG d   1       6.302  -0.812  -4.207  0.00  0.00    -0.041 C 
ATOM     85  H   LIG d   1       5.368  -0.262  -4.335  0.00  0.00     0.030 H 
BRANCH  84  86
ATOM     86  C   LIG d   1       7.468   0.175  -4.141  0.00  0.00    -0.062 C 
ATOM     87  H   LIG d   1       7.088   1.194  -4.224  0.00  0.00     0.023 H 
ATOM     88  H   LIG d   1       7.988   0.059  -3.189  0.00  0.00     0.023 H 
ATOM     89  H   LIG d   1       8.160  -0.023  -4.959  0.00  0.00     0.023 H 
ENDBRANCH  84  86
BRANCH  84  90
ATOM     90  C   LIG d   1       6.242  -1.621  -2.909  0.00  0.00    -0.050 C 
ATOM     91  H   LIG d   1       6.414  -2.674  -3.129  0.00  0.00     0.027 H 
ATOM     92  H   LIG d   1       7.010  -1.263  -2.223  0.00  0.00     0.027 H 
BRANCH  90  93
ATOM     93  C   LIG d   1       4.865  -1.452  -2.265  0.00  0.00    -0.053 C 
ATOM     94  H   LIG d   1       4.090  -1.655  -3.004  0.00  0.00     0.026 H 
ATOM     95  H   LIG d   1       4.765  -2.149  -1.434  0.00  0.00     0.026 H 
BRANCH  93  96
ATOM     96  C   LIG d   1       4.715  -0.019  -1.749  0.00  0.00    -0.051 C 
ATOM     97  H   LIG d   1       4.728  -0.022  -0.659  0.00  0.00     0.027 H 
ATOM     98  H   LIG d   1       5.540   0.589  -2.121  0.00  0.00     0.027 H 
BRANCH  96  99
ATOM     99  C   LIG d   1       3.390   0.564  -2.242  0.00  0.00    -0.047 C 
ATOM    100  H   LIG d   1       2.812   0.925  -1.391  0.00  0.00     0.029 H 
BRANCH  99 101
ATOM    101  C   LIG d   1       3.668   1.724  -3.201  0.00  0.00    -0.063 C 
ATOM    102  H   LIG d   1       2.758   1.967  -3.751  0.00  0.00     0.023 H 
ATOM    103  H   LIG d   1       3.991   2.595  -2.631  0.00  0.00     0.023 H 
ATOM    104  H   LIG d   1       4.450   1.437  -3.902  0.00  0.00     0.023 H 
ENDBRANCH  99 101
BRANCH  99 105
ATOM    105  C   LIG d   1       2.596  -0.521  -2.973  0.00  0.00    -0.063 C 
ATOM    106  H   LIG d   1       2.499  -1.396  -2.330  0.00  0.00     0.023 H 
ATOM    107  H   LIG d   1       1.604  -0.142  -3.221  0.00  0.00     0.023 H 
ATOM    108  H   LIG d   1       3.118  -0.799  -3.889  0.00  0.00     0.023 H 
ENDBRANCH  99 105
ENDBRANCH  96  99
ENDBRANCH  93  96
ENDBRANCH  90  93
ENDBRANCH  84  90
ENDBRANCH  21  84
TORSDOF 16
ENDMDL
MODEL 3
REMARK VINA RESULT:      -7.2      3.550      9.982
REMARK  16 active torsions:
REMARK  status: ('A' for Active; 'I' for Inactive)
REMARK    1  A    between atoms: C_1  and  C_2 
REMARK    2  A    between atoms: C_6  and  O_8 
REMARK    3  A    between atoms: O_8  and  C_9 
REMARK    4  A    between atoms: C_9  and  C_10 
REMARK    5  A    between atoms: C_10  and  O_12 
REMARK    6  A    between atoms: O_12  and  C_13 
REMARK    7  A    between atoms: C_17  and  C_45 
REMARK    8  A    between atoms: C_22  and  C_44 
REMARK    9  A    between atoms: C_33  and  C_35 
REMARK   10  A    between atoms: C_35  and  C_37 
REMARK   11  A    between atoms: C_35  and  C_38 
REMARK   12  A    between atoms: C_38  and  C_39 
REMARK   13  A    between atoms: C_39  and  C_40 
REMARK   14  A    between atoms: C_40  and  C_41 
REMARK   15  A    between atoms: C_41  and  C_42 
REMARK   16  A    between atoms: C_41  and  C_43 
ROOT
ATOM      1  C   LIG d   1       1.545  -2.275 -12.585  0.00  0.00     0.107 C 
ATOM      2  H   LIG d   1       2.278  -2.953 -13.021  0.00  0.00     0.074 H 
ATOM      3  C   LIG d   1       2.199  -0.916 -12.326  0.00  0.00    -0.015 C 
ATOM      4  C   LIG d   1       3.427  -1.097 -11.432  0.00  0.00    -0.040 C 
ATOM      5  C   LIG d   1       2.991  -1.654 -10.074  0.00  0.00    -0.008 C 
ATOM      6  C   LIG d   1       4.202  -1.853  -9.180  0.00  0.00    -0.029 C 
ATOM      7  H   LIG d   1       5.007  -2.276  -9.782  0.00  0.00     0.031 H 
ATOM      8  C   LIG d   1       4.668  -0.508  -8.631  0.00  0.00    -0.049 C 
ATOM      9  C   LIG d   1       5.846  -0.665  -7.658  0.00  0.00    -0.047 C 
ATOM     10  C   LIG d   1       5.388  -1.591  -6.548  0.00  0.00    -0.026 C 
ATOM     11  C   LIG d   1       5.126  -2.979  -7.192  0.00  0.00    -0.032 C 
ATOM     12  H   LIG d   1       5.981  -3.288  -7.791  0.00  0.00     0.031 H 
ATOM     13  C   LIG d   1       3.878  -2.837  -8.046  0.00  0.00    -0.031 C 
ATOM     14  H   LIG d   1       3.044  -2.465  -7.452  0.00  0.00     0.031 H 
ATOM     15  C   LIG d   1       3.544  -4.195  -8.672  0.00  0.00    -0.031 C 
ATOM     16  C   LIG d   1       2.421  -4.024  -9.654  0.00  0.00    -0.084 C 
ATOM     17  C   LIG d   1       2.192  -2.906 -10.282  0.00  0.00    -0.064 C 
ATOM     18  C   LIG d   1       1.034  -2.855 -11.264  0.00  0.00     0.006 C 
ATOM     19  C   LIG d   1       4.988  -3.875  -5.956  0.00  0.00    -0.049 C 
ATOM     20  C   LIG d   1       6.119  -3.359  -5.026  0.00  0.00    -0.049 C 
ATOM     21  C   LIG d   1       6.408  -1.899  -5.457  0.00  0.00    -0.033 C 
ATOM     22  H   LIG d   1       7.421  -1.815  -5.851  0.00  0.00     0.031 H 
ATOM     23  H   LIG d   1       2.501  -0.472 -13.273  0.00  0.00     0.030 H 
ATOM     24  H   LIG d   1       1.483  -0.258 -11.830  0.00  0.00     0.030 H 
ATOM     25  H   LIG d   1       4.120  -1.794 -11.904  0.00  0.00     0.028 H 
ATOM     26  H   LIG d   1       3.918  -0.135 -11.290  0.00  0.00     0.028 H 
ATOM     27  H   LIG d   1       4.976   0.127  -9.463  0.00  0.00     0.027 H 
ATOM     28  H   LIG d   1       3.837  -0.030  -8.111  0.00  0.00     0.027 H 
ATOM     29  H   LIG d   1       6.701  -1.100  -8.177  0.00  0.00     0.027 H 
ATOM     30  H   LIG d   1       6.117   0.306  -7.244  0.00  0.00     0.027 H 
ATOM     31  H   LIG d   1       4.421  -4.585  -9.187  0.00  0.00     0.031 H 
ATOM     32  H   LIG d   1       3.241  -4.892  -7.891  0.00  0.00     0.031 H 
ATOM     33  H   LIG d   1       1.781  -4.869  -9.858  0.00  0.00     0.057 H 
ATOM     34  H   LIG d   1       0.242  -2.220 -10.865  0.00  0.00     0.035 H 
ATOM     35  H   LIG d   1       0.649  -3.861 -11.430  0.00  0.00     0.035 H 
ATOM     36  H   LIG d   1       4.012  -3.739  -5.488  0.00  0.00     0.027 H 
ATOM     37  H   LIG d   1       5.149  -4.920  -6.217  0.00  0.00     0.027 H 
ATOM     38  H   LIG d   1       5.790  -3.384  -3.987  0.00  0.00     0.027 H 
ATOM     39  H   LIG d   1       7.013  -3.970  -5.151  0.00  0.00     0.027 H 
ENDROOT
BRANCH   1  40
ATOM     40  O   LIG d   1       0.450  -2.112 -13.489  0.00  0.00    -0.459 OA
BRANCH  40  41
ATOM     41  C   LIG d   1       0.430  -2.906 -14.571  0.00  0.00     0.345 C 
ATOM     42  O   LIG d   1       1.457  -3.157 -15.155  0.00  0.00    -0.247 OA
BRANCH  41  43
ATOM     43  C   LIG d   1      -0.874  -3.485 -15.055  0.00  0.00     0.186 C 
ATOM     44  H   LIG d   1      -0.766  -3.810 -16.089  0.00  0.00     0.082 H 
ATOM     45  H   LIG d   1      -1.654  -2.726 -14.993  0.00  0.00     0.082 H 
BRANCH  43  46
ATOM     46  O   LIG d   1      -1.232  -4.603 -14.239  0.00  0.00    -0.480 OA
BRANCH  46  47
ATOM     47  C   LIG d   1      -2.149  -4.383 -13.263  0.00  0.00     0.133 A 
ATOM     48  C   LIG d   1      -1.987  -4.967 -11.996  0.00  0.00     0.063 A 
ATOM     49  C   LIG d   1      -2.941  -4.735 -10.990  0.00  0.00     0.143 A 
ATOM     50  C   LIG d   1      -0.827  -5.819 -11.704  0.00  0.00    -0.023 A 
ATOM     51  C   LIG d   1      -4.037  -3.928 -11.260  0.00  0.00    -0.015 A 
ATOM     52  O   LIG d   1      -2.780  -5.300  -9.776  0.00  0.00    -0.422 OA
ATOM     53  C   LIG d   1      -4.186  -3.361 -12.509  0.00  0.00    -0.043 A 
ATOM     54  H   LIG d   1      -4.774  -3.745 -10.493  0.00  0.00     0.066 H 
ATOM     55  C   LIG d   1      -3.254  -3.588 -13.508  0.00  0.00    -0.016 A 
ATOM     56  H   LIG d   1      -3.388  -3.140 -14.482  0.00  0.00     0.066 H 
ATOM     57  C   LIG d   1      -1.726  -6.083  -9.506  0.00  0.00     0.341 A 
ATOM     58  C   LIG d   1      -0.721  -6.351 -10.468  0.00  0.00     0.041 A 
ATOM     59  O   LIG d   1      -1.629  -6.580  -8.397  0.00  0.00    -0.245 OA
ATOM     60  C   LIG d   1       0.436  -7.223 -10.055  0.00  0.00    -0.021 C 
ATOM     61  C   LIG d   1       1.169  -7.761 -11.283  0.00  0.00    -0.049 C 
ATOM     62  H   LIG d   1       1.129  -6.638  -9.451  0.00  0.00     0.032 H 
ATOM     63  H   LIG d   1       0.064  -8.059  -9.465  0.00  0.00     0.032 H 
ATOM     64  C   LIG d   1       1.491  -6.582 -12.209  0.00  0.00    -0.049 C 
ATOM     65  H   LIG d   1       2.095  -8.248 -10.974  0.00  0.00     0.027 H 
ATOM     66  H   LIG d   1       0.534  -8.476 -11.806  0.00  0.00     0.027 H 
ATOM     67  C   LIG d   1       0.179  -6.060 -12.793  0.00  0.00    -0.026 C 
ATOM     68  H   LIG d   1       1.980  -5.790 -11.640  0.00  0.00     0.027 H 
ATOM     69  H   LIG d   1       2.146  -6.914 -13.014  0.00  0.00     0.027 H 
ATOM     70  H   LIG d   1      -0.219  -6.795 -13.494  0.00  0.00     0.031 H 
ATOM     71  H   LIG d   1       0.368  -5.126 -13.322  0.00  0.00     0.031 H 
BRANCH  53  72
ATOM     72  C   LIG d   1      -5.381  -2.486 -12.792  0.00  0.00    -0.040 C 
ATOM     73  H   LIG d   1      -5.236  -1.511 -12.328  0.00  0.00     0.028 H 
ATOM     74  H   LIG d   1      -5.495  -2.363 -13.869  0.00  0.00     0.028 H 
ATOM     75  H   LIG d   1      -6.278  -2.952 -12.384  0.00  0.00     0.028 H 
ENDBRANCH  53  72
ENDBRANCH  46  47
ENDBRANCH  43  46
ENDBRANCH  41  43
ENDBRANCH  40  41
ENDBRANCH   1  40
BRANCH   5  76
ATOM     76  C   LIG d   1       2.086  -0.617  -9.404  0.00  0.00    -0.056 C 
ATOM     77  H   LIG d   1       1.430  -0.171 -10.151  0.00  0.00     0.024 H 
ATOM     78  H   LIG d   1       1.485  -1.103  -8.636  0.00  0.00     0.024 H 
ATOM     79  H   LIG d   1       2.700   0.159  -8.948  0.00  0.00     0.024 H 
ENDBRANCH   5  76
BRANCH  10  80
ATOM     80  C   LIG d   1       4.102  -1.051  -5.919  0.00  0.00    -0.059 C 
ATOM     81  H   LIG d   1       3.866  -0.079  -6.352  0.00  0.00     0.024 H 
ATOM     82  H   LIG d   1       3.284  -1.744  -6.114  0.00  0.00     0.024 H 
ATOM     83  H   LIG d   1       4.240  -0.945  -4.843  0.00  0.00     0.024 H 
ENDBRANCH  10  80
BRANCH  21  84
ATOM     84  C   LIG d   1       6.221  -0.949  -4.272  0.00  0.00    -0.041 C 
ATOM     85  H   LIG d   1       5.300  -0.380  -4.406  0.00  0.00     0.030 H 
BRANCH  84  86
ATOM     86  C   LIG d   1       7.407   0.012  -4.196  0.00  0.00    -0.062 C 
ATOM     87  H   LIG d   1       7.221   0.872  -4.840  0.00  0.00     0.023 H 
ATOM     88  H   LIG d   1       7.535   0.350  -3.167  0.00  0.00     0.023 H 
ATOM     89  H   LIG d   1       8.311  -0.498  -4.525  0.00  0.00     0.023 H 
ENDBRANCH  84  86
BRANCH  84  90
ATOM     90  C   LIG d   1       6.135  -1.760  -2.977  0.00  0.00    -0.050 C 
ATOM     91  H   LIG d   1       6.265  -2.819  -3.201  0.00  0.00     0.027 H 
ATOM     92  H   LIG d   1       6.919  -1.435  -2.293  0.00  0.00     0.027 H 
BRANCH  90  93
ATOM     93  C   LIG d   1       4.768  -1.540  -2.327  0.00  0.00    -0.053 C 
ATOM     94  H   LIG d   1       3.983  -1.727  -3.058  0.00  0.00     0.026 H 
ATOM     95  H   LIG d   1       4.652  -2.225  -1.487  0.00  0.00     0.026 H 
BRANCH  93  96
ATOM     96  C   LIG d   1       4.668  -0.097  -1.826  0.00  0.00    -0.051 C 
ATOM     97  H   LIG d   1       4.698  -0.088  -0.736  0.00  0.00     0.027 H 
ATOM     98  H   LIG d   1       5.504   0.482  -2.217  0.00  0.00     0.027 H 
BRANCH  96  99
ATOM     99  C   LIG d   1       3.353   0.518  -2.306  0.00  0.00    -0.047 C 
ATOM    100  H   LIG d   1       2.785   0.879  -1.448  0.00  0.00     0.029 H 
BRANCH  99 101
ATOM    101  C   LIG d   1       3.650   1.686  -3.249  0.00  0.00    -0.063 C 
ATOM    102  H   LIG d   1       4.695   1.646  -3.559  0.00  0.00     0.023 H 
ATOM    103  H   LIG d   1       3.007   1.616  -4.126  0.00  0.00     0.023 H 
ATOM    104  H   LIG d   1       3.460   2.627  -2.734  0.00  0.00     0.023 H 
ENDBRANCH  99 101
BRANCH  99 105
ATOM    105  C   LIG d   1       2.535  -0.541  -3.048  0.00  0.00    -0.063 C 
ATOM    106  H   LIG d   1       1.844  -0.051  -3.736  0.00  0.00     0.023 H 
ATOM    107  H   LIG d   1       3.206  -1.191  -3.610  0.00  0.00     0.023 H 
ATOM    108  H   LIG d   1       1.971  -1.136  -2.329  0.00  0.00     0.023 H 
ENDBRANCH  99 105
ENDBRANCH  96  99
ENDBRANCH  93  96
ENDBRANCH  90  93
ENDBRANCH  84  90
ENDBRANCH  21  84
TORSDOF 16
ENDMDL
MODEL 4
REMARK VINA RESULT:      -7.0      4.618     11.853
REMARK  16 active torsions:
REMARK  status: ('A' for Active; 'I' for Inactive)
REMARK    1  A    between atoms: C_1  and  C_2 
REMARK    2  A    between atoms: C_6  and  O_8 
REMARK    3  A    between atoms: O_8  and  C_9 
REMARK    4  A    between atoms: C_9  and  C_10 
REMARK    5  A    between atoms: C_10  and  O_12 
REMARK    6  A    between atoms: O_12  and  C_13 
REMARK    7  A    between atoms: C_17  and  C_45 
REMARK    8  A    between atoms: C_22  and  C_44 
REMARK    9  A    between atoms: C_33  and  C_35 
REMARK   10  A    between atoms: C_35  and  C_37 
REMARK   11  A    between atoms: C_35  and  C_38 
REMARK   12  A    between atoms: C_38  and  C_39 
REMARK   13  A    between atoms: C_39  and  C_40 
REMARK   14  A    between atoms: C_40  and  C_41 
REMARK   15  A    between atoms: C_41  and  C_42 
REMARK   16  A    between atoms: C_41  and  C_43 
ROOT
ATOM      1  C   LIG d   1       8.083  -1.269  -6.318  0.00  0.00     0.107 C 
ATOM      2  H   LIG d   1       8.642  -1.240  -7.254  0.00  0.00     0.074 H 
ATOM      3  C   LIG d   1       7.132  -0.073  -6.255  0.00  0.00    -0.015 C 
ATOM      4  C   LIG d   1       7.924   1.225  -6.419  0.00  0.00    -0.040 C 
ATOM      5  C   LIG d   1       8.909   1.371  -5.256  0.00  0.00    -0.008 C 
ATOM      6  C   LIG d   1       9.714   2.649  -5.412  0.00  0.00    -0.029 C 
ATOM      7  H   LIG d   1       9.991   2.754  -6.462  0.00  0.00     0.031 H 
ATOM      8  C   LIG d   1       8.860   3.851  -5.018  0.00  0.00    -0.049 C 
ATOM      9  C   LIG d   1       9.656   5.164  -5.087  0.00  0.00    -0.047 C 
ATOM     10  C   LIG d   1      10.854   5.008  -4.171  0.00  0.00    -0.026 C 
ATOM     11  C   LIG d   1      11.746   3.889  -4.775  0.00  0.00    -0.032 C 
ATOM     12  H   LIG d   1      11.935   4.081  -5.830  0.00  0.00     0.031 H 
ATOM     13  C   LIG d   1      11.001   2.580  -4.578  0.00  0.00    -0.031 C 
ATOM     14  H   LIG d   1      10.760   2.429  -3.526  0.00  0.00     0.031 H 
ATOM     15  C   LIG d   1      11.860   1.431  -5.116  0.00  0.00    -0.031 C 
ATOM     16  C   LIG d   1      11.059   0.161  -5.086  0.00  0.00    -0.084 C 
ATOM     17  C   LIG d   1       9.759   0.140  -5.165  0.00  0.00    -0.064 C 
ATOM     18  C   LIG d   1       9.058  -1.208  -5.139  0.00  0.00     0.006 C 
ATOM     19  C   LIG d   1      13.037   4.048  -3.964  0.00  0.00    -0.049 C 
ATOM     20  C   LIG d   1      13.213   5.590  -3.891  0.00  0.00    -0.049 C 
ATOM     21  C   LIG d   1      11.802   6.200  -4.083  0.00  0.00    -0.033 C 
ATOM     22  H   LIG d   1      11.763   6.781  -5.004  0.00  0.00     0.031 H 
ATOM     23  H   LIG d   1       6.395  -0.152  -7.053  0.00  0.00     0.030 H 
ATOM     24  H   LIG d   1       6.621  -0.066  -5.291  0.00  0.00     0.030 H 
ATOM     25  H   LIG d   1       8.475   1.198  -7.360  0.00  0.00     0.028 H 
ATOM     26  H   LIG d   1       7.238   2.072  -6.423  0.00  0.00     0.028 H 
ATOM     27  H   LIG d   1       8.007   3.917  -5.694  0.00  0.00     0.027 H 
ATOM     28  H   LIG d   1       8.495   3.708  -4.001  0.00  0.00     0.027 H 
ATOM     29  H   LIG d   1       9.989   5.343  -6.109  0.00  0.00     0.027 H 
ATOM     30  H   LIG d   1       9.034   5.992  -4.746  0.00  0.00     0.027 H 
ATOM     31  H   LIG d   1      12.159   1.648  -6.140  0.00  0.00     0.031 H 
ATOM     32  H   LIG d   1      12.747   1.316  -4.493  0.00  0.00     0.031 H 
ATOM     33  H   LIG d   1      11.586  -0.779  -5.007  0.00  0.00     0.057 H 
ATOM     34  H   LIG d   1       8.510  -1.318  -4.203  0.00  0.00     0.035 H 
ATOM     35  H   LIG d   1       9.794  -2.007  -5.230  0.00  0.00     0.035 H 
ATOM     36  H   LIG d   1      12.921   3.625  -2.966  0.00  0.00     0.027 H 
ATOM     37  H   LIG d   1      13.877   3.589  -4.483  0.00  0.00     0.027 H 
ATOM     38  H   LIG d   1      13.615   5.874  -2.919  0.00  0.00     0.027 H 
ATOM     39  H   LIG d   1      13.878   5.928  -4.685  0.00  0.00     0.027 H 
ENDROOT
BRANCH   1  40
ATOM     40  O   LIG d   1       7.329  -2.482  -6.251  0.00  0.00    -0.459 OA
BRANCH  40  41
ATOM     41  C   LIG d   1       6.837  -2.957  -7.405  0.00  0.00     0.345 C 
ATOM     42  O   LIG d   1       7.460  -2.818  -8.431  0.00  0.00    -0.247 OA
BRANCH  41  43
ATOM     43  C   LIG d   1       5.506  -3.664  -7.421  0.00  0.00     0.186 C 
ATOM     44  H   LIG d   1       5.641  -4.700  -7.112  0.00  0.00     0.082 H 
ATOM     45  H   LIG d   1       5.092  -3.636  -8.429  0.00  0.00     0.082 H 
BRANCH  43  46
ATOM     46  O   LIG d   1       4.609  -3.011  -6.520  0.00  0.00    -0.480 OA
BRANCH  46  47
ATOM     47  C   LIG d   1       3.981  -1.898  -6.977  0.00  0.00     0.133 A 
ATOM     48  C   LIG d   1       3.693  -0.838  -6.101  0.00  0.00     0.063 A 
ATOM     49  C   LIG d   1       3.042   0.310  -6.581  0.00  0.00     0.143 A 
ATOM     50  C   LIG d   1       4.068  -0.912  -4.684  0.00  0.00    -0.023 A 
ATOM     51  C   LIG d   1       2.688   0.387  -7.921  0.00  0.00    -0.015 A 
ATOM     52  O   LIG d   1       2.767   1.324  -5.734  0.00  0.00    -0.422 OA
ATOM     53  C   LIG d   1       2.975  -0.661  -8.772  0.00  0.00    -0.043 A 
ATOM     54  H   LIG d   1       2.188   1.267  -8.298  0.00  0.00     0.066 H 
ATOM     55  C   LIG d   1       3.611  -1.800  -8.306  0.00  0.00    -0.016 A 
ATOM     56  H   LIG d   1       3.824  -2.613  -8.985  0.00  0.00     0.066 H 
ATOM     57  C   LIG d   1       3.102   1.260  -4.439  0.00  0.00     0.341 A 
ATOM     58  C   LIG d   1       3.770   0.137  -3.888  0.00  0.00     0.041 A 
ATOM     59  O   LIG d   1       2.824   2.196  -3.710  0.00  0.00    -0.245 OA
ATOM     60  C   LIG d   1       4.125   0.175  -2.425  0.00  0.00    -0.021 C 
ATOM     61  C   LIG d   1       4.424  -1.231  -1.908  0.00  0.00    -0.049 C 
ATOM     62  H   LIG d   1       5.004   0.803  -2.285  0.00  0.00     0.032 H 
ATOM     63  H   LIG d   1       3.291   0.594  -1.864  0.00  0.00     0.032 H 
ATOM     64  C   LIG d   1       5.443  -1.886  -2.848  0.00  0.00    -0.049 C 
ATOM     65  H   LIG d   1       4.838  -1.171  -0.901  0.00  0.00     0.027 H 
ATOM     66  H   LIG d   1       3.507  -1.820  -1.893  0.00  0.00     0.027 H 
ATOM     67  C   LIG d   1       4.758  -2.151  -4.187  0.00  0.00    -0.026 C 
ATOM     68  H   LIG d   1       6.291  -1.216  -2.995  0.00  0.00     0.027 H 
ATOM     69  H   LIG d   1       5.789  -2.826  -2.418  0.00  0.00     0.027 H 
ATOM     70  H   LIG d   1       4.023  -2.947  -4.063  0.00  0.00     0.031 H 
ATOM     71  H   LIG d   1       5.505  -2.464  -4.916  0.00  0.00     0.031 H 
BRANCH  53  72
ATOM     72  C   LIG d   1       2.586  -0.568 -10.226  0.00  0.00    -0.040 C 
ATOM     73  H   LIG d   1       2.604  -1.562 -10.671  0.00  0.00     0.028 H 
ATOM     74  H   LIG d   1       1.582  -0.150 -10.308  0.00  0.00     0.028 H 
ATOM     75  H   LIG d   1       3.291   0.077 -10.750  0.00  0.00     0.028 H 
ENDBRANCH  53  72
ENDBRANCH  46  47
ENDBRANCH  43  46
ENDBRANCH  41  43
ENDBRANCH  40  41
ENDBRANCH   1  40
BRANCH   5  76
ATOM     76  C   LIG d   1       8.101   1.488  -3.961  0.00  0.00    -0.056 C 
ATOM     77  H   LIG d   1       8.254   2.475  -3.525  0.00  0.00     0.024 H 
ATOM     78  H   LIG d   1       7.042   1.347  -4.180  0.00  0.00     0.024 H 
ATOM     79  H   LIG d   1       8.431   0.724  -3.258  0.00  0.00     0.024 H 
ENDBRANCH   5  76
BRANCH  10  80
ATOM     80  C   LIG d   1      10.389   4.610  -2.769  0.00  0.00    -0.059 C 
ATOM     81  H   LIG d   1      11.250   4.550  -2.103  0.00  0.00     0.024 H 
ATOM     82  H   LIG d   1       9.690   5.357  -2.392  0.00  0.00     0.024 H 
ATOM     83  H   LIG d   1       9.895   3.639  -2.811  0.00  0.00     0.024 H 
ENDBRANCH  10  80
BRANCH  21  84
ATOM     84  C   LIG d   1      11.437   7.079  -2.886  0.00  0.00    -0.041 C 
ATOM     85  H   LIG d   1      10.980   6.464  -2.109  0.00  0.00     0.030 H 
BRANCH  84  86
ATOM     86  C   LIG d   1      10.448   8.159  -3.328  0.00  0.00    -0.062 C 
ATOM     87  H   LIG d   1      10.977   8.927  -3.894  0.00  0.00     0.023 H 
ATOM     88  H   LIG d   1       9.679   7.711  -3.957  0.00  0.00     0.023 H 
ATOM     89  H   LIG d   1       9.984   8.609  -2.451  0.00  0.00     0.023 H 
ENDBRANCH  84  86
BRANCH  84  90
ATOM     90  C   LIG d   1      12.702   7.740  -2.333  0.00  0.00    -0.050 C 
ATOM     91  H   LIG d   1      13.569   7.123  -2.573  0.00  0.00     0.027 H 
ATOM     92  H   LIG d   1      12.822   8.725  -2.782  0.00  0.00     0.027 H 
BRANCH  90  93
ATOM     93  C   LIG d   1      12.581   7.882  -0.815  0.00  0.00    -0.053 C 
ATOM     94  H   LIG d   1      13.557   8.122  -0.393  0.00  0.00     0.026 H 
ATOM     95  H   LIG d   1      11.878   8.682  -0.580  0.00  0.00     0.026 H 
BRANCH  93  96
ATOM     96  C   LIG d   1      12.076   6.567  -0.217  0.00  0.00    -0.051 C 
ATOM     97  H   LIG d   1      11.635   5.956  -1.005  0.00  0.00     0.027 H 
ATOM     98  H   LIG d   1      12.909   6.031   0.236  0.00  0.00     0.027 H 
BRANCH  96  99
ATOM     99  C   LIG d   1      11.020   6.865   0.849  0.00  0.00    -0.047 C 
ATOM    100  H   LIG d   1      10.050   7.003   0.372  0.00  0.00     0.029 H 
BRANCH  99 101
ATOM    101  C   LIG d   1      10.944   5.695   1.832  0.00  0.00    -0.063 C 
ATOM    102  H   LIG d   1      11.375   5.995   2.788  0.00  0.00     0.023 H 
ATOM    103  H   LIG d   1       9.903   5.410   1.976  0.00  0.00     0.023 H 
ATOM    104  H   LIG d   1      11.501   4.848   1.433  0.00  0.00     0.023 H 
ENDBRANCH  99 101
BRANCH  99 105
ATOM    105  C   LIG d   1      11.403   8.140   1.603  0.00  0.00    -0.063 C 
ATOM    106  H   LIG d   1      12.480   8.297   1.529  0.00  0.00     0.023 H 
ATOM    107  H   LIG d   1      10.882   8.992   1.166  0.00  0.00     0.023 H 
ATOM    108  H   LIG d   1      11.121   8.041   2.652  0.00  0.00     0.023 H 
ENDBRANCH  99 105
ENDBRANCH  96  99
ENDBRANCH  93  96
ENDBRANCH  90  93
ENDBRANCH  84  90
ENDBRANCH  21  84
TORSDOF 16
ENDMDL
MODEL 5
REMARK VINA RESULT:      -6.9      1.347      2.495
REMARK  16 active torsions:
REMARK  status: ('A' for Active; 'I' for Inactive)
REMARK    1  A    between atoms: C_1  and  C_2 
REMARK    2  A    between atoms: C_6  and  O_8 
REMARK    3  A    between atoms: O_8  and  C_9 
REMARK    4  A    between atoms: C_9  and  C_10 
REMARK    5  A    between atoms: C_10  and  O_12 
REMARK    6  A    between atoms: O_12  and  C_13 
REMARK    7  A    between atoms: C_17  and  C_45 
REMARK    8  A    between atoms: C_22  and  C_44 
REMARK    9  A    between atoms: C_33  and  C_35 
REMARK   10  A    between atoms: C_35  and  C_37 
REMARK   11  A    between atoms: C_35  and  C_38 
REMARK   12  A    between atoms: C_38  and  C_39 
REMARK   13  A    between atoms: C_39  and  C_40 
REMARK   14  A    between atoms: C_40  and  C_41 
REMARK   15  A    between atoms: C_41  and  C_42 
REMARK   16  A    between atoms: C_41  and  C_43 
ROOT
ATOM      1  C   LIG d   1       6.861   0.673  -7.651  0.00  0.00     0.107 C 
ATOM      2  H   LIG d   1       6.299   0.598  -6.719  0.00  0.00     0.074 H 
ATOM      3  C   LIG d   1       6.112   1.584  -8.625  0.00  0.00    -0.015 C 
ATOM      4  C   LIG d   1       4.694   1.053  -8.843  0.00  0.00    -0.040 C 
ATOM      5  C   LIG d   1       4.764  -0.334  -9.486  0.00  0.00    -0.008 C 
ATOM      6  C   LIG d   1       3.363  -0.883  -9.695  0.00  0.00    -0.029 C 
ATOM      7  H   LIG d   1       2.768  -0.650  -8.811  0.00  0.00     0.031 H 
ATOM      8  C   LIG d   1       2.717  -0.206 -10.901  0.00  0.00    -0.049 C 
ATOM      9  C   LIG d   1       1.324  -0.782 -11.200  0.00  0.00    -0.047 C 
ATOM     10  C   LIG d   1       1.496  -2.272 -11.423  0.00  0.00    -0.026 C 
ATOM     11  C   LIG d   1       1.975  -2.882 -10.078  0.00  0.00    -0.032 C 
ATOM     12  H   LIG d   1       1.326  -2.562  -9.263  0.00  0.00     0.031 H 
ATOM     13  C   LIG d   1       3.401  -2.408  -9.864  0.00  0.00    -0.031 C 
ATOM     14  H   LIG d   1       4.028  -2.677 -10.714  0.00  0.00     0.031 H 
ATOM     15  C   LIG d   1       3.943  -3.020  -8.568  0.00  0.00    -0.031 C 
ATOM     16  C   LIG d   1       5.284  -2.418  -8.260  0.00  0.00    -0.084 C 
ATOM     17  C   LIG d   1       5.634  -1.228  -8.653  0.00  0.00    -0.064 C 
ATOM     18  C   LIG d   1       7.014  -0.719  -8.269  0.00  0.00     0.006 C 
ATOM     19  C   LIG d   1       1.803  -4.383 -10.337  0.00  0.00    -0.049 C 
ATOM     20  C   LIG d   1       0.443  -4.453 -11.083  0.00  0.00    -0.049 C 
ATOM     21  C   LIG d   1       0.229  -3.063 -11.734  0.00  0.00    -0.033 C 
ATOM     22  H   LIG d   1      -0.639  -2.571 -11.297  0.00  0.00     0.031 H 
ATOM     23  H   LIG d   1       6.063   2.592  -8.215  0.00  0.00     0.030 H 
ATOM     24  H   LIG d   1       6.641   1.607  -9.579  0.00  0.00     0.030 H 
ATOM     25  H   LIG d   1       4.182   0.983  -7.883  0.00  0.00     0.028 H 
ATOM     26  H   LIG d   1       4.149   1.731  -9.498  0.00  0.00     0.028 H 
ATOM     27  H   LIG d   1       2.624   0.862 -10.700  0.00  0.00     0.027 H 
ATOM     28  H   LIG d   1       3.357  -0.348 -11.772  0.00  0.00     0.027 H 
ATOM     29  H   LIG d   1       0.660  -0.607 -10.354  0.00  0.00     0.027 H 
ATOM     30  H   LIG d   1       0.916  -0.317 -12.097  0.00  0.00     0.027 H 
ATOM     31  H   LIG d   1       3.254  -2.810  -7.750  0.00  0.00     0.031 H 
ATOM     32  H   LIG d   1       4.047  -4.098  -8.689  0.00  0.00     0.031 H 
ATOM     33  H   LIG d   1       5.985  -2.995  -7.676  0.00  0.00     0.057 H 
ATOM     34  H   LIG d   1       7.643  -0.659  -9.158  0.00  0.00     0.035 H 
ATOM     35  H   LIG d   1       7.465  -1.395  -7.544  0.00  0.00     0.035 H 
ATOM     36  H   LIG d   1       2.609  -4.759 -10.967  0.00  0.00     0.027 H 
ATOM     37  H   LIG d   1       1.757  -4.933  -9.398  0.00  0.00     0.027 H 
ATOM     38  H   LIG d   1       0.477  -5.225 -11.851  0.00  0.00     0.027 H 
ATOM     39  H   LIG d   1      -0.360  -4.662 -10.377  0.00  0.00     0.027 H 
ENDROOT
BRANCH   1  40
ATOM     40  O   LIG d   1       8.154   1.221  -7.384  0.00  0.00    -0.459 OA
BRANCH  40  41
ATOM     41  C   LIG d   1       8.867   0.647  -6.403  0.00  0.00     0.345 C 
ATOM     42  O   LIG d   1       9.938   0.142  -6.649  0.00  0.00    -0.247 OA
BRANCH  41  43
ATOM     43  C   LIG d   1       8.332   0.631  -4.994  0.00  0.00     0.186 C 
ATOM     44  H   LIG d   1       7.423   1.227  -4.944  0.00  0.00     0.082 H 
ATOM     45  H   LIG d   1       9.079   1.048  -4.318  0.00  0.00     0.082 H 
BRANCH  43  46
ATOM     46  O   LIG d   1       8.042  -0.715  -4.611  0.00  0.00    -0.480 OA
BRANCH  46  47
ATOM     47  C   LIG d   1       6.832  -0.945  -4.040  0.00  0.00     0.133 A 
ATOM     48  C   LIG d   1       6.148  -2.145  -4.291  0.00  0.00     0.063 A 
ATOM     49  C   LIG d   1       4.895  -2.375  -3.697  0.00  0.00     0.143 A 
ATOM     50  C   LIG d   1       6.725  -3.170  -5.169  0.00  0.00    -0.023 A 
ATOM     51  C   LIG d   1       4.346  -1.411  -2.864  0.00  0.00    -0.015 A 
ATOM     52  O   LIG d   1       4.242  -3.529  -3.944  0.00  0.00    -0.422 OA
ATOM     53  C   LIG d   1       5.027  -0.234  -2.625  0.00  0.00    -0.043 A 
ATOM     54  H   LIG d   1       3.384  -1.580  -2.403  0.00  0.00     0.066 H 
ATOM     55  C   LIG d   1       6.259   0.004  -3.211  0.00  0.00    -0.016 A 
ATOM     56  H   LIG d   1       6.777   0.931  -3.017  0.00  0.00     0.066 H 
ATOM     57  C   LIG d   1       4.763  -4.466  -4.748  0.00  0.00     0.341 A 
ATOM     58  C   LIG d   1       6.024  -4.305  -5.373  0.00  0.00     0.041 A 
ATOM     59  O   LIG d   1       4.131  -5.488  -4.950  0.00  0.00    -0.245 OA
ATOM     60  C   LIG d   1       6.532  -5.429  -6.238  0.00  0.00    -0.021 C 
ATOM     61  C   LIG d   1       7.649  -4.938  -7.157  0.00  0.00    -0.049 C 
ATOM     62  H   LIG d   1       6.915  -6.227  -5.603  0.00  0.00     0.032 H 
ATOM     63  H   LIG d   1       5.712  -5.814  -6.843  0.00  0.00     0.032 H 
ATOM     64  C   LIG d   1       8.689  -4.202  -6.304  0.00  0.00    -0.049 C 
ATOM     65  H   LIG d   1       8.116  -5.790  -7.654  0.00  0.00     0.027 H 
ATOM     66  H   LIG d   1       7.238  -4.258  -7.904  0.00  0.00     0.027 H 
ATOM     67  C   LIG d   1       8.063  -2.903  -5.800  0.00  0.00    -0.026 C 
ATOM     68  H   LIG d   1       8.976  -4.825  -5.456  0.00  0.00     0.027 H 
ATOM     69  H   LIG d   1       9.568  -3.978  -6.909  0.00  0.00     0.027 H 
ATOM     70  H   LIG d   1       7.934  -2.219  -6.639  0.00  0.00     0.031 H 
ATOM     71  H   LIG d   1       8.724  -2.448  -5.064  0.00  0.00     0.031 H 
BRANCH  53  72
ATOM     72  C   LIG d   1       4.421   0.807  -1.718  0.00  0.00    -0.040 C 
ATOM     73  H   LIG d   1       5.117   1.637  -1.602  0.00  0.00     0.028 H 
ATOM     74  H   LIG d   1       3.490   1.171  -2.153  0.00  0.00     0.028 H 
ATOM     75  H   LIG d   1       4.217   0.365  -0.743  0.00  0.00     0.028 H 
ENDBRANCH  53  72
ENDBRANCH  46  47
ENDBRANCH  43  46
ENDBRANCH  41  43
ENDBRANCH  40  41
ENDBRANCH   1  40
BRANCH   5  76
ATOM     76  C   LIG d   1       5.414  -0.187 -10.864  0.00  0.00    -0.056 C 
ATOM     77  H   LIG d   1       4.643  -0.002 -11.611  0.00  0.00     0.024 H 
ATOM     78  H   LIG d   1       6.113   0.650 -10.848  0.00  0.00     0.024 H 
ATOM     79  H   LIG d   1       5.950  -1.102 -11.112  0.00  0.00     0.024 H 
ENDBRANCH   5  76
BRANCH  10  80
ATOM     80  C   LIG d   1       2.542  -2.518 -12.513  0.00  0.00    -0.059 C 
ATOM     81  H   LIG d   1       2.042  -2.795 -13.441  0.00  0.00     0.024 H 
ATOM     82  H   LIG d   1       3.122  -1.608 -12.671  0.00  0.00     0.024 H 
ATOM     83  H   LIG d   1       3.207  -3.324 -12.203  0.00  0.00     0.024 H 
ENDBRANCH  10  80
BRANCH  21  84
ATOM     84  C   LIG d   1       0.053  -3.207 -13.247  0.00  0.00    -0.041 C 
ATOM     85  H   LIG d   1       1.025  -3.126 -13.735  0.00  0.00     0.030 H 
BRANCH  84  86
ATOM     86  C   LIG d   1      -0.870  -2.101 -13.760  0.00  0.00    -0.062 C 
ATOM     87  H   LIG d   1      -1.317  -1.578 -12.914  0.00  0.00     0.023 H 
ATOM     88  H   LIG d   1      -0.292  -1.396 -14.359  0.00  0.00     0.023 H 
ATOM     89  H   LIG d   1      -1.656  -2.538 -14.374  0.00  0.00     0.023 H 
ENDBRANCH  84  86
BRANCH  84  90
ATOM     90  C   LIG d   1      -0.563  -4.573 -13.560  0.00  0.00    -0.050 C 
ATOM     91  H   LIG d   1      -0.166  -4.942 -14.506  0.00  0.00     0.027 H 
ATOM     92  H   LIG d   1      -0.315  -5.274 -12.764  0.00  0.00     0.027 H 
BRANCH  90  93
ATOM     93  C   LIG d   1      -2.083  -4.435 -13.663  0.00  0.00    -0.053 C 
ATOM     94  H   LIG d   1      -2.382  -3.441 -13.332  0.00  0.00     0.026 H 
ATOM     95  H   LIG d   1      -2.391  -4.580 -14.699  0.00  0.00     0.026 H 
BRANCH  93  96
ATOM     96  C   LIG d   1      -2.752  -5.492 -12.781  0.00  0.00    -0.051 C 
ATOM     97  H   LIG d   1      -3.297  -6.197 -13.408  0.00  0.00     0.027 H 
ATOM     98  H   LIG d   1      -1.990  -6.024 -12.212  0.00  0.00     0.027 H 
BRANCH  96  99
ATOM     99  C   LIG d   1      -3.723  -4.809 -11.817  0.00  0.00    -0.047 C 
ATOM    100  H   LIG d   1      -4.672  -5.345 -11.816  0.00  0.00     0.029 H 
BRANCH  99 101
ATOM    101  C   LIG d   1      -3.131  -4.816 -10.406  0.00  0.00    -0.063 C 
ATOM    102  H   LIG d   1      -2.410  -5.630 -10.319  0.00  0.00     0.023 H 
ATOM    103  H   LIG d   1      -2.632  -3.866 -10.217  0.00  0.00     0.023 H 
ATOM    104  H   LIG d   1      -3.929  -4.959  -9.678  0.00  0.00     0.023 H 
ENDBRANCH  99 101
BRANCH  99 105
ATOM    105  C   LIG d   1      -3.954  -3.364 -12.264  0.00  0.00    -0.063 C 
ATOM    106  H   LIG d   1      -3.620  -3.245 -13.296  0.00  0.00     0.023 H 
ATOM    107  H   LIG d   1      -5.016  -3.127 -12.197  0.00  0.00     0.023 H 
ATOM    108  H   LIG d   1      -3.391  -2.689 -11.620  0.00  0.00     0.023 H 
ENDBRANCH  99 105
ENDBRANCH  96  99
ENDBRANCH  93  96
ENDBRANCH  90  93
ENDBRANCH  84  90
ENDBRANCH  21  84
TORSDOF 16
ENDMDL
MODEL 6
REMARK VINA RESULT:      -6.9      4.076     10.590
REMARK  16 active torsions:
REMARK  status: ('A' for Active; 'I' for Inactive)
REMARK    1  A    between atoms: C_1  and  C_2 
REMARK    2  A    between atoms: C_6  and  O_8 
REMARK    3  A    between atoms: O_8  and  C_9 
REMARK    4  A    between atoms: C_9  and  C_10 
REMARK    5  A    between atoms: C_10  and  O_12 
REMARK    6  A    between atoms: O_12  and  C_13 
REMARK    7  A    between atoms: C_17  and  C_45 
REMARK    8  A    between atoms: C_22  and  C_44 
REMARK    9  A    between atoms: C_33  and  C_35 
REMARK   10  A    between atoms: C_35  and  C_37 
REMARK   11  A    between atoms: C_35  and  C_38 
REMARK   12  A    between atoms: C_38  and  C_39 
REMARK   13  A    between atoms: C_39  and  C_40 
REMARK   14  A    between atoms: C_40  and  C_41 
REMARK   15  A    between atoms: C_41  and  C_42 
REMARK   16  A    between atoms: C_41  and  C_43 
ROOT
ATOM      1  C   LIG d   1       0.922  -3.707 -13.301  0.00  0.00     0.107 C 
ATOM      2  H   LIG d   1      -0.037  -3.728 -12.783  0.00  0.00     0.074 H 
ATOM      3  C   LIG d   1       1.846  -4.769 -12.705  0.00  0.00    -0.015 C 
ATOM      4  C   LIG d   1       1.993  -4.540 -11.199  0.00  0.00    -0.040 C 
ATOM      5  C   LIG d   1       2.652  -3.181 -10.954  0.00  0.00    -0.008 C 
ATOM      6  C   LIG d   1       2.791  -2.931  -9.462  0.00  0.00    -0.029 C 
ATOM      7  H   LIG d   1       1.874  -3.261  -8.972  0.00  0.00     0.031 H 
ATOM      8  C   LIG d   1       3.954  -3.749  -8.906  0.00  0.00    -0.049 C 
ATOM      9  C   LIG d   1       4.184  -3.472  -7.413  0.00  0.00    -0.047 C 
ATOM     10  C   LIG d   1       4.430  -1.983  -7.267  0.00  0.00    -0.026 C 
ATOM     11  C   LIG d   1       3.118  -1.262  -7.679  0.00  0.00    -0.032 C 
ATOM     12  H   LIG d   1       2.267  -1.690  -7.151  0.00  0.00     0.031 H 
ATOM     13  C   LIG d   1       2.976  -1.433  -9.181  0.00  0.00    -0.031 C 
ATOM     14  H   LIG d   1       3.862  -1.060  -9.696  0.00  0.00     0.031 H 
ATOM     15  C   LIG d   1       1.717  -0.698  -9.652  0.00  0.00    -0.031 C 
ATOM     16  C   LIG d   1       1.475  -1.010 -11.101  0.00  0.00    -0.084 C 
ATOM     17  C   LIG d   1       1.875  -2.113 -11.665  0.00  0.00    -0.064 C 
ATOM     18  C   LIG d   1       1.561  -2.325 -13.137  0.00  0.00     0.006 C 
ATOM     19  C   LIG d   1       3.382   0.168  -7.194  0.00  0.00    -0.049 C 
ATOM     20  C   LIG d   1       4.055  -0.054  -5.812  0.00  0.00    -0.049 C 
ATOM     21  C   LIG d   1       4.680  -1.471  -5.852  0.00  0.00    -0.033 C 
ATOM     22  H   LIG d   1       4.193  -2.119  -5.125  0.00  0.00     0.031 H 
ATOM     23  H   LIG d   1       1.425  -5.758 -12.882  0.00  0.00     0.030 H 
ATOM     24  H   LIG d   1       2.827  -4.704 -13.178  0.00  0.00     0.030 H 
ATOM     25  H   LIG d   1       1.007  -4.556 -10.732  0.00  0.00     0.028 H 
ATOM     26  H   LIG d   1       2.611  -5.327 -10.770  0.00  0.00     0.028 H 
ATOM     27  H   LIG d   1       3.739  -4.809  -9.042  0.00  0.00     0.027 H 
ATOM     28  H   LIG d   1       4.860  -3.498  -9.459  0.00  0.00     0.027 H 
ATOM     29  H   LIG d   1       3.302  -3.761  -6.841  0.00  0.00     0.027 H 
ATOM     30  H   LIG d   1       5.054  -4.028  -7.063  0.00  0.00     0.027 H 
ATOM     31  H   LIG d   1       0.862  -1.027  -9.062  0.00  0.00     0.031 H 
ATOM     32  H   LIG d   1       1.854   0.376  -9.529  0.00  0.00     0.031 H 
ATOM     33  H   LIG d   1       0.935  -0.292 -11.699  0.00  0.00     0.057 H 
ATOM     34  H   LIG d   1       2.481  -2.274 -13.719  0.00  0.00     0.035 H 
ATOM     35  H   LIG d   1       0.867  -1.557 -13.477  0.00  0.00     0.035 H 
ATOM     36  H   LIG d   1       4.058   0.687  -7.874  0.00  0.00     0.027 H 
ATOM     37  H   LIG d   1       2.448   0.717  -7.084  0.00  0.00     0.027 H 
ATOM     38  H   LIG d   1       4.832   0.694  -5.650  0.00  0.00     0.027 H 
ATOM     39  H   LIG d   1       3.309   0.003  -5.020  0.00  0.00     0.027 H 
ENDROOT
BRANCH   1  40
ATOM     40  O   LIG d   1       0.719  -3.976 -14.690  0.00  0.00    -0.459 OA
BRANCH  40  41
ATOM     41  C   LIG d   1      -0.484  -4.450 -15.049  0.00  0.00     0.345 C 
ATOM     42  O   LIG d   1      -1.269  -3.734 -15.624  0.00  0.00    -0.247 OA
BRANCH  41  43
ATOM     43  C   LIG d   1      -0.854  -5.876 -14.734  0.00  0.00     0.186 C 
ATOM     44  H   LIG d   1      -0.019  -6.368 -14.239  0.00  0.00     0.082 H 
ATOM     45  H   LIG d   1      -1.090  -6.403 -15.659  0.00  0.00     0.082 H 
BRANCH  43  46
ATOM     46  O   LIG d   1      -1.996  -5.892 -13.874  0.00  0.00    -0.480 OA
BRANCH  46  47
ATOM     47  C   LIG d   1      -1.779  -6.199 -12.570  0.00  0.00     0.133 A 
ATOM     48  C   LIG d   1      -2.587  -5.638 -11.568  0.00  0.00     0.063 A 
ATOM     49  C   LIG d   1      -2.356  -5.959 -10.219  0.00  0.00     0.143 A 
ATOM     50  C   LIG d   1      -3.678  -4.717 -11.910  0.00  0.00    -0.023 A 
ATOM     51  C   LIG d   1      -1.328  -6.832  -9.891  0.00  0.00    -0.015 A 
ATOM     52  O   LIG d   1      -3.135  -5.416  -9.261  0.00  0.00    -0.422 OA
ATOM     53  C   LIG d   1      -0.540  -7.376 -10.884  0.00  0.00    -0.043 A 
ATOM     54  H   LIG d   1      -1.144  -7.084  -8.857  0.00  0.00     0.066 H 
ATOM     55  C   LIG d   1      -0.756  -7.060 -12.215  0.00  0.00    -0.016 A 
ATOM     56  H   LIG d   1      -0.128  -7.491 -12.980  0.00  0.00     0.066 H 
ATOM     57  C   LIG d   1      -4.129  -4.570  -9.568  0.00  0.00     0.341 A 
ATOM     58  C   LIG d   1      -4.425  -4.210 -10.906  0.00  0.00     0.041 A 
ATOM     59  O   LIG d   1      -4.799  -4.097  -8.667  0.00  0.00    -0.245 OA
ATOM     60  C   LIG d   1      -5.579  -3.272 -11.145  0.00  0.00    -0.021 C 
ATOM     61  C   LIG d   1      -5.491  -2.655 -12.540  0.00  0.00    -0.049 C 
ATOM     62  H   LIG d   1      -6.514  -3.824 -11.056  0.00  0.00     0.032 H 
ATOM     63  H   LIG d   1      -5.558  -2.479 -10.400  0.00  0.00     0.032 H 
ATOM     64  C   LIG d   1      -5.298  -3.785 -13.558  0.00  0.00    -0.049 C 
ATOM     65  H   LIG d   1      -6.412  -2.114 -12.761  0.00  0.00     0.027 H 
ATOM     66  H   LIG d   1      -4.643  -1.971 -12.586  0.00  0.00     0.027 H 
ATOM     67  C   LIG d   1      -3.906  -4.380 -13.356  0.00  0.00    -0.026 C 
ATOM     68  H   LIG d   1      -6.054  -4.556 -13.398  0.00  0.00     0.027 H 
ATOM     69  H   LIG d   1      -5.387  -3.388 -14.569  0.00  0.00     0.027 H 
ATOM     70  H   LIG d   1      -3.157  -3.656 -13.679  0.00  0.00     0.031 H 
ATOM     71  H   LIG d   1      -3.812  -5.285 -13.956  0.00  0.00     0.031 H 
BRANCH  53  72
ATOM     72  C   LIG d   1       0.574  -8.323 -10.516  0.00  0.00    -0.040 C 
ATOM     73  H   LIG d   1       1.493  -7.759 -10.355  0.00  0.00     0.028 H 
ATOM     74  H   LIG d   1       0.311  -8.857  -9.602  0.00  0.00     0.028 H 
ATOM     75  H   LIG d   1       0.724  -9.039 -11.324  0.00  0.00     0.028 H 
ENDBRANCH  53  72
ENDBRANCH  46  47
ENDBRANCH  43  46
ENDBRANCH  41  43
ENDBRANCH  40  41
ENDBRANCH   1  40
BRANCH   5  76
ATOM     76  C   LIG d   1       4.061  -3.222 -11.550  0.00  0.00    -0.056 C 
ATOM     77  H   LIG d   1       4.131  -4.044 -12.260  0.00  0.00     0.024 H 
ATOM     78  H   LIG d   1       4.267  -2.281 -12.061  0.00  0.00     0.024 H 
ATOM     79  H   LIG d   1       4.789  -3.367 -10.751  0.00  0.00     0.024 H 
ENDBRANCH   5  76
BRANCH  10  80
ATOM     80  C   LIG d   1       5.576  -1.553  -8.185  0.00  0.00    -0.059 C 
ATOM     81  H   LIG d   1       5.934  -0.569  -7.883  0.00  0.00     0.024 H 
ATOM     82  H   LIG d   1       6.391  -2.274  -8.112  0.00  0.00     0.024 H 
ATOM     83  H   LIG d   1       5.221  -1.510  -9.214  0.00  0.00     0.024 H 
ENDBRANCH  10  80
BRANCH  21  84
ATOM     84  C   LIG d   1       6.183  -1.396  -5.574  0.00  0.00    -0.041 C 
ATOM     85  H   LIG d   1       6.730  -1.461  -6.515  0.00  0.00     0.030 H 
BRANCH  84  86
ATOM     86  C   LIG d   1       6.592  -2.556  -4.666  0.00  0.00    -0.062 C 
ATOM     87  H   LIG d   1       5.862  -2.665  -3.863  0.00  0.00     0.023 H 
ATOM     88  H   LIG d   1       6.631  -3.477  -5.248  0.00  0.00     0.023 H 
ATOM     89  H   LIG d   1       7.574  -2.355  -4.238  0.00  0.00     0.023 H 
ENDBRANCH  84  86
BRANCH  84  90
ATOM     90  C   LIG d   1       6.508  -0.068  -4.886  0.00  0.00    -0.050 C 
ATOM     91  H   LIG d   1       7.509   0.255  -5.173  0.00  0.00     0.027 H 
ATOM     92  H   LIG d   1       5.782   0.686  -5.190  0.00  0.00     0.027 H 
BRANCH  90  93
ATOM     93  C   LIG d   1       6.447  -0.252  -3.368  0.00  0.00    -0.053 C 
ATOM     94  H   LIG d   1       5.820  -1.111  -3.131  0.00  0.00     0.026 H 
ATOM     95  H   LIG d   1       7.453  -0.418  -2.982  0.00  0.00     0.026 H 
BRANCH  93  96
ATOM     96  C   LIG d   1       5.856   1.005  -2.726  0.00  0.00    -0.051 C 
ATOM     97  H   LIG d   1       6.603   1.470  -2.082  0.00  0.00     0.027 H 
ATOM     98  H   LIG d   1       5.561   1.707  -3.506  0.00  0.00     0.027 H 
BRANCH  96  99
ATOM     99  C   LIG d   1       4.631   0.624  -1.893  0.00  0.00    -0.047 C 
ATOM    100  H   LIG d   1       4.789   0.921  -0.857  0.00  0.00     0.029 H 
BRANCH  99 101
ATOM    101  C   LIG d   1       3.396   1.337  -2.447  0.00  0.00    -0.063 C 
ATOM    102  H   LIG d   1       2.771   0.620  -2.982  0.00  0.00     0.023 H 
ATOM    103  H   LIG d   1       2.828   1.771  -1.624  0.00  0.00     0.023 H 
ATOM    104  H   LIG d   1       3.707   2.127  -3.130  0.00  0.00     0.023 H 
ENDBRANCH  99 101
BRANCH  99 105
ATOM    105  C   LIG d   1       4.419  -0.890  -1.962  0.00  0.00    -0.063 C 
ATOM    106  H   LIG d   1       4.121  -1.170  -2.973  0.00  0.00     0.023 H 
ATOM    107  H   LIG d   1       5.347  -1.400  -1.704  0.00  0.00     0.023 H 
ATOM    108  H   LIG d   1       3.637  -1.180  -1.260  0.00  0.00     0.023 H 
ENDBRANCH  99 105
ENDBRANCH  96  99
ENDBRANCH  93  96
ENDBRANCH  90  93
ENDBRANCH  84  90
ENDBRANCH  21  84
TORSDOF 16
ENDMDL
MODEL 7
REMARK VINA RESULT:      -6.8      0.926      2.940
REMARK  16 active torsions:
REMARK  status: ('A' for Active; 'I' for Inactive)
REMARK    1  A    between atoms: C_1  and  C_2 
REMARK    2  A    between atoms: C_6  and  O_8 
REMARK    3  A    between atoms: O_8  and  C_9 
REMARK    4  A    between atoms: C_9  and  C_10 
REMARK    5  A    between atoms: C_10  and  O_12 
REMARK    6  A    between atoms: O_12  and  C_13 
REMARK    7  A    between atoms: C_17  and  C_45 
REMARK    8  A    between atoms: C_22  and  C_44 
REMARK    9  A    between atoms: C_33  and  C_35 
REMARK   10  A    between atoms: C_35  and  C_37 
REMARK   11  A    between atoms: C_35  and  C_38 
REMARK   12  A    between atoms: C_38  and  C_39 
REMARK   13  A    between atoms: C_39  and  C_40 
REMARK   14  A    between atoms: C_40  and  C_41 
REMARK   15  A    between atoms: C_41  and  C_42 
REMARK   16  A    between atoms: C_41  and  C_43 
ROOT
ATOM      1  C   LIG d   1       6.353   0.509  -7.645  0.00  0.00     0.107 C 
ATOM      2  H   LIG d   1       7.083  -0.243  -7.943  0.00  0.00     0.074 H 
ATOM      3  C   LIG d   1       5.162  -0.175  -6.971  0.00  0.00    -0.015 C 
ATOM      4  C   LIG d   1       4.566  -1.221  -7.915  0.00  0.00    -0.040 C 
ATOM      5  C   LIG d   1       4.035  -0.528  -9.172  0.00  0.00    -0.008 C 
ATOM      6  C   LIG d   1       3.454  -1.557 -10.128  0.00  0.00    -0.029 C 
ATOM      7  H   LIG d   1       4.115  -2.424 -10.143  0.00  0.00     0.031 H 
ATOM      8  C   LIG d   1       2.083  -2.006  -9.631  0.00  0.00    -0.049 C 
ATOM      9  C   LIG d   1       1.418  -2.992 -10.605  0.00  0.00    -0.047 C 
ATOM     10  C   LIG d   1       1.324  -2.296 -11.949  0.00  0.00    -0.026 C 
ATOM     11  C   LIG d   1       2.776  -2.059 -12.442  0.00  0.00    -0.032 C 
ATOM     12  H   LIG d   1       3.352  -2.983 -12.388  0.00  0.00     0.031 H 
ATOM     13  C   LIG d   1       3.374  -0.985 -11.550  0.00  0.00    -0.031 C 
ATOM     14  H   LIG d   1       2.755  -0.088 -11.561  0.00  0.00     0.031 H 
ATOM     15  C   LIG d   1       4.798  -0.677 -12.024  0.00  0.00    -0.031 C 
ATOM     16  C   LIG d   1       5.455   0.251 -11.042  0.00  0.00    -0.084 C 
ATOM     17  C   LIG d   1       5.125   0.301  -9.783  0.00  0.00    -0.064 C 
ATOM     18  C   LIG d   1       5.870   1.271  -8.882  0.00  0.00     0.006 C 
ATOM     19  C   LIG d   1       2.548  -1.659 -13.904  0.00  0.00    -0.049 C 
ATOM     20  C   LIG d   1       1.443  -2.647 -14.366  0.00  0.00    -0.049 C 
ATOM     21  C   LIG d   1       0.694  -3.095 -13.085  0.00  0.00    -0.033 C 
ATOM     22  H   LIG d   1       0.837  -4.163 -12.919  0.00  0.00     0.031 H 
ATOM     23  H   LIG d   1       5.493  -0.660  -6.054  0.00  0.00     0.030 H 
ATOM     24  H   LIG d   1       4.403   0.571  -6.732  0.00  0.00     0.030 H 
ATOM     25  H   LIG d   1       5.338  -1.939  -8.194  0.00  0.00     0.028 H 
ATOM     26  H   LIG d   1       3.750  -1.741  -7.414  0.00  0.00     0.028 H 
ATOM     27  H   LIG d   1       2.198  -2.490  -8.660  0.00  0.00     0.027 H 
ATOM     28  H   LIG d   1       1.442  -1.131  -9.517  0.00  0.00     0.027 H 
ATOM     29  H   LIG d   1       2.026  -3.892 -10.694  0.00  0.00     0.027 H 
ATOM     30  H   LIG d   1       0.421  -3.248 -10.249  0.00  0.00     0.027 H 
ATOM     31  H   LIG d   1       5.369  -1.603 -12.086  0.00  0.00     0.031 H 
ATOM     32  H   LIG d   1       4.762  -0.203 -13.004  0.00  0.00     0.031 H 
ATOM     33  H   LIG d   1       6.243   0.900 -11.395  0.00  0.00     0.057 H 
ATOM     34  H   LIG d   1       5.201   2.077  -8.579  0.00  0.00     0.035 H 
ATOM     35  H   LIG d   1       6.726   1.684  -9.415  0.00  0.00     0.035 H 
ATOM     36  H   LIG d   1       2.197  -0.629 -13.971  0.00  0.00     0.027 H 
ATOM     37  H   LIG d   1       3.457  -1.796 -14.489  0.00  0.00     0.027 H 
ATOM     38  H   LIG d   1       0.754  -2.147 -15.046  0.00  0.00     0.027 H 
ATOM     39  H   LIG d   1       1.894  -3.509 -14.857  0.00  0.00     0.027 H 
ENDROOT
BRANCH   1  40
ATOM     40  O   LIG d   1       6.958   1.424  -6.728  0.00  0.00    -0.459 OA
BRANCH  40  41
ATOM     41  C   LIG d   1       8.292   1.554  -6.791  0.00  0.00     0.345 C 
ATOM     42  O   LIG d   1       8.786   2.360  -7.545  0.00  0.00    -0.247 OA
BRANCH  41  43
ATOM     43  C   LIG d   1       9.175   0.696  -5.922  0.00  0.00     0.186 C 
ATOM     44  H   LIG d   1       9.969   1.306  -5.495  0.00  0.00     0.082 H 
ATOM     45  H   LIG d   1       9.611  -0.101  -6.523  0.00  0.00     0.082 H 
BRANCH  43  46
ATOM     46  O   LIG d   1       8.394   0.125  -4.869  0.00  0.00    -0.480 OA
BRANCH  46  47
ATOM     47  C   LIG d   1       7.995  -1.162  -5.028  0.00  0.00     0.133 A 
ATOM     48  C   LIG d   1       6.825  -1.623  -4.402  0.00  0.00     0.063 A 
ATOM     49  C   LIG d   1       6.419  -2.958  -4.571  0.00  0.00     0.143 A 
ATOM     50  C   LIG d   1       6.014  -0.724  -3.572  0.00  0.00    -0.023 A 
ATOM     51  C   LIG d   1       7.181  -3.810  -5.357  0.00  0.00    -0.015 A 
ATOM     52  O   LIG d   1       5.295  -3.394  -3.966  0.00  0.00    -0.422 OA
ATOM     53  C   LIG d   1       8.329  -3.347  -5.966  0.00  0.00    -0.043 A 
ATOM     54  H   LIG d   1       6.875  -4.837  -5.492  0.00  0.00     0.066 H 
ATOM     55  C   LIG d   1       8.741  -2.035  -5.801  0.00  0.00    -0.016 A 
ATOM     56  H   LIG d   1       9.644  -1.690  -6.281  0.00  0.00     0.066 H 
ATOM     57  C   LIG d   1       4.553  -2.579  -3.203  0.00  0.00     0.341 A 
ATOM     58  C   LIG d   1       4.897  -1.220  -2.997  0.00  0.00     0.041 A 
ATOM     59  O   LIG d   1       3.552  -3.021  -2.668  0.00  0.00    -0.245 OA
ATOM     60  C   LIG d   1       3.983  -0.382  -2.143  0.00  0.00    -0.021 C 
ATOM     61  C   LIG d   1       4.697   0.883  -1.670  0.00  0.00    -0.049 C 
ATOM     62  H   LIG d   1       3.104  -0.102  -2.723  0.00  0.00     0.032 H 
ATOM     63  H   LIG d   1       3.670  -0.962  -1.276  0.00  0.00     0.032 H 
ATOM     64  C   LIG d   1       5.321   1.571  -2.891  0.00  0.00    -0.049 C 
ATOM     65  H   LIG d   1       3.980   1.555  -1.197  0.00  0.00     0.027 H 
ATOM     66  H   LIG d   1       5.479   0.619  -0.958  0.00  0.00     0.027 H 
ATOM     67  C   LIG d   1       6.468   0.698  -3.398  0.00  0.00    -0.026 C 
ATOM     68  H   LIG d   1       4.570   1.682  -3.674  0.00  0.00     0.027 H 
ATOM     69  H   LIG d   1       5.702   2.551  -2.605  0.00  0.00     0.027 H 
ATOM     70  H   LIG d   1       7.286   0.728  -2.679  0.00  0.00     0.031 H 
ATOM     71  H   LIG d   1       6.816   1.084  -4.355  0.00  0.00     0.031 H 
BRANCH  53  72
ATOM     72  C   LIG d   1       9.150  -4.282  -6.818  0.00  0.00    -0.040 C 
ATOM     73  H   LIG d   1       8.486  -4.906  -7.416  0.00  0.00     0.028 H 
ATOM     74  H   LIG d   1       9.794  -3.701  -7.479  0.00  0.00     0.028 H 
ATOM     75  H   LIG d   1       9.763  -4.914  -6.177  0.00  0.00     0.028 H 
ENDBRANCH  53  72
ENDBRANCH  46  47
ENDBRANCH  43  46
ENDBRANCH  41  43
ENDBRANCH  40  41
ENDBRANCH   1  40
BRANCH   5  76
ATOM     76  C   LIG d   1       2.901   0.410  -8.755  0.00  0.00    -0.056 C 
ATOM     77  H   LIG d   1       2.260  -0.094  -8.032  0.00  0.00     0.024 H 
ATOM     78  H   LIG d   1       3.321   1.309  -8.304  0.00  0.00     0.024 H 
ATOM     79  H   LIG d   1       2.315   0.683  -9.632  0.00  0.00     0.024 H 
ENDBRANCH   5  76
BRANCH  10  80
ATOM     80  C   LIG d   1       0.597  -0.958 -11.792  0.00  0.00    -0.059 C 
ATOM     81  H   LIG d   1       0.742  -0.583 -10.778  0.00  0.00     0.024 H 
ATOM     82  H   LIG d   1       1.001  -0.240 -12.506  0.00  0.00     0.024 H 
ATOM     83  H   LIG d   1      -0.467  -1.098 -11.979  0.00  0.00     0.024 H 
ENDBRANCH  10  80
BRANCH  21  84
ATOM     84  C   LIG d   1      -0.796  -2.770 -13.200  0.00  0.00    -0.041 C 
ATOM     85  H   LIG d   1      -1.040  -1.943 -12.532  0.00  0.00     0.030 H 
BRANCH  84  86
ATOM     86  C   LIG d   1      -1.618  -4.000 -12.810  0.00  0.00    -0.062 C 
ATOM     87  H   LIG d   1      -1.305  -4.853 -13.414  0.00  0.00     0.023 H 
ATOM     88  H   LIG d   1      -1.458  -4.224 -11.755  0.00  0.00     0.023 H 
ATOM     89  H   LIG d   1      -2.675  -3.801 -12.983  0.00  0.00     0.023 H 
ENDBRANCH  84  86
BRANCH  84  90
ATOM     90  C   LIG d   1      -1.122  -2.374 -14.642  0.00  0.00    -0.050 C 
ATOM     91  H   LIG d   1      -0.307  -1.773 -15.047  0.00  0.00     0.027 H 
ATOM     92  H   LIG d   1      -1.246  -3.273 -15.246  0.00  0.00     0.027 H 
BRANCH  90  93
ATOM     93  C   LIG d   1      -2.417  -1.560 -14.667  0.00  0.00    -0.053 C 
ATOM     94  H   LIG d   1      -2.528  -1.083 -15.640  0.00  0.00     0.026 H 
ATOM     95  H   LIG d   1      -3.265  -2.223 -14.488  0.00  0.00     0.026 H 
BRANCH  93  96
ATOM     96  C   LIG d   1      -2.368  -0.489 -13.575  0.00  0.00    -0.051 C 
ATOM     97  H   LIG d   1      -2.663  -0.929 -12.621  0.00  0.00     0.027 H 
ATOM     98  H   LIG d   1      -1.354  -0.098 -13.496  0.00  0.00     0.027 H 
BRANCH  96  99
ATOM     99  C   LIG d   1      -3.327   0.647 -13.932  0.00  0.00    -0.047 C 
ATOM    100  H   LIG d   1      -3.471   0.675 -15.012  0.00  0.00     0.029 H 
BRANCH  99 101
ATOM    101  C   LIG d   1      -4.673   0.415 -13.243  0.00  0.00    -0.063 C 
ATOM    102  H   LIG d   1      -4.549   0.511 -12.163  0.00  0.00     0.023 H 
ATOM    103  H   LIG d   1      -5.392   1.154 -13.594  0.00  0.00     0.023 H 
ATOM    104  H   LIG d   1      -5.035  -0.585 -13.479  0.00  0.00     0.023 H 
ENDBRANCH  99 101
BRANCH  99 105
ATOM    105  C   LIG d   1      -2.737   1.978 -13.463  0.00  0.00    -0.063 C 
ATOM    106  H   LIG d   1      -2.038   2.351 -14.212  0.00  0.00     0.023 H 
ATOM    107  H   LIG d   1      -3.539   2.703 -13.322  0.00  0.00     0.023 H 
ATOM    108  H   LIG d   1      -2.212   1.831 -12.519  0.00  0.00     0.023 H 
ENDBRANCH  99 105
ENDBRANCH  96  99
ENDBRANCH  93  96
ENDBRANCH  90  93
ENDBRANCH  84  90
ENDBRANCH  21  84
TORSDOF 16
ENDMDL
MODEL 8
REMARK VINA RESULT:      -6.7      6.767     10.866
REMARK  16 active torsions:
REMARK  status: ('A' for Active; 'I' for Inactive)
REMARK    1  A    between atoms: C_1  and  C_2 
REMARK    2  A    between atoms: C_6  and  O_8 
REMARK    3  A    between atoms: O_8  and  C_9 
REMARK    4  A    between atoms: C_9  and  C_10 
REMARK    5  A    between atoms: C_10  and  O_12 
REMARK    6  A    between atoms: O_12  and  C_13 
REMARK    7  A    between atoms: C_17  and  C_45 
REMARK    8  A    between atoms: C_22  and  C_44 
REMARK    9  A    between atoms: C_33  and  C_35 
REMARK   10  A    between atoms: C_35  and  C_37 
REMARK   11  A    between atoms: C_35  and  C_38 
REMARK   12  A    between atoms: C_38  and  C_39 
REMARK   13  A    between atoms: C_39  and  C_40 
REMARK   14  A    between atoms: C_40  and  C_41 
REMARK   15  A    between atoms: C_41  and  C_42 
REMARK   16  A    between atoms: C_41  and  C_43 
ROOT
ATOM      1  C   LIG d   1      10.742   5.006  -9.257  0.00  0.00     0.107 C 
ATOM      2  H   LIG d   1      10.828   4.397 -10.157  0.00  0.00     0.074 H 
ATOM      3  C   LIG d   1      11.568   4.378  -8.134  0.00  0.00    -0.015 C 
ATOM      4  C   LIG d   1      11.114   2.935  -7.905  0.00  0.00    -0.040 C 
ATOM      5  C   LIG d   1       9.654   2.928  -7.447  0.00  0.00    -0.008 C 
ATOM      6  C   LIG d   1       9.183   1.500  -7.230  0.00  0.00    -0.029 C 
ATOM      7  H   LIG d   1       9.570   0.884  -8.042  0.00  0.00     0.031 H 
ATOM      8  C   LIG d   1       9.741   0.966  -5.913  0.00  0.00    -0.049 C 
ATOM      9  C   LIG d   1       9.230  -0.451  -5.610  0.00  0.00    -0.047 C 
ATOM     10  C   LIG d   1       7.715  -0.384  -5.588  0.00  0.00    -0.026 C 
ATOM     11  C   LIG d   1       7.254  -0.018  -7.024  0.00  0.00    -0.032 C 
ATOM     12  H   LIG d   1       7.722  -0.678  -7.754  0.00  0.00     0.031 H 
ATOM     13  C   LIG d   1       7.650   1.429  -7.258  0.00  0.00    -0.031 C 
ATOM     14  H   LIG d   1       7.229   2.072  -6.485  0.00  0.00     0.031 H 
ATOM     15  C   LIG d   1       7.175   1.859  -8.649  0.00  0.00    -0.031 C 
ATOM     16  C   LIG d   1       7.716   3.226  -8.955  0.00  0.00    -0.084 C 
ATOM     17  C   LIG d   1       8.818   3.686  -8.435  0.00  0.00    -0.064 C 
ATOM     18  C   LIG d   1       9.273   5.081  -8.829  0.00  0.00     0.006 C 
ATOM     19  C   LIG d   1       5.748  -0.293  -6.948  0.00  0.00    -0.049 C 
ATOM     20  C   LIG d   1       5.677  -1.617  -6.140  0.00  0.00    -0.049 C 
ATOM     21  C   LIG d   1       6.982  -1.692  -5.307  0.00  0.00    -0.033 C 
ATOM     22  H   LIG d   1       7.587  -2.540  -5.628  0.00  0.00     0.031 H 
ATOM     23  H   LIG d   1      12.622   4.387  -8.410  0.00  0.00     0.030 H 
ATOM     24  H   LIG d   1      11.430   4.951  -7.217  0.00  0.00     0.030 H 
ATOM     25  H   LIG d   1      11.206   2.374  -8.836  0.00  0.00     0.028 H 
ATOM     26  H   LIG d   1      11.738   2.475  -7.139  0.00  0.00     0.028 H 
ATOM     27  H   LIG d   1      10.829   0.947  -5.971  0.00  0.00     0.027 H 
ATOM     28  H   LIG d   1       9.441   1.634  -5.105  0.00  0.00     0.027 H 
ATOM     29  H   LIG d   1       9.560  -1.139  -6.388  0.00  0.00     0.027 H 
ATOM     30  H   LIG d   1       9.601  -0.778  -4.640  0.00  0.00     0.027 H 
ATOM     31  H   LIG d   1       7.538   1.150  -9.393  0.00  0.00     0.031 H 
ATOM     32  H   LIG d   1       6.086   1.885  -8.672  0.00  0.00     0.031 H 
ATOM     33  H   LIG d   1       7.172   3.853  -9.646  0.00  0.00     0.057 H 
ATOM     34  H   LIG d   1       9.173   5.754  -7.978  0.00  0.00     0.035 H 
ATOM     35  H   LIG d   1       8.667   5.444  -9.659  0.00  0.00     0.035 H 
ATOM     36  H   LIG d   1       5.236   0.511  -6.417  0.00  0.00     0.027 H 
ATOM     37  H   LIG d   1       5.329  -0.426  -7.944  0.00  0.00     0.027 H 
ATOM     38  H   LIG d   1       4.811  -1.606  -5.478  0.00  0.00     0.027 H 
ATOM     39  H   LIG d   1       5.618  -2.467  -6.820  0.00  0.00     0.027 H 
ENDROOT
BRANCH   1  40
ATOM     40  O   LIG d   1      11.227   6.324  -9.526  0.00  0.00    -0.459 OA
BRANCH  40  41
ATOM     41  C   LIG d   1      10.647   7.334  -8.858  0.00  0.00     0.345 C 
ATOM     42  O   LIG d   1       9.598   7.792  -9.244  0.00  0.00    -0.247 OA
BRANCH  41  43
ATOM     43  C   LIG d   1      11.306   7.896  -7.624  0.00  0.00     0.186 C 
ATOM     44  H   LIG d   1      11.650   8.909  -7.825  0.00  0.00     0.082 H 
ATOM     45  H   LIG d   1      12.157   7.271  -7.350  0.00  0.00     0.082 H 
BRANCH  43  46
ATOM     46  O   LIG d   1      10.365   7.915  -6.549  0.00  0.00    -0.480 OA
BRANCH  46  47
ATOM     47  C   LIG d   1      10.113   9.118  -5.973  0.00  0.00     0.133 A 
ATOM     48  C   LIG d   1       9.990   9.223  -4.578  0.00  0.00     0.063 A 
ATOM     49  C   LIG d   1       9.729  10.472  -3.990  0.00  0.00     0.143 A 
ATOM     50  C   LIG d   1      10.133   8.040  -3.720  0.00  0.00    -0.023 A 
ATOM     51  C   LIG d   1       9.596  11.594  -4.796  0.00  0.00    -0.015 A 
ATOM     52  O   LIG d   1       9.611  10.566  -2.649  0.00  0.00    -0.422 OA
ATOM     53  C   LIG d   1       9.718  11.479  -6.166  0.00  0.00    -0.043 A 
ATOM     54  H   LIG d   1       9.396  12.557  -4.351  0.00  0.00     0.066 H 
ATOM     55  C   LIG d   1       9.969  10.251  -6.755  0.00  0.00    -0.016 A 
ATOM     56  H   LIG d   1      10.057  10.177  -7.829  0.00  0.00     0.066 H 
ATOM     57  C   LIG d   1       9.735   9.488  -1.862  0.00  0.00     0.341 A 
ATOM     58  C   LIG d   1      10.008   8.200  -2.386  0.00  0.00     0.041 A 
ATOM     59  O   LIG d   1       9.609   9.620  -0.657  0.00  0.00    -0.245 OA
ATOM     60  C   LIG d   1      10.155   7.059  -1.413  0.00  0.00    -0.021 C 
ATOM     61  C   LIG d   1      10.008   5.719  -2.130  0.00  0.00    -0.049 C 
ATOM     62  H   LIG d   1      11.138   7.110  -0.946  0.00  0.00     0.032 H 
ATOM     63  H   LIG d   1       9.388   7.142  -0.644  0.00  0.00     0.032 H 
ATOM     64  C   LIG d   1      10.944   5.714  -3.345  0.00  0.00    -0.049 C 
ATOM     65  H   LIG d   1      10.280   4.908  -1.453  0.00  0.00     0.027 H 
ATOM     66  H   LIG d   1       8.977   5.590  -2.461  0.00  0.00     0.027 H 
ATOM     67  C   LIG d   1      10.406   6.712  -4.368  0.00  0.00    -0.026 C 
ATOM     68  H   LIG d   1      11.948   6.009  -3.036  0.00  0.00     0.027 H 
ATOM     69  H   LIG d   1      10.973   4.716  -3.782  0.00  0.00     0.027 H 
ATOM     70  H   LIG d   1       9.481   6.324  -4.795  0.00  0.00     0.031 H 
ATOM     71  H   LIG d   1      11.141   6.843  -5.162  0.00  0.00     0.031 H 
BRANCH  53  72
ATOM     72  C   LIG d   1       9.572  12.703  -7.032  0.00  0.00    -0.040 C 
ATOM     73  H   LIG d   1      10.251  12.632  -7.881  0.00  0.00     0.028 H 
ATOM     74  H   LIG d   1       8.545  12.774  -7.393  0.00  0.00     0.028 H 
ATOM     75  H   LIG d   1       9.812  13.592  -6.449  0.00  0.00     0.028 H 
ENDBRANCH  53  72
ENDBRANCH  46  47
ENDBRANCH  43  46
ENDBRANCH  41  43
ENDBRANCH  40  41
ENDBRANCH   1  40
BRANCH   5  76
ATOM     76  C   LIG d   1       9.575   3.652  -6.101  0.00  0.00    -0.056 C 
ATOM     77  H   LIG d   1       8.830   4.445  -6.159  0.00  0.00     0.024 H 
ATOM     78  H   LIG d   1       9.291   2.943  -5.323  0.00  0.00     0.024 H 
ATOM     79  H   LIG d   1      10.547   4.082  -5.863  0.00  0.00     0.024 H 
ENDBRANCH   5  76
BRANCH  10  80
ATOM     80  C   LIG d   1       7.257   0.690  -4.599  0.00  0.00    -0.059 C 
ATOM     81  H   LIG d   1       8.128   1.177  -4.161  0.00  0.00     0.024 H 
ATOM     82  H   LIG d   1       6.652   1.431  -5.122  0.00  0.00     0.024 H 
ATOM     83  H   LIG d   1       6.663   0.229  -3.810  0.00  0.00     0.024 H 
ENDBRANCH  10  80
BRANCH  21  84
ATOM     84  C   LIG d   1       6.654  -1.807  -3.818  0.00  0.00    -0.041 C 
ATOM     85  H   LIG d   1       6.718  -0.821  -3.355  0.00  0.00     0.030 H 
BRANCH  84  86
ATOM     86  C   LIG d   1       7.654  -2.750  -3.147  0.00  0.00    -0.062 C 
ATOM     87  H   LIG d   1       8.361  -3.119  -3.890  0.00  0.00     0.023 H 
ATOM     88  H   LIG d   1       8.195  -2.211  -2.368  0.00  0.00     0.023 H 
ATOM     89  H   LIG d   1       7.121  -3.590  -2.704  0.00  0.00     0.023 H 
ENDBRANCH  84  86
BRANCH  84  90
ATOM     90  C   LIG d   1       5.237  -2.359  -3.648  0.00  0.00    -0.050 C 
ATOM     91  H   LIG d   1       4.629  -2.072  -4.506  0.00  0.00     0.027 H 
ATOM     92  H   LIG d   1       5.278  -3.446  -3.579  0.00  0.00     0.027 H 
BRANCH  90  93
ATOM     93  C   LIG d   1       4.618  -1.790  -2.370  0.00  0.00    -0.053 C 
ATOM     94  H   LIG d   1       4.558  -2.574  -1.615  0.00  0.00     0.026 H 
ATOM     95  H   LIG d   1       5.238  -0.975  -1.998  0.00  0.00     0.026 H 
BRANCH  93  96
ATOM     96  C   LIG d   1       3.213  -1.265  -2.674  0.00  0.00    -0.051 C 
ATOM     97  H   LIG d   1       2.921  -1.570  -3.679  0.00  0.00     0.027 H 
ATOM     98  H   LIG d   1       2.508  -1.675  -1.951  0.00  0.00     0.027 H 
BRANCH  96  99
ATOM     99  C   LIG d   1       3.209   0.261  -2.582  0.00  0.00    -0.047 C 
ATOM    100  H   LIG d   1       2.312   0.591  -2.057  0.00  0.00     0.029 H 
BRANCH  99 101
ATOM    101  C   LIG d   1       4.449   0.729  -1.818  0.00  0.00    -0.063 C 
ATOM    102  H   LIG d   1       4.171   0.987  -0.796  0.00  0.00     0.023 H 
ATOM    103  H   LIG d   1       5.189  -0.071  -1.803  0.00  0.00     0.023 H 
ATOM    104  H   LIG d   1       4.870   1.605  -2.311  0.00  0.00     0.023 H 
ENDBRANCH  99 101
BRANCH  99 105
ATOM    105  C   LIG d   1       3.223   0.857  -3.991  0.00  0.00    -0.063 C 
ATOM    106  H   LIG d   1       3.767   0.192  -4.662  0.00  0.00     0.023 H 
ATOM    107  H   LIG d   1       2.199   0.973  -4.347  0.00  0.00     0.023 H 
ATOM    108  H   LIG d   1       3.712   1.831  -3.969  0.00  0.00     0.023 H 
ENDBRANCH  99 105
ENDBRANCH  96  99
ENDBRANCH  93  96
ENDBRANCH  90  93
ENDBRANCH  84  90
ENDBRANCH  21  84
TORSDOF 16
ENDMDL
MODEL 9
REMARK VINA RESULT:      -6.7      4.589     11.182
REMARK  16 active torsions:
REMARK  status: ('A' for Active; 'I' for Inactive)
REMARK    1  A    between atoms: C_1  and  C_2 
REMARK    2  A    between atoms: C_6  and  O_8 
REMARK    3  A    between atoms: O_8  and  C_9 
REMARK    4  A    between atoms: C_9  and  C_10 
REMARK    5  A    between atoms: C_10  and  O_12 
REMARK    6  A    between atoms: O_12  and  C_13 
REMARK    7  A    between atoms: C_17  and  C_45 
REMARK    8  A    between atoms: C_22  and  C_44 
REMARK    9  A    between atoms: C_33  and  C_35 
REMARK   10  A    between atoms: C_35  and  C_37 
REMARK   11  A    between atoms: C_35  and  C_38 
REMARK   12  A    between atoms: C_38  and  C_39 
REMARK   13  A    between atoms: C_39  and  C_40 
REMARK   14  A    between atoms: C_40  and  C_41 
REMARK   15  A    between atoms: C_41  and  C_42 
REMARK   16  A    between atoms: C_41  and  C_43 
ROOT
ATOM      1  C   LIG d   1       7.966  -1.577  -6.556  0.00  0.00     0.107 C 
ATOM      2  H   LIG d   1       6.964  -1.190  -6.740  0.00  0.00     0.074 H 
ATOM      3  C   LIG d   1       8.297  -1.449  -5.068  0.00  0.00    -0.015 C 
ATOM      4  C   LIG d   1       8.147   0.008  -4.629  0.00  0.00    -0.040 C 
ATOM      5  C   LIG d   1       9.154   0.875  -5.390  0.00  0.00    -0.008 C 
ATOM      6  C   LIG d   1       9.008   2.329  -4.976  0.00  0.00    -0.029 C 
ATOM      7  H   LIG d   1       7.944   2.558  -4.897  0.00  0.00     0.031 H 
ATOM      8  C   LIG d   1       9.649   2.545  -3.608  0.00  0.00    -0.049 C 
ATOM      9  C   LIG d   1       9.594   4.019  -3.178  0.00  0.00    -0.047 C 
ATOM     10  C   LIG d   1      10.294   4.824  -4.255  0.00  0.00    -0.026 C 
ATOM     11  C   LIG d   1       9.450   4.683  -5.551  0.00  0.00    -0.032 C 
ATOM     12  H   LIG d   1       8.404   4.908  -5.349  0.00  0.00     0.031 H 
ATOM     13  C   LIG d   1       9.624   3.255  -6.035  0.00  0.00    -0.031 C 
ATOM     14  H   LIG d   1      10.679   3.020  -6.172  0.00  0.00     0.031 H 
ATOM     15  C   LIG d   1       8.846   3.071  -7.342  0.00  0.00    -0.031 C 
ATOM     16  C   LIG d   1       8.867   1.621  -7.730  0.00  0.00    -0.084 C 
ATOM     17  C   LIG d   1       8.987   0.656  -6.864  0.00  0.00    -0.064 C 
ATOM     18  C   LIG d   1       8.982  -0.775  -7.374  0.00  0.00     0.006 C 
ATOM     19  C   LIG d   1      10.065   5.767  -6.443  0.00  0.00    -0.049 C 
ATOM     20  C   LIG d   1      10.268   6.952  -5.460  0.00  0.00    -0.049 C 
ATOM     21  C   LIG d   1      10.358   6.333  -4.042  0.00  0.00    -0.033 C 
ATOM     22  H   LIG d   1       9.518   6.664  -3.432  0.00  0.00     0.031 H 
ATOM     23  H   LIG d   1       7.616  -2.074  -4.490  0.00  0.00     0.030 H 
ATOM     24  H   LIG d   1       9.323  -1.776  -4.895  0.00  0.00     0.030 H 
ATOM     25  H   LIG d   1       7.135   0.351  -4.848  0.00  0.00     0.028 H 
ATOM     26  H   LIG d   1       8.334   0.087  -3.559  0.00  0.00     0.028 H 
ATOM     27  H   LIG d   1       9.121   1.940  -2.870  0.00  0.00     0.027 H 
ATOM     28  H   LIG d   1      10.690   2.224  -3.650  0.00  0.00     0.027 H 
ATOM     29  H   LIG d   1       8.556   4.341  -3.088  0.00  0.00     0.027 H 
ATOM     30  H   LIG d   1      10.108   4.146  -2.226  0.00  0.00     0.027 H 
ATOM     31  H   LIG d   1       7.815   3.394  -7.201  0.00  0.00     0.031 H 
ATOM     32  H   LIG d   1       9.310   3.665  -8.129  0.00  0.00     0.031 H 
ATOM     33  H   LIG d   1       8.768   1.366  -8.775  0.00  0.00     0.057 H 
ATOM     34  H   LIG d   1       9.975  -1.210  -7.255  0.00  0.00     0.035 H 
ATOM     35  H   LIG d   1       8.699  -0.789  -8.426  0.00  0.00     0.035 H 
ATOM     36  H   LIG d   1      11.021   5.436  -6.850  0.00  0.00     0.027 H 
ATOM     37  H   LIG d   1       9.379   6.044  -7.243  0.00  0.00     0.027 H 
ATOM     38  H   LIG d   1      11.191   7.481  -5.696  0.00  0.00     0.027 H 
ATOM     39  H   LIG d   1       9.420   7.634  -5.517  0.00  0.00     0.027 H 
ENDROOT
BRANCH   1  40
ATOM     40  O   LIG d   1       8.024  -2.953  -6.941  0.00  0.00    -0.459 OA
BRANCH  40  41
ATOM     41  C   LIG d   1       6.957  -3.712  -6.647  0.00  0.00     0.345 C 
ATOM     42  O   LIG d   1       7.020  -4.522  -5.753  0.00  0.00    -0.247 OA
BRANCH  41  43
ATOM     43  C   LIG d   1       5.681  -3.552  -7.433  0.00  0.00     0.186 C 
ATOM     44  H   LIG d   1       5.349  -4.527  -7.788  0.00  0.00     0.082 H 
ATOM     45  H   LIG d   1       5.858  -2.895  -8.284  0.00  0.00     0.082 H 
BRANCH  43  46
ATOM     46  O   LIG d   1       4.674  -2.982  -6.594  0.00  0.00    -0.480 OA
BRANCH  46  47
ATOM     47  C   LIG d   1       4.058  -1.861  -7.047  0.00  0.00     0.133 A 
ATOM     48  C   LIG d   1       3.746  -0.818  -6.161  0.00  0.00     0.063 A 
ATOM     49  C   LIG d   1       3.107   0.340  -6.637  0.00  0.00     0.143 A 
ATOM     50  C   LIG d   1       4.081  -0.918  -4.735  0.00  0.00    -0.023 A 
ATOM     51  C   LIG d   1       2.791   0.440  -7.984  0.00  0.00    -0.015 A 
ATOM     52  O   LIG d   1       2.809   1.338  -5.780  0.00  0.00    -0.422 OA
ATOM     53  C   LIG d   1       3.100  -0.592  -8.846  0.00  0.00    -0.043 A 
ATOM     54  H   LIG d   1       2.300   1.327  -8.359  0.00  0.00     0.066 H 
ATOM     55  C   LIG d   1       3.725  -1.739  -8.384  0.00  0.00    -0.016 A 
ATOM     56  H   LIG d   1       3.956  -2.539  -9.071  0.00  0.00     0.066 H 
ATOM     57  C   LIG d   1       3.109   1.249  -4.477  0.00  0.00     0.341 A 
ATOM     58  C   LIG d   1       3.761   0.117  -3.929  0.00  0.00     0.041 A 
ATOM     59  O   LIG d   1       2.811   2.172  -3.739  0.00  0.00    -0.245 OA
ATOM     60  C   LIG d   1       4.077   0.128  -2.456  0.00  0.00    -0.021 C 
ATOM     61  C   LIG d   1       4.362  -1.288  -1.956  0.00  0.00    -0.049 C 
ATOM     62  H   LIG d   1       4.951   0.753  -2.280  0.00  0.00     0.032 H 
ATOM     63  H   LIG d   1       3.228   0.537  -1.910  0.00  0.00     0.032 H 
ATOM     64  C   LIG d   1       5.406  -1.925  -2.880  0.00  0.00    -0.049 C 
ATOM     65  H   LIG d   1       4.748  -1.246  -0.937  0.00  0.00     0.027 H 
ATOM     66  H   LIG d   1       3.444  -1.877  -1.978  0.00  0.00     0.027 H 
ATOM     67  C   LIG d   1       4.759  -2.166  -4.242  0.00  0.00    -0.026 C 
ATOM     68  H   LIG d   1       6.258  -1.252  -2.991  0.00  0.00     0.027 H 
ATOM     69  H   LIG d   1       5.741  -2.873  -2.458  0.00  0.00     0.027 H 
ATOM     70  H   LIG d   1       4.021  -2.963  -4.152  0.00  0.00     0.031 H 
ATOM     71  H   LIG d   1       5.525  -2.465  -4.956  0.00  0.00     0.031 H 
BRANCH  53  72
ATOM     72  C   LIG d   1       2.752  -0.472 -10.308  0.00  0.00    -0.040 C 
ATOM     73  H   LIG d   1       1.729  -0.813 -10.467  0.00  0.00     0.028 H 
ATOM     74  H   LIG d   1       2.840   0.569 -10.619  0.00  0.00     0.028 H 
ATOM     75  H   LIG d   1       3.435  -1.085 -10.896  0.00  0.00     0.028 H 
ENDBRANCH  53  72
ENDBRANCH  46  47
ENDBRANCH  43  46
ENDBRANCH  41  43
ENDBRANCH  40  41
ENDBRANCH   1  40
BRANCH   5  76
ATOM     76  C   LIG d   1      10.562   0.421  -4.998  0.00  0.00    -0.056 C 
ATOM     77  H   LIG d   1      11.205   0.429  -5.877  0.00  0.00     0.024 H 
ATOM     78  H   LIG d   1      10.966   1.099  -4.246  0.00  0.00     0.024 H 
ATOM     79  H   LIG d   1      10.517  -0.588  -4.589  0.00  0.00     0.024 H 
ENDBRANCH   5  76
BRANCH  10  80
ATOM     80  C   LIG d   1      11.703   4.273  -4.484  0.00  0.00    -0.059 C 
ATOM     81  H   LIG d   1      11.972   3.610  -3.660  0.00  0.00     0.024 H 
ATOM     82  H   LIG d   1      11.728   3.716  -5.421  0.00  0.00     0.024 H 
ATOM     83  H   LIG d   1      12.413   5.098  -4.532  0.00  0.00     0.024 H 
ENDBRANCH  10  80
BRANCH  21  84
ATOM     84  C   LIG d   1      11.680   6.719  -3.378  0.00  0.00    -0.041 C 
ATOM     85  H   LIG d   1      12.396   5.904  -3.492  0.00  0.00     0.030 H 
BRANCH  84  86
ATOM     86  C   LIG d   1      11.445   6.987  -1.890  0.00  0.00    -0.062 C 
ATOM     87  H   LIG d   1      10.516   7.542  -1.763  0.00  0.00     0.023 H 
ATOM     88  H   LIG d   1      11.377   6.038  -1.357  0.00  0.00     0.023 H 
ATOM     89  H   LIG d   1      12.274   7.569  -1.489  0.00  0.00     0.023 H 
ENDBRANCH  84  86
BRANCH  84  90
ATOM     90  C   LIG d   1      12.236   7.981  -4.042  0.00  0.00    -0.050 C 
ATOM     91  H   LIG d   1      13.254   7.794  -4.385  0.00  0.00     0.027 H 
ATOM     92  H   LIG d   1      11.610   8.248  -4.893  0.00  0.00     0.027 H 
BRANCH  90  93
ATOM     93  C   LIG d   1      12.241   9.130  -3.032  0.00  0.00    -0.053 C 
ATOM     94  H   LIG d   1      11.766   8.803  -2.107  0.00  0.00     0.026 H 
ATOM     95  H   LIG d   1      13.269   9.427  -2.826  0.00  0.00     0.026 H 
BRANCH  93  96
ATOM     96  C   LIG d   1      11.472  10.320  -3.609  0.00  0.00    -0.051 C 
ATOM     97  H   LIG d   1      11.732  11.223  -3.056  0.00  0.00     0.027 H 
ATOM     98  H   LIG d   1      11.736  10.448  -4.659  0.00  0.00     0.027 H 
BRANCH  96  99
ATOM     99  C   LIG d   1       9.969  10.063  -3.489  0.00  0.00    -0.047 C 
ATOM    100  H   LIG d   1       9.747   9.046  -3.812  0.00  0.00     0.029 H 
BRANCH  99 101
ATOM    101  C   LIG d   1       9.536  10.241  -2.032  0.00  0.00    -0.063 C 
ATOM    102  H   LIG d   1      10.195   9.662  -1.384  0.00  0.00     0.023 H 
ATOM    103  H   LIG d   1       9.595  11.295  -1.762  0.00  0.00     0.023 H 
ATOM    104  H   LIG d   1       8.511   9.892  -1.912  0.00  0.00     0.023 H 
ENDBRANCH  99 101
BRANCH  99 105
ATOM    105  C   LIG d   1       9.210  11.055  -4.371  0.00  0.00    -0.063 C 
ATOM    106  H   LIG d   1       8.816  11.864  -3.754  0.00  0.00     0.023 H 
ATOM    107  H   LIG d   1       9.885  11.468  -5.121  0.00  0.00     0.023 H 
ATOM    108  H   LIG d   1       8.385  10.544  -4.868  0.00  0.00     0.023 H 
ENDBRANCH  99 105
ENDBRANCH  96  99
ENDBRANCH  93  96
ENDBRANCH  90  93
ENDBRANCH  84  90
ENDBRANCH  21  84
TORSDOF 16
ENDMDL
MODEL 10
REMARK VINA RESULT:      -6.7      3.762     10.879
REMARK  16 active torsions:
REMARK  status: ('A' for Active; 'I' for Inactive)
REMARK    1  A    between atoms: C_1  and  C_2 
REMARK    2  A    between atoms: C_6  and  O_8 
REMARK    3  A    between atoms: O_8  and  C_9 
REMARK    4  A    between atoms: C_9  and  C_10 
REMARK    5  A    between atoms: C_10  and  O_12 
REMARK    6  A    between atoms: O_12  and  C_13 
REMARK    7  A    between atoms: C_17  and  C_45 
REMARK    8  A    between atoms: C_22  and  C_44 
REMARK    9  A    between atoms: C_33  and  C_35 
REMARK   10  A    between atoms: C_35  and  C_37 
REMARK   11  A    between atoms: C_35  and  C_38 
REMARK   12  A    between atoms: C_38  and  C_39 
REMARK   13  A    between atoms: C_39  and  C_40 
REMARK   14  A    between atoms: C_40  and  C_41 
REMARK   15  A    between atoms: C_41  and  C_42 
REMARK   16  A    between atoms: C_41  and  C_43 
ROOT
ATOM      1  C   LIG d   1       8.083  -2.887  -8.356  0.00  0.00     0.107 C 
ATOM      2  H   LIG d   1       9.105  -3.032  -8.704  0.00  0.00     0.074 H 
ATOM      3  C   LIG d   1       7.515  -1.602  -8.963  0.00  0.00    -0.015 C 
ATOM      4  C   LIG d   1       8.422  -0.422  -8.611  0.00  0.00    -0.040 C 
ATOM      5  C   LIG d   1       8.443  -0.231  -7.092  0.00  0.00    -0.008 C 
ATOM      6  C   LIG d   1       9.352   0.929  -6.726  0.00  0.00    -0.029 C 
ATOM      7  H   LIG d   1      10.248   0.873  -7.346  0.00  0.00     0.031 H 
ATOM      8  C   LIG d   1       8.648   2.251  -7.018  0.00  0.00    -0.049 C 
ATOM      9  C   LIG d   1       9.498   3.458  -6.593  0.00  0.00    -0.047 C 
ATOM     10  C   LIG d   1       9.791   3.297  -5.113  0.00  0.00    -0.026 C 
ATOM     11  C   LIG d   1      10.671   2.028  -4.958  0.00  0.00    -0.032 C 
ATOM     12  H   LIG d   1      11.517   2.066  -5.642  0.00  0.00     0.031 H 
ATOM     13  C   LIG d   1       9.777   0.836  -5.254  0.00  0.00    -0.031 C 
ATOM     14  H   LIG d   1       8.900   0.843  -4.607  0.00  0.00     0.031 H 
ATOM     15  C   LIG d   1      10.585  -0.453  -5.069  0.00  0.00    -0.031 C 
ATOM     16  C   LIG d   1       9.763  -1.622  -5.529  0.00  0.00    -0.084 C 
ATOM     17  C   LIG d   1       8.831  -1.521  -6.433  0.00  0.00    -0.064 C 
ATOM     18  C   LIG d   1       8.073  -2.777  -6.829  0.00  0.00     0.006 C 
ATOM     19  C   LIG d   1      11.151   2.156  -3.508  0.00  0.00    -0.049 C 
ATOM     20  C   LIG d   1      11.480   3.669  -3.385  0.00  0.00    -0.049 C 
ATOM     21  C   LIG d   1      10.637   4.390  -4.466  0.00  0.00    -0.033 C 
ATOM     22  H   LIG d   1      11.288   4.852  -5.208  0.00  0.00     0.031 H 
ATOM     23  H   LIG d   1       7.458  -1.707 -10.046  0.00  0.00     0.030 H 
ATOM     24  H   LIG d   1       6.516  -1.423  -8.564  0.00  0.00     0.030 H 
ATOM     25  H   LIG d   1       9.433  -0.622  -8.967  0.00  0.00     0.028 H 
ATOM     26  H   LIG d   1       8.042   0.482  -9.086  0.00  0.00     0.028 H 
ATOM     27  H   LIG d   1       8.448   2.317  -8.088  0.00  0.00     0.027 H 
ATOM     28  H   LIG d   1       7.700   2.274  -6.479  0.00  0.00     0.027 H 
ATOM     29  H   LIG d   1      10.430   3.472  -7.157  0.00  0.00     0.027 H 
ATOM     30  H   LIG d   1       8.944   4.380  -6.763  0.00  0.00     0.027 H 
ATOM     31  H   LIG d   1      11.499  -0.397  -5.659  0.00  0.00     0.031 H 
ATOM     32  H   LIG d   1      10.837  -0.577  -4.016  0.00  0.00     0.031 H 
ATOM     33  H   LIG d   1       9.960  -2.592  -5.098  0.00  0.00     0.057 H 
ATOM     34  H   LIG d   1       7.045  -2.713  -6.472  0.00  0.00     0.035 H 
ATOM     35  H   LIG d   1       8.559  -3.651  -6.395  0.00  0.00     0.035 H 
ATOM     36  H   LIG d   1      10.358   1.876  -2.813  0.00  0.00     0.027 H 
ATOM     37  H   LIG d   1      12.042   1.553  -3.342  0.00  0.00     0.027 H 
ATOM     38  H   LIG d   1      11.207   4.032  -2.394  0.00  0.00     0.027 H 
ATOM     39  H   LIG d   1      12.541   3.836  -3.565  0.00  0.00     0.027 H 
ENDROOT
BRANCH   1  40
ATOM     40  O   LIG d   1       7.280  -3.999  -8.759  0.00  0.00    -0.459 OA
BRANCH  40  41
ATOM     41  C   LIG d   1       6.406  -4.476  -7.859  0.00  0.00     0.345 C 
ATOM     42  O   LIG d   1       6.777  -5.244  -7.004  0.00  0.00    -0.247 OA
BRANCH  41  43
ATOM     43  C   LIG d   1       4.960  -4.052  -7.917  0.00  0.00     0.186 C 
ATOM     44  H   LIG d   1       4.321  -4.919  -7.761  0.00  0.00     0.082 H 
ATOM     45  H   LIG d   1       4.749  -3.615  -8.893  0.00  0.00     0.082 H 
BRANCH  43  46
ATOM     46  O   LIG d   1       4.708  -3.083  -6.897  0.00  0.00    -0.480 OA
BRANCH  46  47
ATOM     47  C   LIG d   1       4.057  -1.952  -7.271  0.00  0.00     0.133 A 
ATOM     48  C   LIG d   1       3.772  -0.954  -6.324  0.00  0.00     0.063 A 
ATOM     49  C   LIG d   1       3.098   0.214  -6.718  0.00  0.00     0.143 A 
ATOM     50  C   LIG d   1       4.173  -1.114  -4.921  0.00  0.00    -0.023 A 
ATOM     51  C   LIG d   1       2.720   0.371  -8.044  0.00  0.00    -0.015 A 
ATOM     52  O   LIG d   1       2.826   1.167  -5.803  0.00  0.00    -0.422 OA
ATOM     53  C   LIG d   1       3.004  -0.617  -8.966  0.00  0.00    -0.043 A 
ATOM     54  H   LIG d   1       2.201   1.266  -8.355  0.00  0.00     0.066 H 
ATOM     55  C   LIG d   1       3.663  -1.774  -8.585  0.00  0.00    -0.016 A 
ATOM     56  H   LIG d   1       3.874  -2.539  -9.317  0.00  0.00     0.066 H 
ATOM     57  C   LIG d   1       3.184   1.024  -4.520  0.00  0.00     0.341 A 
ATOM     58  C   LIG d   1       3.875  -0.122  -4.055  0.00  0.00     0.041 A 
ATOM     59  O   LIG d   1       2.908   1.908  -3.729  0.00  0.00    -0.245 OA
ATOM     60  C   LIG d   1       4.256  -0.173  -2.598  0.00  0.00    -0.021 C 
ATOM     61  C   LIG d   1       4.582  -1.605  -2.177  0.00  0.00    -0.049 C 
ATOM     62  H   LIG d   1       5.130   0.457  -2.433  0.00  0.00     0.032 H 
ATOM     63  H   LIG d   1       3.427   0.198  -1.997  0.00  0.00     0.032 H 
ATOM     64  C   LIG d   1       5.593  -2.184  -3.175  0.00  0.00    -0.049 C 
ATOM     65  H   LIG d   1       5.013  -1.604  -1.176  0.00  0.00     0.027 H 
ATOM     66  H   LIG d   1       3.673  -2.206  -2.185  0.00  0.00     0.027 H 
ATOM     67  C   LIG d   1       4.887  -2.372  -4.517  0.00  0.00    -0.026 C 
ATOM     68  H   LIG d   1       6.429  -1.494  -3.293  0.00  0.00     0.027 H 
ATOM     69  H   LIG d   1       5.958  -3.145  -2.812  0.00  0.00     0.027 H 
ATOM     70  H   LIG d   1       4.165  -3.184  -4.431  0.00  0.00     0.031 H 
ATOM     71  H   LIG d   1       5.625  -2.628  -5.277  0.00  0.00     0.031 H 
BRANCH  53  72
ATOM     72  C   LIG d   1       2.589  -0.436 -10.403  0.00  0.00    -0.040 C 
ATOM     73  H   LIG d   1       2.460  -1.412 -10.870  0.00  0.00     0.028 H 
ATOM     74  H   LIG d   1       1.648   0.114 -10.444  0.00  0.00     0.028 H 
ATOM     75  H   LIG d   1       3.358   0.123 -10.936  0.00  0.00     0.028 H 
ENDBRANCH  53  72
ENDBRANCH  46  47
ENDBRANCH  43  46
ENDBRANCH  41  43
ENDBRANCH  40  41
ENDBRANCH   1  40
BRANCH   5  76
ATOM     76  C   LIG d   1       7.027   0.129  -6.639  0.00  0.00    -0.056 C 
ATOM     77  H   LIG d   1       6.340   0.031  -7.479  0.00  0.00     0.024 H 
ATOM     78  H   LIG d   1       6.720  -0.545  -5.838  0.00  0.00     0.024 H 
ATOM     79  H   LIG d   1       7.013   1.155  -6.274  0.00  0.00     0.024 H 
ENDBRANCH   5  76
BRANCH  10  80
ATOM     80  C   LIG d   1       8.482   3.128  -4.340  0.00  0.00    -0.059 C 
ATOM     81  H   LIG d   1       8.588   3.563  -3.346  0.00  0.00     0.024 H 
ATOM     82  H   LIG d   1       7.676   3.633  -4.873  0.00  0.00     0.024 H 
ATOM     83  H   LIG d   1       8.248   2.068  -4.249  0.00  0.00     0.024 H 
ENDBRANCH  10  80
BRANCH  21  84
ATOM     84  C   LIG d   1       9.736   5.445  -3.821  0.00  0.00    -0.041 C 
ATOM     85  H   LIG d   1       8.691   5.194  -4.008  0.00  0.00     0.030 H 
BRANCH  84  86
ATOM     86  C   LIG d   1      10.046   6.817  -4.422  0.00  0.00    -0.062 C 
ATOM     87  H   LIG d   1      10.955   7.215  -3.970  0.00  0.00     0.023 H 
ATOM     88  H   LIG d   1      10.190   6.717  -5.498  0.00  0.00     0.023 H 
ATOM     89  H   LIG d   1       9.216   7.495  -4.228  0.00  0.00     0.023 H 
ENDBRANCH  84  86
BRANCH  84  90
ATOM     90  C   LIG d   1       9.990   5.479  -2.312  0.00  0.00    -0.050 C 
ATOM     91  H   LIG d   1       9.341   4.756  -1.818  0.00  0.00     0.027 H 
ATOM     92  H   LIG d   1      11.032   5.227  -2.114  0.00  0.00     0.027 H 
BRANCH  90  93
ATOM     93  C   LIG d   1       9.693   6.881  -1.777  0.00  0.00    -0.053 C 
ATOM     94  H   LIG d   1       9.797   7.607  -2.582  0.00  0.00     0.026 H 
ATOM     95  H   LIG d   1       8.675   6.912  -1.388  0.00  0.00     0.026 H 
BRANCH  93  96
ATOM     96  C   LIG d   1      10.678   7.217  -0.654  0.00  0.00    -0.051 C 
ATOM     97  H   LIG d   1      11.436   7.904  -1.030  0.00  0.00     0.027 H 
ATOM     98  H   LIG d   1      10.141   7.684   0.171  0.00  0.00     0.027 H 
BRANCH  96  99
ATOM     99  C   LIG d   1      11.349   5.933  -0.164  0.00  0.00    -0.047 C 
ATOM    100  H   LIG d   1      10.943   5.080  -0.707  0.00  0.00     0.029 H 
BRANCH  99 101
ATOM    101  C   LIG d   1      12.857   6.021  -0.407  0.00  0.00    -0.063 C 
ATOM    102  H   LIG d   1      13.368   6.203   0.539  0.00  0.00     0.023 H 
ATOM    103  H   LIG d   1      13.211   5.084  -0.837  0.00  0.00     0.023 H 
ATOM    104  H   LIG d   1      13.067   6.839  -1.096  0.00  0.00     0.023 H 
ENDBRANCH  99 101
BRANCH  99 105
ATOM    105  C   LIG d   1      11.084   5.758   1.332  0.00  0.00    -0.063 C 
ATOM    106  H   LIG d   1      10.030   5.947   1.539  0.00  0.00     0.023 H 
ATOM    107  H   LIG d   1      11.335   4.740   1.630  0.00  0.00     0.023 H 
ATOM    108  H   LIG d   1      11.696   6.462   1.895  0.00  0.00     0.023 H 
ENDBRANCH  99 105
ENDBRANCH  96  99
ENDBRANCH  93  96
ENDBRANCH  90  93
ENDBRANCH  84  90
ENDBRANCH  21  84
TORSDOF 16
ENDMDL
