MODEL 1
REMARK VINA RESULT:      -5.8      0.000      0.000
REMARK  9 active torsions:
REMARK  status: ('A' for Active; 'I' for Inactive)
REMARK    1  A    between atoms: C_1  and  N_47 
REMARK    2  A    between atoms: C_7  and  O_10 
REMARK    3  A    between atoms: C_8  and  O_9 
REMARK    4  A    between atoms: O_10  and  C_11 
REMARK    5  A    between atoms: C_12  and  C_15 
REMARK    6  A    between atoms: C_15  and  C_16 
REMARK    7  A    between atoms: C_20  and  O_24 
REMARK    8  A    between atoms: C_21  and  O_22 
REMARK    9  A    between atoms: O_22  and  C_23 
ROOT
ATOM      1  C   LIG d   1       4.002  -4.248  -8.736  0.00  0.00    -0.002 C 
ATOM      2  C   LIG d   1       3.880  -2.758  -8.560  0.00  0.00     0.046 A 
ATOM      3  C   LIG d   1       4.167  -2.141  -7.360  0.00  0.00    -0.027 A 
ATOM      4  C   LIG d   1       4.052  -0.764  -7.243  0.00  0.00    -0.054 A 
ATOM      5  C   LIG d   1       3.648  -0.001  -8.322  0.00  0.00    -0.016 A 
ATOM      6  C   LIG d   1       3.355  -0.614  -9.529  0.00  0.00     0.162 A 
ATOM      7  C   LIG d   1       3.472  -1.994  -9.648  0.00  0.00     0.167 A 
ATOM      8  C   LIG d   1       4.607  -2.928  -6.153  0.00  0.00     0.029 C 
ATOM      9  H   LIG d   1       3.773  -3.024  -5.458  0.00  0.00     0.040 H 
ATOM     10  C   LIG d   1       5.072  -4.322  -6.578  0.00  0.00    -0.025 C 
ATOM     11  H   LIG d   1       3.148  -4.614  -9.308  0.00  0.00     0.087 H 
ATOM     12  H   LIG d   1       4.920  -4.473  -9.279  0.00  0.00     0.087 H 
ATOM     13  H   LIG d   1       4.279  -0.285  -6.303  0.00  0.00     0.062 H 
ATOM     14  H   LIG d   1       3.562   1.071  -8.224  0.00  0.00     0.066 H 
ATOM     15  H   LIG d   1       6.005  -4.242  -7.137  0.00  0.00     0.082 H 
ATOM     16  H   LIG d   1       5.222  -4.943  -5.696  0.00  0.00     0.082 H 
ATOM     17  N   LIG d   1       4.013  -4.912  -7.422  0.00  0.00     0.237 N 
ATOM     18  H   LIG d   1       3.104  -4.771  -6.967  0.00  0.00     0.203 HD
ENDROOT
BRANCH   8  19
ATOM     19  C   LIG d   1       5.761  -2.198  -5.462  0.00  0.00    -0.012 C 
ATOM     20  H   LIG d   1       6.125  -1.400  -6.109  0.00  0.00     0.032 H 
ATOM     21  H   LIG d   1       6.569  -2.901  -5.264  0.00  0.00     0.032 H 
BRANCH  19  22
ATOM     22  C   LIG d   1       5.277  -1.608  -4.163  0.00  0.00    -0.001 A 
ATOM     23  C   LIG d   1       5.598  -0.301  -3.834  0.00  0.00     0.164 A 
ATOM     24  C   LIG d   1       5.149   0.241  -2.633  0.00  0.00     0.159 A 
ATOM     25  C   LIG d   1       4.388  -0.530  -1.769  0.00  0.00    -0.017 A 
ATOM     26  C   LIG d   1       4.066  -1.832  -2.107  0.00  0.00    -0.058 A 
ATOM     27  H   LIG d   1       4.042  -0.114  -0.835  0.00  0.00     0.066 H 
ATOM     28  C   LIG d   1       4.512  -2.371  -3.299  0.00  0.00    -0.055 A 
ATOM     29  H   LIG d   1       3.470  -2.431  -1.435  0.00  0.00     0.062 H 
ATOM     30  H   LIG d   1       4.263  -3.389  -3.557  0.00  0.00     0.062 H 
BRANCH  23  31
ATOM     31  O   LIG d   1       6.349   0.450  -4.682  0.00  0.00    -0.491 OA
BRANCH  31  32
ATOM     32  C   LIG d   1       7.750   0.528  -4.413  0.00  0.00     0.079 C 
ATOM     33  H   LIG d   1       8.301   0.031  -5.212  0.00  0.00     0.066 H 
ATOM     34  H   LIG d   1       8.053   1.573  -4.359  0.00  0.00     0.066 H 
ATOM     35  H   LIG d   1       7.966   0.037  -3.464  0.00  0.00     0.066 H 
ENDBRANCH  31  32
ENDBRANCH  23  31
BRANCH  24  36
ATOM     36  O   LIG d   1       5.460   1.524  -2.305  0.00  0.00    -0.503 OA
ATOM     37  H   LIG d   1       4.691   2.095  -2.179  0.00  0.00     0.292 HD
ENDBRANCH  24  36
ENDBRANCH  19  22
ENDBRANCH   8  19
BRANCH  17  38
ATOM     38  C   LIG d   1       4.247  -6.364  -7.590  0.00  0.00    -0.043 C 
ATOM     39  H   LIG d   1       5.061  -6.693  -6.944  0.00  0.00     0.078 H 
ATOM     40  H   LIG d   1       3.336  -6.903  -7.330  0.00  0.00     0.078 H 
ATOM     41  H   LIG d   1       4.505  -6.566  -8.629  0.00  0.00     0.078 H 
ENDBRANCH  17  38
BRANCH   7  42
ATOM     42  O   LIG d   1       3.186  -2.600 -10.831  0.00  0.00    -0.503 OA
ATOM     43  H   LIG d   1       3.892  -3.172 -11.161  0.00  0.00     0.292 HD
ENDBRANCH   7  42
BRANCH   6  44
ATOM     44  O   LIG d   1       2.957   0.131 -10.595  0.00  0.00    -0.491 OA
BRANCH  44  45
ATOM     45  C   LIG d   1       3.934   0.987 -11.190  0.00  0.00     0.079 C 
ATOM     46  H   LIG d   1       4.932   0.618 -10.953  0.00  0.00     0.066 H 
ATOM     47  H   LIG d   1       3.799   0.997 -12.271  0.00  0.00     0.066 H 
ATOM     48  H   LIG d   1       3.818   1.998 -10.800  0.00  0.00     0.066 H 
ENDBRANCH  44  45
ENDBRANCH   6  44
TORSDOF 9
ENDMDL
MODEL 2
REMARK VINA RESULT:      -5.8      2.076      4.215
REMARK  9 active torsions:
REMARK  status: ('A' for Active; 'I' for Inactive)
REMARK    1  A    between atoms: C_1  and  N_47 
REMARK    2  A    between atoms: C_7  and  O_10 
REMARK    3  A    between atoms: C_8  and  O_9 
REMARK    4  A    between atoms: O_10  and  C_11 
REMARK    5  A    between atoms: C_12  and  C_15 
REMARK    6  A    between atoms: C_15  and  C_16 
REMARK    7  A    between atoms: C_20  and  O_24 
REMARK    8  A    between atoms: C_21  and  O_22 
REMARK    9  A    between atoms: O_22  and  C_23 
ROOT
ATOM      1  C   LIG d   1       4.133  -2.863  -7.536  0.00  0.00    -0.002 C 
ATOM      2  C   LIG d   1       4.681  -4.105  -6.885  0.00  0.00     0.046 A 
ATOM      3  C   LIG d   1       5.782  -4.067  -6.056  0.00  0.00    -0.027 A 
ATOM      4  C   LIG d   1       6.249  -5.234  -5.469  0.00  0.00    -0.054 A 
ATOM      5  C   LIG d   1       5.619  -6.440  -5.710  0.00  0.00    -0.016 A 
ATOM      6  C   LIG d   1       4.514  -6.485  -6.544  0.00  0.00     0.162 A 
ATOM      7  C   LIG d   1       4.045  -5.317  -7.132  0.00  0.00     0.167 A 
ATOM      8  C   LIG d   1       6.507  -2.778  -5.765  0.00  0.00     0.029 C 
ATOM      9  H   LIG d   1       7.429  -2.742  -6.345  0.00  0.00     0.040 H 
ATOM     10  C   LIG d   1       5.626  -1.586  -6.140  0.00  0.00    -0.025 C 
ATOM     11  H   LIG d   1       3.869  -3.085  -8.571  0.00  0.00     0.087 H 
ATOM     12  H   LIG d   1       3.240  -2.539  -7.001  0.00  0.00     0.087 H 
ATOM     13  H   LIG d   1       7.110  -5.199  -4.819  0.00  0.00     0.062 H 
ATOM     14  H   LIG d   1       5.986  -7.343  -5.248  0.00  0.00     0.066 H 
ATOM     15  H   LIG d   1       4.784  -1.522  -5.451  0.00  0.00     0.082 H 
ATOM     16  H   LIG d   1       6.212  -0.669  -6.094  0.00  0.00     0.082 H 
ATOM     17  N   LIG d   1       5.148  -1.797  -7.522  0.00  0.00     0.237 N 
ATOM     18  H   LIG d   1       5.940  -2.079  -8.111  0.00  0.00     0.203 HD
ENDROOT
BRANCH   8  19
ATOM     19  C   LIG d   1       6.844  -2.710  -4.273  0.00  0.00    -0.012 C 
ATOM     20  H   LIG d   1       7.814  -2.230  -4.142  0.00  0.00     0.032 H 
ATOM     21  H   LIG d   1       6.880  -3.719  -3.863  0.00  0.00     0.032 H 
BRANCH  19  22
ATOM     22  C   LIG d   1       5.788  -1.911  -3.555  0.00  0.00    -0.001 A 
ATOM     23  C   LIG d   1       6.066  -0.623  -3.127  0.00  0.00     0.164 A 
ATOM     24  C   LIG d   1       5.088   0.112  -2.464  0.00  0.00     0.159 A 
ATOM     25  C   LIG d   1       3.843  -0.449  -2.230  0.00  0.00    -0.017 A 
ATOM     26  C   LIG d   1       3.571  -1.733  -2.665  0.00  0.00    -0.058 A 
ATOM     27  H   LIG d   1       3.083   0.118  -1.711  0.00  0.00     0.066 H 
ATOM     28  C   LIG d   1       4.542  -2.464  -3.323  0.00  0.00    -0.055 A 
ATOM     29  H   LIG d   1       2.599  -2.168  -2.485  0.00  0.00     0.062 H 
ATOM     30  H   LIG d   1       4.327  -3.468  -3.657  0.00  0.00     0.062 H 
BRANCH  23  31
ATOM     31  O   LIG d   1       7.290  -0.079  -3.355  0.00  0.00    -0.491 OA
BRANCH  31  32
ATOM     32  C   LIG d   1       7.382   0.904  -4.388  0.00  0.00     0.079 C 
ATOM     33  H   LIG d   1       8.049   0.545  -5.172  0.00  0.00     0.066 H 
ATOM     34  H   LIG d   1       6.393   1.083  -4.808  0.00  0.00     0.066 H 
ATOM     35  H   LIG d   1       7.774   1.832  -3.974  0.00  0.00     0.066 H 
ENDBRANCH  31  32
ENDBRANCH  23  31
BRANCH  24  36
ATOM     36  O   LIG d   1       5.354   1.377  -2.043  0.00  0.00    -0.503 OA
ATOM     37  H   LIG d   1       6.215   1.476  -1.614  0.00  0.00     0.292 HD
ENDBRANCH  24  36
ENDBRANCH  19  22
ENDBRANCH   8  19
BRANCH  17  38
ATOM     38  C   LIG d   1       4.573  -0.542  -8.057  0.00  0.00    -0.043 C 
ATOM     39  H   LIG d   1       3.974  -0.748  -8.943  0.00  0.00     0.078 H 
ATOM     40  H   LIG d   1       3.944  -0.085  -7.292  0.00  0.00     0.078 H 
ATOM     41  H   LIG d   1       5.383   0.140  -8.316  0.00  0.00     0.078 H 
ENDBRANCH  17  38
BRANCH   7  42
ATOM     42  O   LIG d   1       2.960  -5.358  -7.951  0.00  0.00    -0.503 OA
ATOM     43  H   LIG d   1       2.119  -5.460  -7.485  0.00  0.00     0.292 HD
ENDBRANCH   7  42
BRANCH   6  44
ATOM     44  O   LIG d   1       3.890  -7.669  -6.786  0.00  0.00    -0.491 OA
BRANCH  44  45
ATOM     45  C   LIG d   1       4.675  -8.708  -7.375  0.00  0.00     0.079 C 
ATOM     46  H   LIG d   1       5.690  -8.347  -7.538  0.00  0.00     0.066 H 
ATOM     47  H   LIG d   1       4.699  -9.569  -6.706  0.00  0.00     0.066 H 
ATOM     48  H   LIG d   1       4.234  -9.001  -8.328  0.00  0.00     0.066 H 
ENDBRANCH  44  45
ENDBRANCH   6  44
TORSDOF 9
ENDMDL
MODEL 3
REMARK VINA RESULT:      -5.6      3.749      6.845
REMARK  9 active torsions:
REMARK  status: ('A' for Active; 'I' for Inactive)
REMARK    1  A    between atoms: C_1  and  N_47 
REMARK    2  A    between atoms: C_7  and  O_10 
REMARK    3  A    between atoms: C_8  and  O_9 
REMARK    4  A    between atoms: O_10  and  C_11 
REMARK    5  A    between atoms: C_12  and  C_15 
REMARK    6  A    between atoms: C_15  and  C_16 
REMARK    7  A    between atoms: C_20  and  O_24 
REMARK    8  A    between atoms: C_21  and  O_22 
REMARK    9  A    between atoms: O_22  and  C_23 
ROOT
ATOM      1  C   LIG d   1       8.702   2.407  -7.529  0.00  0.00    -0.002 C 
ATOM      2  C   LIG d   1       9.063   2.746  -6.107  0.00  0.00     0.046 A 
ATOM      3  C   LIG d   1       8.442   2.143  -5.034  0.00  0.00    -0.027 A 
ATOM      4  C   LIG d   1       8.812   2.477  -3.740  0.00  0.00    -0.054 A 
ATOM      5  C   LIG d   1       9.801   3.415  -3.515  0.00  0.00    -0.016 A 
ATOM      6  C   LIG d   1      10.428   4.027  -4.588  0.00  0.00     0.162 A 
ATOM      7  C   LIG d   1      10.058   3.692  -5.885  0.00  0.00     0.167 A 
ATOM      8  C   LIG d   1       7.355   1.116  -5.227  0.00  0.00     0.029 C 
ATOM      9  H   LIG d   1       6.385   1.574  -5.031  0.00  0.00     0.040 H 
ATOM     10  C   LIG d   1       7.384   0.586  -6.661  0.00  0.00    -0.025 C 
ATOM     11  H   LIG d   1       8.656   3.324  -8.117  0.00  0.00     0.087 H 
ATOM     12  H   LIG d   1       9.465   1.751  -7.948  0.00  0.00     0.087 H 
ATOM     13  H   LIG d   1       8.324   2.000  -2.903  0.00  0.00     0.062 H 
ATOM     14  H   LIG d   1      10.085   3.669  -2.505  0.00  0.00     0.066 H 
ATOM     15  H   LIG d   1       8.281  -0.017  -6.810  0.00  0.00     0.082 H 
ATOM     16  H   LIG d   1       6.498  -0.020  -6.846  0.00  0.00     0.082 H 
ATOM     17  N   LIG d   1       7.386   1.749  -7.571  0.00  0.00     0.237 N 
ATOM     18  H   LIG d   1       6.667   2.415  -7.265  0.00  0.00     0.203 HD
ENDROOT
BRANCH   8  19
ATOM     19  C   LIG d   1       7.573  -0.044  -4.252  0.00  0.00    -0.012 C 
ATOM     20  H   LIG d   1       8.380   0.207  -3.564  0.00  0.00     0.032 H 
ATOM     21  H   LIG d   1       7.837  -0.942  -4.810  0.00  0.00     0.032 H 
BRANCH  19  22
ATOM     22  C   LIG d   1       6.307  -0.290  -3.473  0.00  0.00    -0.001 A 
ATOM     23  C   LIG d   1       5.696  -1.533  -3.519  0.00  0.00     0.164 A 
ATOM     24  C   LIG d   1       4.527  -1.757  -2.797  0.00  0.00     0.159 A 
ATOM     25  C   LIG d   1       3.976  -0.734  -2.042  0.00  0.00    -0.017 A 
ATOM     26  C   LIG d   1       4.595   0.502  -1.996  0.00  0.00    -0.058 A 
ATOM     27  H   LIG d   1       3.066  -0.903  -1.485  0.00  0.00     0.066 H 
ATOM     28  C   LIG d   1       5.755   0.725  -2.712  0.00  0.00    -0.055 A 
ATOM     29  H   LIG d   1       4.166   1.297  -1.403  0.00  0.00     0.062 H 
ATOM     30  H   LIG d   1       6.232   1.693  -2.677  0.00  0.00     0.062 H 
BRANCH  23  31
ATOM     31  O   LIG d   1       6.238  -2.531  -4.266  0.00  0.00    -0.491 OA
BRANCH  31  32
ATOM     32  C   LIG d   1       5.750  -2.681  -5.600  0.00  0.00     0.079 C 
ATOM     33  H   LIG d   1       5.491  -1.702  -6.004  0.00  0.00     0.066 H 
ATOM     34  H   LIG d   1       6.521  -3.137  -6.220  0.00  0.00     0.066 H 
ATOM     35  H   LIG d   1       4.865  -3.317  -5.594  0.00  0.00     0.066 H 
ENDBRANCH  31  32
ENDBRANCH  23  31
BRANCH  24  36
ATOM     36  O   LIG d   1       3.923  -2.974  -2.838  0.00  0.00    -0.503 OA
ATOM     37  H   LIG d   1       3.409  -3.132  -3.641  0.00  0.00     0.292 HD
ENDBRANCH  24  36
ENDBRANCH  19  22
ENDBRANCH   8  19
BRANCH  17  38
ATOM     38  C   LIG d   1       7.082   1.313  -8.953  0.00  0.00    -0.043 C 
ATOM     39  H   LIG d   1       7.860   0.644  -9.318  0.00  0.00     0.078 H 
ATOM     40  H   LIG d   1       6.124   0.792  -8.958  0.00  0.00     0.078 H 
ATOM     41  H   LIG d   1       7.022   2.189  -9.598  0.00  0.00     0.078 H 
ENDBRANCH  17  38
BRANCH   7  42
ATOM     42  O   LIG d   1      10.671   4.292  -6.941  0.00  0.00    -0.503 OA
ATOM     43  H   LIG d   1      11.594   4.529  -6.777  0.00  0.00     0.292 HD
ENDBRANCH   7  42
BRANCH   6  44
ATOM     44  O   LIG d   1      11.401   4.952  -4.372  0.00  0.00    -0.491 OA
BRANCH  44  45
ATOM     45  C   LIG d   1      11.015   6.159  -3.710  0.00  0.00     0.079 C 
ATOM     46  H   LIG d   1      10.673   6.884  -4.449  0.00  0.00     0.066 H 
ATOM     47  H   LIG d   1      10.207   5.946  -3.010  0.00  0.00     0.066 H 
ATOM     48  H   LIG d   1      11.869   6.565  -3.169  0.00  0.00     0.066 H 
ENDBRANCH  44  45
ENDBRANCH   6  44
TORSDOF 9
ENDMDL
MODEL 4
REMARK VINA RESULT:      -5.5      3.445      5.486
REMARK  9 active torsions:
REMARK  status: ('A' for Active; 'I' for Inactive)
REMARK    1  A    between atoms: C_1  and  N_47 
REMARK    2  A    between atoms: C_7  and  O_10 
REMARK    3  A    between atoms: C_8  and  O_9 
REMARK    4  A    between atoms: O_10  and  C_11 
REMARK    5  A    between atoms: C_12  and  C_15 
REMARK    6  A    between atoms: C_15  and  C_16 
REMARK    7  A    between atoms: C_20  and  O_24 
REMARK    8  A    between atoms: C_21  and  O_22 
REMARK    9  A    between atoms: O_22  and  C_23 
ROOT
ATOM      1  C   LIG d   1       8.681  -5.200  -5.300  0.00  0.00    -0.002 C 
ATOM      2  C   LIG d   1       7.264  -5.676  -5.472  0.00  0.00     0.046 A 
ATOM      3  C   LIG d   1       6.185  -4.846  -5.253  0.00  0.00    -0.027 A 
ATOM      4  C   LIG d   1       4.895  -5.322  -5.433  0.00  0.00    -0.054 A 
ATOM      5  C   LIG d   1       4.680  -6.628  -5.829  0.00  0.00    -0.016 A 
ATOM      6  C   LIG d   1       5.759  -7.469  -6.047  0.00  0.00     0.162 A 
ATOM      7  C   LIG d   1       7.051  -6.992  -5.868  0.00  0.00     0.167 A 
ATOM      8  C   LIG d   1       6.366  -3.414  -4.817  0.00  0.00     0.029 C 
ATOM      9  H   LIG d   1       6.150  -3.329  -3.752  0.00  0.00     0.040 H 
ATOM     10  C   LIG d   1       7.804  -2.966  -5.079  0.00  0.00    -0.025 C 
ATOM     11  H   LIG d   1       9.262  -5.971  -4.792  0.00  0.00     0.087 H 
ATOM     12  H   LIG d   1       9.119  -5.008  -6.279  0.00  0.00     0.087 H 
ATOM     13  H   LIG d   1       4.053  -4.668  -5.263  0.00  0.00     0.062 H 
ATOM     14  H   LIG d   1       3.673  -6.992  -5.968  0.00  0.00     0.066 H 
ATOM     15  H   LIG d   1       7.974  -2.888  -6.153  0.00  0.00     0.082 H 
ATOM     16  H   LIG d   1       7.978  -1.999  -4.607  0.00  0.00     0.082 H 
ATOM     17  N   LIG d   1       8.706  -3.974  -4.484  0.00  0.00     0.237 N 
ATOM     18  H   LIG d   1       8.382  -4.195  -3.536  0.00  0.00     0.203 HD
ENDROOT
BRANCH   8  19
ATOM     19  C   LIG d   1       5.404  -2.518  -5.602  0.00  0.00    -0.012 C 
ATOM     20  H   LIG d   1       4.761  -3.136  -6.227  0.00  0.00     0.032 H 
ATOM     21  H   LIG d   1       5.976  -1.836  -6.231  0.00  0.00     0.032 H 
BRANCH  19  22
ATOM     22  C   LIG d   1       4.558  -1.726  -4.640  0.00  0.00    -0.001 A 
ATOM     23  C   LIG d   1       4.096  -0.469  -4.997  0.00  0.00     0.164 A 
ATOM     24  C   LIG d   1       3.314   0.261  -4.106  0.00  0.00     0.159 A 
ATOM     25  C   LIG d   1       3.007  -0.270  -2.864  0.00  0.00    -0.017 A 
ATOM     26  C   LIG d   1       3.466  -1.527  -2.516  0.00  0.00    -0.058 A 
ATOM     27  H   LIG d   1       2.404   0.296  -2.168  0.00  0.00     0.066 H 
ATOM     28  C   LIG d   1       4.243  -2.252  -3.400  0.00  0.00    -0.055 A 
ATOM     29  H   LIG d   1       3.223  -1.941  -1.549  0.00  0.00     0.062 H 
ATOM     30  H   LIG d   1       4.604  -3.231  -3.123  0.00  0.00     0.062 H 
BRANCH  23  31
ATOM     31  O   LIG d   1       4.405   0.050  -6.215  0.00  0.00    -0.491 OA
BRANCH  31  32
ATOM     32  C   LIG d   1       3.432  -0.100  -7.250  0.00  0.00     0.079 C 
ATOM     33  H   LIG d   1       2.433  -0.069  -6.815  0.00  0.00     0.066 H 
ATOM     34  H   LIG d   1       3.540   0.710  -7.970  0.00  0.00     0.066 H 
ATOM     35  H   LIG d   1       3.580  -1.055  -7.753  0.00  0.00     0.066 H 
ENDBRANCH  31  32
ENDBRANCH  23  31
BRANCH  24  36
ATOM     36  O   LIG d   1       2.857   1.494  -4.452  0.00  0.00    -0.503 OA
ATOM     37  H   LIG d   1       2.559   2.027  -3.702  0.00  0.00     0.292 HD
ENDBRANCH  24  36
ENDBRANCH  19  22
ENDBRANCH   8  19
BRANCH  17  38
ATOM     38  C   LIG d   1      10.085  -3.441  -4.411  0.00  0.00    -0.043 C 
ATOM     39  H   LIG d   1      10.391  -3.050  -5.380  0.00  0.00     0.078 H 
ATOM     40  H   LIG d   1      10.118  -2.642  -3.670  0.00  0.00     0.078 H 
ATOM     41  H   LIG d   1      10.761  -4.242  -4.112  0.00  0.00     0.078 H 
ENDBRANCH  17  38
BRANCH   7  42
ATOM     42  O   LIG d   1       8.113  -7.815  -6.081  0.00  0.00    -0.503 OA
ATOM     43  H   LIG d   1       8.966  -7.358  -6.107  0.00  0.00     0.292 HD
ENDBRANCH   7  42
BRANCH   6  44
ATOM     44  O   LIG d   1       5.554  -8.756  -6.435  0.00  0.00    -0.491 OA
BRANCH  44  45
ATOM     45  C   LIG d   1       4.721  -8.964  -7.578  0.00  0.00     0.079 C 
ATOM     46  H   LIG d   1       3.923  -9.662  -7.323  0.00  0.00     0.066 H 
ATOM     47  H   LIG d   1       4.286  -8.014  -7.889  0.00  0.00     0.066 H 
ATOM     48  H   LIG d   1       5.317  -9.375  -8.392  0.00  0.00     0.066 H 
ENDBRANCH  44  45
ENDBRANCH   6  44
TORSDOF 9
ENDMDL
MODEL 5
REMARK VINA RESULT:      -5.4      9.497     11.002
REMARK  9 active torsions:
REMARK  status: ('A' for Active; 'I' for Inactive)
REMARK    1  A    between atoms: C_1  and  N_47 
REMARK    2  A    between atoms: C_7  and  O_10 
REMARK    3  A    between atoms: C_8  and  O_9 
REMARK    4  A    between atoms: O_10  and  C_11 
REMARK    5  A    between atoms: C_12  and  C_15 
REMARK    6  A    between atoms: C_15  and  C_16 
REMARK    7  A    between atoms: C_20  and  O_24 
REMARK    8  A    between atoms: C_21  and  O_22 
REMARK    9  A    between atoms: O_22  and  C_23 
ROOT
ATOM      1  C   LIG d   1       9.615   9.525  -7.079  0.00  0.00    -0.002 C 
ATOM      2  C   LIG d   1       9.620   8.045  -7.355  0.00  0.00     0.046 A 
ATOM      3  C   LIG d   1       9.835   7.119  -6.357  0.00  0.00    -0.027 A 
ATOM      4  C   LIG d   1       9.821   5.764  -6.653  0.00  0.00    -0.054 A 
ATOM      5  C   LIG d   1       9.595   5.332  -7.946  0.00  0.00    -0.016 A 
ATOM      6  C   LIG d   1       9.381   6.257  -8.954  0.00  0.00     0.162 A 
ATOM      7  C   LIG d   1       9.394   7.615  -8.658  0.00  0.00     0.167 A 
ATOM      8  C   LIG d   1      10.090   7.538  -4.932  0.00  0.00     0.029 C 
ATOM      9  H   LIG d   1      11.153   7.445  -4.711  0.00  0.00     0.040 H 
ATOM     10  C   LIG d   1       9.657   8.991  -4.729  0.00  0.00    -0.025 C 
ATOM     11  H   LIG d   1      10.154  10.042  -7.874  0.00  0.00     0.087 H 
ATOM     12  H   LIG d   1       8.586   9.884  -7.052  0.00  0.00     0.087 H 
ATOM     13  H   LIG d   1       9.988   5.042  -5.868  0.00  0.00     0.062 H 
ATOM     14  H   LIG d   1       9.584   4.276  -8.169  0.00  0.00     0.066 H 
ATOM     15  H   LIG d   1       8.571   9.061  -4.784  0.00  0.00     0.082 H 
ATOM     16  H   LIG d   1      10.001   9.343  -3.757  0.00  0.00     0.082 H 
ATOM     17  N   LIG d   1      10.282   9.800  -5.795  0.00  0.00     0.237 N 
ATOM     18  H   LIG d   1      11.274   9.546  -5.871  0.00  0.00     0.203 HD
ENDROOT
BRANCH   8  19
ATOM     19  C   LIG d   1       9.295   6.635  -3.985  0.00  0.00    -0.012 C 
ATOM     20  H   LIG d   1       8.904   5.783  -4.541  0.00  0.00     0.032 H 
ATOM     21  H   LIG d   1       8.467   7.199  -3.556  0.00  0.00     0.032 H 
BRANCH  19  22
ATOM     22  C   LIG d   1      10.196   6.145  -2.883  0.00  0.00    -0.001 A 
ATOM     23  C   LIG d   1       9.934   6.493  -1.567  0.00  0.00     0.164 A 
ATOM     24  C   LIG d   1      10.769   6.039  -0.551  0.00  0.00     0.159 A 
ATOM     25  C   LIG d   1      11.862   5.246  -0.859  0.00  0.00    -0.017 A 
ATOM     26  C   LIG d   1      12.115   4.897  -2.173  0.00  0.00    -0.058 A 
ATOM     27  H   LIG d   1      12.515   4.895  -0.073  0.00  0.00     0.066 H 
ATOM     28  C   LIG d   1      11.286   5.348  -3.183  0.00  0.00    -0.055 A 
ATOM     29  H   LIG d   1      12.965   4.275  -2.411  0.00  0.00     0.062 H 
ATOM     30  H   LIG d   1      11.489   5.078  -4.208  0.00  0.00     0.062 H 
BRANCH  23  31
ATOM     31  O   LIG d   1       8.863   7.276  -1.271  0.00  0.00    -0.491 OA
BRANCH  31  32
ATOM     32  C   LIG d   1       9.122   8.654  -0.996  0.00  0.00     0.079 C 
ATOM     33  H   LIG d   1       9.438   8.763   0.042  0.00  0.00     0.066 H 
ATOM     34  H   LIG d   1       9.911   9.014  -1.655  0.00  0.00     0.066 H 
ATOM     35  H   LIG d   1       8.216   9.235  -1.163  0.00  0.00     0.066 H 
ENDBRANCH  31  32
ENDBRANCH  23  31
BRANCH  24  36
ATOM     36  O   LIG d   1      10.515   6.377   0.742  0.00  0.00    -0.503 OA
ATOM     37  H   LIG d   1       9.594   6.252   1.008  0.00  0.00     0.292 HD
ENDBRANCH  24  36
ENDBRANCH  19  22
ENDBRANCH   8  19
BRANCH  17  38
ATOM     38  C   LIG d   1      10.177  11.240  -5.468  0.00  0.00    -0.043 C 
ATOM     39  H   LIG d   1      10.171  11.382  -4.387  0.00  0.00     0.078 H 
ATOM     40  H   LIG d   1      11.030  11.765  -5.898  0.00  0.00     0.078 H 
ATOM     41  H   LIG d   1       9.255  11.636  -5.892  0.00  0.00     0.078 H 
ENDBRANCH  17  38
BRANCH   7  42
ATOM     42  O   LIG d   1       9.184   8.526  -9.646  0.00  0.00    -0.503 OA
ATOM     43  H   LIG d   1       9.376   8.195 -10.534  0.00  0.00     0.292 HD
ENDBRANCH   7  42
BRANCH   6  44
ATOM     44  O   LIG d   1       9.159   5.839 -10.229  0.00  0.00    -0.491 OA
BRANCH  44  45
ATOM     45  C   LIG d   1       9.878   4.684 -10.667  0.00  0.00     0.079 C 
ATOM     46  H   LIG d   1       9.544   3.813 -10.103  0.00  0.00     0.066 H 
ATOM     47  H   LIG d   1       9.692   4.521 -11.729  0.00  0.00     0.066 H 
ATOM     48  H   LIG d   1      10.944   4.836 -10.505  0.00  0.00     0.066 H 
ENDBRANCH  44  45
ENDBRANCH   6  44
TORSDOF 9
ENDMDL
MODEL 6
REMARK VINA RESULT:      -5.2      3.992      6.633
REMARK  9 active torsions:
REMARK  status: ('A' for Active; 'I' for Inactive)
REMARK    1  A    between atoms: C_1  and  N_47 
REMARK    2  A    between atoms: C_7  and  O_10 
REMARK    3  A    between atoms: C_8  and  O_9 
REMARK    4  A    between atoms: O_10  and  C_11 
REMARK    5  A    between atoms: C_12  and  C_15 
REMARK    6  A    between atoms: C_15  and  C_16 
REMARK    7  A    between atoms: C_20  and  O_24 
REMARK    8  A    between atoms: C_21  and  O_22 
REMARK    9  A    between atoms: O_22  and  C_23 
ROOT
ATOM      1  C   LIG d   1      10.488  -1.330  -5.333  0.00  0.00    -0.002 C 
ATOM      2  C   LIG d   1       9.935  -2.689  -4.994  0.00  0.00     0.046 A 
ATOM      3  C   LIG d   1       8.647  -2.856  -4.531  0.00  0.00    -0.027 A 
ATOM      4  C   LIG d   1       8.174  -4.126  -4.241  0.00  0.00    -0.054 A 
ATOM      5  C   LIG d   1       8.985  -5.232  -4.410  0.00  0.00    -0.016 A 
ATOM      6  C   LIG d   1      10.281  -5.071  -4.873  0.00  0.00     0.162 A 
ATOM      7  C   LIG d   1      10.756  -3.798  -5.165  0.00  0.00     0.167 A 
ATOM      8  C   LIG d   1       7.724  -1.682  -4.325  0.00  0.00     0.029 C 
ATOM      9  H   LIG d   1       7.661  -1.452  -3.261  0.00  0.00     0.040 H 
ATOM     10  C   LIG d   1       8.256  -0.461  -5.075  0.00  0.00    -0.025 C 
ATOM     11  H   LIG d   1      11.511  -1.254  -4.960  0.00  0.00     0.087 H 
ATOM     12  H   LIG d   1      10.491  -1.201  -6.415  0.00  0.00     0.087 H 
ATOM     13  H   LIG d   1       7.164  -4.253  -3.880  0.00  0.00     0.062 H 
ATOM     14  H   LIG d   1       8.609  -6.218  -4.183  0.00  0.00     0.066 H 
ATOM     15  H   LIG d   1       8.164  -0.623  -6.150  0.00  0.00     0.082 H 
ATOM     16  H   LIG d   1       7.688   0.423  -4.786  0.00  0.00     0.082 H 
ATOM     17  N   LIG d   1       9.673  -0.281  -4.698  0.00  0.00     0.237 N 
ATOM     18  H   LIG d   1       9.760  -0.359  -3.678  0.00  0.00     0.203 HD
ENDROOT
BRANCH   8  19
ATOM     19  C   LIG d   1       6.330  -2.034  -4.851  0.00  0.00    -0.012 C 
ATOM     20  H   LIG d   1       6.166  -3.107  -4.756  0.00  0.00     0.032 H 
ATOM     21  H   LIG d   1       6.254  -1.746  -5.899  0.00  0.00     0.032 H 
BRANCH  19  22
ATOM     22  C   LIG d   1       5.290  -1.295  -4.049  0.00  0.00    -0.001 A 
ATOM     23  C   LIG d   1       4.537  -0.296  -4.646  0.00  0.00     0.164 A 
ATOM     24  C   LIG d   1       3.577   0.385  -3.903  0.00  0.00     0.159 A 
ATOM     25  C   LIG d   1       3.383   0.066  -2.569  0.00  0.00    -0.017 A 
ATOM     26  C   LIG d   1       4.134  -0.937  -1.982  0.00  0.00    -0.058 A 
ATOM     27  H   LIG d   1       2.642   0.596  -1.989  0.00  0.00     0.066 H 
ATOM     28  C   LIG d   1       5.087  -1.612  -2.719  0.00  0.00    -0.055 A 
ATOM     29  H   LIG d   1       3.978  -1.187  -0.943  0.00  0.00     0.062 H 
ATOM     30  H   LIG d   1       5.675  -2.391  -2.255  0.00  0.00     0.062 H 
BRANCH  23  31
ATOM     31  O   LIG d   1       4.735   0.017  -5.954  0.00  0.00    -0.491 OA
BRANCH  31  32
ATOM     32  C   LIG d   1       3.867  -0.598  -6.907  0.00  0.00     0.079 C 
ATOM     33  H   LIG d   1       3.935  -1.681  -6.814  0.00  0.00     0.066 H 
ATOM     34  H   LIG d   1       2.841  -0.282  -6.721  0.00  0.00     0.066 H 
ATOM     35  H   LIG d   1       4.161  -0.300  -7.913  0.00  0.00     0.066 H 
ENDBRANCH  31  32
ENDBRANCH  23  31
BRANCH  24  36
ATOM     36  O   LIG d   1       2.835   1.365  -4.483  0.00  0.00    -0.503 OA
ATOM     37  H   LIG d   1       1.991   1.059  -4.843  0.00  0.00     0.292 HD
ENDBRANCH  24  36
ENDBRANCH  19  22
ENDBRANCH   8  19
BRANCH  17  38
ATOM     38  C   LIG d   1      10.146   1.056  -5.123  0.00  0.00    -0.043 C 
ATOM     39  H   LIG d   1       9.300   1.692  -5.381  0.00  0.00     0.078 H 
ATOM     40  H   LIG d   1      10.706   1.510  -4.306  0.00  0.00     0.078 H 
ATOM     41  H   LIG d   1      10.795   0.945  -5.991  0.00  0.00     0.078 H 
ENDBRANCH  17  38
BRANCH   7  42
ATOM     42  O   LIG d   1      12.027  -3.637  -5.619  0.00  0.00    -0.503 OA
ATOM     43  H   LIG d   1      12.511  -2.919  -5.188  0.00  0.00     0.292 HD
ENDBRANCH   7  42
BRANCH   6  44
ATOM     44  O   LIG d   1      11.085  -6.155  -5.041  0.00  0.00    -0.491 OA
BRANCH  44  45
ATOM     45  C   LIG d   1      10.448  -7.434  -5.095  0.00  0.00     0.079 C 
ATOM     46  H   LIG d   1      10.352  -7.834  -4.085  0.00  0.00     0.066 H 
ATOM     47  H   LIG d   1       9.458  -7.328  -5.539  0.00  0.00     0.066 H 
ATOM     48  H   LIG d   1      11.047  -8.113  -5.700  0.00  0.00     0.066 H 
ENDBRANCH  44  45
ENDBRANCH   6  44
TORSDOF 9
ENDMDL
MODEL 7
REMARK VINA RESULT:      -5.2      8.130     10.637
REMARK  9 active torsions:
REMARK  status: ('A' for Active; 'I' for Inactive)
REMARK    1  A    between atoms: C_1  and  N_47 
REMARK    2  A    between atoms: C_7  and  O_10 
REMARK    3  A    between atoms: C_8  and  O_9 
REMARK    4  A    between atoms: O_10  and  C_11 
REMARK    5  A    between atoms: C_12  and  C_15 
REMARK    6  A    between atoms: C_15  and  C_16 
REMARK    7  A    between atoms: C_20  and  O_24 
REMARK    8  A    between atoms: C_21  and  O_22 
REMARK    9  A    between atoms: O_22  and  C_23 
ROOT
ATOM      1  C   LIG d   1       9.715   9.498  -7.647  0.00  0.00    -0.002 C 
ATOM      2  C   LIG d   1       9.719   8.024  -7.953  0.00  0.00     0.046 A 
ATOM      3  C   LIG d   1       9.768   7.073  -6.956  0.00  0.00    -0.027 A 
ATOM      4  C   LIG d   1       9.760   5.725  -7.281  0.00  0.00    -0.054 A 
ATOM      5  C   LIG d   1       9.704   5.323  -8.602  0.00  0.00    -0.016 A 
ATOM      6  C   LIG d   1       9.657   6.273  -9.609  0.00  0.00     0.162 A 
ATOM      7  C   LIG d   1       9.664   7.624  -9.284  0.00  0.00     0.167 A 
ATOM      8  C   LIG d   1       9.834   7.458  -5.500  0.00  0.00     0.029 C 
ATOM      9  H   LIG d   1      10.854   7.330  -5.136  0.00  0.00     0.040 H 
ATOM     10  C   LIG d   1       9.417   8.919  -5.327  0.00  0.00    -0.025 C 
ATOM     11  H   LIG d   1      10.373  10.013  -8.348  0.00  0.00     0.087 H 
ATOM     12  H   LIG d   1       8.702   9.886  -7.755  0.00  0.00     0.087 H 
ATOM     13  H   LIG d   1       9.797   4.984  -6.496  0.00  0.00     0.062 H 
ATOM     14  H   LIG d   1       9.696   4.272  -8.847  0.00  0.00     0.066 H 
ATOM     15  H   LIG d   1       8.350   9.022  -5.530  0.00  0.00     0.082 H 
ATOM     16  H   LIG d   1       9.631   9.243  -4.309  0.00  0.00     0.082 H 
ATOM     17  N   LIG d   1      10.205   9.729  -6.278  0.00  0.00     0.237 N 
ATOM     18  H   LIG d   1      11.190   9.448  -6.222  0.00  0.00     0.203 HD
ENDROOT
BRANCH   8  19
ATOM     19  C   LIG d   1       8.892   6.562  -4.693  0.00  0.00    -0.012 C 
ATOM     20  H   LIG d   1       8.685   5.653  -5.257  0.00  0.00     0.032 H 
ATOM     21  H   LIG d   1       7.959   7.093  -4.504  0.00  0.00     0.032 H 
BRANCH  19  22
ATOM     22  C   LIG d   1       9.541   6.202  -3.382  0.00  0.00    -0.001 A 
ATOM     23  C   LIG d   1      10.084   4.940  -3.201  0.00  0.00     0.164 A 
ATOM     24  C   LIG d   1      10.682   4.611  -1.988  0.00  0.00     0.159 A 
ATOM     25  C   LIG d   1      10.727   5.544  -0.965  0.00  0.00    -0.017 A 
ATOM     26  C   LIG d   1      10.188   6.804  -1.154  0.00  0.00    -0.058 A 
ATOM     27  H   LIG d   1      11.187   5.289  -0.022  0.00  0.00     0.066 H 
ATOM     28  C   LIG d   1       9.594   7.131  -2.358  0.00  0.00    -0.055 A 
ATOM     29  H   LIG d   1      10.228   7.531  -0.357  0.00  0.00     0.062 H 
ATOM     30  H   LIG d   1       9.170   8.114  -2.500  0.00  0.00     0.062 H 
BRANCH  23  31
ATOM     31  O   LIG d   1      10.032   4.027  -4.206  0.00  0.00    -0.491 OA
BRANCH  31  32
ATOM     32  C   LIG d   1       8.983   3.059  -4.151  0.00  0.00     0.079 C 
ATOM     33  H   LIG d   1       8.154   3.456  -3.566  0.00  0.00     0.066 H 
ATOM     34  H   LIG d   1       8.641   2.835  -5.161  0.00  0.00     0.066 H 
ATOM     35  H   LIG d   1       9.354   2.147  -3.684  0.00  0.00     0.066 H 
ENDBRANCH  31  32
ENDBRANCH  23  31
BRANCH  24  36
ATOM     36  O   LIG d   1      11.218   3.374  -1.806  0.00  0.00    -0.503 OA
ATOM     37  H   LIG d   1      10.706   2.807  -1.214  0.00  0.00     0.292 HD
ENDBRANCH  24  36
ENDBRANCH  19  22
ENDBRANCH   8  19
BRANCH  17  38
ATOM     38  C   LIG d   1      10.093  11.165  -5.936  0.00  0.00    -0.043 C 
ATOM     39  H   LIG d   1      10.268  11.315  -4.871  0.00  0.00     0.078 H 
ATOM     40  H   LIG d   1      10.834  11.725  -6.507  0.00  0.00     0.078 H 
ATOM     41  H   LIG d   1       9.094  11.517  -6.194  0.00  0.00     0.078 H 
ENDBRANCH  17  38
BRANCH   7  42
ATOM     42  O   LIG d   1       9.618   8.559 -10.270  0.00  0.00    -0.503 OA
ATOM     43  H   LIG d   1      10.361   8.517 -10.888  0.00  0.00     0.292 HD
ENDBRANCH   7  42
BRANCH   6  44
ATOM     44  O   LIG d   1       9.602   5.884 -10.911  0.00  0.00    -0.491 OA
BRANCH  44  45
ATOM     45  C   LIG d   1      10.065   4.567 -11.215  0.00  0.00     0.079 C 
ATOM     46  H   LIG d   1       9.598   4.222 -12.138  0.00  0.00     0.066 H 
ATOM     47  H   LIG d   1      11.148   4.582 -11.341  0.00  0.00     0.066 H 
ATOM     48  H   LIG d   1       9.804   3.893 -10.400  0.00  0.00     0.066 H 
ENDBRANCH  44  45
ENDBRANCH   6  44
TORSDOF 9
ENDMDL
MODEL 8
REMARK VINA RESULT:      -5.0      7.759     10.613
REMARK  9 active torsions:
REMARK  status: ('A' for Active; 'I' for Inactive)
REMARK    1  A    between atoms: C_1  and  N_47 
REMARK    2  A    between atoms: C_7  and  O_10 
REMARK    3  A    between atoms: C_8  and  O_9 
REMARK    4  A    between atoms: O_10  and  C_11 
REMARK    5  A    between atoms: C_12  and  C_15 
REMARK    6  A    between atoms: C_15  and  C_16 
REMARK    7  A    between atoms: C_20  and  O_24 
REMARK    8  A    between atoms: C_21  and  O_22 
REMARK    9  A    between atoms: O_22  and  C_23 
ROOT
ATOM      1  C   LIG d   1       9.551   7.961  -9.025  0.00  0.00    -0.002 C 
ATOM      2  C   LIG d   1       9.617   8.248  -7.549  0.00  0.00     0.046 A 
ATOM      3  C   LIG d   1       9.759   7.243  -6.616  0.00  0.00    -0.027 A 
ATOM      4  C   LIG d   1       9.825   7.553  -5.266  0.00  0.00    -0.054 A 
ATOM      5  C   LIG d   1       9.748   8.867  -4.844  0.00  0.00    -0.016 A 
ATOM      6  C   LIG d   1       9.603   9.882  -5.776  0.00  0.00     0.162 A 
ATOM      7  C   LIG d   1       9.537   9.572  -7.128  0.00  0.00     0.167 A 
ATOM      8  C   LIG d   1       9.843   5.794  -7.024  0.00  0.00     0.029 C 
ATOM      9  H   LIG d   1       8.888   5.306  -6.830  0.00  0.00     0.040 H 
ATOM     10  C   LIG d   1      10.171   5.689  -8.513  0.00  0.00    -0.025 C 
ATOM     11  H   LIG d   1       8.776   8.580  -9.479  0.00  0.00     0.087 H 
ATOM     12  H   LIG d   1      10.512   8.196  -9.481  0.00  0.00     0.087 H 
ATOM     13  H   LIG d   1       9.939   6.763  -4.539  0.00  0.00     0.062 H 
ATOM     14  H   LIG d   1       9.802   9.101  -3.792  0.00  0.00     0.066 H 
ATOM     15  H   LIG d   1      11.195   6.023  -8.687  0.00  0.00     0.082 H 
ATOM     16  H   LIG d   1      10.060   4.655  -8.841  0.00  0.00     0.082 H 
ATOM     17  N   LIG d   1       9.216   6.544  -9.247  0.00  0.00     0.237 N 
ATOM     18  H   LIG d   1       8.268   6.363  -8.898  0.00  0.00     0.203 HD
ENDROOT
BRANCH   8  19
ATOM     19  C   LIG d   1      10.940   5.100  -6.212  0.00  0.00    -0.012 C 
ATOM     20  H   LIG d   1      11.500   5.846  -5.647  0.00  0.00     0.032 H 
ATOM     21  H   LIG d   1      11.614   4.575  -6.888  0.00  0.00     0.032 H 
BRANCH  19  22
ATOM     22  C   LIG d   1      10.314   4.116  -5.259  0.00  0.00    -0.001 A 
ATOM     23  C   LIG d   1      10.913   3.858  -4.037  0.00  0.00     0.164 A 
ATOM     24  C   LIG d   1      10.332   2.947  -3.159  0.00  0.00     0.159 A 
ATOM     25  C   LIG d   1       9.160   2.298  -3.514  0.00  0.00    -0.017 A 
ATOM     26  C   LIG d   1       8.565   2.565  -4.733  0.00  0.00    -0.058 A 
ATOM     27  H   LIG d   1       8.710   1.588  -2.837  0.00  0.00     0.066 H 
ATOM     28  C   LIG d   1       9.142   3.469  -5.605  0.00  0.00    -0.055 A 
ATOM     29  H   LIG d   1       7.649   2.061  -5.007  0.00  0.00     0.062 H 
ATOM     30  H   LIG d   1       8.676   3.670  -6.558  0.00  0.00     0.062 H 
BRANCH  23  31
ATOM     31  O   LIG d   1      12.065   4.493  -3.696  0.00  0.00    -0.491 OA
BRANCH  31  32
ATOM     32  C   LIG d   1      11.949   5.640  -2.851  0.00  0.00     0.079 C 
ATOM     33  H   LIG d   1      10.895   5.837  -2.652  0.00  0.00     0.066 H 
ATOM     34  H   LIG d   1      12.467   5.453  -1.911  0.00  0.00     0.066 H 
ATOM     35  H   LIG d   1      12.393   6.503  -3.345  0.00  0.00     0.066 H 
ENDBRANCH  31  32
ENDBRANCH  23  31
BRANCH  24  36
ATOM     36  O   LIG d   1      10.915   2.691  -1.958  0.00  0.00    -0.503 OA
ATOM     37  H   LIG d   1      10.655   3.303  -1.256  0.00  0.00     0.292 HD
ENDBRANCH  24  36
ENDBRANCH  19  22
ENDBRANCH   8  19
BRANCH  17  38
ATOM     38  C   LIG d   1       9.264   6.233 -10.694  0.00  0.00    -0.043 C 
ATOM     39  H   LIG d   1       8.598   6.896 -11.245  0.00  0.00     0.078 H 
ATOM     40  H   LIG d   1      10.285   6.365 -11.052  0.00  0.00     0.078 H 
ATOM     41  H   LIG d   1       8.956   5.199 -10.846  0.00  0.00     0.078 H 
ENDBRANCH  17  38
BRANCH   7  42
ATOM     42  O   LIG d   1       9.394  10.566  -8.046  0.00  0.00    -0.503 OA
ATOM     43  H   LIG d   1       9.690  10.327  -8.935  0.00  0.00     0.292 HD
ENDBRANCH   7  42
BRANCH   6  44
ATOM     44  O   LIG d   1       9.526  11.177  -5.367  0.00  0.00    -0.491 OA
BRANCH  44  45
ATOM     45  C   LIG d   1       8.905  11.423  -4.103  0.00  0.00     0.079 C 
ATOM     46  H   LIG d   1       8.571  10.478  -3.673  0.00  0.00     0.066 H 
ATOM     47  H   LIG d   1       9.623  11.893  -3.431  0.00  0.00     0.066 H 
ATOM     48  H   LIG d   1       8.050  12.083  -4.241  0.00  0.00     0.066 H 
ENDBRANCH  44  45
ENDBRANCH   6  44
TORSDOF 9
ENDMDL
MODEL 9
REMARK VINA RESULT:      -5.0      7.878     12.499
REMARK  9 active torsions:
REMARK  status: ('A' for Active; 'I' for Inactive)
REMARK    1  A    between atoms: C_1  and  N_47 
REMARK    2  A    between atoms: C_7  and  O_10 
REMARK    3  A    between atoms: C_8  and  O_9 
REMARK    4  A    between atoms: O_10  and  C_11 
REMARK    5  A    between atoms: C_12  and  C_15 
REMARK    6  A    between atoms: C_15  and  C_16 
REMARK    7  A    between atoms: C_20  and  O_24 
REMARK    8  A    between atoms: C_21  and  O_22 
REMARK    9  A    between atoms: O_22  and  C_23 
ROOT
ATOM      1  C   LIG d   1      10.452   9.342  -1.900  0.00  0.00    -0.002 C 
ATOM      2  C   LIG d   1      10.642   8.117  -1.046  0.00  0.00     0.046 A 
ATOM      3  C   LIG d   1      10.532   6.844  -1.564  0.00  0.00    -0.027 A 
ATOM      4  C   LIG d   1      10.725   5.743  -0.744  0.00  0.00    -0.054 A 
ATOM      5  C   LIG d   1      11.026   5.910   0.595  0.00  0.00    -0.016 A 
ATOM      6  C   LIG d   1      11.136   7.186   1.122  0.00  0.00     0.162 A 
ATOM      7  C   LIG d   1      10.943   8.290   0.301  0.00  0.00     0.167 A 
ATOM      8  C   LIG d   1      10.202   6.608  -3.016  0.00  0.00     0.029 C 
ATOM      9  H   LIG d   1       9.156   6.314  -3.106  0.00  0.00     0.040 H 
ATOM     10  C   LIG d   1      10.440   7.886  -3.821  0.00  0.00    -0.025 C 
ATOM     11  H   LIG d   1       9.864  10.078  -1.350  0.00  0.00     0.087 H 
ATOM     12  H   LIG d   1      11.426   9.769  -2.140  0.00  0.00     0.087 H 
ATOM     13  H   LIG d   1      10.640   4.748  -1.154  0.00  0.00     0.062 H 
ATOM     14  H   LIG d   1      11.176   5.048   1.227  0.00  0.00     0.066 H 
ATOM     15  H   LIG d   1      11.510   8.092  -3.872  0.00  0.00     0.082 H 
ATOM     16  H   LIG d   1      10.039   7.765  -4.826  0.00  0.00     0.082 H 
ATOM     17  N   LIG d   1       9.734   8.988  -3.136  0.00  0.00     0.237 N 
ATOM     18  H   LIG d   1       8.785   8.680  -2.897  0.00  0.00     0.203 HD
ENDROOT
BRANCH   8  19
ATOM     19  C   LIG d   1      11.091   5.489  -3.564  0.00  0.00    -0.012 C 
ATOM     20  H   LIG d   1      11.711   5.091  -2.760  0.00  0.00     0.032 H 
ATOM     21  H   LIG d   1      11.730   5.887  -4.352  0.00  0.00     0.032 H 
BRANCH  19  22
ATOM     22  C   LIG d   1      10.227   4.388  -4.122  0.00  0.00    -0.001 A 
ATOM     23  C   LIG d   1      10.093   4.242  -5.494  0.00  0.00     0.164 A 
ATOM     24  C   LIG d   1       9.294   3.224  -6.007  0.00  0.00     0.159 A 
ATOM     25  C   LIG d   1       8.631   2.366  -5.144  0.00  0.00    -0.017 A 
ATOM     26  C   LIG d   1       8.775   2.515  -3.776  0.00  0.00    -0.058 A 
ATOM     27  H   LIG d   1       8.007   1.579  -5.539  0.00  0.00     0.066 H 
ATOM     28  C   LIG d   1       9.568   3.525  -3.267  0.00  0.00    -0.055 A 
ATOM     29  H   LIG d   1       8.261   1.843  -3.105  0.00  0.00     0.062 H 
ATOM     30  H   LIG d   1       9.673   3.641  -2.198  0.00  0.00     0.062 H 
BRANCH  23  31
ATOM     31  O   LIG d   1      10.741   5.090  -6.336  0.00  0.00    -0.491 OA
BRANCH  31  32
ATOM     32  C   LIG d   1       9.964   6.124  -6.941  0.00  0.00     0.079 C 
ATOM     33  H   LIG d   1      10.614   6.958  -7.207  0.00  0.00     0.066 H 
ATOM     34  H   LIG d   1       9.481   5.739  -7.838  0.00  0.00     0.066 H 
ATOM     35  H   LIG d   1       9.204   6.466  -6.238  0.00  0.00     0.066 H 
ENDBRANCH  31  32
ENDBRANCH  23  31
BRANCH  24  36
ATOM     36  O   LIG d   1       9.160   3.075  -7.352  0.00  0.00    -0.503 OA
ATOM     37  H   LIG d   1       8.339   2.639  -7.619  0.00  0.00     0.292 HD
ENDBRANCH  24  36
ENDBRANCH  19  22
ENDBRANCH   8  19
BRANCH  17  38
ATOM     38  C   LIG d   1       9.648  10.167  -4.028  0.00  0.00    -0.043 C 
ATOM     39  H   LIG d   1       9.644  11.085  -3.441  0.00  0.00     0.078 H 
ATOM     40  H   LIG d   1      10.507  10.168  -4.699  0.00  0.00     0.078 H 
ATOM     41  H   LIG d   1       8.730  10.105  -4.612  0.00  0.00     0.078 H 
ENDBRANCH  17  38
BRANCH   7  42
ATOM     42  O   LIG d   1      11.050   9.545   0.815  0.00  0.00    -0.503 OA
ATOM     43  H   LIG d   1      11.396   9.572   1.718  0.00  0.00     0.292 HD
ENDBRANCH   7  42
BRANCH   6  44
ATOM     44  O   LIG d   1      11.431   7.357   2.438  0.00  0.00    -0.491 OA
BRANCH  44  45
ATOM     45  C   LIG d   1      10.986   6.342   3.341  0.00  0.00     0.079 C 
ATOM     46  H   LIG d   1      11.715   5.533   3.364  0.00  0.00     0.066 H 
ATOM     47  H   LIG d   1      10.881   6.765   4.340  0.00  0.00     0.066 H 
ATOM     48  H   LIG d   1      10.023   5.956   3.007  0.00  0.00     0.066 H 
ENDBRANCH  44  45
ENDBRANCH   6  44
TORSDOF 9
ENDMDL
MODEL 10
REMARK VINA RESULT:      -5.0      9.951     13.296
REMARK  9 active torsions:
REMARK  status: ('A' for Active; 'I' for Inactive)
REMARK    1  A    between atoms: C_1  and  N_47 
REMARK    2  A    between atoms: C_7  and  O_10 
REMARK    3  A    between atoms: C_8  and  O_9 
REMARK    4  A    between atoms: O_10  and  C_11 
REMARK    5  A    between atoms: C_12  and  C_15 
REMARK    6  A    between atoms: C_15  and  C_16 
REMARK    7  A    between atoms: C_20  and  O_24 
REMARK    8  A    between atoms: C_21  and  O_22 
REMARK    9  A    between atoms: O_22  and  C_23 
ROOT
ATOM      1  C   LIG d   1       9.643  10.259  -2.580  0.00  0.00    -0.002 C 
ATOM      2  C   LIG d   1       9.880   8.775  -2.481  0.00  0.00     0.046 A 
ATOM      3  C   LIG d   1      10.010   7.982  -3.601  0.00  0.00    -0.027 A 
ATOM      4  C   LIG d   1      10.237   6.621  -3.465  0.00  0.00    -0.054 A 
ATOM      5  C   LIG d   1      10.333   6.049  -2.210  0.00  0.00    -0.016 A 
ATOM      6  C   LIG d   1      10.201   6.839  -1.081  0.00  0.00     0.162 A 
ATOM      7  C   LIG d   1       9.974   8.203  -1.217  0.00  0.00     0.167 A 
ATOM      8  C   LIG d   1       9.909   8.556  -4.991  0.00  0.00     0.029 C 
ATOM      9  H   LIG d   1       8.932   8.316  -5.413  0.00  0.00     0.040 H 
ATOM     10  C   LIG d   1      10.079  10.075  -4.943  0.00  0.00    -0.025 C 
ATOM     11  H   LIG d   1       8.895  10.554  -1.844  0.00  0.00     0.087 H 
ATOM     12  H   LIG d   1      10.574  10.787  -2.376  0.00  0.00     0.087 H 
ATOM     13  H   LIG d   1      10.340   6.004  -4.345  0.00  0.00     0.062 H 
ATOM     14  H   LIG d   1      10.512   4.989  -2.112  0.00  0.00     0.066 H 
ATOM     15  H   LIG d   1      11.110  10.319  -4.682  0.00  0.00     0.082 H 
ATOM     16  H   LIG d   1       9.834  10.502  -5.915  0.00  0.00     0.082 H 
ATOM     17  N   LIG d   1       9.149  10.601  -3.924  0.00  0.00     0.237 N 
ATOM     18  H   LIG d   1       8.225  10.174  -4.061  0.00  0.00     0.203 HD
ENDROOT
BRANCH   8  19
ATOM     19  C   LIG d   1      11.004   7.950  -5.873  0.00  0.00    -0.012 C 
ATOM     20  H   LIG d   1      11.495   7.139  -5.334  0.00  0.00     0.032 H 
ATOM     21  H   LIG d   1      11.736   8.717  -6.121  0.00  0.00     0.032 H 
BRANCH  19  22
ATOM     22  C   LIG d   1      10.389   7.411  -7.138  0.00  0.00    -0.001 A 
ATOM     23  C   LIG d   1      10.262   8.230  -8.249  0.00  0.00     0.164 A 
ATOM     24  C   LIG d   1       9.693   7.729  -9.417  0.00  0.00     0.159 A 
ATOM     25  C   LIG d   1       9.251   6.417  -9.461  0.00  0.00    -0.017 A 
ATOM     26  C   LIG d   1       9.387   5.604  -8.351  0.00  0.00    -0.058 A 
ATOM     27  H   LIG d   1       8.805   6.027 -10.364  0.00  0.00     0.066 H 
ATOM     28  C   LIG d   1       9.951   6.100  -7.191  0.00  0.00    -0.055 A 
ATOM     29  H   LIG d   1       9.045   4.580  -8.388  0.00  0.00     0.062 H 
ATOM     30  H   LIG d   1      10.050   5.464  -6.325  0.00  0.00     0.062 H 
BRANCH  23  31
ATOM     31  O   LIG d   1      10.692   9.518  -8.198  0.00  0.00    -0.491 OA
BRANCH  31  32
ATOM     32  C   LIG d   1      12.017   9.779  -8.667  0.00  0.00     0.079 C 
ATOM     33  H   LIG d   1      11.967  10.310  -9.617  0.00  0.00     0.066 H 
ATOM     34  H   LIG d   1      12.546  10.390  -7.936  0.00  0.00     0.066 H 
ATOM     35  H   LIG d   1      12.546   8.836  -8.804  0.00  0.00     0.066 H 
ENDBRANCH  31  32
ENDBRANCH  23  31
BRANCH  24  36
ATOM     36  O   LIG d   1       9.567   8.527 -10.510  0.00  0.00    -0.503 OA
ATOM     37  H   LIG d   1      10.192   9.265 -10.533  0.00  0.00     0.292 HD
ENDBRANCH  24  36
ENDBRANCH  19  22
ENDBRANCH   8  19
BRANCH  17  38
ATOM     38  C   LIG d   1       9.025  12.070  -4.060  0.00  0.00    -0.043 C 
ATOM     39  H   LIG d   1       9.218  12.372  -5.088  0.00  0.00     0.078 H 
ATOM     40  H   LIG d   1       8.016  12.369  -3.777  0.00  0.00     0.078 H 
ATOM     41  H   LIG d   1       9.745  12.551  -3.398  0.00  0.00     0.078 H 
ENDBRANCH  17  38
BRANCH   7  42
ATOM     42  O   LIG d   1       9.844   8.983  -0.109  0.00  0.00    -0.503 OA
ATOM     43  H   LIG d   1      10.213   8.590   0.694  0.00  0.00     0.292 HD
ENDBRANCH   7  42
BRANCH   6  44
ATOM     44  O   LIG d   1      10.294   6.283   0.156  0.00  0.00    -0.491 OA
BRANCH  44  45
ATOM     45  C   LIG d   1      11.522   5.628   0.483  0.00  0.00     0.079 C 
ATOM     46  H   LIG d   1      12.058   5.384  -0.434  0.00  0.00     0.066 H 
ATOM     47  H   LIG d   1      12.134   6.288   1.097  0.00  0.00     0.066 H 
ATOM     48  H   LIG d   1      11.310   4.712   1.035  0.00  0.00     0.066 H 
ENDBRANCH  44  45
ENDBRANCH   6  44
TORSDOF 9
ENDMDL
