MODEL 1
REMARK VINA RESULT:      -7.3      0.000      0.000
REMARK  3 active torsions:
REMARK  status: ('A' for Active; 'I' for Inactive)
REMARK    1  A    between atoms: C_3  and  C_8 
REMARK       I    between atoms: C_8  and  N_10 
REMARK    2  A    between atoms: CA_20  and  CB_24 
REMARK    3  A    between atoms: CB_24  and  CG_25 
ROOT
ATOM      1  C   UNK d   1       5.229  -9.571  -5.641  0.00  0.00     0.247 C 
ATOM      2  O   UNK d   1       4.048  -9.853  -5.706  0.00  0.00    -0.270 OA
ATOM      3  N   UNK d   1       5.650  -8.345  -6.010  0.00  0.00    -0.294 N 
ATOM      4  C   UNK d   1       7.045  -7.938  -5.822  0.00  0.00     0.031 C 
ATOM      5  C   UNK d   1       7.110  -6.632  -5.048  0.00  0.00     0.031 C 
ATOM      6  N   UNK d   1       6.061  -5.686  -5.423  0.00  0.00    -0.285 N 
ATOM      7  C   UNK d   1       4.704  -6.110  -5.749  0.00  0.00     0.118 C 
ATOM      8  H   UNK d   1       4.166  -6.333  -4.827  0.00  0.00     0.061 H 
ATOM      9  C   UNK d   1       4.747  -7.370  -6.623  0.00  0.00     0.042 C 
ATOM     10  C   UNK d   1       3.965  -5.043  -6.508  0.00  0.00     0.236 C 
ATOM     11  O   UNK d   1       3.097  -5.372  -7.288  0.00  0.00    -0.274 OA
ATOM     12  H   UNK d   1       7.516  -7.804  -6.796  0.00  0.00     0.048 H 
ATOM     13  H   UNK d   1       7.576  -8.712  -5.270  0.00  0.00     0.048 H 
ATOM     14  H   UNK d   1       8.080  -6.167  -5.227  0.00  0.00     0.048 H 
ATOM     15  H   UNK d   1       7.021  -6.852  -3.985  0.00  0.00     0.048 H 
ATOM     16  H   UNK d   1       3.750  -7.807  -6.682  0.00  0.00     0.049 H 
ATOM     17  H   UNK d   1       5.093  -7.109  -7.623  0.00  0.00     0.049 H 
ATOM     18  N   PHE d   2       4.234  -3.738  -6.350  0.00  0.00    -0.302 N 
ATOM     19  CA  PHE d   2       5.294  -3.307  -5.439  0.00  0.00     0.100 C 
ATOM     20  HA  PHE d   2       5.728  -2.375  -5.802  0.00  0.00     0.059 H 
ATOM     21  C   PHE d   2       6.362  -4.362  -5.373  0.00  0.00     0.237 C 
ATOM     22  O   PHE d   2       7.524  -4.027  -5.290  0.00  0.00    -0.274 OA
ATOM     23  H   PHE d   2       3.723  -3.077  -6.843  0.00  0.00     0.149 HD
ENDROOT
BRANCH  19  24
ATOM     24  CB  PHE d   2       4.708  -3.087  -4.042  0.00  0.00    -0.023 C 
ATOM     25  HB1 PHE d   2       5.372  -3.524  -3.297  0.00  0.00     0.029 H 
ATOM     26  HB2 PHE d   2       3.729  -3.563  -3.981  0.00  0.00     0.029 H 
BRANCH  24  27
ATOM     27  CG  PHE d   2       4.565  -1.586  -3.781  0.00  0.00    -0.039 A 
ATOM     28  CD1 PHE d   2       5.846  -1.056  -3.134  0.00  0.00    -0.050 A 
ATOM     29  CE1 PHE d   2       5.702   0.444  -2.872  0.00  0.00    -0.053 A 
ATOM     30 1HD1 PHE d   2       6.019  -1.575  -2.191  0.00  0.00     0.027 H 
ATOM     31 2HD1 PHE d   2       6.689  -1.229  -3.803  0.00  0.00     0.027 H 
ATOM     32  CZ  PHE d   2       4.519   0.687  -1.932  0.00  0.00    -0.053 A 
ATOM     33 1HE1 PHE d   2       6.615   0.822  -2.411  0.00  0.00     0.026 H 
ATOM     34 2HE1 PHE d   2       5.529   0.963  -3.815  0.00  0.00     0.026 H 
ATOM     35  CE2 PHE d   2       3.237   0.156  -2.579  0.00  0.00    -0.053 A 
ATOM     36  HZ1 PHE d   2       4.416   1.756  -1.746  0.00  0.00     0.026 H 
ATOM     37  HZ2 PHE d   2       4.691   0.168  -0.989  0.00  0.00     0.026 H 
ATOM     38  CD2 PHE d   2       3.382  -1.344  -2.841  0.00  0.00    -0.050 A 
ATOM     39 1HE2 PHE d   2       3.064   0.675  -3.522  0.00  0.00     0.026 H 
ATOM     40 2HE2 PHE d   2       2.395   0.329  -1.910  0.00  0.00     0.026 H 
ATOM     41 1HD2 PHE d   2       3.554  -1.863  -1.898  0.00  0.00     0.027 H 
ATOM     42 2HD2 PHE d   2       2.469  -1.722  -3.301  0.00  0.00     0.027 H 
ATOM     43  HG  PHE d   2       4.391  -1.068  -4.724  0.00  0.00     0.030 H 
ENDBRANCH  24  27
ENDBRANCH  19  24
BRANCH   1  44
ATOM     44  C   UNK d   1       6.203 -10.572  -5.156  0.00  0.00     0.040 A 
ATOM     45  C   UNK d   1       6.911 -11.358  -6.066  0.00  0.00    -0.050 A 
ATOM     46  C   UNK d   1       7.818 -12.291  -5.609  0.00  0.00    -0.058 A 
ATOM     47  H   UNK d   1       6.749 -11.237  -7.127  0.00  0.00     0.062 H 
ATOM     48  C   UNK d   1       8.029 -12.449  -4.251  0.00  0.00    -0.026 A 
ATOM     49  H   UNK d   1       8.368 -12.899  -6.313  0.00  0.00     0.062 H 
ATOM     50  C   UNK d   1       7.330 -11.672  -3.341  0.00  0.00     0.124 A 
ATOM     51  H   UNK d   1       8.740 -13.181  -3.898  0.00  0.00     0.065 H 
ATOM     52  C   UNK d   1       6.422 -10.730  -3.787  0.00  0.00    -0.014 A 
ATOM     53  F   UNK d   1       7.540 -11.832  -2.016  0.00  0.00    -0.205 F 
ATOM     54  H   UNK d   1       5.880 -10.122  -3.078  0.00  0.00     0.065 H 
ENDBRANCH   1  44
TORSDOF 3
ENDMDL
MODEL 2
REMARK VINA RESULT:      -7.3      6.806      8.112
REMARK  3 active torsions:
REMARK  status: ('A' for Active; 'I' for Inactive)
REMARK    1  A    between atoms: C_3  and  C_8 
REMARK       I    between atoms: C_8  and  N_10 
REMARK    2  A    between atoms: CA_20  and  CB_24 
REMARK    3  A    between atoms: CB_24  and  CG_25 
ROOT
ATOM      1  C   UNK d   1       1.512  -2.037 -11.773  0.00  0.00     0.247 C 
ATOM      2  O   UNK d   1       0.643  -1.253 -12.101  0.00  0.00    -0.270 OA
ATOM      3  N   UNK d   1       2.447  -1.669 -10.875  0.00  0.00    -0.294 N 
ATOM      4  C   UNK d   1       3.428  -2.632 -10.368  0.00  0.00     0.031 C 
ATOM      5  C   UNK d   1       3.411  -2.648  -8.849  0.00  0.00     0.031 C 
ATOM      6  N   UNK d   1       3.238  -1.322  -8.260  0.00  0.00    -0.285 N 
ATOM      7  C   UNK d   1       2.367  -0.311  -8.848  0.00  0.00     0.118 C 
ATOM      8  H   UNK d   1       1.330  -0.546  -8.608  0.00  0.00     0.061 H 
ATOM      9  C   UNK d   1       2.539  -0.297 -10.372  0.00  0.00     0.042 C 
ATOM     10  C   UNK d   1       2.696   1.062  -8.331  0.00  0.00     0.236 C 
ATOM     11  O   UNK d   1       2.485   2.023  -9.041  0.00  0.00    -0.274 OA
ATOM     12  H   UNK d   1       4.422  -2.352 -10.715  0.00  0.00     0.048 H 
ATOM     13  H   UNK d   1       3.184  -3.626 -10.742  0.00  0.00     0.048 H 
ATOM     14  H   UNK d   1       4.351  -3.070  -8.493  0.00  0.00     0.048 H 
ATOM     15  H   UNK d   1       2.594  -3.289  -8.516  0.00  0.00     0.048 H 
ATOM     16  H   UNK d   1       1.741   0.294 -10.824  0.00  0.00     0.049 H 
ATOM     17  H   UNK d   1       3.506   0.137 -10.627  0.00  0.00     0.049 H 
ATOM     18  N   PHE d   2       3.214   1.260  -7.110  0.00  0.00    -0.302 N 
ATOM     19  CA  PHE d   2       3.507   0.123  -6.238  0.00  0.00     0.100 C 
ATOM     20  HA  PHE d   2       4.350   0.369  -5.591  0.00  0.00     0.059 H 
ATOM     21  C   PHE d   2       3.854  -1.076  -7.073  0.00  0.00     0.237 C 
ATOM     22  O   PHE d   2       4.717  -1.837  -6.692  0.00  0.00    -0.274 OA
ATOM     23  H   PHE d   2       3.396   2.162  -6.803  0.00  0.00     0.149 HD
ENDROOT
BRANCH  19  24
ATOM     24  CB  PHE d   2       2.280  -0.192  -5.380  0.00  0.00    -0.023 C 
ATOM     25  HB1 PHE d   2       1.909  -1.186  -5.627  0.00  0.00     0.029 H 
ATOM     26  HB2 PHE d   2       1.501   0.546  -5.576  0.00  0.00     0.029 H 
BRANCH  24  27
ATOM     27  CG  PHE d   2       2.667  -0.145  -3.900  0.00  0.00    -0.039 A 
ATOM     28  CD1 PHE d   2       3.435   1.147  -3.614  0.00  0.00    -0.050 A 
ATOM     29  CE1 PHE d   2       3.823   1.194  -2.136  0.00  0.00    -0.053 A 
ATOM     30 1HD1 PHE d   2       4.336   1.178  -4.227  0.00  0.00     0.027 H 
ATOM     31 2HD1 PHE d   2       2.805   2.005  -3.853  0.00  0.00     0.027 H 
ATOM     32  CZ  PHE d   2       4.708  -0.008  -1.801  0.00  0.00    -0.053 A 
ATOM     33 1HE1 PHE d   2       4.370   2.115  -1.932  0.00  0.00     0.026 H 
ATOM     34 2HE1 PHE d   2       2.922   1.163  -1.523  0.00  0.00     0.026 H 
ATOM     35  CE2 PHE d   2       3.940  -1.301  -2.088  0.00  0.00    -0.053 A 
ATOM     36  HZ1 PHE d   2       4.983   0.024  -0.748  0.00  0.00     0.026 H 
ATOM     37  HZ2 PHE d   2       5.609   0.022  -2.414  0.00  0.00     0.026 H 
ATOM     38  CD2 PHE d   2       3.552  -1.347  -3.567  0.00  0.00    -0.050 A 
ATOM     39 1HE2 PHE d   2       3.039  -1.332  -1.475  0.00  0.00     0.026 H 
ATOM     40 2HE2 PHE d   2       4.570  -2.158  -1.850  0.00  0.00     0.026 H 
ATOM     41 1HD2 PHE d   2       4.453  -1.317  -4.179  0.00  0.00     0.027 H 
ATOM     42 2HD2 PHE d   2       3.005  -2.268  -3.770  0.00  0.00     0.027 H 
ATOM     43  HG  PHE d   2       1.766  -0.175  -3.287  0.00  0.00     0.030 H 
ENDBRANCH  24  27
ENDBRANCH  19  24
BRANCH   1  44
ATOM     44  C   UNK d   1       1.544  -3.393 -12.358  0.00  0.00     0.040 A 
ATOM     45  C   UNK d   1       2.271  -3.637 -13.524  0.00  0.00    -0.050 A 
ATOM     46  C   UNK d   1       2.297  -4.905 -14.067  0.00  0.00    -0.058 A 
ATOM     47  H   UNK d   1       2.813  -2.834 -14.001  0.00  0.00     0.062 H 
ATOM     48  C   UNK d   1       1.604  -5.937 -13.458  0.00  0.00    -0.026 A 
ATOM     49  H   UNK d   1       2.861  -5.095 -14.969  0.00  0.00     0.062 H 
ATOM     50  C   UNK d   1       0.880  -5.703 -12.300  0.00  0.00     0.124 A 
ATOM     51  H   UNK d   1       1.628  -6.927 -13.887  0.00  0.00     0.065 H 
ATOM     52  C   UNK d   1       0.851  -4.438 -11.744  0.00  0.00    -0.014 A 
ATOM     53  F   UNK d   1       0.205  -6.714 -11.711  0.00  0.00    -0.205 F 
ATOM     54  H   UNK d   1       0.289  -4.257 -10.839  0.00  0.00     0.065 H 
ENDBRANCH   1  44
TORSDOF 3
ENDMDL
MODEL 3
REMARK VINA RESULT:      -7.3      5.617      8.331
REMARK  3 active torsions:
REMARK  status: ('A' for Active; 'I' for Inactive)
REMARK    1  A    between atoms: C_3  and  C_8 
REMARK       I    between atoms: C_8  and  N_10 
REMARK    2  A    between atoms: CA_20  and  CB_24 
REMARK    3  A    between atoms: CB_24  and  CG_25 
ROOT
ATOM      1  C   UNK d   1       4.019  -0.403  -9.870  0.00  0.00     0.247 C 
ATOM      2  O   UNK d   1       4.192   0.783  -9.670  0.00  0.00    -0.270 OA
ATOM      3  N   UNK d   1       4.634  -1.314  -9.090  0.00  0.00    -0.294 N 
ATOM      4  C   UNK d   1       4.345  -2.744  -9.227  0.00  0.00     0.031 C 
ATOM      5  C   UNK d   1       3.952  -3.331  -7.883  0.00  0.00     0.031 C 
ATOM      6  N   UNK d   1       4.729  -2.791  -6.768  0.00  0.00    -0.285 N 
ATOM      7  C   UNK d   1       5.139  -1.393  -6.704  0.00  0.00     0.118 C 
ATOM      8  H   UNK d   1       4.289  -0.783  -6.398  0.00  0.00     0.061 H 
ATOM      9  C   UNK d   1       5.623  -0.927  -8.082  0.00  0.00     0.042 C 
ATOM     10  C   UNK d   1       6.265  -1.198  -5.726  0.00  0.00     0.236 C 
ATOM     11  O   UNK d   1       7.055  -0.296  -5.912  0.00  0.00    -0.274 OA
ATOM     12  H   UNK d   1       5.231  -3.257  -9.600  0.00  0.00     0.048 H 
ATOM     13  H   UNK d   1       3.527  -2.880  -9.934  0.00  0.00     0.048 H 
ATOM     14  H   UNK d   1       4.094  -4.411  -7.917  0.00  0.00     0.048 H 
ATOM     15  H   UNK d   1       2.897  -3.124  -7.706  0.00  0.00     0.048 H 
ATOM     16  H   UNK d   1       5.719   0.159  -8.087  0.00  0.00     0.049 H 
ATOM     17  H   UNK d   1       6.588  -1.381  -8.304  0.00  0.00     0.049 H 
ATOM     18  N   PHE d   2       6.425  -1.988  -4.654  0.00  0.00    -0.302 N 
ATOM     19  CA  PHE d   2       5.508  -3.102  -4.414  0.00  0.00     0.100 C 
ATOM     20  HA  PHE d   2       6.036  -3.900  -3.890  0.00  0.00     0.059 H 
ATOM     21  C   PHE d   2       4.992  -3.622  -5.725  0.00  0.00     0.237 C 
ATOM     22  O   PHE d   2       4.820  -4.814  -5.866  0.00  0.00    -0.274 OA
ATOM     23  H   PHE d   2       7.152  -1.820  -4.035  0.00  0.00     0.149 HD
ENDROOT
BRANCH  19  24
ATOM     24  CB  PHE d   2       4.334  -2.622  -3.558  0.00  0.00    -0.023 C 
ATOM     25  HB1 PHE d   2       4.359  -3.124  -2.592  0.00  0.00     0.029 H 
ATOM     26  HB2 PHE d   2       3.397  -2.854  -4.065  0.00  0.00     0.029 H 
BRANCH  24  27
ATOM     27  CG  PHE d   2       4.440  -1.109  -3.351  0.00  0.00    -0.039 A 
ATOM     28  CD1 PHE d   2       4.550  -0.805  -1.856  0.00  0.00    -0.050 A 
ATOM     29  CE1 PHE d   2       4.655   0.707  -1.648  0.00  0.00    -0.053 A 
ATOM     30 1HD1 PHE d   2       3.664  -1.181  -1.343  0.00  0.00     0.027 H 
ATOM     31 2HD1 PHE d   2       5.437  -1.291  -1.450  0.00  0.00     0.027 H 
ATOM     32  CZ  PHE d   2       3.409   1.388  -2.216  0.00  0.00    -0.053 A 
ATOM     33 1HE1 PHE d   2       4.733   0.923  -0.583  0.00  0.00     0.026 H 
ATOM     34 2HE1 PHE d   2       5.540   1.083  -2.162  0.00  0.00     0.026 H 
ATOM     35  CE2 PHE d   2       3.299   1.084  -3.713  0.00  0.00    -0.053 A 
ATOM     36  HZ1 PHE d   2       3.484   2.465  -2.070  0.00  0.00     0.026 H 
ATOM     37  HZ2 PHE d   2       2.523   1.012  -1.704  0.00  0.00     0.026 H 
ATOM     38  CD2 PHE d   2       3.194  -0.428  -3.919  0.00  0.00    -0.050 A 
ATOM     39 1HE2 PHE d   2       4.184   1.460  -4.226  0.00  0.00     0.026 H 
ATOM     40 2HE2 PHE d   2       2.412   1.569  -4.117  0.00  0.00     0.026 H 
ATOM     41 1HD2 PHE d   2       2.308  -0.804  -3.407  0.00  0.00     0.027 H 
ATOM     42 2HD2 PHE d   2       3.116  -0.644  -4.985  0.00  0.00     0.027 H 
ATOM     43  HG  PHE d   2       5.325  -0.733  -3.864  0.00  0.00     0.030 H 
ENDBRANCH  24  27
ENDBRANCH  19  24
BRANCH   1  44
ATOM     44  C   UNK d   1       3.135  -0.847 -10.968  0.00  0.00     0.040 A 
ATOM     45  C   UNK d   1       1.758  -0.952 -10.760  0.00  0.00    -0.050 A 
ATOM     46  C   UNK d   1       0.937  -1.368 -11.788  0.00  0.00    -0.058 A 
ATOM     47  H   UNK d   1       1.337  -0.709  -9.796  0.00  0.00     0.062 H 
ATOM     48  C   UNK d   1       1.473  -1.680 -13.024  0.00  0.00    -0.026 A 
ATOM     49  H   UNK d   1      -0.129  -1.448 -11.627  0.00  0.00     0.062 H 
ATOM     50  C   UNK d   1       2.838  -1.577 -13.239  0.00  0.00     0.124 A 
ATOM     51  H   UNK d   1       0.826  -2.004 -13.825  0.00  0.00     0.065 H 
ATOM     52  C   UNK d   1       3.671  -1.158 -12.218  0.00  0.00    -0.014 A 
ATOM     53  F   UNK d   1       3.356  -1.885 -14.448  0.00  0.00    -0.205 F 
ATOM     54  H   UNK d   1       4.735  -1.074 -12.387  0.00  0.00     0.065 H 
ENDBRANCH   1  44
TORSDOF 3
ENDMDL
MODEL 4
REMARK VINA RESULT:      -7.2      6.804      8.954
REMARK  3 active torsions:
REMARK  status: ('A' for Active; 'I' for Inactive)
REMARK    1  A    between atoms: C_3  and  C_8 
REMARK       I    between atoms: C_8  and  N_10 
REMARK    2  A    between atoms: CA_20  and  CB_24 
REMARK    3  A    between atoms: CB_24  and  CG_25 
ROOT
ATOM      1  C   UNK d   1       4.643   0.833  -9.732  0.00  0.00     0.247 C 
ATOM      2  O   UNK d   1       4.750   2.041  -9.809  0.00  0.00    -0.270 OA
ATOM      3  N   UNK d   1       5.534   0.122  -9.013  0.00  0.00    -0.294 N 
ATOM      4  C   UNK d   1       5.357  -1.316  -8.799  0.00  0.00     0.031 C 
ATOM      5  C   UNK d   1       5.410  -1.636  -7.315  0.00  0.00     0.031 C 
ATOM      6  N   UNK d   1       6.410  -0.853  -6.591  0.00  0.00    -0.285 N 
ATOM      7  C   UNK d   1       6.686   0.544  -6.903  0.00  0.00     0.118 C 
ATOM      8  H   UNK d   1       5.900   1.169  -6.479  0.00  0.00     0.061 H 
ATOM      9  C   UNK d   1       6.722   0.743  -8.423  0.00  0.00     0.042 C 
ATOM     10  C   UNK d   1       8.015   0.976  -6.347  0.00  0.00     0.236 C 
ATOM     11  O   UNK d   1       8.632   1.852  -6.915  0.00  0.00    -0.274 OA
ATOM     12  H   UNK d   1       6.150  -1.859  -9.314  0.00  0.00     0.048 H 
ATOM     13  H   UNK d   1       4.392  -1.624  -9.201  0.00  0.00     0.048 H 
ATOM     14  H   UNK d   1       5.639  -2.695  -7.193  0.00  0.00     0.048 H 
ATOM     15  H   UNK d   1       4.430  -1.441  -6.880  0.00  0.00     0.048 H 
ATOM     16  H   UNK d   1       6.709   1.809  -8.653  0.00  0.00     0.049 H 
ATOM     17  H   UNK d   1       7.627   0.292  -8.829  0.00  0.00     0.049 H 
ATOM     18  N   PHE d   2       8.541   0.425  -5.243  0.00  0.00    -0.302 N 
ATOM     19  CA  PHE d   2       7.837  -0.654  -4.549  0.00  0.00     0.100 C 
ATOM     20  HA  PHE d   2       8.563  -1.309  -4.066  0.00  0.00     0.059 H 
ATOM     21  C   PHE d   2       7.030  -1.447  -5.537  0.00  0.00     0.237 C 
ATOM     22  O   PHE d   2       6.940  -2.648  -5.404  0.00  0.00    -0.274 OA
ATOM     23  H   PHE d   2       9.391   0.742  -4.903  0.00  0.00     0.149 HD
ENDROOT
BRANCH  19  24
ATOM     24  CB  PHE d   2       6.906  -0.058  -3.491  0.00  0.00    -0.023 C 
ATOM     25  HB1 PHE d   2       6.847   1.021  -3.626  0.00  0.00     0.029 H 
ATOM     26  HB2 PHE d   2       7.296  -0.280  -2.498  0.00  0.00     0.029 H 
BRANCH  24  27
ATOM     27  CG  PHE d   2       5.510  -0.669  -3.639  0.00  0.00    -0.039 A 
ATOM     28  CD1 PHE d   2       4.480   0.449  -3.812  0.00  0.00    -0.050 A 
ATOM     29  CE1 PHE d   2       3.085  -0.161  -3.959  0.00  0.00    -0.053 A 
ATOM     30 1HD1 PHE d   2       4.501   1.101  -2.938  0.00  0.00     0.027 H 
ATOM     31 2HD1 PHE d   2       4.719   1.030  -4.703  0.00  0.00     0.027 H 
ATOM     32  CZ  PHE d   2       2.748  -0.974  -2.708  0.00  0.00    -0.053 A 
ATOM     33 1HE1 PHE d   2       2.351   0.636  -4.082  0.00  0.00     0.026 H 
ATOM     34 2HE1 PHE d   2       3.064  -0.813  -4.833  0.00  0.00     0.026 H 
ATOM     35  CE2 PHE d   2       3.780  -2.093  -2.535  0.00  0.00    -0.053 A 
ATOM     36  HZ1 PHE d   2       1.755  -1.410  -2.813  0.00  0.00     0.026 H 
ATOM     37  HZ2 PHE d   2       2.770  -0.323  -1.834  0.00  0.00     0.026 H 
ATOM     38  CD2 PHE d   2       5.174  -1.482  -2.388  0.00  0.00    -0.050 A 
ATOM     39 1HE2 PHE d   2       3.759  -2.745  -3.408  0.00  0.00     0.026 H 
ATOM     40 2HE2 PHE d   2       3.540  -2.672  -1.644  0.00  0.00     0.026 H 
ATOM     41 1HD2 PHE d   2       5.196  -0.831  -1.514  0.00  0.00     0.027 H 
ATOM     42 2HD2 PHE d   2       5.908  -2.278  -2.265  0.00  0.00     0.027 H 
ATOM     43  HG  PHE d   2       5.489  -1.320  -4.513  0.00  0.00     0.030 H 
ENDBRANCH  24  27
ENDBRANCH  19  24
BRANCH   1  44
ATOM     44  C   UNK d   1       3.536   0.143 -10.426  0.00  0.00     0.040 A 
ATOM     45  C   UNK d   1       2.309  -0.036  -9.784  0.00  0.00    -0.050 A 
ATOM     46  C   UNK d   1       1.279  -0.682 -10.436  0.00  0.00    -0.058 A 
ATOM     47  H   UNK d   1       2.168   0.330  -8.778  0.00  0.00     0.062 H 
ATOM     48  C   UNK d   1       1.457  -1.151 -11.725  0.00  0.00    -0.026 A 
ATOM     49  H   UNK d   1       0.329  -0.819  -9.939  0.00  0.00     0.062 H 
ATOM     50  C   UNK d   1       2.671  -0.977 -12.369  0.00  0.00     0.124 A 
ATOM     51  H   UNK d   1       0.647  -1.656 -12.230  0.00  0.00     0.065 H 
ATOM     52  C   UNK d   1       3.710  -0.328 -11.728  0.00  0.00    -0.014 A 
ATOM     53  F   UNK d   1       2.839  -1.439 -13.628  0.00  0.00    -0.205 F 
ATOM     54  H   UNK d   1       4.655  -0.189 -12.232  0.00  0.00     0.065 H 
ENDBRANCH   1  44
TORSDOF 3
ENDMDL
MODEL 5
REMARK VINA RESULT:      -7.1      8.174     12.707
REMARK  3 active torsions:
REMARK  status: ('A' for Active; 'I' for Inactive)
REMARK    1  A    between atoms: C_3  and  C_8 
REMARK       I    between atoms: C_8  and  N_10 
REMARK    2  A    between atoms: CA_20  and  CB_24 
REMARK    3  A    between atoms: CB_24  and  CG_25 
ROOT
ATOM      1  C   UNK d   1       9.927   6.110  -7.251  0.00  0.00     0.247 C 
ATOM      2  O   UNK d   1       9.462   6.937  -6.491  0.00  0.00    -0.270 OA
ATOM      3  N   UNK d   1      10.208   4.869  -6.806  0.00  0.00    -0.294 N 
ATOM      4  C   UNK d   1      10.649   3.818  -7.727  0.00  0.00     0.031 C 
ATOM      5  C   UNK d   1       9.768   2.589  -7.581  0.00  0.00     0.031 C 
ATOM      6  N   UNK d   1       9.391   2.311  -6.196  0.00  0.00    -0.285 N 
ATOM      7  C   UNK d   1       9.090   3.369  -5.238  0.00  0.00     0.118 C 
ATOM      8  H   UNK d   1       8.087   3.750  -5.428  0.00  0.00     0.061 H 
ATOM      9  C   UNK d   1      10.100   4.513  -5.390  0.00  0.00     0.042 C 
ATOM     10  C   UNK d   1       9.169   2.864  -3.824  0.00  0.00     0.236 C 
ATOM     11  O   UNK d   1       9.474   3.638  -2.941  0.00  0.00    -0.274 OA
ATOM     12  H   UNK d   1      11.682   3.551  -7.503  0.00  0.00     0.048 H 
ATOM     13  H   UNK d   1      10.588   4.187  -8.750  0.00  0.00     0.048 H 
ATOM     14  H   UNK d   1      10.302   1.727  -7.978  0.00  0.00     0.048 H 
ATOM     15  H   UNK d   1       8.862   2.737  -8.167  0.00  0.00     0.048 H 
ATOM     16  H   UNK d   1       9.750   5.385  -4.837  0.00  0.00     0.049 H 
ATOM     17  H   UNK d   1      11.070   4.198  -5.003  0.00  0.00     0.049 H 
ATOM     18  N   PHE d   2       8.911   1.587  -3.506  0.00  0.00    -0.302 N 
ATOM     19  CA  PHE d   2       8.569   0.620  -4.549  0.00  0.00     0.100 C 
ATOM     20  HA  PHE d   2       8.908  -0.372  -4.250  0.00  0.00     0.059 H 
ATOM     21  C   PHE d   2       9.238   1.009  -5.836  0.00  0.00     0.237 C 
ATOM     22  O   PHE d   2       9.669   0.144  -6.568  0.00  0.00    -0.274 OA
ATOM     23  H   PHE d   2       8.954   1.302  -2.580  0.00  0.00     0.149 HD
ENDROOT
BRANCH  19  24
ATOM     24  CB  PHE d   2       7.051   0.602  -4.749  0.00  0.00    -0.023 C 
ATOM     25  HB1 PHE d   2       6.800  -0.086  -5.555  0.00  0.00     0.029 H 
ATOM     26  HB2 PHE d   2       6.707   1.604  -5.005  0.00  0.00     0.029 H 
BRANCH  24  27
ATOM     27  CG  PHE d   2       6.373   0.144  -3.456  0.00  0.00    -0.039 A 
ATOM     28  CD1 PHE d   2       5.627  -1.167  -3.708  0.00  0.00    -0.050 A 
ATOM     29  CE1 PHE d   2       4.948  -1.624  -2.415  0.00  0.00    -0.053 A 
ATOM     30 1HD1 PHE d   2       4.873  -1.014  -4.480  0.00  0.00     0.027 H 
ATOM     31 2HD1 PHE d   2       6.333  -1.930  -4.037  0.00  0.00     0.027 H 
ATOM     32  CZ  PHE d   2       3.956  -0.555  -1.954  0.00  0.00    -0.053 A 
ATOM     33 1HE1 PHE d   2       4.417  -2.559  -2.595  0.00  0.00     0.026 H 
ATOM     34 2HE1 PHE d   2       5.702  -1.777  -1.643  0.00  0.00     0.026 H 
ATOM     35  CE2 PHE d   2       4.702   0.758  -1.702  0.00  0.00    -0.053 A 
ATOM     36  HZ1 PHE d   2       3.473  -0.880  -1.033  0.00  0.00     0.026 H 
ATOM     37  HZ2 PHE d   2       3.202  -0.401  -2.725  0.00  0.00     0.026 H 
ATOM     38  CD2 PHE d   2       5.381   1.214  -2.995  0.00  0.00    -0.050 A 
ATOM     39 1HE2 PHE d   2       5.456   0.605  -0.930  0.00  0.00     0.026 H 
ATOM     40 2HE2 PHE d   2       3.996   1.519  -1.374  0.00  0.00     0.026 H 
ATOM     41 1HD2 PHE d   2       4.627   1.368  -3.767  0.00  0.00     0.027 H 
ATOM     42 2HD2 PHE d   2       5.912   2.149  -2.815  0.00  0.00     0.027 H 
ATOM     43  HG  PHE d   2       7.127  -0.009  -2.684  0.00  0.00     0.030 H 
ENDBRANCH  24  27
ENDBRANCH  19  24
BRANCH   1  44
ATOM     44  C   UNK d   1      10.184   6.464  -8.662  0.00  0.00     0.040 A 
ATOM     45  C   UNK d   1      11.405   7.030  -9.032  0.00  0.00    -0.050 A 
ATOM     46  C   UNK d   1      11.639   7.360 -10.351  0.00  0.00    -0.058 A 
ATOM     47  H   UNK d   1      12.165   7.211  -8.286  0.00  0.00     0.062 H 
ATOM     48  C   UNK d   1      10.668   7.129 -11.309  0.00  0.00    -0.026 A 
ATOM     49  H   UNK d   1      12.585   7.797 -10.638  0.00  0.00     0.062 H 
ATOM     50  C   UNK d   1       9.453   6.567 -10.950  0.00  0.00     0.124 A 
ATOM     51  H   UNK d   1      10.857   7.389 -12.340  0.00  0.00     0.065 H 
ATOM     52  C   UNK d   1       9.208   6.229  -9.632  0.00  0.00    -0.014 A 
ATOM     53  F   UNK d   1       8.508   6.346 -11.890  0.00  0.00    -0.205 F 
ATOM     54  H   UNK d   1       8.263   5.787  -9.353  0.00  0.00     0.065 H 
ENDBRANCH   1  44
TORSDOF 3
ENDMDL
MODEL 6
REMARK VINA RESULT:      -7.0      5.061      7.066
REMARK  3 active torsions:
REMARK  status: ('A' for Active; 'I' for Inactive)
REMARK    1  A    between atoms: C_3  and  C_8 
REMARK       I    between atoms: C_8  and  N_10 
REMARK    2  A    between atoms: CA_20  and  CB_24 
REMARK    3  A    between atoms: CB_24  and  CG_25 
ROOT
ATOM      1  C   UNK d   1       2.707  -2.744 -10.124  0.00  0.00     0.247 C 
ATOM      2  O   UNK d   1       2.590  -1.547 -10.300  0.00  0.00    -0.270 OA
ATOM      3  N   UNK d   1       3.625  -3.210  -9.254  0.00  0.00    -0.294 N 
ATOM      4  C   UNK d   1       3.701  -4.636  -8.928  0.00  0.00     0.031 C 
ATOM      5  C   UNK d   1       3.637  -4.835  -7.424  0.00  0.00     0.031 C 
ATOM      6  N   UNK d   1       4.376  -3.819  -6.676  0.00  0.00    -0.285 N 
ATOM      7  C   UNK d   1       4.415  -2.420  -7.084  0.00  0.00     0.118 C 
ATOM      8  H   UNK d   1       3.479  -1.937  -6.803  0.00  0.00     0.061 H 
ATOM      9  C   UNK d   1       4.593  -2.325  -8.604  0.00  0.00     0.042 C 
ATOM     10  C   UNK d   1       5.561  -1.694  -6.436  0.00  0.00     0.236 C 
ATOM     11  O   UNK d   1       6.063  -0.753  -7.015  0.00  0.00    -0.274 OA
ATOM     12  H   UNK d   1       4.638  -5.044  -9.307  0.00  0.00     0.048 H 
ATOM     13  H   UNK d   1       2.867  -5.158  -9.398  0.00  0.00     0.048 H 
ATOM     14  H   UNK d   1       4.048  -5.815  -7.182  0.00  0.00     0.048 H 
ATOM     15  H   UNK d   1       2.593  -4.809  -7.112  0.00  0.00     0.048 H 
ATOM     16  H   UNK d   1       4.404  -1.302  -8.931  0.00  0.00     0.049 H 
ATOM     17  H   UNK d   1       5.610  -2.613  -8.872  0.00  0.00     0.049 H 
ATOM     18  N   PHE d   2       6.047  -2.050  -5.237  0.00  0.00    -0.302 N 
ATOM     19  CA  PHE d   2       5.485  -3.197  -4.524  0.00  0.00     0.100 C 
ATOM     20  HA  PHE d   2       6.260  -3.658  -3.911  0.00  0.00     0.059 H 
ATOM     21  C   PHE d   2       4.967  -4.202  -5.513  0.00  0.00     0.237 C 
ATOM     22  O   PHE d   2       5.093  -5.385  -5.280  0.00  0.00    -0.274 OA
ATOM     23  H   PHE d   2       6.775  -1.546  -4.842  0.00  0.00     0.149 HD
ENDROOT
BRANCH  19  24
ATOM     24  CB  PHE d   2       4.337  -2.727  -3.627  0.00  0.00    -0.023 C 
ATOM     25  HB1 PHE d   2       4.398  -3.233  -2.664  0.00  0.00     0.029 H 
ATOM     26  HB2 PHE d   2       3.385  -2.963  -4.103  0.00  0.00     0.029 H 
BRANCH  24  27
ATOM     27  CG  PHE d   2       4.442  -1.214  -3.416  0.00  0.00    -0.039 A 
ATOM     28  CD1 PHE d   2       4.587  -0.916  -1.923  0.00  0.00    -0.050 A 
ATOM     29  CE1 PHE d   2       4.691   0.595  -1.712  0.00  0.00    -0.053 A 
ATOM     30 1HD1 PHE d   2       3.717  -1.299  -1.390  0.00  0.00     0.027 H 
ATOM     31 2HD1 PHE d   2       5.487  -1.399  -1.542  0.00  0.00     0.027 H 
ATOM     32  CZ  PHE d   2       3.427   1.273  -2.246  0.00  0.00    -0.053 A 
ATOM     33 1HE1 PHE d   2       4.795   0.808  -0.648  0.00  0.00     0.026 H 
ATOM     34 2HE1 PHE d   2       5.561   0.977  -2.246  0.00  0.00     0.026 H 
ATOM     35  CE2 PHE d   2       3.282   0.974  -3.741  0.00  0.00    -0.053 A 
ATOM     36  HZ1 PHE d   2       3.502   2.350  -2.097  0.00  0.00     0.026 H 
ATOM     37  HZ2 PHE d   2       2.557   0.891  -1.714  0.00  0.00     0.026 H 
ATOM     38  CD2 PHE d   2       3.178  -0.537  -3.951  0.00  0.00    -0.050 A 
ATOM     39 1HE2 PHE d   2       4.152   1.357  -4.274  0.00  0.00     0.026 H 
ATOM     40 2HE2 PHE d   2       2.382   1.457  -4.121  0.00  0.00     0.026 H 
ATOM     41 1HD2 PHE d   2       2.308  -0.919  -3.418  0.00  0.00     0.027 H 
ATOM     42 2HD2 PHE d   2       3.075  -0.750  -5.015  0.00  0.00     0.027 H 
ATOM     43  HG  PHE d   2       5.312  -0.832  -3.950  0.00  0.00     0.030 H 
ENDBRANCH  24  27
ENDBRANCH  19  24
BRANCH   1  44
ATOM     44  C   UNK d   1       1.842  -3.688 -10.862  0.00  0.00     0.040 A 
ATOM     45  C   UNK d   1       2.333  -4.357 -11.985  0.00  0.00    -0.050 A 
ATOM     46  C   UNK d   1       1.522  -5.237 -12.671  0.00  0.00    -0.058 A 
ATOM     47  H   UNK d   1       3.346  -4.184 -12.317  0.00  0.00     0.062 H 
ATOM     48  C   UNK d   1       0.224  -5.460 -12.248  0.00  0.00    -0.026 A 
ATOM     49  H   UNK d   1       1.902  -5.755 -13.540  0.00  0.00     0.062 H 
ATOM     50  C   UNK d   1      -0.270  -4.802 -11.134  0.00  0.00     0.124 A 
ATOM     51  H   UNK d   1      -0.407  -6.150 -12.789  0.00  0.00     0.065 H 
ATOM     52  C   UNK d   1       0.534  -3.921 -10.435  0.00  0.00    -0.014 A 
ATOM     53  F   UNK d   1      -1.540  -5.024 -10.726  0.00  0.00    -0.205 F 
ATOM     54  H   UNK d   1       0.150  -3.411  -9.564  0.00  0.00     0.065 H 
ENDBRANCH   1  44
TORSDOF 3
ENDMDL
MODEL 7
REMARK VINA RESULT:      -6.9      6.485      9.707
REMARK  3 active torsions:
REMARK  status: ('A' for Active; 'I' for Inactive)
REMARK    1  A    between atoms: C_3  and  C_8 
REMARK       I    between atoms: C_8  and  N_10 
REMARK    2  A    between atoms: CA_20  and  CB_24 
REMARK    3  A    between atoms: CB_24  and  CG_25 
ROOT
ATOM      1  C   UNK d   1       5.824  -0.648  -5.764  0.00  0.00     0.247 C 
ATOM      2  O   UNK d   1       6.997  -0.887  -5.981  0.00  0.00    -0.270 OA
ATOM      3  N   UNK d   1       5.065  -0.079  -6.721  0.00  0.00    -0.294 N 
ATOM      4  C   UNK d   1       3.623   0.102  -6.533  0.00  0.00     0.031 C 
ATOM      5  C   UNK d   1       2.861  -0.511  -7.694  0.00  0.00     0.031 C 
ATOM      6  N   UNK d   1       3.515  -0.306  -8.986  0.00  0.00    -0.285 N 
ATOM      7  C   UNK d   1       4.963  -0.346  -9.145  0.00  0.00     0.118 C 
ATOM      8  H   UNK d   1       5.296  -1.384  -9.148  0.00  0.00     0.061 H 
ATOM      9  C   UNK d   1       5.637   0.394  -7.983  0.00  0.00     0.042 C 
ATOM     10  C   UNK d   1       5.391   0.315 -10.427  0.00  0.00     0.236 C 
ATOM     11  O   UNK d   1       6.485   0.837 -10.481  0.00  0.00    -0.274 OA
ATOM     12  H   UNK d   1       3.398   1.167  -6.474  0.00  0.00     0.048 H 
ATOM     13  H   UNK d   1       3.318  -0.380  -5.605  0.00  0.00     0.048 H 
ATOM     14  H   UNK d   1       1.866  -0.068  -7.732  0.00  0.00     0.048 H 
ATOM     15  H   UNK d   1       2.759  -1.581  -7.519  0.00  0.00     0.048 H 
ATOM     16  H   UNK d   1       6.706   0.178  -7.983  0.00  0.00     0.049 H 
ATOM     17  H   UNK d   1       5.480   1.467  -8.092  0.00  0.00     0.049 H 
ATOM     18  N   PHE d   2       4.604   0.345 -11.512  0.00  0.00    -0.302 N 
ATOM     19  CA  PHE d   2       3.268  -0.249 -11.472  0.00  0.00     0.100 C 
ATOM     20  HA  PHE d   2       2.610   0.290 -12.155  0.00  0.00     0.059 H 
ATOM     21  C   PHE d   2       2.718  -0.161 -10.077  0.00  0.00     0.237 C 
ATOM     22  O   PHE d   2       1.537   0.061  -9.917  0.00  0.00    -0.274 OA
ATOM     23  H   PHE d   2       4.921   0.764 -12.327  0.00  0.00     0.149 HD
ENDROOT
BRANCH  19  24
ATOM     24  CB  PHE d   2       3.350  -1.717 -11.896  0.00  0.00    -0.023 C 
ATOM     25  HB1 PHE d   2       3.003  -2.350 -11.080  0.00  0.00     0.029 H 
ATOM     26  HB2 PHE d   2       4.383  -1.968 -12.137  0.00  0.00     0.029 H 
BRANCH  24  27
ATOM     27  CG  PHE d   2       2.469  -1.943 -13.127  0.00  0.00    -0.039 A 
ATOM     28  CD1 PHE d   2       1.012  -2.102 -12.690  0.00  0.00    -0.050 A 
ATOM     29  CE1 PHE d   2       0.131  -2.328 -13.920  0.00  0.00    -0.053 A 
ATOM     30 1HD1 PHE d   2       0.925  -2.956 -12.019  0.00  0.00     0.027 H 
ATOM     31 2HD1 PHE d   2       0.688  -1.199 -12.171  0.00  0.00     0.027 H 
ATOM     32  CZ  PHE d   2       0.586  -3.595 -14.647  0.00  0.00    -0.053 A 
ATOM     33 1HE1 PHE d   2      -0.907  -2.441 -13.608  0.00  0.00     0.026 H 
ATOM     34 2HE1 PHE d   2       0.219  -1.473 -14.591  0.00  0.00     0.026 H 
ATOM     35  CE2 PHE d   2       2.044  -3.436 -15.085  0.00  0.00    -0.053 A 
ATOM     36  HZ1 PHE d   2      -0.041  -3.755 -15.524  0.00  0.00     0.026 H 
ATOM     37  HZ2 PHE d   2       0.499  -4.450 -13.977  0.00  0.00     0.026 H 
ATOM     38  CD2 PHE d   2       2.924  -3.209 -13.854  0.00  0.00    -0.050 A 
ATOM     39 1HE2 PHE d   2       2.131  -2.581 -15.756  0.00  0.00     0.026 H 
ATOM     40 2HE2 PHE d   2       2.368  -4.338 -15.603  0.00  0.00     0.026 H 
ATOM     41 1HD2 PHE d   2       2.837  -4.065 -13.184  0.00  0.00     0.027 H 
ATOM     42 2HD2 PHE d   2       3.962  -3.096 -14.166  0.00  0.00     0.027 H 
ATOM     43  HG  PHE d   2       2.556  -1.088 -13.798  0.00  0.00     0.030 H 
ENDBRANCH  24  27
ENDBRANCH  19  24
BRANCH   1  44
ATOM     44  C   UNK d   1       5.232  -0.983  -4.453  0.00  0.00     0.040 A 
ATOM     45  C   UNK d   1       4.708  -2.257  -4.224  0.00  0.00    -0.050 A 
ATOM     46  C   UNK d   1       4.155  -2.563  -2.998  0.00  0.00    -0.058 A 
ATOM     47  H   UNK d   1       4.734  -3.000  -5.007  0.00  0.00     0.062 H 
ATOM     48  C   UNK d   1       4.121  -1.613  -1.993  0.00  0.00    -0.026 A 
ATOM     49  H   UNK d   1       3.750  -3.549  -2.821  0.00  0.00     0.062 H 
ATOM     50  C   UNK d   1       4.639  -0.347  -2.212  0.00  0.00     0.124 A 
ATOM     51  H   UNK d   1       3.687  -1.859  -1.035  0.00  0.00     0.065 H 
ATOM     52  C   UNK d   1       5.200  -0.029  -3.434  0.00  0.00    -0.014 A 
ATOM     53  F   UNK d   1       4.601   0.577  -1.226  0.00  0.00    -0.205 F 
ATOM     54  H   UNK d   1       5.608   0.957  -3.603  0.00  0.00     0.065 H 
ENDBRANCH   1  44
TORSDOF 3
ENDMDL
MODEL 8
REMARK VINA RESULT:      -6.8      6.824      9.950
REMARK  3 active torsions:
REMARK  status: ('A' for Active; 'I' for Inactive)
REMARK    1  A    between atoms: C_3  and  C_8 
REMARK       I    between atoms: C_8  and  N_10 
REMARK    2  A    between atoms: CA_20  and  CB_24 
REMARK    3  A    between atoms: CB_24  and  CG_25 
ROOT
ATOM      1  C   UNK d   1       6.457  -0.853  -5.251  0.00  0.00     0.247 C 
ATOM      2  O   UNK d   1       6.516  -1.414  -6.327  0.00  0.00    -0.270 OA
ATOM      3  N   UNK d   1       7.474  -0.068  -4.843  0.00  0.00    -0.294 N 
ATOM      4  C   UNK d   1       7.373   0.719  -3.611  0.00  0.00     0.031 C 
ATOM      5  C   UNK d   1       7.680   2.179  -3.895  0.00  0.00     0.031 C 
ATOM      6  N   UNK d   1       8.764   2.364  -4.857  0.00  0.00    -0.285 N 
ATOM      7  C   UNK d   1       8.947   1.489  -6.010  0.00  0.00     0.118 C 
ATOM      8  H   UNK d   1       8.224   1.756  -6.781  0.00  0.00     0.061 H 
ATOM      9  C   UNK d   1       8.725   0.029  -5.597  0.00  0.00     0.042 C 
ATOM     10  C   UNK d   1      10.337   1.608  -6.571  0.00  0.00     0.236 C 
ATOM     11  O   UNK d   1      10.827   0.649  -7.130  0.00  0.00    -0.274 OA
ATOM     12  H   UNK d   1       8.085   0.336  -2.879  0.00  0.00     0.048 H 
ATOM     13  H   UNK d   1       6.364   0.633  -3.209  0.00  0.00     0.048 H 
ATOM     14  H   UNK d   1       7.955   2.667  -2.960  0.00  0.00     0.048 H 
ATOM     15  H   UNK d   1       6.781   2.656  -4.284  0.00  0.00     0.048 H 
ATOM     16  H   UNK d   1       8.645  -0.594  -6.488  0.00  0.00     0.049 H 
ATOM     17  H   UNK d   1       9.563  -0.309  -4.987  0.00  0.00     0.049 H 
ATOM     18  N   PHE d   2      11.052   2.738  -6.475  0.00  0.00    -0.302 N 
ATOM     19  CA  PHE d   2      10.503   3.903  -5.782  0.00  0.00     0.100 C 
ATOM     20  HA  PHE d   2      11.317   4.479  -5.340  0.00  0.00     0.059 H 
ATOM     21  C   PHE d   2       9.566   3.451  -4.699  0.00  0.00     0.237 C 
ATOM     22  O   PHE d   2       9.532   4.057  -3.650  0.00  0.00    -0.274 OA
ATOM     23  H   PHE d   2      11.939   2.783  -6.866  0.00  0.00     0.149 HD
ENDROOT
BRANCH  19  24
ATOM     24  CB  PHE d   2       9.743   4.779  -6.781  0.00  0.00    -0.023 C 
ATOM     25  HB1 PHE d   2       8.672   4.670  -6.618  0.00  0.00     0.029 H 
ATOM     26  HB2 PHE d   2       9.990   4.469  -7.797  0.00  0.00     0.029 H 
BRANCH  24  27
ATOM     27  CG  PHE d   2      10.143   6.243  -6.583  0.00  0.00    -0.039 A 
ATOM     28  CD1 PHE d   2       9.192   6.901  -5.582  0.00  0.00    -0.050 A 
ATOM     29  CE1 PHE d   2       9.592   8.364  -5.384  0.00  0.00    -0.053 A 
ATOM     30 1HD1 PHE d   2       8.172   6.851  -5.963  0.00  0.00     0.027 H 
ATOM     31 2HD1 PHE d   2       9.249   6.376  -4.628  0.00  0.00     0.027 H 
ATOM     32  CZ  PHE d   2       9.511   9.101  -6.723  0.00  0.00    -0.053 A 
ATOM     33 1HE1 PHE d   2       8.914   8.833  -4.670  0.00  0.00     0.026 H 
ATOM     34 2HE1 PHE d   2      10.612   8.414  -5.003  0.00  0.00     0.026 H 
ATOM     35  CE2 PHE d   2      10.463   8.442  -7.725  0.00  0.00    -0.053 A 
ATOM     36  HZ1 PHE d   2       9.797  10.143  -6.582  0.00  0.00     0.026 H 
ATOM     37  HZ2 PHE d   2       8.491   9.051  -7.104  0.00  0.00     0.026 H 
ATOM     38  CD2 PHE d   2      10.063   6.979  -7.921  0.00  0.00    -0.050 A 
ATOM     39 1HE2 PHE d   2      11.483   8.492  -7.344  0.00  0.00     0.026 H 
ATOM     40 2HE2 PHE d   2      10.405   8.967  -8.678  0.00  0.00     0.026 H 
ATOM     41 1HD2 PHE d   2       9.043   6.929  -8.303  0.00  0.00     0.027 H 
ATOM     42 2HD2 PHE d   2      10.741   6.510  -8.635  0.00  0.00     0.027 H 
ATOM     43  HG  PHE d   2      11.164   6.293  -6.202  0.00  0.00     0.030 H 
ENDBRANCH  24  27
ENDBRANCH  19  24
BRANCH   1  44
ATOM     44  C   UNK d   1       5.269  -1.030  -4.389  0.00  0.00     0.040 A 
ATOM     45  C   UNK d   1       5.353  -1.806  -3.231  0.00  0.00    -0.050 A 
ATOM     46  C   UNK d   1       4.241  -1.969  -2.430  0.00  0.00    -0.058 A 
ATOM     47  H   UNK d   1       6.286  -2.278  -2.963  0.00  0.00     0.062 H 
ATOM     48  C   UNK d   1       3.044  -1.365  -2.771  0.00  0.00    -0.026 A 
ATOM     49  H   UNK d   1       4.306  -2.568  -1.534  0.00  0.00     0.062 H 
ATOM     50  C   UNK d   1       2.953  -0.593  -3.918  0.00  0.00     0.124 A 
ATOM     51  H   UNK d   1       2.177  -1.496  -2.141  0.00  0.00     0.065 H 
ATOM     52  C   UNK d   1       4.061  -0.419  -4.726  0.00  0.00    -0.014 A 
ATOM     53  F   UNK d   1       1.781  -0.007  -4.246  0.00  0.00    -0.205 F 
ATOM     54  H   UNK d   1       3.991   0.186  -5.618  0.00  0.00     0.065 H 
ENDBRANCH   1  44
TORSDOF 3
ENDMDL
MODEL 9
REMARK VINA RESULT:      -6.7      5.013      8.493
REMARK  3 active torsions:
REMARK  status: ('A' for Active; 'I' for Inactive)
REMARK    1  A    between atoms: C_3  and  C_8 
REMARK       I    between atoms: C_8  and  N_10 
REMARK    2  A    between atoms: CA_20  and  CB_24 
REMARK    3  A    between atoms: CB_24  and  CG_25 
ROOT
ATOM      1  C   UNK d   1       4.544  -2.418  -4.102  0.00  0.00     0.247 C 
ATOM      2  O   UNK d   1       4.108  -3.432  -3.591  0.00  0.00    -0.270 OA
ATOM      3  N   UNK d   1       5.272  -2.494  -5.234  0.00  0.00    -0.294 N 
ATOM      4  C   UNK d   1       5.699  -1.283  -5.939  0.00  0.00     0.031 C 
ATOM      5  C   UNK d   1       5.273  -1.346  -7.395  0.00  0.00     0.031 C 
ATOM      6  N   UNK d   1       5.404  -2.680  -7.978  0.00  0.00    -0.285 N 
ATOM      7  C   UNK d   1       5.113  -3.895  -7.226  0.00  0.00     0.118 C 
ATOM      8  H   UNK d   1       4.033  -4.032  -7.169  0.00  0.00     0.061 H 
ATOM      9  C   UNK d   1       5.680  -3.778  -5.805  0.00  0.00     0.042 C 
ATOM     10  C   UNK d   1       5.732  -5.102  -7.876  0.00  0.00     0.236 C 
ATOM     11  O   UNK d   1       6.053  -6.043  -7.180  0.00  0.00    -0.274 OA
ATOM     12  H   UNK d   1       6.785  -1.198  -5.884  0.00  0.00     0.048 H 
ATOM     13  H   UNK d   1       5.247  -0.412  -5.467  0.00  0.00     0.048 H 
ATOM     14  H   UNK d   1       5.886  -0.652  -7.970  0.00  0.00     0.048 H 
ATOM     15  H   UNK d   1       4.232  -1.032  -7.468  0.00  0.00     0.048 H 
ATOM     16  H   UNK d   1       5.278  -4.580  -5.185  0.00  0.00     0.049 H 
ATOM     17  H   UNK d   1       6.767  -3.851  -5.839  0.00  0.00     0.049 H 
ATOM     18  N   PHE d   2       5.940  -5.173  -9.198  0.00  0.00    -0.302 N 
ATOM     19  CA  PHE d   2       5.591  -4.046 -10.063  0.00  0.00     0.100 C 
ATOM     20  HA  PHE d   2       6.262  -4.026 -10.923  0.00  0.00     0.059 H 
ATOM     21  C   PHE d   2       5.726  -2.762  -9.296  0.00  0.00     0.237 C 
ATOM     22  O   PHE d   2       6.149  -1.774  -9.858  0.00  0.00    -0.274 OA
ATOM     23  H   PHE d   2       6.324  -5.975  -9.584  0.00  0.00     0.149 HD
ENDROOT
BRANCH  19  24
ATOM     24  CB  PHE d   2       4.147  -4.201 -10.546  0.00  0.00    -0.023 C 
ATOM     25  HB1 PHE d   2       3.583  -4.785  -9.820  0.00  0.00     0.029 H 
ATOM     26  HB2 PHE d   2       4.140  -4.712 -11.509  0.00  0.00     0.029 H 
BRANCH  24  27
ATOM     27  CG  PHE d   2       3.509  -2.818 -10.697  0.00  0.00    -0.039 A 
ATOM     28  CD1 PHE d   2       2.198  -2.774  -9.909  0.00  0.00    -0.050 A 
ATOM     29  CE1 PHE d   2       1.559  -1.392 -10.060  0.00  0.00    -0.053 A 
ATOM     30 1HD1 PHE d   2       1.517  -3.533 -10.294  0.00  0.00     0.027 H 
ATOM     31 2HD1 PHE d   2       2.400  -2.968  -8.856  0.00  0.00     0.027 H 
ATOM     32  CZ  PHE d   2       1.274  -1.120 -11.539  0.00  0.00    -0.053 A 
ATOM     33 1HE1 PHE d   2       0.625  -1.360  -9.499  0.00  0.00     0.026 H 
ATOM     34 2HE1 PHE d   2       2.241  -0.633  -9.676  0.00  0.00     0.026 H 
ATOM     35  CE2 PHE d   2       2.586  -1.165 -12.327  0.00  0.00    -0.053 A 
ATOM     36  HZ1 PHE d   2       0.821  -0.135 -11.646  0.00  0.00     0.026 H 
ATOM     37  HZ2 PHE d   2       0.594  -1.878 -11.924  0.00  0.00     0.026 H 
ATOM     38  CD2 PHE d   2       3.224  -2.547 -12.175  0.00  0.00    -0.050 A 
ATOM     39 1HE2 PHE d   2       3.268  -0.406 -11.942  0.00  0.00     0.026 H 
ATOM     40 2HE2 PHE d   2       2.384  -0.971 -13.379  0.00  0.00     0.026 H 
ATOM     41 1HD2 PHE d   2       2.544  -3.306 -12.560  0.00  0.00     0.027 H 
ATOM     42 2HD2 PHE d   2       4.159  -2.579 -12.736  0.00  0.00     0.027 H 
ATOM     43  HG  PHE d   2       4.190  -2.059 -10.312  0.00  0.00     0.030 H 
ENDBRANCH  24  27
ENDBRANCH  19  24
BRANCH   1  44
ATOM     44  C   UNK d   1       4.274  -1.103  -3.484  0.00  0.00     0.040 A 
ATOM     45  C   UNK d   1       4.800  -0.798  -2.227  0.00  0.00    -0.050 A 
ATOM     46  C   UNK d   1       4.544   0.431  -1.654  0.00  0.00    -0.058 A 
ATOM     47  H   UNK d   1       5.405  -1.523  -1.704  0.00  0.00     0.062 H 
ATOM     48  C   UNK d   1       3.770   1.362  -2.322  0.00  0.00    -0.026 A 
ATOM     49  H   UNK d   1       4.952   0.667  -0.682  0.00  0.00     0.062 H 
ATOM     50  C   UNK d   1       3.245   1.067  -3.570  0.00  0.00     0.124 A 
ATOM     51  H   UNK d   1       3.573   2.322  -1.869  0.00  0.00     0.065 H 
ATOM     52  C   UNK d   1       3.497  -0.159  -4.157  0.00  0.00    -0.014 A 
ATOM     53  F   UNK d   1       2.488   1.981  -4.217  0.00  0.00    -0.205 F 
ATOM     54  H   UNK d   1       3.091  -0.387  -5.131  0.00  0.00     0.065 H 
ENDBRANCH   1  44
TORSDOF 3
ENDMDL
MODEL 10
REMARK VINA RESULT:      -6.5      3.055      8.647
REMARK  3 active torsions:
REMARK  status: ('A' for Active; 'I' for Inactive)
REMARK    1  A    between atoms: C_3  and  C_8 
REMARK       I    between atoms: C_8  and  N_10 
REMARK    2  A    between atoms: CA_20  and  CB_24 
REMARK    3  A    between atoms: CB_24  and  CG_25 
ROOT
ATOM      1  C   UNK d   1       5.776  -2.125  -5.707  0.00  0.00     0.247 C 
ATOM      2  O   UNK d   1       6.889  -1.776  -5.362  0.00  0.00    -0.270 OA
ATOM      3  N   UNK d   1       5.604  -3.311  -6.322  0.00  0.00    -0.294 N 
ATOM      4  C   UNK d   1       4.262  -3.812  -6.633  0.00  0.00     0.031 C 
ATOM      5  C   UNK d   1       4.080  -5.210  -6.068  0.00  0.00     0.031 C 
ATOM      6  N   UNK d   1       5.276  -6.042  -6.191  0.00  0.00    -0.285 N 
ATOM      7  C   UNK d   1       6.622  -5.508  -6.020  0.00  0.00     0.118 C 
ATOM      8  H   UNK d   1       6.826  -5.382  -4.956  0.00  0.00     0.061 H 
ATOM      9  C   UNK d   1       6.737  -4.148  -6.719  0.00  0.00     0.042 C 
ATOM     10  C   UNK d   1       7.654  -6.426  -6.616  0.00  0.00     0.236 C 
ATOM     11  O   UNK d   1       8.687  -5.952  -7.039  0.00  0.00    -0.274 OA
ATOM     12  H   UNK d   1       4.129  -3.840  -7.715  0.00  0.00     0.048 H 
ATOM     13  H   UNK d   1       3.518  -3.146  -6.197  0.00  0.00     0.048 H 
ATOM     14  H   UNK d   1       3.260  -5.697  -6.596  0.00  0.00     0.048 H 
ATOM     15  H   UNK d   1       3.816  -5.129  -5.014  0.00  0.00     0.048 H 
ATOM     16  H   UNK d   1       7.659  -3.655  -6.410  0.00  0.00     0.049 H 
ATOM     17  H   UNK d   1       6.743  -4.292  -7.799  0.00  0.00     0.049 H 
ATOM     18  N   PHE d   2       7.469  -7.752  -6.695  0.00  0.00    -0.302 N 
ATOM     19  CA  PHE d   2       6.224  -8.355  -6.222  0.00  0.00     0.100 C 
ATOM     20  HA  PHE d   2       6.010  -9.252  -6.803  0.00  0.00     0.059 H 
ATOM     21  C   PHE d   2       5.096  -7.375  -6.384  0.00  0.00     0.237 C 
ATOM     22  O   PHE d   2       4.001  -7.778  -6.713  0.00  0.00    -0.274 OA
ATOM     23  H   PHE d   2       8.165  -8.314  -7.069  0.00  0.00     0.149 HD
ENDROOT
BRANCH  19  24
ATOM     24  CB  PHE d   2       6.366  -8.727  -4.744  0.00  0.00    -0.023 C 
ATOM     25  HB1 PHE d   2       5.947  -7.932  -4.128  0.00  0.00     0.029 H 
ATOM     26  HB2 PHE d   2       7.422  -8.857  -4.503  0.00  0.00     0.029 H 
BRANCH  24  27
ATOM     27  CG  PHE d   2       5.616 -10.033  -4.473  0.00  0.00    -0.039 A 
ATOM     28  CD1 PHE d   2       5.474 -10.820  -5.777  0.00  0.00    -0.050 A 
ATOM     29  CE1 PHE d   2       4.724 -12.125  -5.506  0.00  0.00    -0.053 A 
ATOM     30 1HD1 PHE d   2       4.918 -10.225  -6.502  0.00  0.00     0.027 H 
ATOM     31 2HD1 PHE d   2       6.463 -11.045  -6.175  0.00  0.00     0.027 H 
ATOM     32  CZ  PHE d   2       3.335 -11.809  -4.948  0.00  0.00    -0.053 A 
ATOM     33 1HE1 PHE d   2       4.622 -12.686  -6.435  0.00  0.00     0.026 H 
ATOM     34 2HE1 PHE d   2       5.280 -12.720  -4.781  0.00  0.00     0.026 H 
ATOM     35  CE2 PHE d   2       3.477 -11.021  -3.643  0.00  0.00    -0.053 A 
ATOM     36  HZ1 PHE d   2       2.801 -12.739  -4.754  0.00  0.00     0.026 H 
ATOM     37  HZ2 PHE d   2       2.778 -11.214  -5.672  0.00  0.00     0.026 H 
ATOM     38  CD2 PHE d   2       4.228  -9.716  -3.915  0.00  0.00    -0.050 A 
ATOM     39 1HE2 PHE d   2       4.033 -11.616  -2.918  0.00  0.00     0.026 H 
ATOM     40 2HE2 PHE d   2       2.488 -10.796  -3.245  0.00  0.00     0.026 H 
ATOM     41 1HD2 PHE d   2       3.671  -9.121  -4.638  0.00  0.00     0.027 H 
ATOM     42 2HD2 PHE d   2       4.329  -9.156  -2.985  0.00  0.00     0.027 H 
ATOM     43  HG  PHE d   2       6.172 -10.628  -3.748  0.00  0.00     0.030 H 
ENDBRANCH  24  27
ENDBRANCH  19  24
BRANCH   1  44
ATOM     44  C   UNK d   1       4.614  -1.249  -5.451  0.00  0.00     0.040 A 
ATOM     45  C   UNK d   1       4.076  -0.478  -6.483  0.00  0.00    -0.050 A 
ATOM     46  C   UNK d   1       2.991   0.338  -6.239  0.00  0.00    -0.058 A 
ATOM     47  H   UNK d   1       4.509  -0.521  -7.471  0.00  0.00     0.062 H 
ATOM     48  C   UNK d   1       2.433   0.394  -4.974  0.00  0.00    -0.026 A 
ATOM     49  H   UNK d   1       2.573   0.934  -7.038  0.00  0.00     0.062 H 
ATOM     50  C   UNK d   1       2.961  -0.368  -3.944  0.00  0.00     0.124 A 
ATOM     51  H   UNK d   1       1.584   1.035  -4.788  0.00  0.00     0.065 H 
ATOM     52  C   UNK d   1       4.045  -1.193  -4.178  0.00  0.00    -0.014 A 
ATOM     53  F   UNK d   1       2.413  -0.308  -2.711  0.00  0.00    -0.205 F 
ATOM     54  H   UNK d   1       4.454  -1.790  -3.376  0.00  0.00     0.065 H 
ENDBRANCH   1  44
TORSDOF 3
ENDMDL
