MODEL 1
REMARK VINA RESULT:      -6.9      0.000      0.000
REMARK  7 active torsions:
REMARK  status: ('A' for Active; 'I' for Inactive)
REMARK    1  A    between atoms: C_1  and  C_2 
REMARK    2  A    between atoms: C_19  and  C_21 
REMARK    3  A    between atoms: C_21  and  N_60 
REMARK    4  A    between atoms: C_22  and  C_23 
REMARK    5  A    between atoms: C_22  and  N_60 
REMARK    6  A    between atoms: C_23  and  C_24 
REMARK    7  A    between atoms: C_24  and  N_25 
ROOT
ATOM      1  C   LIG d   1       4.099   0.298 -10.597  0.00  0.00    -0.022 C 
ATOM      2  C   LIG d   1       4.066   0.300 -12.133  0.00  0.00    -0.047 C 
ATOM      3  C   LIG d   1       3.558  -1.055 -12.628  0.00  0.00    -0.049 C 
ATOM      4  C   LIG d   1       2.114  -1.268 -12.166  0.00  0.00    -0.032 C 
ATOM      5  C   LIG d   1       2.048  -1.073 -10.666  0.00  0.00    -0.073 C 
ATOM      6  C   LIG d   1       1.482  -1.966  -9.892  0.00  0.00    -0.099 C 
ATOM      7  C   LIG d   1       2.655   0.184 -10.091  0.00  0.00    -0.014 C 
ATOM      8  H   LIG d   1       2.083   1.049 -10.427  0.00  0.00     0.035 H 
ATOM      9  C   LIG d   1       2.639   0.130  -8.587  0.00  0.00    -0.039 C 
ATOM     10  C   LIG d   1       3.427  -1.060  -8.036  0.00  0.00     0.015 C 
ATOM     11  H   LIG d   1       2.894  -2.005  -8.146  0.00  0.00     0.035 H 
ATOM     12  C   LIG d   1       4.846  -1.096  -8.636  0.00  0.00     0.107 C 
ATOM     13  H   LIG d   1       5.319  -2.040  -8.369  0.00  0.00     0.074 H 
ATOM     14  C   LIG d   1       4.866  -0.944 -10.136  0.00  0.00    -0.009 C 
ATOM     15  O   LIG d   1       5.540  -0.028  -7.932  0.00  0.00    -0.461 OA
ATOM     16  C   LIG d   1       5.159  -0.096  -6.637  0.00  0.00     0.316 C 
ATOM     17  O   LIG d   1       5.812   0.286  -5.693  0.00  0.00    -0.250 OA
ATOM     18  C   LIG d   1       3.781  -0.726  -6.555  0.00  0.00     0.102 C 
ATOM     19  H   LIG d   1       3.812  -1.636  -5.955  0.00  0.00     0.047 H 
ATOM     20  H   LIG d   1       3.399   1.089 -12.481  0.00  0.00     0.027 H 
ATOM     21  H   LIG d   1       5.070   0.476 -12.517  0.00  0.00     0.027 H 
ATOM     22  H   LIG d   1       3.598  -1.081 -13.717  0.00  0.00     0.027 H 
ATOM     23  H   LIG d   1       4.187  -1.847 -12.222  0.00  0.00     0.027 H 
ATOM     24  H   LIG d   1       1.463  -0.545 -12.658  0.00  0.00     0.031 H 
ATOM     25  H   LIG d   1       1.795  -2.280 -12.417  0.00  0.00     0.031 H 
ATOM     26  H   LIG d   1       1.144  -2.904 -10.308  0.00  0.00     0.053 H 
ATOM     27  H   LIG d   1       1.353  -1.764  -8.839  0.00  0.00     0.053 H 
ATOM     28  H   LIG d   1       1.606   0.060  -8.251  0.00  0.00     0.028 H 
ATOM     29  H   LIG d   1       3.075   1.053  -8.204  0.00  0.00     0.028 H 
ATOM     30  H   LIG d   1       5.900  -0.866 -10.470  0.00  0.00     0.031 H 
ATOM     31  H   LIG d   1       4.414  -1.827 -10.587  0.00  0.00     0.031 H 
ENDROOT
BRANCH  18  32
ATOM     32  C   LIG d   1       2.772   0.267  -5.973  0.00  0.00    -0.020 C 
ATOM     33  H   LIG d   1       2.750   1.166  -6.588  0.00  0.00     0.082 H 
ATOM     34  H   LIG d   1       1.782  -0.189  -5.958  0.00  0.00     0.082 H 
BRANCH  32  35
ATOM     35  N   LIG d   1       3.177   0.618  -4.598  0.00  0.00     0.228 N 
ATOM     36  H   LIG d   1       2.840   1.561  -4.377  0.00  0.00     0.201 HD
ATOM     37  H   LIG d   1       4.202   0.596  -4.531  0.00  0.00     0.201 HD
BRANCH  35  38
ATOM     38  C   LIG d   1       2.607  -0.343  -3.635  0.00  0.00    -0.032 C 
ATOM     39  H   LIG d   1       1.682   0.059  -3.221  0.00  0.00     0.081 H 
ATOM     40  H   LIG d   1       2.400  -1.288  -4.138  0.00  0.00     0.081 H 
BRANCH  38  41
ATOM     41  C   LIG d   1       3.612  -0.577  -2.506  0.00  0.00     0.003 C 
ATOM     42  H   LIG d   1       4.509   0.013  -2.689  0.00  0.00     0.033 H 
ATOM     43  H   LIG d   1       3.168  -0.278  -1.557  0.00  0.00     0.033 H 
BRANCH  41  44
ATOM     44  C   LIG d   1       3.980  -2.062  -2.450  0.00  0.00     0.019 C 
ATOM     45  H   LIG d   1       4.205  -2.342  -1.421  0.00  0.00     0.047 H 
ATOM     46  H   LIG d   1       3.143  -2.657  -2.815  0.00  0.00     0.047 H 
BRANCH  44  47
ATOM     47  N   LIG d   1       5.156  -2.305  -3.290  0.00  0.00    -0.301 N 
ATOM     48  C   LIG d   1       5.179  -3.146  -4.338  0.00  0.00     0.216 C 
ATOM     49  C   LIG d   1       6.555  -3.156  -4.967  0.00  0.00     0.026 C 
ATOM     50  O   LIG d   1       4.235  -3.801  -4.723  0.00  0.00    -0.276 OA
ATOM     51  C   LIG d   1       7.466  -2.516  -3.894  0.00  0.00    -0.029 C 
ATOM     52  H   LIG d   1       6.871  -4.178  -5.176  0.00  0.00     0.036 H 
ATOM     53  H   LIG d   1       6.561  -2.561  -5.880  0.00  0.00     0.036 H 
ATOM     54  C   LIG d   1       6.458  -1.655  -3.098  0.00  0.00     0.015 C 
ATOM     55  H   LIG d   1       7.919  -3.280  -3.261  0.00  0.00     0.029 H 
ATOM     56  H   LIG d   1       8.232  -1.892  -4.355  0.00  0.00     0.029 H 
ATOM     57  H   LIG d   1       6.434  -0.639  -3.492  0.00  0.00     0.046 H 
ATOM     58  H   LIG d   1       6.724  -1.645  -2.042  0.00  0.00     0.046 H 
ENDBRANCH  44  47
ENDBRANCH  41  44
ENDBRANCH  38  41
ENDBRANCH  35  38
ENDBRANCH  32  35
ENDBRANCH  18  32
BRANCH   1  59
ATOM     59  C   LIG d   1       4.768   1.570 -10.071  0.00  0.00    -0.059 C 
ATOM     60  H   LIG d   1       4.075   2.102  -9.418  0.00  0.00     0.024 H 
ATOM     61  H   LIG d   1       5.663   1.303  -9.509  0.00  0.00     0.024 H 
ATOM     62  H   LIG d   1       5.041   2.209 -10.910  0.00  0.00     0.024 H 
ENDBRANCH   1  59
TORSDOF 7
ENDMDL
MODEL 2
REMARK VINA RESULT:      -6.8      4.098      6.989
REMARK  7 active torsions:
REMARK  status: ('A' for Active; 'I' for Inactive)
REMARK    1  A    between atoms: C_1  and  C_2 
REMARK    2  A    between atoms: C_19  and  C_21 
REMARK    3  A    between atoms: C_21  and  N_60 
REMARK    4  A    between atoms: C_22  and  C_23 
REMARK    5  A    between atoms: C_22  and  N_60 
REMARK    6  A    between atoms: C_23  and  C_24 
REMARK    7  A    between atoms: C_24  and  N_25 
ROOT
ATOM      1  C   LIG d   1       6.072  -0.159  -4.087  0.00  0.00    -0.022 C 
ATOM      2  C   LIG d   1       6.075   1.095  -3.199  0.00  0.00    -0.047 C 
ATOM      3  C   LIG d   1       4.712   1.234  -2.520  0.00  0.00    -0.049 C 
ATOM      4  C   LIG d   1       4.473   0.045  -1.585  0.00  0.00    -0.032 C 
ATOM      5  C   LIG d   1       4.666  -1.237  -2.368  0.00  0.00    -0.073 C 
ATOM      6  C   LIG d   1       3.763  -2.186  -2.345  0.00  0.00    -0.099 C 
ATOM      7  C   LIG d   1       5.933  -1.386  -3.176  0.00  0.00    -0.014 C 
ATOM      8  H   LIG d   1       6.789  -1.436  -2.502  0.00  0.00     0.035 H 
ATOM      9  C   LIG d   1       5.878  -2.640  -4.006  0.00  0.00    -0.039 C 
ATOM     10  C   LIG d   1       4.702  -2.643  -4.983  0.00  0.00     0.015 C 
ATOM     11  H   LIG d   1       3.748  -2.841  -4.493  0.00  0.00     0.035 H 
ATOM     12  C   LIG d   1       4.690  -1.351  -5.823  0.00  0.00     0.107 C 
ATOM     13  H   LIG d   1       3.754  -1.298  -6.378  0.00  0.00     0.074 H 
ATOM     14  C   LIG d   1       4.843  -0.099  -4.997  0.00  0.00    -0.009 C 
ATOM     15  O   LIG d   1       5.770  -1.556  -6.777  0.00  0.00    -0.461 OA
ATOM     16  C   LIG d   1       5.695  -2.843  -7.188  0.00  0.00     0.316 C 
ATOM     17  O   LIG d   1       6.087  -3.263  -8.252  0.00  0.00    -0.250 OA
ATOM     18  C   LIG d   1       5.041  -3.676  -6.102  0.00  0.00     0.102 C 
ATOM     19  H   LIG d   1       4.131  -4.146  -6.476  0.00  0.00     0.047 H 
ATOM     20  H   LIG d   1       6.852   1.002  -2.441  0.00  0.00     0.027 H 
ATOM     21  H   LIG d   1       6.268   1.974  -3.813  0.00  0.00     0.027 H 
ATOM     22  H   LIG d   1       4.687   2.159  -1.944  0.00  0.00     0.027 H 
ATOM     23  H   LIG d   1       3.930   1.258  -3.279  0.00  0.00     0.027 H 
ATOM     24  H   LIG d   1       5.185   0.080  -0.760  0.00  0.00     0.031 H 
ATOM     25  H   LIG d   1       3.457   0.085  -1.195  0.00  0.00     0.031 H 
ATOM     26  H   LIG d   1       2.819  -2.021  -1.846  0.00  0.00     0.053 H 
ATOM     27  H   LIG d   1       3.962  -3.132  -2.825  0.00  0.00     0.053 H 
ATOM     28  H   LIG d   1       5.790  -3.497  -3.339  0.00  0.00     0.028 H 
ATOM     29  H   LIG d   1       6.808  -2.723  -4.569  0.00  0.00     0.028 H 
ATOM     30  H   LIG d   1       4.939   0.756  -5.666  0.00  0.00     0.031 H 
ATOM     31  H   LIG d   1       3.953   0.031  -4.383  0.00  0.00     0.031 H 
ENDROOT
BRANCH  18  32
ATOM     32  C   LIG d   1       6.016  -4.733  -5.578  0.00  0.00    -0.020 C 
ATOM     33  H   LIG d   1       6.910  -4.244  -5.192  0.00  0.00     0.082 H 
ATOM     34  H   LIG d   1       5.539  -5.302  -4.780  0.00  0.00     0.082 H 
BRANCH  32  35
ATOM     35  N   LIG d   1       6.384  -5.639  -6.682  0.00  0.00     0.228 N 
ATOM     36  H   LIG d   1       7.294  -6.069  -6.478  0.00  0.00     0.201 HD
ATOM     37  H   LIG d   1       6.447  -5.102  -7.555  0.00  0.00     0.201 HD
BRANCH  35  38
ATOM     38  C   LIG d   1       5.369  -6.698  -6.835  0.00  0.00    -0.032 C 
ATOM     39  H   LIG d   1       4.455  -6.271  -7.250  0.00  0.00     0.081 H 
ATOM     40  H   LIG d   1       5.744  -7.473  -7.503  0.00  0.00     0.081 H 
BRANCH  38  41
ATOM     41  C   LIG d   1       5.070  -7.308  -5.464  0.00  0.00     0.003 C 
ATOM     42  H   LIG d   1       5.934  -7.180  -4.813  0.00  0.00     0.033 H 
ATOM     43  H   LIG d   1       4.207  -6.808  -5.025  0.00  0.00     0.033 H 
BRANCH  41  44
ATOM     44  C   LIG d   1       4.768  -8.800  -5.624  0.00  0.00     0.019 C 
ATOM     45  H   LIG d   1       3.701  -8.938  -5.802  0.00  0.00     0.047 H 
ATOM     46  H   LIG d   1       5.331  -9.195  -6.469  0.00  0.00     0.047 H 
BRANCH  44  47
ATOM     47  N   LIG d   1       5.155  -9.510  -4.403  0.00  0.00    -0.301 N 
ATOM     48  C   LIG d   1       4.285 -10.008  -3.508  0.00  0.00     0.216 C 
ATOM     49  C   LIG d   1       5.032 -10.667  -2.369  0.00  0.00     0.026 C 
ATOM     50  O   LIG d   1       3.079  -9.940  -3.599  0.00  0.00    -0.276 OA
ATOM     51  C   LIG d   1       6.476 -10.129  -2.500  0.00  0.00    -0.029 C 
ATOM     52  H   LIG d   1       4.602 -10.374  -1.411  0.00  0.00     0.036 H 
ATOM     53  H   LIG d   1       5.015 -11.751  -2.478  0.00  0.00     0.036 H 
ATOM     54  C   LIG d   1       6.543  -9.775  -4.004  0.00  0.00     0.015 C 
ATOM     55  H   LIG d   1       6.621  -9.244  -1.880  0.00  0.00     0.029 H 
ATOM     56  H   LIG d   1       7.204 -10.901  -2.251  0.00  0.00     0.029 H 
ATOM     57  H   LIG d   1       6.945 -10.612  -4.574  0.00  0.00     0.046 H 
ATOM     58  H   LIG d   1       7.155  -8.886  -4.154  0.00  0.00     0.046 H 
ENDBRANCH  44  47
ENDBRANCH  41  44
ENDBRANCH  38  41
ENDBRANCH  35  38
ENDBRANCH  32  35
ENDBRANCH  18  32
BRANCH   1  59
ATOM     59  C   LIG d   1       7.355  -0.233  -4.918  0.00  0.00    -0.059 C 
ATOM     60  H   LIG d   1       7.414  -1.204  -5.410  0.00  0.00     0.024 H 
ATOM     61  H   LIG d   1       7.346   0.555  -5.670  0.00  0.00     0.024 H 
ATOM     62  H   LIG d   1       8.218  -0.104  -4.265  0.00  0.00     0.024 H 
ENDBRANCH   1  59
TORSDOF 7
ENDMDL
MODEL 3
REMARK VINA RESULT:      -6.8      2.333      6.828
REMARK  7 active torsions:
REMARK  status: ('A' for Active; 'I' for Inactive)
REMARK    1  A    between atoms: C_1  and  C_2 
REMARK    2  A    between atoms: C_19  and  C_21 
REMARK    3  A    between atoms: C_21  and  N_60 
REMARK    4  A    between atoms: C_22  and  C_23 
REMARK    5  A    between atoms: C_22  and  N_60 
REMARK    6  A    between atoms: C_23  and  C_24 
REMARK    7  A    between atoms: C_24  and  N_25 
ROOT
ATOM      1  C   LIG d   1       5.419  -1.370  -3.623  0.00  0.00    -0.022 C 
ATOM      2  C   LIG d   1       5.078  -1.190  -2.136  0.00  0.00    -0.047 C 
ATOM      3  C   LIG d   1       4.321   0.126  -1.948  0.00  0.00    -0.049 C 
ATOM      4  C   LIG d   1       2.984   0.067  -2.693  0.00  0.00    -0.032 C 
ATOM      5  C   LIG d   1       3.245  -0.317  -4.134  0.00  0.00    -0.073 C 
ATOM      6  C   LIG d   1       2.743   0.382  -5.121  0.00  0.00    -0.099 C 
ATOM      7  C   LIG d   1       4.103  -1.532  -4.396  0.00  0.00    -0.014 C 
ATOM      8  H   LIG d   1       3.584  -2.424  -4.045  0.00  0.00     0.035 H 
ATOM      9  C   LIG d   1       4.384  -1.664  -5.868  0.00  0.00    -0.039 C 
ATOM     10  C   LIG d   1       5.117  -0.447  -6.435  0.00  0.00     0.015 C 
ATOM     11  H   LIG d   1       4.463   0.415  -6.566  0.00  0.00     0.035 H 
ATOM     12  C   LIG d   1       6.372  -0.130  -5.598  0.00  0.00     0.107 C 
ATOM     13  H   LIG d   1       6.771   0.834  -5.910  0.00  0.00     0.074 H 
ATOM     14  C   LIG d   1       6.107  -0.094  -4.114  0.00  0.00    -0.009 C 
ATOM     15  O   LIG d   1       7.317  -1.163  -5.997  0.00  0.00    -0.461 OA
ATOM     16  C   LIG d   1       7.199  -1.310  -7.336  0.00  0.00     0.316 C 
ATOM     17  O   LIG d   1       8.069  -1.703  -8.077  0.00  0.00    -0.250 OA
ATOM     18  C   LIG d   1       5.800  -0.903  -7.761  0.00  0.00     0.102 C 
ATOM     19  H   LIG d   1       5.841  -0.079  -8.472  0.00  0.00     0.047 H 
ATOM     20  H   LIG d   1       4.454  -2.020  -1.803  0.00  0.00     0.027 H 
ATOM     21  H   LIG d   1       5.998  -1.168  -1.552  0.00  0.00     0.027 H 
ATOM     22  H   LIG d   1       4.137   0.290  -0.886  0.00  0.00     0.027 H 
ATOM     23  H   LIG d   1       4.918   0.947  -2.344  0.00  0.00     0.027 H 
ATOM     24  H   LIG d   1       2.339  -0.679  -2.226  0.00  0.00     0.031 H 
ATOM     25  H   LIG d   1       2.502   1.043  -2.656  0.00  0.00     0.031 H 
ATOM     26  H   LIG d   1       2.219   1.304  -4.918  0.00  0.00     0.053 H 
ATOM     27  H   LIG d   1       2.854   0.037  -6.138  0.00  0.00     0.053 H 
ATOM     28  H   LIG d   1       3.438  -1.788  -6.395  0.00  0.00     0.028 H 
ATOM     29  H   LIG d   1       4.996  -2.553  -6.024  0.00  0.00     0.028 H 
ATOM     30  H   LIG d   1       7.054   0.022  -3.589  0.00  0.00     0.031 H 
ATOM     31  H   LIG d   1       5.471   0.761  -3.889  0.00  0.00     0.031 H 
ENDROOT
BRANCH  18  32
ATOM     32  C   LIG d   1       5.056  -2.097  -8.364  0.00  0.00    -0.020 C 
ATOM     33  H   LIG d   1       5.178  -2.966  -7.719  0.00  0.00     0.082 H 
ATOM     34  H   LIG d   1       3.996  -1.856  -8.454  0.00  0.00     0.082 H 
BRANCH  32  35
ATOM     35  N   LIG d   1       5.613  -2.389  -9.699  0.00  0.00     0.228 N 
ATOM     36  H   LIG d   1       6.200  -3.229  -9.644  0.00  0.00     0.201 HD
ATOM     37  H   LIG d   1       6.183  -1.593 -10.010  0.00  0.00     0.201 HD
BRANCH  35  38
ATOM     38  C   LIG d   1       4.525  -2.616 -10.669  0.00  0.00    -0.032 C 
ATOM     39  H   LIG d   1       4.713  -3.538 -11.220  0.00  0.00     0.081 H 
ATOM     40  H   LIG d   1       3.574  -2.694 -10.142  0.00  0.00     0.081 H 
BRANCH  38  41
ATOM     41  C   LIG d   1       4.471  -1.439 -11.645  0.00  0.00     0.003 C 
ATOM     42  H   LIG d   1       5.285  -0.748 -11.428  0.00  0.00     0.033 H 
ATOM     43  H   LIG d   1       4.572  -1.809 -12.666  0.00  0.00     0.033 H 
BRANCH  41  44
ATOM     44  C   LIG d   1       3.132  -0.714 -11.496  0.00  0.00     0.019 C 
ATOM     45  H   LIG d   1       2.855  -0.262 -12.449  0.00  0.00     0.047 H 
ATOM     46  H   LIG d   1       2.365  -1.427 -11.196  0.00  0.00     0.047 H 
BRANCH  44  47
ATOM     47  N   LIG d   1       3.254   0.332 -10.478  0.00  0.00    -0.301 N 
ATOM     48  C   LIG d   1       2.541   0.369  -9.339  0.00  0.00     0.216 C 
ATOM     49  C   LIG d   1       2.917   1.590  -8.529  0.00  0.00     0.026 C 
ATOM     50  O   LIG d   1       1.716  -0.456  -9.009  0.00  0.00    -0.276 OA
ATOM     51  C   LIG d   1       3.657   2.500  -9.537  0.00  0.00    -0.029 C 
ATOM     52  H   LIG d   1       2.024   2.087  -8.151  0.00  0.00     0.036 H 
ATOM     53  H   LIG d   1       3.576   1.313  -7.706  0.00  0.00     0.036 H 
ATOM     54  C   LIG d   1       4.177   1.470 -10.566  0.00  0.00     0.015 C 
ATOM     55  H   LIG d   1       2.971   3.209 -10.000  0.00  0.00     0.029 H 
ATOM     56  H   LIG d   1       4.486   3.020  -9.056  0.00  0.00     0.029 H 
ATOM     57  H   LIG d   1       5.189   1.155 -10.311  0.00  0.00     0.046 H 
ATOM     58  H   LIG d   1       4.155   1.896 -11.568  0.00  0.00     0.046 H 
ENDBRANCH  44  47
ENDBRANCH  41  44
ENDBRANCH  38  41
ENDBRANCH  35  38
ENDBRANCH  32  35
ENDBRANCH  18  32
BRANCH   1  59
ATOM     59  C   LIG d   1       6.328  -2.584  -3.824  0.00  0.00    -0.059 C 
ATOM     60  H   LIG d   1       5.868  -3.270  -4.535  0.00  0.00     0.024 H 
ATOM     61  H   LIG d   1       7.293  -2.255  -4.209  0.00  0.00     0.024 H 
ATOM     62  H   LIG d   1       6.471  -3.092  -2.870  0.00  0.00     0.024 H 
ENDBRANCH   1  59
TORSDOF 7
ENDMDL
MODEL 4
REMARK VINA RESULT:      -6.7      3.919      6.779
REMARK  7 active torsions:
REMARK  status: ('A' for Active; 'I' for Inactive)
REMARK    1  A    between atoms: C_1  and  C_2 
REMARK    2  A    between atoms: C_19  and  C_21 
REMARK    3  A    between atoms: C_21  and  N_60 
REMARK    4  A    between atoms: C_22  and  C_23 
REMARK    5  A    between atoms: C_22  and  N_60 
REMARK    6  A    between atoms: C_23  and  C_24 
REMARK    7  A    between atoms: C_24  and  N_25 
ROOT
ATOM      1  C   LIG d   1       4.385  -0.377  -2.831  0.00  0.00    -0.022 C 
ATOM      2  C   LIG d   1       3.524   0.778  -2.297  0.00  0.00    -0.047 C 
ATOM      3  C   LIG d   1       3.344   1.823  -3.399  0.00  0.00    -0.049 C 
ATOM      4  C   LIG d   1       2.569   1.213  -4.571  0.00  0.00    -0.032 C 
ATOM      5  C   LIG d   1       3.266  -0.058  -5.007  0.00  0.00    -0.073 C 
ATOM      6  C   LIG d   1       3.569  -0.266  -6.265  0.00  0.00    -0.099 C 
ATOM      7  C   LIG d   1       3.599  -1.079  -3.946  0.00  0.00    -0.014 C 
ATOM      8  H   LIG d   1       2.677  -1.490  -3.537  0.00  0.00     0.035 H 
ATOM      9  C   LIG d   1       4.424  -2.192  -4.534  0.00  0.00    -0.039 C 
ATOM     10  C   LIG d   1       5.742  -1.692  -5.128  0.00  0.00     0.015 C 
ATOM     11  H   LIG d   1       5.608  -1.190  -6.087  0.00  0.00     0.035 H 
ATOM     12  C   LIG d   1       6.510  -0.836  -4.102  0.00  0.00     0.107 C 
ATOM     13  H   LIG d   1       7.348  -0.351  -4.602  0.00  0.00     0.074 H 
ATOM     14  C   LIG d   1       5.657   0.216  -3.442  0.00  0.00    -0.009 C 
ATOM     15  O   LIG d   1       7.046  -1.820  -3.172  0.00  0.00    -0.461 OA
ATOM     16  C   LIG d   1       7.484  -2.864  -3.912  0.00  0.00     0.316 C 
ATOM     17  O   LIG d   1       8.361  -3.632  -3.590  0.00  0.00    -0.250 OA
ATOM     18  C   LIG d   1       6.700  -2.920  -5.210  0.00  0.00     0.102 C 
ATOM     19  H   LIG d   1       7.370  -2.826  -6.065  0.00  0.00     0.047 H 
ATOM     20  H   LIG d   1       2.549   0.395  -1.995  0.00  0.00     0.027 H 
ATOM     21  H   LIG d   1       4.018   1.234  -1.439  0.00  0.00     0.027 H 
ATOM     22  H   LIG d   1       2.791   2.675  -3.004  0.00  0.00     0.027 H 
ATOM     23  H   LIG d   1       4.322   2.155  -3.747  0.00  0.00     0.027 H 
ATOM     24  H   LIG d   1       1.551   0.983  -4.255  0.00  0.00     0.031 H 
ATOM     25  H   LIG d   1       2.545   1.920  -5.400  0.00  0.00     0.031 H 
ATOM     26  H   LIG d   1       3.416   0.517  -6.993  0.00  0.00     0.053 H 
ATOM     27  H   LIG d   1       3.973  -1.219  -6.573  0.00  0.00     0.053 H 
ATOM     28  H   LIG d   1       3.844  -2.681  -5.316  0.00  0.00     0.028 H 
ATOM     29  H   LIG d   1       4.640  -2.915  -3.747  0.00  0.00     0.028 H 
ATOM     30  H   LIG d   1       6.236   0.700  -2.656  0.00  0.00     0.031 H 
ATOM     31  H   LIG d   1       5.377   0.963  -4.185  0.00  0.00     0.031 H 
ENDROOT
BRANCH  18  32
ATOM     32  C   LIG d   1       5.899  -4.221  -5.295  0.00  0.00    -0.020 C 
ATOM     33  H   LIG d   1       5.397  -4.402  -4.345  0.00  0.00     0.082 H 
ATOM     34  H   LIG d   1       5.156  -4.138  -6.089  0.00  0.00     0.082 H 
BRANCH  32  35
ATOM     35  N   LIG d   1       6.818  -5.336  -5.591  0.00  0.00     0.228 N 
ATOM     36  H   LIG d   1       7.187  -5.713  -4.710  0.00  0.00     0.201 HD
ATOM     37  H   LIG d   1       7.595  -4.992  -6.168  0.00  0.00     0.201 HD
BRANCH  35  38
ATOM     38  C   LIG d   1       6.108  -6.405  -6.319  0.00  0.00    -0.032 C 
ATOM     39  H   LIG d   1       5.675  -6.000  -7.233  0.00  0.00     0.081 H 
ATOM     40  H   LIG d   1       6.806  -7.204  -6.570  0.00  0.00     0.081 H 
BRANCH  38  41
ATOM     41  C   LIG d   1       4.995  -6.962  -5.429  0.00  0.00     0.003 C 
ATOM     42  H   LIG d   1       5.252  -6.806  -4.382  0.00  0.00     0.033 H 
ATOM     43  H   LIG d   1       4.060  -6.448  -5.654  0.00  0.00     0.033 H 
BRANCH  41  44
ATOM     44  C   LIG d   1       4.830  -8.460  -5.697  0.00  0.00     0.019 C 
ATOM     45  H   LIG d   1       3.783  -8.678  -5.912  0.00  0.00     0.047 H 
ATOM     46  H   LIG d   1       5.443  -8.746  -6.551  0.00  0.00     0.047 H 
BRANCH  44  47
ATOM     47  N   LIG d   1       5.253  -9.216  -4.515  0.00  0.00    -0.301 N 
ATOM     48  C   LIG d   1       4.410  -9.816  -3.657  0.00  0.00     0.216 C 
ATOM     49  C   LIG d   1       5.190 -10.495  -2.552  0.00  0.00     0.026 C 
ATOM     50  O   LIG d   1       3.202  -9.814  -3.754  0.00  0.00    -0.276 OA
ATOM     51  C   LIG d   1       6.599  -9.865  -2.641  0.00  0.00    -0.029 C 
ATOM     52  H   LIG d   1       4.739 -10.284  -1.582  0.00  0.00     0.036 H 
ATOM     53  H   LIG d   1       5.238 -11.570  -2.724  0.00  0.00     0.036 H 
ATOM     54  C   LIG d   1       6.652  -9.421  -4.121  0.00  0.00     0.015 C 
ATOM     55  H   LIG d   1       6.689  -9.011  -1.969  0.00  0.00     0.029 H 
ATOM     56  H   LIG d   1       7.371 -10.606  -2.430  0.00  0.00     0.029 H 
ATOM     57  H   LIG d   1       7.106 -10.199  -4.735  0.00  0.00     0.046 H 
ATOM     58  H   LIG d   1       7.210  -8.491  -4.215  0.00  0.00     0.046 H 
ENDBRANCH  44  47
ENDBRANCH  41  44
ENDBRANCH  38  41
ENDBRANCH  35  38
ENDBRANCH  32  35
ENDBRANCH  18  32
BRANCH   1  59
ATOM     59  C   LIG d   1       4.734  -1.353  -1.705  0.00  0.00    -0.059 C 
ATOM     60  H   LIG d   1       4.198  -2.290  -1.857  0.00  0.00     0.024 H 
ATOM     61  H   LIG d   1       5.807  -1.544  -1.709  0.00  0.00     0.024 H 
ATOM     62  H   LIG d   1       4.444  -0.921  -0.747  0.00  0.00     0.024 H 
ENDBRANCH   1  59
TORSDOF 7
ENDMDL
MODEL 5
REMARK VINA RESULT:      -6.5      2.655      6.919
REMARK  7 active torsions:
REMARK  status: ('A' for Active; 'I' for Inactive)
REMARK    1  A    between atoms: C_1  and  C_2 
REMARK    2  A    between atoms: C_19  and  C_21 
REMARK    3  A    between atoms: C_21  and  N_60 
REMARK    4  A    between atoms: C_22  and  C_23 
REMARK    5  A    between atoms: C_22  and  N_60 
REMARK    6  A    between atoms: C_23  and  C_24 
REMARK    7  A    between atoms: C_24  and  N_25 
ROOT
ATOM      1  C   LIG d   1       5.121  -1.983  -3.880  0.00  0.00    -0.022 C 
ATOM      2  C   LIG d   1       4.053  -2.077  -2.780  0.00  0.00    -0.047 C 
ATOM      3  C   LIG d   1       4.455  -1.177  -1.610  0.00  0.00    -0.049 C 
ATOM      4  C   LIG d   1       4.481   0.285  -2.064  0.00  0.00    -0.032 C 
ATOM      5  C   LIG d   1       5.363   0.400  -3.289  0.00  0.00    -0.073 C 
ATOM      6  C   LIG d   1       6.316   1.298  -3.354  0.00  0.00    -0.099 C 
ATOM      7  C   LIG d   1       5.110  -0.552  -4.433  0.00  0.00    -0.014 C 
ATOM      8  H   LIG d   1       4.135  -0.340  -4.872  0.00  0.00     0.035 H 
ATOM      9  C   LIG d   1       6.175  -0.399  -5.485  0.00  0.00    -0.039 C 
ATOM     10  C   LIG d   1       7.577  -0.685  -4.944  0.00  0.00     0.015 C 
ATOM     11  H   LIG d   1       7.966   0.128  -4.330  0.00  0.00     0.035 H 
ATOM     12  C   LIG d   1       7.614  -2.050  -4.228  0.00  0.00     0.107 C 
ATOM     13  H   LIG d   1       8.565  -2.148  -3.704  0.00  0.00     0.074 H 
ATOM     14  C   LIG d   1       6.489  -2.240  -3.244  0.00  0.00    -0.009 C 
ATOM     15  O   LIG d   1       7.601  -3.008  -5.323  0.00  0.00    -0.461 OA
ATOM     16  C   LIG d   1       8.422  -2.524  -6.282  0.00  0.00     0.316 C 
ATOM     17  O   LIG d   1       9.015  -3.190  -7.098  0.00  0.00    -0.250 OA
ATOM     18  C   LIG d   1       8.482  -1.012  -6.171  0.00  0.00     0.102 C 
ATOM     19  H   LIG d   1       9.504  -0.682  -5.990  0.00  0.00     0.047 H 
ATOM     20  H   LIG d   1       3.092  -1.750  -3.177  0.00  0.00     0.027 H 
ATOM     21  H   LIG d   1       3.974  -3.108  -2.437  0.00  0.00     0.027 H 
ATOM     22  H   LIG d   1       3.736  -1.293  -0.799  0.00  0.00     0.027 H 
ATOM     23  H   LIG d   1       5.447  -1.463  -1.258  0.00  0.00     0.027 H 
ATOM     24  H   LIG d   1       3.469   0.608  -2.310  0.00  0.00     0.031 H 
ATOM     25  H   LIG d   1       4.881   0.909  -1.265  0.00  0.00     0.031 H 
ATOM     26  H   LIG d   1       6.549   1.901  -2.489  0.00  0.00     0.053 H 
ATOM     27  H   LIG d   1       6.868   1.434  -4.272  0.00  0.00     0.053 H 
ATOM     28  H   LIG d   1       6.143   0.620  -5.869  0.00  0.00     0.028 H 
ATOM     29  H   LIG d   1       5.960  -1.092  -6.298  0.00  0.00     0.028 H 
ATOM     30  H   LIG d   1       6.518  -3.261  -2.866  0.00  0.00     0.031 H 
ATOM     31  H   LIG d   1       6.626  -1.551  -2.411  0.00  0.00     0.031 H 
ENDROOT
BRANCH  18  32
ATOM     32  C   LIG d   1       7.923  -0.360  -7.438  0.00  0.00    -0.020 C 
ATOM     33  H   LIG d   1       8.071  -1.028  -8.286  0.00  0.00     0.082 H 
ATOM     34  H   LIG d   1       6.857  -0.168  -7.308  0.00  0.00     0.082 H 
BRANCH  32  35
ATOM     35  N   LIG d   1       8.630   0.912  -7.679  0.00  0.00     0.228 N 
ATOM     36  H   LIG d   1       9.364   0.763  -8.381  0.00  0.00     0.201 HD
ATOM     37  H   LIG d   1       9.055   1.235  -6.802  0.00  0.00     0.201 HD
BRANCH  35  38
ATOM     38  C   LIG d   1       7.688   1.936  -8.169  0.00  0.00    -0.032 C 
ATOM     39  H   LIG d   1       7.076   2.295  -7.342  0.00  0.00     0.081 H 
ATOM     40  H   LIG d   1       8.243   2.769  -8.600  0.00  0.00     0.081 H 
BRANCH  38  41
ATOM     41  C   LIG d   1       6.787   1.316  -9.240  0.00  0.00     0.003 C 
ATOM     42  H   LIG d   1       7.204   1.517 -10.226  0.00  0.00     0.033 H 
ATOM     43  H   LIG d   1       6.725   0.239  -9.083  0.00  0.00     0.033 H 
BRANCH  41  44
ATOM     44  C   LIG d   1       5.387   1.927  -9.143  0.00  0.00     0.019 C 
ATOM     45  H   LIG d   1       5.385   2.715  -8.390  0.00  0.00     0.047 H 
ATOM     46  H   LIG d   1       5.107   2.346 -10.109  0.00  0.00     0.047 H 
BRANCH  44  47
ATOM     47  N   LIG d   1       4.426   0.887  -8.764  0.00  0.00    -0.301 N 
ATOM     48  C   LIG d   1       3.261   1.123  -8.138  0.00  0.00     0.216 C 
ATOM     49  C   LIG d   1       2.529  -0.178  -7.894  0.00  0.00     0.026 C 
ATOM     50  O   LIG d   1       2.856   2.219  -7.814  0.00  0.00    -0.276 OA
ATOM     51  C   LIG d   1       3.611  -1.265  -8.093  0.00  0.00    -0.029 C 
ATOM     52  H   LIG d   1       2.137  -0.211  -6.878  0.00  0.00     0.036 H 
ATOM     53  H   LIG d   1       1.723  -0.303  -8.617  0.00  0.00     0.036 H 
ATOM     54  C   LIG d   1       4.611  -0.545  -9.027  0.00  0.00     0.015 C 
ATOM     55  H   LIG d   1       4.078  -1.529  -7.143  0.00  0.00     0.029 H 
ATOM     56  H   LIG d   1       3.192  -2.147  -8.577  0.00  0.00     0.029 H 
ATOM     57  H   LIG d   1       4.385  -0.769 -10.070  0.00  0.00     0.046 H 
ATOM     58  H   LIG d   1       5.630  -0.845  -8.788  0.00  0.00     0.046 H 
ENDBRANCH  44  47
ENDBRANCH  41  44
ENDBRANCH  38  41
ENDBRANCH  35  38
ENDBRANCH  32  35
ENDBRANCH  18  32
BRANCH   1  59
ATOM     59  C   LIG d   1       4.843  -3.003  -4.987  0.00  0.00    -0.059 C 
ATOM     60  H   LIG d   1       5.242  -2.632  -5.932  0.00  0.00     0.024 H 
ATOM     61  H   LIG d   1       5.321  -3.949  -4.738  0.00  0.00     0.024 H 
ATOM     62  H   LIG d   1       3.767  -3.152  -5.082  0.00  0.00     0.024 H 
ENDBRANCH   1  59
TORSDOF 7
ENDMDL
MODEL 6
REMARK VINA RESULT:      -6.3      3.923      6.482
REMARK  7 active torsions:
REMARK  status: ('A' for Active; 'I' for Inactive)
REMARK    1  A    between atoms: C_1  and  C_2 
REMARK    2  A    between atoms: C_19  and  C_21 
REMARK    3  A    between atoms: C_21  and  N_60 
REMARK    4  A    between atoms: C_22  and  C_23 
REMARK    5  A    between atoms: C_22  and  N_60 
REMARK    6  A    between atoms: C_23  and  C_24 
REMARK    7  A    between atoms: C_24  and  N_25 
ROOT
ATOM      1  C   LIG d   1       6.202  -0.373  -4.152  0.00  0.00    -0.022 C 
ATOM      2  C   LIG d   1       6.325   0.908  -3.312  0.00  0.00    -0.047 C 
ATOM      3  C   LIG d   1       4.976   1.214  -2.660  0.00  0.00    -0.049 C 
ATOM      4  C   LIG d   1       4.604   0.093  -1.685  0.00  0.00    -0.032 C 
ATOM      5  C   LIG d   1       4.672  -1.231  -2.416  0.00  0.00    -0.073 C 
ATOM      6  C   LIG d   1       3.675  -2.080  -2.371  0.00  0.00    -0.099 C 
ATOM      7  C   LIG d   1       5.926  -1.542  -3.197  0.00  0.00    -0.014 C 
ATOM      8  H   LIG d   1       6.763  -1.654  -2.508  0.00  0.00     0.035 H 
ATOM      9  C   LIG d   1       5.750  -2.815  -3.980  0.00  0.00    -0.039 C 
ATOM     10  C   LIG d   1       4.591  -2.735  -4.974  0.00  0.00     0.015 C 
ATOM     11  H   LIG d   1       3.616  -2.814  -4.493  0.00  0.00     0.035 H 
ATOM     12  C   LIG d   1       4.724  -1.483  -5.863  0.00  0.00     0.107 C 
ATOM     13  H   LIG d   1       3.805  -1.355  -6.434  0.00  0.00     0.074 H 
ATOM     14  C   LIG d   1       4.997  -0.222  -5.083  0.00  0.00    -0.009 C 
ATOM     15  O   LIG d   1       5.788  -1.836  -6.792  0.00  0.00    -0.461 OA
ATOM     16  C   LIG d   1       5.584  -3.123  -7.155  0.00  0.00     0.316 C 
ATOM     17  O   LIG d   1       5.942  -3.623  -8.196  0.00  0.00    -0.250 OA
ATOM     18  C   LIG d   1       4.834  -3.840  -6.048  0.00  0.00     0.102 C 
ATOM     19  H   LIG d   1       3.885  -4.228  -6.418  0.00  0.00     0.047 H 
ATOM     20  H   LIG d   1       7.079   0.764  -2.539  0.00  0.00     0.027 H 
ATOM     21  H   LIG d   1       6.616   1.737  -3.956  0.00  0.00     0.027 H 
ATOM     22  H   LIG d   1       5.040   2.158  -2.120  0.00  0.00     0.027 H 
ATOM     23  H   LIG d   1       4.209   1.289  -3.432  0.00  0.00     0.027 H 
ATOM     24  H   LIG d   1       5.306   0.088  -0.851  0.00  0.00     0.031 H 
ATOM     25  H   LIG d   1       3.593   0.254  -1.312  0.00  0.00     0.031 H 
ATOM     26  H   LIG d   1       2.748  -1.799  -1.893  0.00  0.00     0.053 H 
ATOM     27  H   LIG d   1       3.780  -3.060  -2.812  0.00  0.00     0.053 H 
ATOM     28  H   LIG d   1       5.565  -3.632  -3.282  0.00  0.00     0.028 H 
ATOM     29  H   LIG d   1       6.673  -3.016  -4.525  0.00  0.00     0.028 H 
ATOM     30  H   LIG d   1       5.189   0.591  -5.782  0.00  0.00     0.031 H 
ATOM     31  H   LIG d   1       4.118   0.023  -4.488  0.00  0.00     0.031 H 
ENDROOT
BRANCH  18  32
ATOM     32  C   LIG d   1       5.687  -4.971  -5.469  0.00  0.00    -0.020 C 
ATOM     33  H   LIG d   1       6.721  -4.637  -5.379  0.00  0.00     0.082 H 
ATOM     34  H   LIG d   1       5.306  -5.247  -4.485  0.00  0.00     0.082 H 
BRANCH  32  35
ATOM     35  N   LIG d   1       5.621  -6.137  -6.371  0.00  0.00     0.228 N 
ATOM     36  H   LIG d   1       5.142  -5.867  -7.238  0.00  0.00     0.201 HD
ATOM     37  H   LIG d   1       5.097  -6.891  -5.912  0.00  0.00     0.201 HD
BRANCH  35  38
ATOM     38  C   LIG d   1       6.979  -6.614  -6.692  0.00  0.00    -0.032 C 
ATOM     39  H   LIG d   1       6.926  -7.373  -7.473  0.00  0.00     0.081 H 
ATOM     40  H   LIG d   1       7.589  -5.779  -7.037  0.00  0.00     0.081 H 
BRANCH  38  41
ATOM     41  C   LIG d   1       7.608  -7.219  -5.435  0.00  0.00     0.003 C 
ATOM     42  H   LIG d   1       7.045  -6.901  -4.558  0.00  0.00     0.033 H 
ATOM     43  H   LIG d   1       7.586  -8.306  -5.506  0.00  0.00     0.033 H 
BRANCH  41  44
ATOM     44  C   LIG d   1       9.058  -6.745  -5.311  0.00  0.00     0.019 C 
ATOM     45  H   LIG d   1       9.710  -7.606  -5.164  0.00  0.00     0.047 H 
ATOM     46  H   LIG d   1       9.347  -6.220  -6.221  0.00  0.00     0.047 H 
BRANCH  44  47
ATOM     47  N   LIG d   1       9.179  -5.840  -4.165  0.00  0.00    -0.301 N 
ATOM     48  C   LIG d   1       9.122  -4.499  -4.248  0.00  0.00     0.216 C 
ATOM     49  C   LIG d   1       9.293  -3.886  -2.876  0.00  0.00     0.026 C 
ATOM     50  O   LIG d   1       8.959  -3.873  -5.273  0.00  0.00    -0.276 OA
ATOM     51  C   LIG d   1       9.875  -5.033  -2.018  0.00  0.00    -0.029 C 
ATOM     52  H   LIG d   1       9.990  -3.049  -2.917  0.00  0.00     0.036 H 
ATOM     53  H   LIG d   1       8.331  -3.561  -2.481  0.00  0.00     0.036 H 
ATOM     54  C   LIG d   1       9.371  -6.281  -2.779  0.00  0.00     0.015 C 
ATOM     55  H   LIG d   1      10.964  -4.995  -2.001  0.00  0.00     0.029 H 
ATOM     56  H   LIG d   1       9.471  -5.006  -1.006  0.00  0.00     0.029 H 
ATOM     57  H   LIG d   1       8.425  -6.625  -2.359  0.00  0.00     0.046 H 
ATOM     58  H   LIG d   1      10.115  -7.075  -2.735  0.00  0.00     0.046 H 
ENDBRANCH  44  47
ENDBRANCH  41  44
ENDBRANCH  38  41
ENDBRANCH  35  38
ENDBRANCH  32  35
ENDBRANCH  18  32
BRANCH   1  59
ATOM     59  C   LIG d   1       7.480  -0.612  -4.959  0.00  0.00    -0.059 C 
ATOM     60  H   LIG d   1       8.256   0.076  -4.624  0.00  0.00     0.024 H 
ATOM     61  H   LIG d   1       7.816  -1.639  -4.811  0.00  0.00     0.024 H 
ATOM     62  H   LIG d   1       7.278  -0.444  -6.017  0.00  0.00     0.024 H 
ENDBRANCH   1  59
TORSDOF 7
ENDMDL
MODEL 7
REMARK VINA RESULT:      -6.3      1.992      3.198
REMARK  7 active torsions:
REMARK  status: ('A' for Active; 'I' for Inactive)
REMARK    1  A    between atoms: C_1  and  C_2 
REMARK    2  A    between atoms: C_19  and  C_21 
REMARK    3  A    between atoms: C_21  and  N_60 
REMARK    4  A    between atoms: C_22  and  C_23 
REMARK    5  A    between atoms: C_22  and  N_60 
REMARK    6  A    between atoms: C_23  and  C_24 
REMARK    7  A    between atoms: C_24  and  N_25 
ROOT
ATOM      1  C   LIG d   1       2.550  -0.029  -9.711  0.00  0.00    -0.022 C 
ATOM      2  C   LIG d   1       1.247  -0.321 -10.472  0.00  0.00    -0.047 C 
ATOM      3  C   LIG d   1       1.414  -1.609 -11.280  0.00  0.00    -0.049 C 
ATOM      4  C   LIG d   1       1.636  -2.792 -10.333  0.00  0.00    -0.032 C 
ATOM      5  C   LIG d   1       2.790  -2.467  -9.408  0.00  0.00    -0.073 C 
ATOM      6  C   LIG d   1       3.783  -3.305  -9.247  0.00  0.00    -0.099 C 
ATOM      7  C   LIG d   1       2.758  -1.145  -8.679  0.00  0.00    -0.014 C 
ATOM      8  H   LIG d   1       1.931  -1.142  -7.970  0.00  0.00     0.035 H 
ATOM      9  C   LIG d   1       4.050  -0.927  -7.940  0.00  0.00    -0.039 C 
ATOM     10  C   LIG d   1       5.263  -0.914  -8.871  0.00  0.00     0.015 C 
ATOM     11  H   LIG d   1       5.544  -1.912  -9.211  0.00  0.00     0.035 H 
ATOM     12  C   LIG d   1       5.046   0.078 -10.031  0.00  0.00     0.107 C 
ATOM     13  H   LIG d   1       5.836  -0.062 -10.769  0.00  0.00     0.074 H 
ATOM     14  C   LIG d   1       3.709  -0.079 -10.710  0.00  0.00    -0.009 C 
ATOM     15  O   LIG d   1       5.235   1.378  -9.406  0.00  0.00    -0.461 OA
ATOM     16  C   LIG d   1       6.289   1.264  -8.567  0.00  0.00     0.316 C 
ATOM     17  O   LIG d   1       7.017   2.168  -8.229  0.00  0.00    -0.250 OA
ATOM     18  C   LIG d   1       6.412  -0.179  -8.115  0.00  0.00     0.102 C 
ATOM     19  H   LIG d   1       7.381  -0.588  -8.402  0.00  0.00     0.047 H 
ATOM     20  H   LIG d   1       0.430  -0.441  -9.760  0.00  0.00     0.027 H 
ATOM     21  H   LIG d   1       1.026   0.506 -11.145  0.00  0.00     0.027 H 
ATOM     22  H   LIG d   1       0.517  -1.783 -11.874  0.00  0.00     0.027 H 
ATOM     23  H   LIG d   1       2.274  -1.511 -11.943  0.00  0.00     0.027 H 
ATOM     24  H   LIG d   1       0.733  -2.963  -9.746  0.00  0.00     0.031 H 
ATOM     25  H   LIG d   1       1.871  -3.684 -10.913  0.00  0.00     0.031 H 
ATOM     26  H   LIG d   1       3.840  -4.198  -9.852  0.00  0.00     0.053 H 
ATOM     27  H   LIG d   1       4.545  -3.104  -8.509  0.00  0.00     0.053 H 
ATOM     28  H   LIG d   1       4.173  -1.724  -7.207  0.00  0.00     0.028 H 
ATOM     29  H   LIG d   1       3.993   0.029  -7.418  0.00  0.00     0.028 H 
ATOM     30  H   LIG d   1       3.585   0.723 -11.436  0.00  0.00     0.031 H 
ATOM     31  H   LIG d   1       3.686  -1.035 -11.231  0.00  0.00     0.031 H 
ENDROOT
BRANCH  18  32
ATOM     32  C   LIG d   1       6.211  -0.286  -6.602  0.00  0.00    -0.020 C 
ATOM     33  H   LIG d   1       5.147  -0.352  -6.380  0.00  0.00     0.082 H 
ATOM     34  H   LIG d   1       6.717  -1.178  -6.230  0.00  0.00     0.082 H 
BRANCH  32  35
ATOM     35  N   LIG d   1       6.779   0.912  -5.954  0.00  0.00     0.228 N 
ATOM     36  H   LIG d   1       6.060   1.354  -5.370  0.00  0.00     0.201 HD
ATOM     37  H   LIG d   1       7.088   1.574  -6.676  0.00  0.00     0.201 HD
BRANCH  35  38
ATOM     38  C   LIG d   1       7.931   0.540  -5.110  0.00  0.00    -0.032 C 
ATOM     39  H   LIG d   1       8.536  -0.207  -5.626  0.00  0.00     0.081 H 
ATOM     40  H   LIG d   1       8.537   1.422  -4.907  0.00  0.00     0.081 H 
BRANCH  38  41
ATOM     41  C   LIG d   1       7.418  -0.041  -3.791  0.00  0.00     0.003 C 
ATOM     42  H   LIG d   1       7.095  -1.070  -3.947  0.00  0.00     0.033 H 
ATOM     43  H   LIG d   1       8.218  -0.021  -3.050  0.00  0.00     0.033 H 
BRANCH  41  44
ATOM     44  C   LIG d   1       6.238   0.794  -3.289  0.00  0.00     0.019 C 
ATOM     45  H   LIG d   1       6.485   1.227  -2.320  0.00  0.00     0.047 H 
ATOM     46  H   LIG d   1       6.031   1.592  -4.002  0.00  0.00     0.047 H 
BRANCH  44  47
ATOM     47  N   LIG d   1       5.057  -0.062  -3.156  0.00  0.00    -0.301 N 
ATOM     48  C   LIG d   1       3.790   0.370  -3.282  0.00  0.00     0.216 C 
ATOM     49  C   LIG d   1       2.827  -0.778  -3.073  0.00  0.00     0.026 C 
ATOM     50  O   LIG d   1       3.466   1.512  -3.526  0.00  0.00    -0.276 OA
ATOM     51  C   LIG d   1       3.683  -1.872  -2.394  0.00  0.00    -0.029 C 
ATOM     52  H   LIG d   1       2.008  -0.475  -2.420  0.00  0.00     0.036 H 
ATOM     53  H   LIG d   1       2.441  -1.131  -4.029  0.00  0.00     0.036 H 
ATOM     54  C   LIG d   1       5.105  -1.501  -2.874  0.00  0.00     0.015 C 
ATOM     55  H   LIG d   1       3.605  -1.812  -1.308  0.00  0.00     0.029 H 
ATOM     56  H   LIG d   1       3.400  -2.864  -2.747  0.00  0.00     0.029 H 
ATOM     57  H   LIG d   1       5.357  -2.054  -3.779  0.00  0.00     0.046 H 
ATOM     58  H   LIG d   1       5.832  -1.708  -2.090  0.00  0.00     0.046 H 
ENDBRANCH  44  47
ENDBRANCH  41  44
ENDBRANCH  38  41
ENDBRANCH  35  38
ENDBRANCH  32  35
ENDBRANCH  18  32
BRANCH   1  59
ATOM     59  C   LIG d   1       2.481   1.341  -9.034  0.00  0.00    -0.059 C 
ATOM     60  H   LIG d   1       3.139   2.038  -9.554  0.00  0.00     0.024 H 
ATOM     61  H   LIG d   1       1.457   1.713  -9.070  0.00  0.00     0.024 H 
ATOM     62  H   LIG d   1       2.799   1.249  -7.995  0.00  0.00     0.024 H 
ENDBRANCH   1  59
TORSDOF 7
ENDMDL
MODEL 8
REMARK VINA RESULT:      -6.1      2.431      6.854
REMARK  7 active torsions:
REMARK  status: ('A' for Active; 'I' for Inactive)
REMARK    1  A    between atoms: C_1  and  C_2 
REMARK    2  A    between atoms: C_19  and  C_21 
REMARK    3  A    between atoms: C_21  and  N_60 
REMARK    4  A    between atoms: C_22  and  C_23 
REMARK    5  A    between atoms: C_22  and  N_60 
REMARK    6  A    between atoms: C_23  and  C_24 
REMARK    7  A    between atoms: C_24  and  N_25 
ROOT
ATOM      1  C   LIG d   1       5.136  -1.196  -3.977  0.00  0.00    -0.022 C 
ATOM      2  C   LIG d   1       5.629  -0.216  -2.901  0.00  0.00    -0.047 C 
ATOM      3  C   LIG d   1       7.110   0.085  -3.136  0.00  0.00    -0.049 C 
ATOM      4  C   LIG d   1       7.288   0.795  -4.481  0.00  0.00    -0.032 C 
ATOM      5  C   LIG d   1       6.628  -0.035  -5.562  0.00  0.00    -0.073 C 
ATOM      6  C   LIG d   1       7.272  -0.351  -6.658  0.00  0.00    -0.099 C 
ATOM      7  C   LIG d   1       5.206  -0.486  -5.335  0.00  0.00    -0.014 C 
ATOM      8  H   LIG d   1       4.548   0.383  -5.324  0.00  0.00     0.035 H 
ATOM      9  C   LIG d   1       4.776  -1.425  -6.429  0.00  0.00    -0.039 C 
ATOM     10  C   LIG d   1       5.653  -2.675  -6.506  0.00  0.00     0.015 C 
ATOM     11  H   LIG d   1       6.626  -2.481  -6.958  0.00  0.00     0.035 H 
ATOM     12  C   LIG d   1       5.756  -3.351  -5.124  0.00  0.00     0.107 C 
ATOM     13  H   LIG d   1       6.520  -4.127  -5.166  0.00  0.00     0.074 H 
ATOM     14  C   LIG d   1       6.092  -2.391  -4.012  0.00  0.00    -0.009 C 
ATOM     15  O   LIG d   1       4.462  -3.999  -4.964  0.00  0.00    -0.461 OA
ATOM     16  C   LIG d   1       4.144  -4.544  -6.160  0.00  0.00     0.316 C 
ATOM     17  O   LIG d   1       3.425  -5.502  -6.324  0.00  0.00    -0.250 OA
ATOM     18  C   LIG d   1       4.832  -3.763  -7.264  0.00  0.00     0.102 C 
ATOM     19  H   LIG d   1       5.495  -4.412  -7.836  0.00  0.00     0.047 H 
ATOM     20  H   LIG d   1       5.055   0.708  -2.961  0.00  0.00     0.027 H 
ATOM     21  H   LIG d   1       5.499  -0.663  -1.916  0.00  0.00     0.027 H 
ATOM     22  H   LIG d   1       7.481   0.726  -2.336  0.00  0.00     0.027 H 
ATOM     23  H   LIG d   1       7.673  -0.848  -3.143  0.00  0.00     0.027 H 
ATOM     24  H   LIG d   1       6.821   1.779  -4.438  0.00  0.00     0.031 H 
ATOM     25  H   LIG d   1       8.351   0.903  -4.699  0.00  0.00     0.031 H 
ATOM     26  H   LIG d   1       8.320  -0.107  -6.759  0.00  0.00     0.053 H 
ATOM     27  H   LIG d   1       6.755  -0.855  -7.461  0.00  0.00     0.053 H 
ATOM     28  H   LIG d   1       4.824  -0.897  -7.381  0.00  0.00     0.028 H 
ATOM     29  H   LIG d   1       3.744  -1.725  -6.241  0.00  0.00     0.028 H 
ATOM     30  H   LIG d   1       6.036  -2.918  -3.060  0.00  0.00     0.031 H 
ATOM     31  H   LIG d   1       7.109  -2.026  -4.154  0.00  0.00     0.031 H 
ENDROOT
BRANCH  18  32
ATOM     32  C   LIG d   1       3.796  -3.109  -8.182  0.00  0.00    -0.020 C 
ATOM     33  H   LIG d   1       3.074  -2.558  -7.581  0.00  0.00     0.082 H 
ATOM     34  H   LIG d   1       4.299  -2.425  -8.867  0.00  0.00     0.082 H 
BRANCH  32  35
ATOM     35  N   LIG d   1       3.102  -4.159  -8.951  0.00  0.00     0.228 N 
ATOM     36  H   LIG d   1       2.433  -4.641  -8.339  0.00  0.00     0.201 HD
ATOM     37  H   LIG d   1       3.791  -4.834  -9.303  0.00  0.00     0.201 HD
BRANCH  35  38
ATOM     38  C   LIG d   1       2.378  -3.565 -10.091  0.00  0.00    -0.032 C 
ATOM     39  H   LIG d   1       2.202  -4.326 -10.851  0.00  0.00     0.081 H 
ATOM     40  H   LIG d   1       1.424  -3.163  -9.751  0.00  0.00     0.081 H 
BRANCH  38  41
ATOM     41  C   LIG d   1       3.223  -2.436 -10.687  0.00  0.00     0.003 C 
ATOM     42  H   LIG d   1       4.004  -2.154  -9.981  0.00  0.00     0.033 H 
ATOM     43  H   LIG d   1       3.680  -2.776 -11.616  0.00  0.00     0.033 H 
BRANCH  41  44
ATOM     44  C   LIG d   1       2.330  -1.226 -10.970  0.00  0.00     0.019 C 
ATOM     45  H   LIG d   1       2.275  -1.059 -12.046  0.00  0.00     0.047 H 
ATOM     46  H   LIG d   1       1.330  -1.414 -10.580  0.00  0.00     0.047 H 
BRANCH  44  47
ATOM     47  N   LIG d   1       2.894  -0.040 -10.321  0.00  0.00    -0.301 N 
ATOM     48  C   LIG d   1       2.651   0.314  -9.047  0.00  0.00     0.216 C 
ATOM     49  C   LIG d   1       3.388   1.593  -8.714  0.00  0.00     0.026 C 
ATOM     50  O   LIG d   1       1.945  -0.300  -8.278  0.00  0.00    -0.276 OA
ATOM     51  C   LIG d   1       3.774   2.178 -10.092  0.00  0.00    -0.029 C 
ATOM     52  H   LIG d   1       2.734   2.281  -8.178  0.00  0.00     0.036 H 
ATOM     53  H   LIG d   1       4.279   1.377  -8.125  0.00  0.00     0.036 H 
ATOM     54  C   LIG d   1       3.803   0.909 -10.975  0.00  0.00     0.015 C 
ATOM     55  H   LIG d   1       3.021   2.885 -10.442  0.00  0.00     0.029 H 
ATOM     56  H   LIG d   1       4.757   2.647 -10.055  0.00  0.00     0.029 H 
ATOM     57  H   LIG d   1       4.811   0.497 -11.016  0.00  0.00     0.046 H 
ATOM     58  H   LIG d   1       3.448   1.141 -11.978  0.00  0.00     0.046 H 
ENDBRANCH  44  47
ENDBRANCH  41  44
ENDBRANCH  38  41
ENDBRANCH  35  38
ENDBRANCH  32  35
ENDBRANCH  18  32
BRANCH   1  59
ATOM     59  C   LIG d   1       3.709  -1.658  -3.670  0.00  0.00    -0.059 C 
ATOM     60  H   LIG d   1       3.742  -2.569  -3.071  0.00  0.00     0.024 H 
ATOM     61  H   LIG d   1       3.187  -0.878  -3.116  0.00  0.00     0.024 H 
ATOM     62  H   LIG d   1       3.184  -1.857  -4.604  0.00  0.00     0.024 H 
ENDBRANCH   1  59
TORSDOF 7
ENDMDL
MODEL 9
REMARK VINA RESULT:      -6.0      1.910      3.635
REMARK  7 active torsions:
REMARK  status: ('A' for Active; 'I' for Inactive)
REMARK    1  A    between atoms: C_1  and  C_2 
REMARK    2  A    between atoms: C_19  and  C_21 
REMARK    3  A    between atoms: C_21  and  N_60 
REMARK    4  A    between atoms: C_22  and  C_23 
REMARK    5  A    between atoms: C_22  and  N_60 
REMARK    6  A    between atoms: C_23  and  C_24 
REMARK    7  A    between atoms: C_24  and  N_25 
ROOT
ATOM      1  C   LIG d   1       2.360  -2.194 -10.746  0.00  0.00    -0.022 C 
ATOM      2  C   LIG d   1       1.635  -3.025 -11.816  0.00  0.00    -0.047 C 
ATOM      3  C   LIG d   1       1.422  -2.165 -13.063  0.00  0.00    -0.049 C 
ATOM      4  C   LIG d   1       2.776  -1.776 -13.662  0.00  0.00    -0.032 C 
ATOM      5  C   LIG d   1       3.621  -1.134 -12.583  0.00  0.00    -0.073 C 
ATOM      6  C   LIG d   1       4.210   0.020 -12.782  0.00  0.00    -0.099 C 
ATOM      7  C   LIG d   1       3.764  -1.865 -11.270  0.00  0.00    -0.014 C 
ATOM      8  H   LIG d   1       4.317  -2.791 -11.430  0.00  0.00     0.035 H 
ATOM      9  C   LIG d   1       4.498  -1.010 -10.274  0.00  0.00    -0.039 C 
ATOM     10  C   LIG d   1       3.778   0.311  -9.993  0.00  0.00     0.015 C 
ATOM     11  H   LIG d   1       3.892   1.032 -10.803  0.00  0.00     0.035 H 
ATOM     12  C   LIG d   1       2.306   0.056  -9.616  0.00  0.00     0.107 C 
ATOM     13  H   LIG d   1       1.776   1.009  -9.596  0.00  0.00     0.074 H 
ATOM     14  C   LIG d   1       1.598  -0.879 -10.563  0.00  0.00    -0.009 C 
ATOM     15  O   LIG d   1       2.386  -0.445  -8.252  0.00  0.00    -0.461 OA
ATOM     16  C   LIG d   1       3.315   0.300  -7.611  0.00  0.00     0.316 C 
ATOM     17  O   LIG d   1       3.350   0.506  -6.420  0.00  0.00    -0.250 OA
ATOM     18  C   LIG d   1       4.308   0.838  -8.625  0.00  0.00     0.102 C 
ATOM     19  H   LIG d   1       4.316   1.927  -8.612  0.00  0.00     0.047 H 
ATOM     20  H   LIG d   1       2.239  -3.895 -12.072  0.00  0.00     0.027 H 
ATOM     21  H   LIG d   1       0.670  -3.352 -11.429  0.00  0.00     0.027 H 
ATOM     22  H   LIG d   1       0.847  -2.728 -13.798  0.00  0.00     0.027 H 
ATOM     23  H   LIG d   1       0.875  -1.262 -12.790  0.00  0.00     0.027 H 
ATOM     24  H   LIG d   1       3.277  -2.668 -14.039  0.00  0.00     0.031 H 
ATOM     25  H   LIG d   1       2.624  -1.069 -14.478  0.00  0.00     0.031 H 
ATOM     26  H   LIG d   1       4.015   0.576 -13.687  0.00  0.00     0.053 H 
ATOM     27  H   LIG d   1       4.890   0.414 -12.042  0.00  0.00     0.053 H 
ATOM     28  H   LIG d   1       5.493  -0.798 -10.662  0.00  0.00     0.028 H 
ATOM     29  H   LIG d   1       4.591  -1.568  -9.342  0.00  0.00     0.028 H 
ATOM     30  H   LIG d   1       0.606  -1.096 -10.170  0.00  0.00     0.031 H 
ATOM     31  H   LIG d   1       1.495  -0.391 -11.532  0.00  0.00     0.031 H 
ENDROOT
BRANCH  18  32
ATOM     32  C   LIG d   1       5.709   0.288  -8.345  0.00  0.00    -0.020 C 
ATOM     33  H   LIG d   1       5.655  -0.793  -8.212  0.00  0.00     0.082 H 
ATOM     34  H   LIG d   1       6.365   0.519  -9.185  0.00  0.00     0.082 H 
BRANCH  32  35
ATOM     35  N   LIG d   1       6.237   0.912  -7.117  0.00  0.00     0.228 N 
ATOM     36  H   LIG d   1       5.478   1.008  -6.433  0.00  0.00     0.201 HD
ATOM     37  H   LIG d   1       6.612   1.841  -7.343  0.00  0.00     0.201 HD
BRANCH  35  38
ATOM     38  C   LIG d   1       7.311   0.081  -6.541  0.00  0.00    -0.032 C 
ATOM     39  H   LIG d   1       7.910  -0.350  -7.343  0.00  0.00     0.081 H 
ATOM     40  H   LIG d   1       7.946   0.694  -5.901  0.00  0.00     0.081 H 
BRANCH  38  41
ATOM     41  C   LIG d   1       6.685  -1.043  -5.712  0.00  0.00     0.003 C 
ATOM     42  H   LIG d   1       5.599  -0.954  -5.741  0.00  0.00     0.033 H 
ATOM     43  H   LIG d   1       6.982  -2.007  -6.125  0.00  0.00     0.033 H 
BRANCH  41  44
ATOM     44  C   LIG d   1       7.167  -0.937  -4.263  0.00  0.00     0.019 C 
ATOM     45  H   LIG d   1       7.547  -1.906  -3.936  0.00  0.00     0.047 H 
ATOM     46  H   LIG d   1       7.962  -0.195  -4.199  0.00  0.00     0.047 H 
BRANCH  44  47
ATOM     47  N   LIG d   1       6.051  -0.534  -3.405  0.00  0.00    -0.301 N 
ATOM     48  C   LIG d   1       5.814   0.729  -3.012  0.00  0.00     0.216 C 
ATOM     49  C   LIG d   1       4.587   0.777  -2.128  0.00  0.00     0.026 C 
ATOM     50  O   LIG d   1       6.486   1.690  -3.320  0.00  0.00    -0.276 OA
ATOM     51  C   LIG d   1       4.364  -0.695  -1.709  0.00  0.00    -0.029 C 
ATOM     52  H   LIG d   1       4.772   1.398  -1.252  0.00  0.00     0.036 H 
ATOM     53  H   LIG d   1       3.729   1.151  -2.686  0.00  0.00     0.036 H 
ATOM     54  C   LIG d   1       5.043  -1.458  -2.870  0.00  0.00     0.015 C 
ATOM     55  H   LIG d   1       4.852  -0.909  -0.758  0.00  0.00     0.029 H 
ATOM     56  H   LIG d   1       3.300  -0.929  -1.660  0.00  0.00     0.029 H 
ATOM     57  H   LIG d   1       4.313  -1.706  -3.640  0.00  0.00     0.046 H 
ATOM     58  H   LIG d   1       5.520  -2.363  -2.497  0.00  0.00     0.046 H 
ENDBRANCH  44  47
ENDBRANCH  41  44
ENDBRANCH  38  41
ENDBRANCH  35  38
ENDBRANCH  32  35
ENDBRANCH  18  32
BRANCH   1  59
ATOM     59  C   LIG d   1       2.431  -2.963  -9.425  0.00  0.00    -0.059 C 
ATOM     60  H   LIG d   1       2.411  -2.259  -8.593  0.00  0.00     0.024 H 
ATOM     61  H   LIG d   1       1.578  -3.638  -9.351  0.00  0.00     0.024 H 
ATOM     62  H   LIG d   1       3.356  -3.539  -9.390  0.00  0.00     0.024 H 
ENDBRANCH   1  59
TORSDOF 7
ENDMDL
