MODEL 1
REMARK VINA RESULT:      -8.0      0.000      0.000
REMARK  7 active torsions:
REMARK  status: ('A' for Active; 'I' for Inactive)
REMARK    1  A    between atoms: C_1  and  C_2 
REMARK    2  A    between atoms: C_2  and  O_3 
REMARK    3  A    between atoms: O_3  and  C_4 
REMARK    4  A    between atoms: C_9  and  C_10 
REMARK    5  A    between atoms: C_14  and  C_16 
REMARK       I    between atoms: C_16  and  N_18 
REMARK    6  A    between atoms: N_18  and  C_19 
REMARK    7  A    between atoms: C_19  and  C_20 
ROOT
ATOM      1  C   LIG d   1       4.322  -1.332  -5.512  0.00  0.00     0.099 A 
ATOM      2  C   LIG d   1       4.209  -0.677  -6.751  0.00  0.00     0.074 A 
ATOM      3  C   LIG d   1       4.176  -1.453  -7.920  0.00  0.00     0.012 A 
ATOM      4  C   LIG d   1       4.255  -2.840  -7.811  0.00  0.00    -0.021 A 
ATOM      5  C   LIG d   1       4.366  -3.410  -6.546  0.00  0.00     0.127 A 
ATOM      6  N   LIG d   1       4.390  -2.650  -5.455  0.00  0.00    -0.240 NA
ATOM      7  C   LIG d   1       4.055  -0.513  -9.045  0.00  0.00     0.007 A 
ATOM      8  C   LIG d   1       3.975  -0.669 -10.427  0.00  0.00    -0.052 A 
ATOM      9  C   LIG d   1       3.866   0.439 -11.237  0.00  0.00    -0.061 A 
ATOM     10  C   LIG d   1       3.833   1.709 -10.683  0.00  0.00    -0.060 A 
ATOM     11  C   LIG d   1       3.911   1.880  -9.317  0.00  0.00    -0.038 A 
ATOM     12  C   LIG d   1       4.023   0.773  -8.482  0.00  0.00     0.048 A 
ATOM     13  N   LIG d   1       4.116   0.649  -7.108  0.00  0.00    -0.352 N 
ATOM     14  H   LIG d   1       4.117   1.391  -6.483  0.00  0.00     0.166 HD
ATOM     15  H   LIG d   1       4.232  -3.463  -8.693  0.00  0.00     0.065 H 
ATOM     16  H   LIG d   1       4.000  -1.658 -10.862  0.00  0.00     0.062 H 
ATOM     17  H   LIG d   1       3.804   0.318 -12.309  0.00  0.00     0.062 H 
ATOM     18  H   LIG d   1       3.748   2.572 -11.325  0.00  0.00     0.062 H 
ATOM     19  H   LIG d   1       3.885   2.874  -8.896  0.00  0.00     0.064 H 
ENDROOT
BRANCH   1  20
ATOM     20  C   LIG d   1       4.359  -0.539  -4.261  0.00  0.00     0.044 A 
ATOM     21  C   LIG d   1       5.578  -0.290  -3.622  0.00  0.00     0.130 A 
ATOM     22  C   LIG d   1       5.603   0.456  -2.455  0.00  0.00    -0.019 A 
ATOM     23  C   LIG d   1       4.426   0.945  -1.919  0.00  0.00    -0.058 A 
ATOM     24  H   LIG d   1       6.543   0.653  -1.960  0.00  0.00     0.065 H 
ATOM     25  C   LIG d   1       3.217   0.696  -2.546  0.00  0.00    -0.061 A 
ATOM     26  H   LIG d   1       4.449   1.522  -1.007  0.00  0.00     0.062 H 
ATOM     27  C   LIG d   1       3.178  -0.042  -3.711  0.00  0.00    -0.049 A 
ATOM     28  H   LIG d   1       2.302   1.080  -2.121  0.00  0.00     0.062 H 
ATOM     29  H   LIG d   1       2.233  -0.233  -4.197  0.00  0.00     0.062 H 
BRANCH  21  30
ATOM     30  O   LIG d   1       6.733  -0.775  -4.145  0.00  0.00    -0.492 OA
BRANCH  30  31
ATOM     31  C   LIG d   1       7.344  -1.873  -3.465  0.00  0.00     0.087 C 
ATOM     32  H   LIG d   1       8.205  -1.516  -2.900  0.00  0.00     0.069 H 
ATOM     33  H   LIG d   1       6.622  -2.323  -2.782  0.00  0.00     0.069 H 
BRANCH  31  34
ATOM     34  C   LIG d   1       7.798  -2.917  -4.486  0.00  0.00    -0.031 C 
ATOM     35  H   LIG d   1       7.303  -3.867  -4.280  0.00  0.00     0.026 H 
ATOM     36  H   LIG d   1       7.536  -2.581  -5.490  0.00  0.00     0.026 H 
ATOM     37  H   LIG d   1       8.878  -3.047  -4.416  0.00  0.00     0.026 H 
ENDBRANCH  31  34
ENDBRANCH  30  31
ENDBRANCH  21  30
ENDBRANCH   1  20
BRANCH   5  38
ATOM     38  C   LIG d   1       4.451  -4.880  -6.412  0.00  0.00     0.263 C 
ATOM     39  O   LIG d   1       3.545  -5.495  -5.885  0.00  0.00    -0.269 OA
ATOM     40  N   LIG d   1       5.532  -5.538  -6.874  0.00  0.00    -0.306 N 
ATOM     41  H   LIG d   1       6.256  -5.047  -7.294  0.00  0.00     0.149 HD
BRANCH  40  42
ATOM     42  C   LIG d   1       5.616  -6.994  -6.741  0.00  0.00     0.037 C 
ATOM     43  H   LIG d   1       5.947  -7.427  -7.686  0.00  0.00     0.051 H 
ATOM     44  H   LIG d   1       4.634  -7.392  -6.482  0.00  0.00     0.051 H 
BRANCH  42  45
ATOM     45  C   LIG d   1       6.602  -7.344  -5.656  0.00  0.00    -0.030 A 
ATOM     46  C   LIG d   1       7.689  -6.523  -5.420  0.00  0.00    -0.054 A 
ATOM     47  C   LIG d   1       8.593  -6.843  -4.425  0.00  0.00    -0.026 A 
ATOM     48  H   LIG d   1       7.830  -5.632  -6.012  0.00  0.00     0.062 H 
ATOM     49  C   LIG d   1       8.411  -7.987  -3.665  0.00  0.00     0.123 A 
ATOM     50  H   LIG d   1       9.442  -6.201  -4.240  0.00  0.00     0.065 H 
ATOM     51  C   LIG d   1       7.323  -8.809  -3.904  0.00  0.00    -0.026 A 
ATOM     52  F   LIG d   1       9.295  -8.300  -2.693  0.00  0.00    -0.205 F 
ATOM     53  C   LIG d   1       6.419  -8.486  -4.899  0.00  0.00    -0.054 A 
ATOM     54  H   LIG d   1       7.179  -9.700  -3.313  0.00  0.00     0.065 H 
ATOM     55  H   LIG d   1       5.573  -9.130  -5.088  0.00  0.00     0.062 H 
ENDBRANCH  42  45
ENDBRANCH  40  42
ENDBRANCH   5  38
TORSDOF 7
ENDMDL
MODEL 2
REMARK VINA RESULT:      -7.7      1.779      4.779
REMARK  7 active torsions:
REMARK  status: ('A' for Active; 'I' for Inactive)
REMARK    1  A    between atoms: C_1  and  C_2 
REMARK    2  A    between atoms: C_2  and  O_3 
REMARK    3  A    between atoms: O_3  and  C_4 
REMARK    4  A    between atoms: C_9  and  C_10 
REMARK    5  A    between atoms: C_14  and  C_16 
REMARK       I    between atoms: C_16  and  N_18 
REMARK    6  A    between atoms: N_18  and  C_19 
REMARK    7  A    between atoms: C_19  and  C_20 
ROOT
ATOM      1  C   LIG d   1       4.316  -1.539  -7.378  0.00  0.00     0.099 A 
ATOM      2  C   LIG d   1       4.341  -1.088  -6.046  0.00  0.00     0.074 A 
ATOM      3  C   LIG d   1       4.528  -2.029  -5.021  0.00  0.00     0.012 A 
ATOM      4  C   LIG d   1       4.683  -3.372  -5.360  0.00  0.00    -0.021 A 
ATOM      5  C   LIG d   1       4.645  -3.736  -6.702  0.00  0.00     0.127 A 
ATOM      6  N   LIG d   1       4.471  -2.823  -7.653  0.00  0.00    -0.240 NA
ATOM      7  C   LIG d   1       4.511  -1.280  -3.755  0.00  0.00     0.007 A 
ATOM      8  C   LIG d   1       4.644  -1.646  -2.417  0.00  0.00    -0.052 A 
ATOM      9  C   LIG d   1       4.580  -0.684  -1.434  0.00  0.00    -0.061 A 
ATOM     10  C   LIG d   1       4.386   0.647  -1.770  0.00  0.00    -0.060 A 
ATOM     11  C   LIG d   1       4.253   1.025  -3.089  0.00  0.00    -0.038 A 
ATOM     12  C   LIG d   1       4.314   0.067  -4.098  0.00  0.00     0.048 A 
ATOM     13  N   LIG d   1       4.215   0.157  -5.474  0.00  0.00    -0.352 N 
ATOM     14  H   LIG d   1       4.076   0.980  -5.967  0.00  0.00     0.166 HD
ATOM     15  H   LIG d   1       4.828  -4.119  -4.592  0.00  0.00     0.065 H 
ATOM     16  H   LIG d   1       4.795  -2.683  -2.152  0.00  0.00     0.062 H 
ATOM     17  H   LIG d   1       4.683  -0.968  -0.397  0.00  0.00     0.062 H 
ATOM     18  H   LIG d   1       4.337   1.394  -0.993  0.00  0.00     0.062 H 
ATOM     19  H   LIG d   1       4.102   2.063  -3.340  0.00  0.00     0.064 H 
ENDROOT
BRANCH   1  20
ATOM     20  C   LIG d   1       4.120  -0.569  -8.480  0.00  0.00     0.044 A 
ATOM     21  C   LIG d   1       5.215   0.119  -9.014  0.00  0.00     0.130 A 
ATOM     22  C   LIG d   1       5.022   1.021 -10.048  0.00  0.00    -0.019 A 
ATOM     23  C   LIG d   1       3.751   1.246 -10.543  0.00  0.00    -0.058 A 
ATOM     24  H   LIG d   1       5.865   1.552 -10.465  0.00  0.00     0.065 H 
ATOM     25  C   LIG d   1       2.665   0.571 -10.014  0.00  0.00    -0.061 A 
ATOM     26  H   LIG d   1       3.605   1.953 -11.346  0.00  0.00     0.062 H 
ATOM     27  C   LIG d   1       2.843  -0.334  -8.987  0.00  0.00    -0.049 A 
ATOM     28  H   LIG d   1       1.676   0.752 -10.406  0.00  0.00     0.062 H 
ATOM     29  H   LIG d   1       1.993  -0.859  -8.577  0.00  0.00     0.062 H 
BRANCH  21  30
ATOM     30  O   LIG d   1       6.461  -0.098  -8.523  0.00  0.00    -0.492 OA
BRANCH  30  31
ATOM     31  C   LIG d   1       7.071   0.973  -7.800  0.00  0.00     0.087 C 
ATOM     32  H   LIG d   1       7.865   1.413  -8.405  0.00  0.00     0.069 H 
ATOM     33  H   LIG d   1       6.321   1.733  -7.577  0.00  0.00     0.069 H 
BRANCH  31  34
ATOM     34  C   LIG d   1       7.660   0.438  -6.494  0.00  0.00    -0.031 C 
ATOM     35  H   LIG d   1       8.494  -0.228  -6.717  0.00  0.00     0.026 H 
ATOM     36  H   LIG d   1       8.014   1.273  -5.887  0.00  0.00     0.026 H 
ATOM     37  H   LIG d   1       6.894  -0.110  -5.947  0.00  0.00     0.026 H 
ENDBRANCH  31  34
ENDBRANCH  30  31
ENDBRANCH  21  30
ENDBRANCH   1  20
BRANCH   5  38
ATOM     38  C   LIG d   1       4.807  -5.157  -7.078  0.00  0.00     0.263 C 
ATOM     39  O   LIG d   1       5.198  -5.450  -8.192  0.00  0.00    -0.269 OA
ATOM     40  N   LIG d   1       4.521  -6.128  -6.188  0.00  0.00    -0.306 N 
ATOM     41  H   LIG d   1       4.209  -5.894  -5.300  0.00  0.00     0.149 HD
BRANCH  40  42
ATOM     42  C   LIG d   1       4.682  -7.535  -6.562  0.00  0.00     0.037 C 
ATOM     43  H   LIG d   1       5.290  -7.605  -7.464  0.00  0.00     0.051 H 
ATOM     44  H   LIG d   1       3.702  -7.975  -6.749  0.00  0.00     0.051 H 
BRANCH  42  45
ATOM     45  C   LIG d   1       5.361  -8.278  -5.439  0.00  0.00    -0.030 A 
ATOM     46  C   LIG d   1       4.665  -9.234  -4.725  0.00  0.00    -0.054 A 
ATOM     47  C   LIG d   1       5.287  -9.916  -3.696  0.00  0.00    -0.026 A 
ATOM     48  H   LIG d   1       3.636  -9.448  -4.971  0.00  0.00     0.062 H 
ATOM     49  C   LIG d   1       6.607  -9.641  -3.381  0.00  0.00     0.123 A 
ATOM     50  H   LIG d   1       4.743 -10.664  -3.137  0.00  0.00     0.065 H 
ATOM     51  C   LIG d   1       7.302  -8.682  -4.097  0.00  0.00    -0.026 A 
ATOM     52  F   LIG d   1       7.215 -10.307  -2.375  0.00  0.00    -0.205 F 
ATOM     53  C   LIG d   1       6.679  -8.002  -5.126  0.00  0.00    -0.054 A 
ATOM     54  H   LIG d   1       8.331  -8.467  -3.854  0.00  0.00     0.065 H 
ATOM     55  H   LIG d   1       7.220  -7.250  -5.682  0.00  0.00     0.062 H 
ENDBRANCH  42  45
ENDBRANCH  40  42
ENDBRANCH   5  38
TORSDOF 7
ENDMDL
MODEL 3
REMARK VINA RESULT:      -7.7      3.589      5.134
REMARK  7 active torsions:
REMARK  status: ('A' for Active; 'I' for Inactive)
REMARK    1  A    between atoms: C_1  and  C_2 
REMARK    2  A    between atoms: C_2  and  O_3 
REMARK    3  A    between atoms: O_3  and  C_4 
REMARK    4  A    between atoms: C_9  and  C_10 
REMARK    5  A    between atoms: C_14  and  C_16 
REMARK       I    between atoms: C_16  and  N_18 
REMARK    6  A    between atoms: N_18  and  C_19 
REMARK    7  A    between atoms: C_19  and  C_20 
ROOT
ATOM      1  C   LIG d   1       7.368  -3.101  -4.764  0.00  0.00     0.099 A 
ATOM      2  C   LIG d   1       6.600  -2.073  -4.191  0.00  0.00     0.074 A 
ATOM      3  C   LIG d   1       5.222  -2.280  -4.017  0.00  0.00     0.012 A 
ATOM      4  C   LIG d   1       4.668  -3.495  -4.417  0.00  0.00    -0.021 A 
ATOM      5  C   LIG d   1       5.498  -4.461  -4.977  0.00  0.00     0.127 A 
ATOM      6  N   LIG d   1       6.801  -4.239  -5.125  0.00  0.00    -0.240 NA
ATOM      7  C   LIG d   1       4.687  -1.054  -3.405  0.00  0.00     0.007 A 
ATOM      8  C   LIG d   1       3.414  -0.657  -3.000  0.00  0.00    -0.052 A 
ATOM      9  C   LIG d   1       3.231   0.591  -2.446  0.00  0.00    -0.061 A 
ATOM     10  C   LIG d   1       4.306   1.452  -2.290  0.00  0.00    -0.060 A 
ATOM     11  C   LIG d   1       5.570   1.073  -2.687  0.00  0.00    -0.038 A 
ATOM     12  C   LIG d   1       5.777  -0.183  -3.249  0.00  0.00     0.048 A 
ATOM     13  N   LIG d   1       6.910  -0.815  -3.726  0.00  0.00    -0.352 N 
ATOM     14  H   LIG d   1       7.799  -0.428  -3.733  0.00  0.00     0.166 HD
ATOM     15  H   LIG d   1       3.611  -3.683  -4.296  0.00  0.00     0.065 H 
ATOM     16  H   LIG d   1       2.574  -1.325  -3.119  0.00  0.00     0.062 H 
ATOM     17  H   LIG d   1       2.244   0.900  -2.131  0.00  0.00     0.062 H 
ATOM     18  H   LIG d   1       4.152   2.428  -1.856  0.00  0.00     0.062 H 
ATOM     19  H   LIG d   1       6.401   1.750  -2.561  0.00  0.00     0.064 H 
ENDROOT
BRANCH   1  20
ATOM     20  C   LIG d   1       8.824  -2.911  -4.959  0.00  0.00     0.044 A 
ATOM     21  C   LIG d   1       9.731  -3.393  -4.009  0.00  0.00     0.130 A 
ATOM     22  C   LIG d   1      11.091  -3.214  -4.202  0.00  0.00    -0.019 A 
ATOM     23  C   LIG d   1      11.549  -2.552  -5.326  0.00  0.00    -0.058 A 
ATOM     24  H   LIG d   1      11.794  -3.588  -3.473  0.00  0.00     0.065 H 
ATOM     25  C   LIG d   1      10.655  -2.069  -6.266  0.00  0.00    -0.061 A 
ATOM     26  H   LIG d   1      12.610  -2.411  -5.471  0.00  0.00     0.062 H 
ATOM     27  C   LIG d   1       9.298  -2.244  -6.088  0.00  0.00    -0.049 A 
ATOM     28  H   LIG d   1      11.021  -1.552  -7.140  0.00  0.00     0.062 H 
ATOM     29  H   LIG d   1       8.604  -1.866  -6.823  0.00  0.00     0.062 H 
BRANCH  21  30
ATOM     30  O   LIG d   1       9.279  -4.038  -2.903  0.00  0.00    -0.492 OA
BRANCH  30  31
ATOM     31  C   LIG d   1       9.871  -5.303  -2.601  0.00  0.00     0.087 C 
ATOM     32  H   LIG d   1      10.943  -5.257  -2.794  0.00  0.00     0.069 H 
ATOM     33  H   LIG d   1       9.701  -5.542  -1.550  0.00  0.00     0.069 H 
BRANCH  31  34
ATOM     34  C   LIG d   1       9.240  -6.385  -3.478  0.00  0.00    -0.031 C 
ATOM     35  H   LIG d   1       9.190  -6.034  -4.509  0.00  0.00     0.026 H 
ATOM     36  H   LIG d   1       9.847  -7.290  -3.432  0.00  0.00     0.026 H 
ATOM     37  H   LIG d   1       8.234  -6.603  -3.120  0.00  0.00     0.026 H 
ENDBRANCH  31  34
ENDBRANCH  30  31
ENDBRANCH  21  30
ENDBRANCH   1  20
BRANCH   5  38
ATOM     38  C   LIG d   1       4.927  -5.755  -5.407  0.00  0.00     0.263 C 
ATOM     39  O   LIG d   1       3.775  -5.812  -5.792  0.00  0.00    -0.269 OA
ATOM     40  N   LIG d   1       5.681  -6.871  -5.371  0.00  0.00    -0.306 N 
ATOM     41  H   LIG d   1       6.599  -6.825  -5.063  0.00  0.00     0.149 HD
BRANCH  40  42
ATOM     42  C   LIG d   1       5.114  -8.152  -5.798  0.00  0.00     0.037 C 
ATOM     43  H   LIG d   1       5.653  -8.515  -6.673  0.00  0.00     0.051 H 
ATOM     44  H   LIG d   1       4.061  -8.019  -6.049  0.00  0.00     0.051 H 
BRANCH  42  45
ATOM     45  C   LIG d   1       5.241  -9.155  -4.679  0.00  0.00    -0.030 A 
ATOM     46  C   LIG d   1       6.473  -9.392  -4.101  0.00  0.00    -0.054 A 
ATOM     47  C   LIG d   1       6.590 -10.311  -3.075  0.00  0.00    -0.026 A 
ATOM     48  H   LIG d   1       7.345  -8.860  -4.451  0.00  0.00     0.062 H 
ATOM     49  C   LIG d   1       5.472 -10.994  -2.627  0.00  0.00     0.123 A 
ATOM     50  H   LIG d   1       7.553 -10.496  -2.623  0.00  0.00     0.065 H 
ATOM     51  C   LIG d   1       4.238 -10.756  -3.208  0.00  0.00    -0.026 A 
ATOM     52  F   LIG d   1       5.585 -11.893  -1.624  0.00  0.00    -0.205 F 
ATOM     53  C   LIG d   1       4.123  -9.836  -4.233  0.00  0.00    -0.054 A 
ATOM     54  H   LIG d   1       3.365 -11.287  -2.859  0.00  0.00     0.065 H 
ATOM     55  H   LIG d   1       3.161  -9.653  -4.689  0.00  0.00     0.062 H 
ENDBRANCH  42  45
ENDBRANCH  40  42
ENDBRANCH   5  38
TORSDOF 7
ENDMDL
MODEL 4
REMARK VINA RESULT:      -7.6      4.427      7.198
REMARK  7 active torsions:
REMARK  status: ('A' for Active; 'I' for Inactive)
REMARK    1  A    between atoms: C_1  and  C_2 
REMARK    2  A    between atoms: C_2  and  O_3 
REMARK    3  A    between atoms: O_3  and  C_4 
REMARK    4  A    between atoms: C_9  and  C_10 
REMARK    5  A    between atoms: C_14  and  C_16 
REMARK       I    between atoms: C_16  and  N_18 
REMARK    6  A    between atoms: N_18  and  C_19 
REMARK    7  A    between atoms: C_19  and  C_20 
ROOT
ATOM      1  C   LIG d   1       5.115  -0.303  -5.967  0.00  0.00     0.099 A 
ATOM      2  C   LIG d   1       4.395  -0.431  -7.168  0.00  0.00     0.074 A 
ATOM      3  C   LIG d   1       4.955   0.093  -8.345  0.00  0.00     0.012 A 
ATOM      4  C   LIG d   1       6.198   0.718  -8.280  0.00  0.00    -0.021 A 
ATOM      5  C   LIG d   1       6.845   0.803  -7.051  0.00  0.00     0.127 A 
ATOM      6  N   LIG d   1       6.294   0.293  -5.953  0.00  0.00    -0.240 NA
ATOM      7  C   LIG d   1       3.994  -0.183  -9.425  0.00  0.00     0.007 A 
ATOM      8  C   LIG d   1       3.979   0.085 -10.792  0.00  0.00    -0.052 A 
ATOM      9  C   LIG d   1       2.905  -0.313 -11.556  0.00  0.00    -0.061 A 
ATOM     10  C   LIG d   1       1.839  -0.978 -10.971  0.00  0.00    -0.060 A 
ATOM     11  C   LIG d   1       1.838  -1.249  -9.619  0.00  0.00    -0.038 A 
ATOM     12  C   LIG d   1       2.915  -0.856  -8.830  0.00  0.00     0.048 A 
ATOM     13  N   LIG d   1       3.178  -0.992  -7.479  0.00  0.00    -0.352 N 
ATOM     14  H   LIG d   1       2.589  -1.423  -6.841  0.00  0.00     0.166 HD
ATOM     15  H   LIG d   1       6.653   1.130  -9.169  0.00  0.00     0.065 H 
ATOM     16  H   LIG d   1       4.809   0.603 -11.251  0.00  0.00     0.062 H 
ATOM     17  H   LIG d   1       2.893  -0.106 -12.617  0.00  0.00     0.062 H 
ATOM     18  H   LIG d   1       1.000  -1.285 -11.577  0.00  0.00     0.062 H 
ATOM     19  H   LIG d   1       1.004  -1.768  -9.173  0.00  0.00     0.064 H 
ENDROOT
BRANCH   1  20
ATOM     20  C   LIG d   1       4.550  -0.846  -4.710  0.00  0.00     0.044 A 
ATOM     21  C   LIG d   1       4.842  -2.156  -4.315  0.00  0.00     0.130 A 
ATOM     22  C   LIG d   1       4.312  -2.654  -3.136  0.00  0.00    -0.019 A 
ATOM     23  C   LIG d   1       3.491  -1.861  -2.356  0.00  0.00    -0.058 A 
ATOM     24  H   LIG d   1       4.538  -3.664  -2.827  0.00  0.00     0.065 H 
ATOM     25  C   LIG d   1       3.196  -0.566  -2.745  0.00  0.00    -0.061 A 
ATOM     26  H   LIG d   1       3.078  -2.253  -1.440  0.00  0.00     0.062 H 
ATOM     27  C   LIG d   1       3.720  -0.056  -3.916  0.00  0.00    -0.049 A 
ATOM     28  H   LIG d   1       2.554   0.047  -2.132  0.00  0.00     0.062 H 
ATOM     29  H   LIG d   1       3.488   0.955  -4.216  0.00  0.00     0.062 H 
BRANCH  21  30
ATOM     30  O   LIG d   1       5.644  -2.936  -5.085  0.00  0.00    -0.492 OA
BRANCH  30  31
ATOM     31  C   LIG d   1       5.205  -4.274  -5.333  0.00  0.00     0.087 C 
ATOM     32  H   LIG d   1       6.072  -4.921  -5.468  0.00  0.00     0.069 H 
ATOM     33  H   LIG d   1       4.616  -4.625  -4.485  0.00  0.00     0.069 H 
BRANCH  31  34
ATOM     34  C   LIG d   1       4.345  -4.302  -6.598  0.00  0.00    -0.031 C 
ATOM     35  H   LIG d   1       3.318  -4.558  -6.334  0.00  0.00     0.026 H 
ATOM     36  H   LIG d   1       4.364  -3.319  -7.072  0.00  0.00     0.026 H 
ATOM     37  H   LIG d   1       4.739  -5.046  -7.289  0.00  0.00     0.026 H 
ENDBRANCH  31  34
ENDBRANCH  30  31
ENDBRANCH  21  30
ENDBRANCH   1  20
BRANCH   5  38
ATOM     38  C   LIG d   1       8.165   1.462  -6.964  0.00  0.00     0.263 C 
ATOM     39  O   LIG d   1       8.816   1.654  -7.974  0.00  0.00    -0.269 OA
ATOM     40  N   LIG d   1       8.649   1.850  -5.768  0.00  0.00    -0.306 N 
ATOM     41  H   LIG d   1       8.130   1.696  -4.963  0.00  0.00     0.149 HD
BRANCH  40  42
ATOM     42  C   LIG d   1       9.957   2.503  -5.683  0.00  0.00     0.037 C 
ATOM     43  H   LIG d   1      10.283   2.797  -6.681  0.00  0.00     0.051 H 
ATOM     44  H   LIG d   1      10.682   1.811  -5.253  0.00  0.00     0.051 H 
BRANCH  42  45
ATOM     45  C   LIG d   1       9.852   3.727  -4.809  0.00  0.00    -0.030 A 
ATOM     46  C   LIG d   1      10.061   3.621  -3.446  0.00  0.00    -0.054 A 
ATOM     47  C   LIG d   1       9.965   4.743  -2.644  0.00  0.00    -0.026 A 
ATOM     48  H   LIG d   1      10.300   2.664  -3.010  0.00  0.00     0.062 H 
ATOM     49  C   LIG d   1       9.659   5.971  -3.205  0.00  0.00     0.123 A 
ATOM     50  H   LIG d   1      10.129   4.661  -1.580  0.00  0.00     0.065 H 
ATOM     51  C   LIG d   1       9.448   6.075  -4.569  0.00  0.00    -0.026 A 
ATOM     52  F   LIG d   1       9.565   7.068  -2.421  0.00  0.00    -0.205 F 
ATOM     53  C   LIG d   1       9.546   4.952  -5.370  0.00  0.00    -0.054 A 
ATOM     54  H   LIG d   1       9.210   7.032  -5.008  0.00  0.00     0.065 H 
ATOM     55  H   LIG d   1       9.377   5.032  -6.434  0.00  0.00     0.062 H 
ENDBRANCH  42  45
ENDBRANCH  40  42
ENDBRANCH   5  38
TORSDOF 7
ENDMDL
MODEL 5
REMARK VINA RESULT:      -7.6      1.884      5.229
REMARK  7 active torsions:
REMARK  status: ('A' for Active; 'I' for Inactive)
REMARK    1  A    between atoms: C_1  and  C_2 
REMARK    2  A    between atoms: C_2  and  O_3 
REMARK    3  A    between atoms: O_3  and  C_4 
REMARK    4  A    between atoms: C_9  and  C_10 
REMARK    5  A    between atoms: C_14  and  C_16 
REMARK       I    between atoms: C_16  and  N_18 
REMARK    6  A    between atoms: N_18  and  C_19 
REMARK    7  A    between atoms: C_19  and  C_20 
ROOT
ATOM      1  C   LIG d   1       4.473  -1.578  -7.455  0.00  0.00     0.099 A 
ATOM      2  C   LIG d   1       4.434  -1.119  -6.126  0.00  0.00     0.074 A 
ATOM      3  C   LIG d   1       4.587  -2.052  -5.088  0.00  0.00     0.012 A 
ATOM      4  C   LIG d   1       4.772  -3.395  -5.411  0.00  0.00    -0.021 A 
ATOM      5  C   LIG d   1       4.798  -3.767  -6.751  0.00  0.00     0.127 A 
ATOM      6  N   LIG d   1       4.655  -2.861  -7.714  0.00  0.00    -0.240 NA
ATOM      7  C   LIG d   1       4.505  -1.295  -3.829  0.00  0.00     0.007 A 
ATOM      8  C   LIG d   1       4.582  -1.652  -2.484  0.00  0.00    -0.052 A 
ATOM      9  C   LIG d   1       4.464  -0.685  -1.511  0.00  0.00    -0.061 A 
ATOM     10  C   LIG d   1       4.269   0.642  -1.864  0.00  0.00    -0.060 A 
ATOM     11  C   LIG d   1       4.190   1.010  -3.190  0.00  0.00    -0.038 A 
ATOM     12  C   LIG d   1       4.307   0.048  -4.188  0.00  0.00     0.048 A 
ATOM     13  N   LIG d   1       4.268   0.128  -5.568  0.00  0.00    -0.352 N 
ATOM     14  H   LIG d   1       4.141   0.947  -6.072  0.00  0.00     0.166 HD
ATOM     15  H   LIG d   1       4.893  -4.135  -4.633  0.00  0.00     0.065 H 
ATOM     16  H   LIG d   1       4.735  -2.685  -2.206  0.00  0.00     0.062 H 
ATOM     17  H   LIG d   1       4.524  -0.961  -0.468  0.00  0.00     0.062 H 
ATOM     18  H   LIG d   1       4.177   1.393  -1.094  0.00  0.00     0.062 H 
ATOM     19  H   LIG d   1       4.038   2.045  -3.454  0.00  0.00     0.064 H 
ENDROOT
BRANCH   1  20
ATOM     20  C   LIG d   1       4.315  -0.617  -8.571  0.00  0.00     0.044 A 
ATOM     21  C   LIG d   1       3.135  -0.600  -9.322  0.00  0.00     0.130 A 
ATOM     22  C   LIG d   1       2.995   0.305 -10.362  0.00  0.00    -0.019 A 
ATOM     23  C   LIG d   1       4.021   1.181 -10.661  0.00  0.00    -0.058 A 
ATOM     24  H   LIG d   1       2.084   0.323 -10.942  0.00  0.00     0.065 H 
ATOM     25  C   LIG d   1       5.192   1.164  -9.923  0.00  0.00    -0.061 A 
ATOM     26  H   LIG d   1       3.909   1.882 -11.474  0.00  0.00     0.062 H 
ATOM     27  C   LIG d   1       5.343   0.271  -8.882  0.00  0.00    -0.049 A 
ATOM     28  H   LIG d   1       5.989   1.851 -10.163  0.00  0.00     0.062 H 
ATOM     29  H   LIG d   1       6.258   0.261  -8.308  0.00  0.00     0.062 H 
BRANCH  21  30
ATOM     30  O   LIG d   1       2.130  -1.466  -9.032  0.00  0.00    -0.492 OA
BRANCH  30  31
ATOM     31  C   LIG d   1       1.549  -2.178 -10.126  0.00  0.00     0.087 C 
ATOM     32  H   LIG d   1       0.467  -2.215 -10.001  0.00  0.00     0.069 H 
ATOM     33  H   LIG d   1       1.791  -1.668 -11.060  0.00  0.00     0.069 H 
BRANCH  31  34
ATOM     34  C   LIG d   1       2.108  -3.601 -10.163  0.00  0.00    -0.031 C 
ATOM     35  H   LIG d   1       1.659  -4.147 -10.993  0.00  0.00     0.026 H 
ATOM     36  H   LIG d   1       3.190  -3.563 -10.297  0.00  0.00     0.026 H 
ATOM     37  H   LIG d   1       1.876  -4.107  -9.226  0.00  0.00     0.026 H 
ENDBRANCH  31  34
ENDBRANCH  30  31
ENDBRANCH  21  30
ENDBRANCH   1  20
BRANCH   5  38
ATOM     38  C   LIG d   1       4.993  -5.188  -7.110  0.00  0.00     0.263 C 
ATOM     39  O   LIG d   1       5.626  -5.481  -8.107  0.00  0.00    -0.269 OA
ATOM     40  N   LIG d   1       4.471  -6.158  -6.335  0.00  0.00    -0.306 N 
ATOM     41  H   LIG d   1       3.966  -5.924  -5.541  0.00  0.00     0.149 HD
BRANCH  40  42
ATOM     42  C   LIG d   1       4.665  -7.566  -6.692  0.00  0.00     0.037 C 
ATOM     43  H   LIG d   1       5.281  -7.632  -7.589  0.00  0.00     0.051 H 
ATOM     44  H   LIG d   1       3.696  -8.029  -6.881  0.00  0.00     0.051 H 
BRANCH  42  45
ATOM     45  C   LIG d   1       5.352  -8.281  -5.557  0.00  0.00    -0.030 A 
ATOM     46  C   LIG d   1       4.666  -9.232  -4.825  0.00  0.00    -0.054 A 
ATOM     47  C   LIG d   1       5.296  -9.889  -3.785  0.00  0.00    -0.026 A 
ATOM     48  H   LIG d   1       3.640  -9.462  -5.067  0.00  0.00     0.062 H 
ATOM     49  C   LIG d   1       6.613  -9.594  -3.475  0.00  0.00     0.123 A 
ATOM     50  H   LIG d   1       4.761 -10.633  -3.213  0.00  0.00     0.065 H 
ATOM     51  C   LIG d   1       7.298  -8.640  -4.208  0.00  0.00    -0.026 A 
ATOM     52  F   LIG d   1       7.229 -10.236  -2.458  0.00  0.00    -0.205 F 
ATOM     53  C   LIG d   1       6.667  -7.985  -5.249  0.00  0.00    -0.054 A 
ATOM     54  H   LIG d   1       8.325  -8.409  -3.969  0.00  0.00     0.065 H 
ATOM     55  H   LIG d   1       7.200  -7.237  -5.818  0.00  0.00     0.062 H 
ENDBRANCH  42  45
ENDBRANCH  40  42
ENDBRANCH   5  38
TORSDOF 7
ENDMDL
MODEL 6
REMARK VINA RESULT:      -7.5      2.358      4.476
REMARK  7 active torsions:
REMARK  status: ('A' for Active; 'I' for Inactive)
REMARK    1  A    between atoms: C_1  and  C_2 
REMARK    2  A    between atoms: C_2  and  O_3 
REMARK    3  A    between atoms: O_3  and  C_4 
REMARK    4  A    between atoms: C_9  and  C_10 
REMARK    5  A    between atoms: C_14  and  C_16 
REMARK       I    between atoms: C_16  and  N_18 
REMARK    6  A    between atoms: N_18  and  C_19 
REMARK    7  A    between atoms: C_19  and  C_20 
ROOT
ATOM      1  C   LIG d   1       5.607  -2.269  -4.441  0.00  0.00     0.099 A 
ATOM      2  C   LIG d   1       6.938  -2.063  -4.845  0.00  0.00     0.074 A 
ATOM      3  C   LIG d   1       7.609  -3.106  -5.505  0.00  0.00     0.012 A 
ATOM      4  C   LIG d   1       6.932  -4.302  -5.737  0.00  0.00    -0.021 A 
ATOM      5  C   LIG d   1       5.616  -4.425  -5.304  0.00  0.00     0.127 A 
ATOM      6  N   LIG d   1       5.004  -3.419  -4.685  0.00  0.00    -0.240 NA
ATOM      7  C   LIG d   1       8.962  -2.612  -5.803  0.00  0.00     0.007 A 
ATOM      8  C   LIG d   1      10.074  -3.168  -6.432  0.00  0.00    -0.052 A 
ATOM      9  C   LIG d   1      11.230  -2.430  -6.560  0.00  0.00    -0.061 A 
ATOM     10  C   LIG d   1      11.291  -1.136  -6.066  0.00  0.00    -0.060 A 
ATOM     11  C   LIG d   1      10.200  -0.572  -5.441  0.00  0.00    -0.038 A 
ATOM     12  C   LIG d   1       9.022  -1.301  -5.302  0.00  0.00     0.048 A 
ATOM     13  N   LIG d   1       7.799  -0.996  -4.733  0.00  0.00    -0.352 N 
ATOM     14  H   LIG d   1       7.579  -0.150  -4.314  0.00  0.00     0.166 HD
ATOM     15  H   LIG d   1       7.423  -5.121  -6.243  0.00  0.00     0.065 H 
ATOM     16  H   LIG d   1      10.029  -4.176  -6.818  0.00  0.00     0.062 H 
ATOM     17  H   LIG d   1      12.092  -2.862  -7.047  0.00  0.00     0.062 H 
ATOM     18  H   LIG d   1      12.201  -0.566  -6.169  0.00  0.00     0.062 H 
ATOM     19  H   LIG d   1      10.258   0.436  -5.060  0.00  0.00     0.064 H 
ENDROOT
BRANCH   1  20
ATOM     20  C   LIG d   1       4.875  -1.188  -3.741  0.00  0.00     0.044 A 
ATOM     21  C   LIG d   1       4.054  -0.315  -4.462  0.00  0.00     0.130 A 
ATOM     22  C   LIG d   1       3.369   0.691  -3.799  0.00  0.00    -0.019 A 
ATOM     23  C   LIG d   1       3.506   0.836  -2.431  0.00  0.00    -0.058 A 
ATOM     24  H   LIG d   1       2.732   1.365  -4.352  0.00  0.00     0.065 H 
ATOM     25  C   LIG d   1       4.321  -0.024  -1.715  0.00  0.00    -0.061 A 
ATOM     26  H   LIG d   1       2.973   1.623  -1.918  0.00  0.00     0.062 H 
ATOM     27  C   LIG d   1       5.005  -1.032  -2.362  0.00  0.00    -0.049 A 
ATOM     28  H   LIG d   1       4.422   0.096  -0.647  0.00  0.00     0.062 H 
ATOM     29  H   LIG d   1       5.640  -1.701  -1.800  0.00  0.00     0.062 H 
BRANCH  21  30
ATOM     30  O   LIG d   1       3.926  -0.454  -5.807  0.00  0.00    -0.492 OA
BRANCH  30  31
ATOM     31  C   LIG d   1       2.813   0.198  -6.424  0.00  0.00     0.087 C 
ATOM     32  H   LIG d   1       1.888  -0.275  -6.095  0.00  0.00     0.069 H 
ATOM     33  H   LIG d   1       2.806   1.250  -6.139  0.00  0.00     0.069 H 
BRANCH  31  34
ATOM     34  C   LIG d   1       2.934   0.082  -7.944  0.00  0.00    -0.031 C 
ATOM     35  H   LIG d   1       2.465  -0.845  -8.277  0.00  0.00     0.026 H 
ATOM     36  H   LIG d   1       2.434   0.930  -8.414  0.00  0.00     0.026 H 
ATOM     37  H   LIG d   1       3.986   0.078  -8.226  0.00  0.00     0.026 H 
ENDBRANCH  31  34
ENDBRANCH  30  31
ENDBRANCH  21  30
ENDBRANCH   1  20
BRANCH   5  38
ATOM     38  C   LIG d   1       4.884  -5.687  -5.541  0.00  0.00     0.263 C 
ATOM     39  O   LIG d   1       3.691  -5.663  -5.776  0.00  0.00    -0.269 OA
ATOM     40  N   LIG d   1       5.538  -6.865  -5.499  0.00  0.00    -0.306 N 
ATOM     41  H   LIG d   1       6.489  -6.884  -5.312  0.00  0.00     0.149 HD
BRANCH  40  42
ATOM     42  C   LIG d   1       4.812  -8.115  -5.734  0.00  0.00     0.037 C 
ATOM     43  H   LIG d   1       5.147  -8.559  -6.672  0.00  0.00     0.051 H 
ATOM     44  H   LIG d   1       3.742  -7.909  -5.791  0.00  0.00     0.051 H 
BRANCH  42  45
ATOM     45  C   LIG d   1       5.080  -9.073  -4.601  0.00  0.00    -0.030 A 
ATOM     46  C   LIG d   1       6.355  -9.188  -4.083  0.00  0.00    -0.054 A 
ATOM     47  C   LIG d   1       6.601 -10.066  -3.043  0.00  0.00    -0.026 A 
ATOM     48  H   LIG d   1       7.159  -8.593  -4.488  0.00  0.00     0.062 H 
ATOM     49  C   LIG d   1       5.570 -10.830  -2.523  0.00  0.00     0.123 A 
ATOM     50  H   LIG d   1       7.598 -10.156  -2.637  0.00  0.00     0.065 H 
ATOM     51  C   LIG d   1       4.293 -10.713  -3.045  0.00  0.00    -0.026 A 
ATOM     52  F   LIG d   1       5.810 -11.688  -1.507  0.00  0.00    -0.205 F 
ATOM     53  C   LIG d   1       4.049  -9.834  -4.083  0.00  0.00    -0.054 A 
ATOM     54  H   LIG d   1       3.488 -11.307  -2.640  0.00  0.00     0.065 H 
ATOM     55  H   LIG d   1       3.053  -9.747  -4.494  0.00  0.00     0.062 H 
ENDBRANCH  42  45
ENDBRANCH  40  42
ENDBRANCH   5  38
TORSDOF 7
ENDMDL
MODEL 7
REMARK VINA RESULT:      -7.4      6.192      9.465
REMARK  7 active torsions:
REMARK  status: ('A' for Active; 'I' for Inactive)
REMARK    1  A    between atoms: C_1  and  C_2 
REMARK    2  A    between atoms: C_2  and  O_3 
REMARK    3  A    between atoms: O_3  and  C_4 
REMARK    4  A    between atoms: C_9  and  C_10 
REMARK    5  A    between atoms: C_14  and  C_16 
REMARK       I    between atoms: C_16  and  N_18 
REMARK    6  A    between atoms: N_18  and  C_19 
REMARK    7  A    between atoms: C_19  and  C_20 
ROOT
ATOM      1  C   LIG d   1       7.307   1.215  -3.996  0.00  0.00     0.099 A 
ATOM      2  C   LIG d   1       7.402   1.111  -5.394  0.00  0.00     0.074 A 
ATOM      3  C   LIG d   1       8.455   1.771  -6.048  0.00  0.00     0.012 A 
ATOM      4  C   LIG d   1       9.365   2.504  -5.288  0.00  0.00    -0.021 A 
ATOM      5  C   LIG d   1       9.200   2.557  -3.908  0.00  0.00     0.127 A 
ATOM      6  N   LIG d   1       8.196   1.918  -3.315  0.00  0.00    -0.240 NA
ATOM      7  C   LIG d   1       8.302   1.488  -7.483  0.00  0.00     0.007 A 
ATOM      8  C   LIG d   1       9.020   1.854  -8.619  0.00  0.00    -0.052 A 
ATOM      9  C   LIG d   1       8.612   1.415  -9.859  0.00  0.00    -0.061 A 
ATOM     10  C   LIG d   1       7.490   0.610  -9.981  0.00  0.00    -0.060 A 
ATOM     11  C   LIG d   1       6.768   0.240  -8.867  0.00  0.00    -0.038 A 
ATOM     12  C   LIG d   1       7.164   0.673  -7.605  0.00  0.00     0.048 A 
ATOM     13  N   LIG d   1       6.644   0.462  -6.341  0.00  0.00    -0.352 N 
ATOM     14  H   LIG d   1       5.855  -0.069  -6.149  0.00  0.00     0.166 HD
ATOM     15  H   LIG d   1      10.185   3.022  -5.764  0.00  0.00     0.065 H 
ATOM     16  H   LIG d   1       9.896   2.480  -8.527  0.00  0.00     0.062 H 
ATOM     17  H   LIG d   1       9.170   1.698 -10.741  0.00  0.00     0.062 H 
ATOM     18  H   LIG d   1       7.177   0.271 -10.957  0.00  0.00     0.062 H 
ATOM     19  H   LIG d   1       5.896  -0.387  -8.972  0.00  0.00     0.064 H 
ENDROOT
BRANCH   1  20
ATOM     20  C   LIG d   1       6.207   0.529  -3.279  0.00  0.00     0.044 A 
ATOM     21  C   LIG d   1       6.177  -0.867  -3.208  0.00  0.00     0.130 A 
ATOM     22  C   LIG d   1       5.146  -1.500  -2.532  0.00  0.00    -0.019 A 
ATOM     23  C   LIG d   1       4.146  -0.753  -1.938  0.00  0.00    -0.058 A 
ATOM     24  H   LIG d   1       5.121  -2.578  -2.473  0.00  0.00     0.065 H 
ATOM     25  C   LIG d   1       4.170   0.629  -2.010  0.00  0.00    -0.061 A 
ATOM     26  H   LIG d   1       3.343  -1.249  -1.415  0.00  0.00     0.062 H 
ATOM     27  C   LIG d   1       5.193   1.272  -2.677  0.00  0.00    -0.049 A 
ATOM     28  H   LIG d   1       3.385   1.205  -1.544  0.00  0.00     0.062 H 
ATOM     29  H   LIG d   1       5.208   2.351  -2.731  0.00  0.00     0.062 H 
BRANCH  21  30
ATOM     30  O   LIG d   1       7.156  -1.600  -3.797  0.00  0.00    -0.492 OA
BRANCH  30  31
ATOM     31  C   LIG d   1       6.759  -2.802  -4.460  0.00  0.00     0.087 C 
ATOM     32  H   LIG d   1       5.878  -3.214  -3.968  0.00  0.00     0.069 H 
ATOM     33  H   LIG d   1       6.523  -2.580  -5.502  0.00  0.00     0.069 H 
BRANCH  31  34
ATOM     34  C   LIG d   1       7.899  -3.819  -4.401  0.00  0.00    -0.031 C 
ATOM     35  H   LIG d   1       7.506  -4.789  -4.093  0.00  0.00     0.026 H 
ATOM     36  H   LIG d   1       8.357  -3.909  -5.387  0.00  0.00     0.026 H 
ATOM     37  H   LIG d   1       8.647  -3.485  -3.682  0.00  0.00     0.026 H 
ENDBRANCH  31  34
ENDBRANCH  30  31
ENDBRANCH  21  30
ENDBRANCH   1  20
BRANCH   5  38
ATOM     38  C   LIG d   1      10.157   3.330  -3.087  0.00  0.00     0.263 C 
ATOM     39  O   LIG d   1      11.232   2.846  -2.790  0.00  0.00    -0.269 OA
ATOM     40  N   LIG d   1       9.839   4.571  -2.668  0.00  0.00    -0.306 N 
ATOM     41  H   LIG d   1       8.981   4.957  -2.905  0.00  0.00     0.149 HD
BRANCH  40  42
ATOM     42  C   LIG d   1      10.787   5.336  -1.856  0.00  0.00     0.037 C 
ATOM     43  H   LIG d   1      11.795   5.200  -2.248  0.00  0.00     0.051 H 
ATOM     44  H   LIG d   1      10.748   4.984  -0.824  0.00  0.00     0.051 H 
BRANCH  42  45
ATOM     45  C   LIG d   1      10.424   6.798  -1.903  0.00  0.00    -0.030 A 
ATOM     46  C   LIG d   1       9.884   7.411  -0.788  0.00  0.00    -0.054 A 
ATOM     47  C   LIG d   1       9.551   8.751  -0.830  0.00  0.00    -0.026 A 
ATOM     48  H   LIG d   1       9.723   6.842   0.116  0.00  0.00     0.062 H 
ATOM     49  C   LIG d   1       9.757   9.480  -1.989  0.00  0.00     0.123 A 
ATOM     50  H   LIG d   1       9.129   9.231   0.042  0.00  0.00     0.065 H 
ATOM     51  C   LIG d   1      10.297   8.865  -3.105  0.00  0.00    -0.026 A 
ATOM     52  F   LIG d   1       9.432  10.791  -2.030  0.00  0.00    -0.205 F 
ATOM     53  C   LIG d   1      10.631   7.524  -3.061  0.00  0.00    -0.054 A 
ATOM     54  H   LIG d   1      10.460   9.432  -4.009  0.00  0.00     0.065 H 
ATOM     55  H   LIG d   1      11.048   7.043  -3.933  0.00  0.00     0.062 H 
ENDBRANCH  42  45
ENDBRANCH  40  42
ENDBRANCH   5  38
TORSDOF 7
ENDMDL
MODEL 8
REMARK VINA RESULT:      -7.2      2.024      2.485
REMARK  7 active torsions:
REMARK  status: ('A' for Active; 'I' for Inactive)
REMARK    1  A    between atoms: C_1  and  C_2 
REMARK    2  A    between atoms: C_2  and  O_3 
REMARK    3  A    between atoms: O_3  and  C_4 
REMARK    4  A    between atoms: C_9  and  C_10 
REMARK    5  A    between atoms: C_14  and  C_16 
REMARK       I    between atoms: C_16  and  N_18 
REMARK    6  A    between atoms: N_18  and  C_19 
REMARK    7  A    between atoms: C_19  and  C_20 
ROOT
ATOM      1  C   LIG d   1       4.909  -2.287  -5.450  0.00  0.00     0.099 A 
ATOM      2  C   LIG d   1       4.233  -1.844  -6.600  0.00  0.00     0.074 A 
ATOM      3  C   LIG d   1       4.301  -2.629  -7.763  0.00  0.00     0.012 A 
ATOM      4  C   LIG d   1       5.032  -3.814  -7.735  0.00  0.00    -0.021 A 
ATOM      5  C   LIG d   1       5.673  -4.181  -6.555  0.00  0.00     0.127 A 
ATOM      6  N   LIG d   1       5.588  -3.421  -5.467  0.00  0.00    -0.240 NA
ATOM      7  C   LIG d   1       3.511  -1.928  -8.788  0.00  0.00     0.007 A 
ATOM      8  C   LIG d   1       3.206  -2.199 -10.120  0.00  0.00    -0.052 A 
ATOM      9  C   LIG d   1       2.419  -1.323 -10.835  0.00  0.00    -0.061 A 
ATOM     10  C   LIG d   1       1.931  -0.173 -10.234  0.00  0.00    -0.060 A 
ATOM     11  C   LIG d   1       2.225   0.109  -8.917  0.00  0.00    -0.038 A 
ATOM     12  C   LIG d   1       3.018  -0.764  -8.178  0.00  0.00     0.048 A 
ATOM     13  N   LIG d   1       3.463  -0.736  -6.869  0.00  0.00    -0.352 N 
ATOM     14  H   LIG d   1       3.262  -0.035  -6.230  0.00  0.00     0.166 HD
ATOM     15  H   LIG d   1       5.101  -4.438  -8.614  0.00  0.00     0.065 H 
ATOM     16  H   LIG d   1       3.585  -3.094 -10.591  0.00  0.00     0.062 H 
ATOM     17  H   LIG d   1       2.182  -1.532 -11.868  0.00  0.00     0.062 H 
ATOM     18  H   LIG d   1       1.316   0.509 -10.802  0.00  0.00     0.062 H 
ATOM     19  H   LIG d   1       1.839   1.007  -8.458  0.00  0.00     0.064 H 
ENDROOT
BRANCH   1  20
ATOM     20  C   LIG d   1       4.856  -1.481  -4.209  0.00  0.00     0.044 A 
ATOM     21  C   LIG d   1       5.478  -0.228  -4.156  0.00  0.00     0.130 A 
ATOM     22  C   LIG d   1       5.419   0.520  -2.992  0.00  0.00    -0.019 A 
ATOM     23  C   LIG d   1       4.757   0.027  -1.883  0.00  0.00    -0.058 A 
ATOM     24  H   LIG d   1       5.896   1.489  -2.948  0.00  0.00     0.065 H 
ATOM     25  C   LIG d   1       4.144  -1.214  -1.930  0.00  0.00    -0.061 A 
ATOM     26  H   LIG d   1       4.716   0.612  -0.977  0.00  0.00     0.062 H 
ATOM     27  C   LIG d   1       4.191  -1.968  -3.084  0.00  0.00    -0.049 A 
ATOM     28  H   LIG d   1       3.630  -1.592  -1.060  0.00  0.00     0.062 H 
ATOM     29  H   LIG d   1       3.712  -2.936  -3.117  0.00  0.00     0.062 H 
BRANCH  21  30
ATOM     30  O   LIG d   1       6.134   0.252  -5.243  0.00  0.00    -0.492 OA
BRANCH  30  31
ATOM     31  C   LIG d   1       7.562   0.248  -5.195  0.00  0.00     0.087 C 
ATOM     32  H   LIG d   1       7.891  -0.110  -4.219  0.00  0.00     0.069 H 
ATOM     33  H   LIG d   1       7.949  -0.411  -5.973  0.00  0.00     0.069 H 
BRANCH  31  34
ATOM     34  C   LIG d   1       8.085   1.667  -5.422  0.00  0.00    -0.031 C 
ATOM     35  H   LIG d   1       8.540   1.733  -6.411  0.00  0.00     0.026 H 
ATOM     36  H   LIG d   1       7.257   2.374  -5.355  0.00  0.00     0.026 H 
ATOM     37  H   LIG d   1       8.829   1.906  -4.663  0.00  0.00     0.026 H 
ENDBRANCH  31  34
ENDBRANCH  30  31
ENDBRANCH  21  30
ENDBRANCH   1  20
BRANCH   5  38
ATOM     38  C   LIG d   1       6.453  -5.436  -6.508  0.00  0.00     0.263 C 
ATOM     39  O   LIG d   1       6.922  -5.898  -7.530  0.00  0.00    -0.269 OA
ATOM     40  N   LIG d   1       6.644  -6.068  -5.333  0.00  0.00    -0.306 N 
ATOM     41  H   LIG d   1       6.269  -5.699  -4.518  0.00  0.00     0.149 HD
BRANCH  40  42
ATOM     42  C   LIG d   1       7.417  -7.311  -5.287  0.00  0.00     0.037 C 
ATOM     43  H   LIG d   1       8.330  -7.150  -4.712  0.00  0.00     0.051 H 
ATOM     44  H   LIG d   1       7.675  -7.616  -6.302  0.00  0.00     0.051 H 
BRANCH  42  45
ATOM     45  C   LIG d   1       6.595  -8.390  -4.631  0.00  0.00    -0.030 A 
ATOM     46  C   LIG d   1       7.146  -9.164  -3.628  0.00  0.00    -0.054 A 
ATOM     47  C   LIG d   1       6.392 -10.154  -3.025  0.00  0.00    -0.026 A 
ATOM     48  H   LIG d   1       8.165  -8.995  -3.314  0.00  0.00     0.062 H 
ATOM     49  C   LIG d   1       5.085 -10.371  -3.428  0.00  0.00     0.123 A 
ATOM     50  H   LIG d   1       6.823 -10.759  -2.241  0.00  0.00     0.065 H 
ATOM     51  C   LIG d   1       4.535  -9.595  -4.435  0.00  0.00    -0.026 A 
ATOM     52  F   LIG d   1       4.348 -11.339  -2.840  0.00  0.00    -0.205 F 
ATOM     53  C   LIG d   1       5.290  -8.605  -5.035  0.00  0.00    -0.054 A 
ATOM     54  H   LIG d   1       3.516  -9.762  -4.749  0.00  0.00     0.065 H 
ATOM     55  H   LIG d   1       4.862  -8.003  -5.823  0.00  0.00     0.062 H 
ENDBRANCH  42  45
ENDBRANCH  40  42
ENDBRANCH   5  38
TORSDOF 7
ENDMDL
MODEL 9
REMARK VINA RESULT:      -7.2      4.848      7.901
REMARK  7 active torsions:
REMARK  status: ('A' for Active; 'I' for Inactive)
REMARK    1  A    between atoms: C_1  and  C_2 
REMARK    2  A    between atoms: C_2  and  O_3 
REMARK    3  A    between atoms: O_3  and  C_4 
REMARK    4  A    between atoms: C_9  and  C_10 
REMARK    5  A    between atoms: C_14  and  C_16 
REMARK       I    between atoms: C_16  and  N_18 
REMARK    6  A    between atoms: N_18  and  C_19 
REMARK    7  A    between atoms: C_19  and  C_20 
ROOT
ATOM      1  C   LIG d   1       5.282  -0.299  -5.997  0.00  0.00     0.099 A 
ATOM      2  C   LIG d   1       4.518  -0.454  -7.167  0.00  0.00     0.074 A 
ATOM      3  C   LIG d   1       4.989   0.121  -8.358  0.00  0.00     0.012 A 
ATOM      4  C   LIG d   1       6.194   0.821  -8.338  0.00  0.00    -0.021 A 
ATOM      5  C   LIG d   1       6.888   0.929  -7.137  0.00  0.00     0.127 A 
ATOM      6  N   LIG d   1       6.421   0.370  -6.024  0.00  0.00    -0.240 NA
ATOM      7  C   LIG d   1       4.000  -0.200  -9.399  0.00  0.00     0.007 A 
ATOM      8  C   LIG d   1       3.906   0.086 -10.759  0.00  0.00    -0.052 A 
ATOM      9  C   LIG d   1       2.825  -0.368 -11.482  0.00  0.00    -0.061 A 
ATOM     10  C   LIG d   1       1.830  -1.107 -10.861  0.00  0.00    -0.060 A 
ATOM     11  C   LIG d   1       1.908  -1.397  -9.516  0.00  0.00    -0.038 A 
ATOM     12  C   LIG d   1       2.993  -0.948  -8.768  0.00  0.00     0.048 A 
ATOM     13  N   LIG d   1       3.325  -1.086  -7.433  0.00  0.00    -0.352 N 
ATOM     14  H   LIG d   1       2.793  -1.563  -6.777  0.00  0.00     0.166 HD
ATOM     15  H   LIG d   1       6.581   1.274  -9.239  0.00  0.00     0.065 H 
ATOM     16  H   LIG d   1       4.680   0.662 -11.246  0.00  0.00     0.062 H 
ATOM     17  H   LIG d   1       2.752  -0.147 -12.537  0.00  0.00     0.062 H 
ATOM     18  H   LIG d   1       0.986  -1.457 -11.435  0.00  0.00     0.062 H 
ATOM     19  H   LIG d   1       1.128  -1.973  -9.042  0.00  0.00     0.064 H 
ENDROOT
BRANCH   1  20
ATOM     20  C   LIG d   1       4.809  -0.894  -4.725  0.00  0.00     0.044 A 
ATOM     21  C   LIG d   1       4.784  -2.284  -4.565  0.00  0.00     0.130 A 
ATOM     22  C   LIG d   1       4.344  -2.831  -3.371  0.00  0.00    -0.019 A 
ATOM     23  C   LIG d   1       3.924  -2.006  -2.344  0.00  0.00    -0.058 A 
ATOM     24  H   LIG d   1       4.326  -3.903  -3.243  0.00  0.00     0.065 H 
ATOM     25  C   LIG d   1       3.943  -0.631  -2.500  0.00  0.00    -0.061 A 
ATOM     26  H   LIG d   1       3.579  -2.436  -1.416  0.00  0.00     0.062 H 
ATOM     27  C   LIG d   1       4.382  -0.072  -3.683  0.00  0.00    -0.049 A 
ATOM     28  H   LIG d   1       3.613   0.006  -1.694  0.00  0.00     0.062 H 
ATOM     29  H   LIG d   1       4.396   1.001  -3.801  0.00  0.00     0.062 H 
BRANCH  21  30
ATOM     30  O   LIG d   1       5.191  -3.093  -5.577  0.00  0.00    -0.492 OA
BRANCH  30  31
ATOM     31  C   LIG d   1       4.625  -4.404  -5.628  0.00  0.00     0.087 C 
ATOM     32  H   LIG d   1       5.400  -5.142  -5.421  0.00  0.00     0.069 H 
ATOM     33  H   LIG d   1       3.834  -4.487  -4.881  0.00  0.00     0.069 H 
BRANCH  31  34
ATOM     34  C   LIG d   1       4.040  -4.653  -7.019  0.00  0.00    -0.031 C 
ATOM     35  H   LIG d   1       3.305  -5.458  -6.966  0.00  0.00     0.026 H 
ATOM     36  H   LIG d   1       3.557  -3.743  -7.378  0.00  0.00     0.026 H 
ATOM     37  H   LIG d   1       4.838  -4.935  -7.704  0.00  0.00     0.026 H 
ENDBRANCH  31  34
ENDBRANCH  30  31
ENDBRANCH  21  30
ENDBRANCH   1  20
BRANCH   5  38
ATOM     38  C   LIG d   1       8.168   1.669  -7.098  0.00  0.00     0.263 C 
ATOM     39  O   LIG d   1       8.790   1.752  -6.057  0.00  0.00    -0.269 OA
ATOM     40  N   LIG d   1       8.646   2.251  -8.215  0.00  0.00    -0.306 N 
ATOM     41  H   LIG d   1       8.149   2.185  -9.046  0.00  0.00     0.149 HD
BRANCH  40  42
ATOM     42  C   LIG d   1       9.913   2.984  -8.176  0.00  0.00     0.037 C 
ATOM     43  H   LIG d   1      10.555   2.644  -8.990  0.00  0.00     0.051 H 
ATOM     44  H   LIG d   1      10.409   2.801  -7.222  0.00  0.00     0.051 H 
BRANCH  42  45
ATOM     45  C   LIG d   1       9.647   4.459  -8.329  0.00  0.00    -0.030 A 
ATOM     46  C   LIG d   1       8.992   4.929  -9.452  0.00  0.00    -0.054 A 
ATOM     47  C   LIG d   1       8.747   6.282  -9.593  0.00  0.00    -0.026 A 
ATOM     48  H   LIG d   1       8.672   4.239 -10.219  0.00  0.00     0.062 H 
ATOM     49  C   LIG d   1       9.157   7.166  -8.610  0.00  0.00     0.123 A 
ATOM     50  H   LIG d   1       8.235   6.650 -10.470  0.00  0.00     0.065 H 
ATOM     51  C   LIG d   1       9.813   6.694  -7.486  0.00  0.00    -0.026 A 
ATOM     52  F   LIG d   1       8.918   8.489  -8.747  0.00  0.00    -0.205 F 
ATOM     53  C   LIG d   1      10.057   5.340  -7.347  0.00  0.00    -0.054 A 
ATOM     54  H   LIG d   1      10.133   7.382  -6.718  0.00  0.00     0.065 H 
ATOM     55  H   LIG d   1      10.573   4.972  -6.472  0.00  0.00     0.062 H 
ENDBRANCH  42  45
ENDBRANCH  40  42
ENDBRANCH   5  38
TORSDOF 7
ENDMDL
