MODEL 1
REMARK VINA RESULT:      -7.4      0.000      0.000
REMARK  5 active torsions:
REMARK  status: ('A' for Active; 'I' for Inactive)
REMARK    1  A    between atoms: C_1  and  C_2 
REMARK    2  A    between atoms: C_9  and  C_12 
REMARK    3  A    between atoms: N_10  and  C_11 
REMARK       I    between atoms: C_12  and  N_14 
REMARK       I    between atoms: N_14  and  CA_15 
REMARK    4  A    between atoms: CA_15  and  CB_17 
REMARK       I    between atoms: CA_15  and  C_24 
REMARK    5  A    between atoms: CB_17  and  CG_18 
ROOT
ATOM      1  C   UNK d   0       7.163  -1.473  -4.890  0.00  0.00     0.261 C 
ATOM      2  O   UNK d   0       7.836  -2.480  -4.997  0.00  0.00    -0.269 OA
ATOM      3  N   PHE d   1       5.880  -1.559  -4.485  0.00  0.00    -0.302 N 
ATOM      4  CA  PHE d   1       5.329  -2.850  -4.068  0.00  0.00     0.067 C 
ATOM      5  HA  PHE d   1       6.102  -3.430  -3.563  0.00  0.00     0.056 H 
ATOM      6  C   PHE d   1       4.845  -3.605  -5.279  0.00  0.00     0.062 C 
ATOM      7  O   PHE d   1       4.952  -3.110  -6.388  0.00  0.00    -0.548 OA
ATOM      8  OXT PHE d   1       4.347  -4.711  -5.150  0.00  0.00    -0.548 OA
ATOM      9  H   PHE d   1       5.322  -0.765  -4.469  0.00  0.00     0.150 HD
ENDROOT
BRANCH   1  10
ATOM     10  C   UNK d   0       7.749  -0.161  -5.202  0.00  0.00     0.105 A 
ATOM     11  C   UNK d   0       7.941   0.848  -4.311  0.00  0.00    -0.024 A 
ATOM     12  C   UNK d   0       8.525   1.933  -5.008  0.00  0.00     0.001 A 
ATOM     13  H   UNK d   0       7.691   0.826  -3.261  0.00  0.00     0.065 H 
ATOM     14  C   UNK d   0       8.674   1.527  -6.349  0.00  0.00     0.049 A 
ATOM     15  C   UNK d   0       8.944   3.212  -4.620  0.00  0.00    -0.050 A 
ATOM     16  C   UNK d   0       9.231   2.407  -7.273  0.00  0.00    -0.037 A 
ATOM     17  N   UNK d   0       8.192   0.243  -6.446  0.00  0.00    -0.339 N 
ATOM     18  C   UNK d   0       9.631   3.661  -6.867  0.00  0.00    -0.057 A 
ATOM     19  H   UNK d   0       9.350   2.108  -8.303  0.00  0.00     0.064 H 
ATOM     20  C   UNK d   0       9.483   4.060  -5.545  0.00  0.00    -0.050 A 
ATOM     21  H   UNK d   0      10.062   4.343  -7.586  0.00  0.00     0.062 H 
ATOM     22  H   UNK d   0       8.838   3.529  -3.594  0.00  0.00     0.063 H 
BRANCH  20  23
ATOM     23  C   UNK d   0       9.927   5.437  -5.125  0.00  0.00    -0.040 C 
ATOM     24  H   UNK d   0      10.457   5.374  -4.176  0.00  0.00     0.028 H 
ATOM     25  H   UNK d   0      10.588   5.852  -5.886  0.00  0.00     0.028 H 
ATOM     26  H   UNK d   0       9.054   6.081  -5.012  0.00  0.00     0.028 H 
ENDBRANCH  20  23
BRANCH  17  27
ATOM     27  C   UNK d   0       8.155  -0.564  -7.668  0.00  0.00     0.013 C 
ATOM     28  H   UNK d   0       7.328  -1.272  -7.611  0.00  0.00     0.046 H 
ATOM     29  H   UNK d   0       8.017   0.087  -8.530  0.00  0.00     0.046 H 
ATOM     30  H   UNK d   0       9.093  -1.110  -7.771  0.00  0.00     0.046 H 
ENDBRANCH  17  27
ENDBRANCH   1  10
BRANCH   4  31
ATOM     31  CB  PHE d   1       4.157  -2.620  -3.110  0.00  0.00    -0.004 C 
ATOM     32  HB1 PHE d   1       3.248  -3.038  -3.541  0.00  0.00     0.034 H 
ATOM     33  HB2 PHE d   1       4.366  -3.107  -2.157  0.00  0.00     0.034 H 
BRANCH  31  34
ATOM     34  CG  PHE d   1       3.974  -1.141  -2.888  0.00  0.00    -0.045 A 
ATOM     35  CD1 PHE d   1       4.602  -0.519  -1.825  0.00  0.00    -0.059 A 
ATOM     36  CE1 PHE d   1       4.436   0.839  -1.623  0.00  0.00    -0.061 A 
ATOM     37  HD1 PHE d   1       5.222  -1.093  -1.153  0.00  0.00     0.062 H 
ATOM     38  CZ  PHE d   1       3.639   1.573  -2.480  0.00  0.00    -0.062 A 
ATOM     39  HE1 PHE d   1       4.930   1.326  -0.795  0.00  0.00     0.062 H 
ATOM     40  CE2 PHE d   1       3.007   0.950  -3.541  0.00  0.00    -0.061 A 
ATOM     41  HZ  PHE d   1       3.508   2.634  -2.321  0.00  0.00     0.062 H 
ATOM     42  CD2 PHE d   1       3.175  -0.407  -3.744  0.00  0.00    -0.059 A 
ATOM     43  HE2 PHE d   1       2.383   1.524  -4.210  0.00  0.00     0.062 H 
ATOM     44  HD2 PHE d   1       2.681  -0.893  -4.572  0.00  0.00     0.062 H 
ENDBRANCH  31  34
ENDBRANCH   4  31
TORSDOF 7
ENDMDL
MODEL 2
REMARK VINA RESULT:      -7.3      4.030      6.212
REMARK  5 active torsions:
REMARK  status: ('A' for Active; 'I' for Inactive)
REMARK    1  A    between atoms: C_1  and  C_2 
REMARK    2  A    between atoms: C_9  and  C_12 
REMARK    3  A    between atoms: N_10  and  C_11 
REMARK       I    between atoms: C_12  and  N_14 
REMARK       I    between atoms: N_14  and  CA_15 
REMARK    4  A    between atoms: CA_15  and  CB_17 
REMARK       I    between atoms: CA_15  and  C_24 
REMARK    5  A    between atoms: CB_17  and  CG_18 
ROOT
ATOM      1  C   UNK d   0       6.187   0.215  -7.374  0.00  0.00     0.261 C 
ATOM      2  O   UNK d   0       6.692   1.321  -7.398  0.00  0.00    -0.269 OA
ATOM      3  N   PHE d   1       6.585  -0.688  -6.455  0.00  0.00    -0.302 N 
ATOM      4  CA  PHE d   1       7.544  -0.303  -5.418  0.00  0.00     0.067 C 
ATOM      5  HA  PHE d   1       7.369   0.733  -5.127  0.00  0.00     0.056 H 
ATOM      6  C   PHE d   1       8.946  -0.445  -5.952  0.00  0.00     0.062 C 
ATOM      7  O   PHE d   1       9.127  -0.831  -7.095  0.00  0.00    -0.548 OA
ATOM      8  OXT PHE d   1       9.900  -0.173  -5.243  0.00  0.00    -0.548 OA
ATOM      9  H   PHE d   1       6.235  -1.593  -6.481  0.00  0.00     0.150 HD
ENDROOT
BRANCH   1  10
ATOM     10  C   UNK d   0       5.141  -0.138  -8.346  0.00  0.00     0.105 A 
ATOM     11  C   UNK d   0       5.359  -0.535  -9.627  0.00  0.00    -0.024 A 
ATOM     12  C   UNK d   0       4.097  -0.776 -10.224  0.00  0.00     0.001 A 
ATOM     13  H   UNK d   0       6.321  -0.646 -10.105  0.00  0.00     0.065 H 
ATOM     14  C   UNK d   0       3.122  -0.507  -9.245  0.00  0.00     0.049 A 
ATOM     15  C   UNK d   0       3.701  -1.203 -11.498  0.00  0.00    -0.050 A 
ATOM     16  C   UNK d   0       1.774  -0.663  -9.559  0.00  0.00    -0.037 A 
ATOM     17  N   UNK d   0       3.782  -0.117  -8.103  0.00  0.00    -0.339 N 
ATOM     18  C   UNK d   0       1.411  -1.079 -10.820  0.00  0.00    -0.057 A 
ATOM     19  H   UNK d   0       1.018  -0.459  -8.817  0.00  0.00     0.064 H 
ATOM     20  C   UNK d   0       2.375  -1.344 -11.785  0.00  0.00    -0.050 A 
ATOM     21  H   UNK d   0       0.365  -1.200 -11.062  0.00  0.00     0.062 H 
ATOM     22  H   UNK d   0       4.444  -1.416 -12.253  0.00  0.00     0.063 H 
BRANCH  20  23
ATOM     23  C   UNK d   0       1.952  -1.797 -13.159  0.00  0.00    -0.040 C 
ATOM     24  H   UNK d   0       2.152  -2.863 -13.267  0.00  0.00     0.028 H 
ATOM     25  H   UNK d   0       0.886  -1.612 -13.289  0.00  0.00     0.028 H 
ATOM     26  H   UNK d   0       2.513  -1.244 -13.912  0.00  0.00     0.028 H 
ENDBRANCH  20  23
BRANCH  17  27
ATOM     27  C   UNK d   0       3.148   0.259  -6.837  0.00  0.00     0.013 C 
ATOM     28  H   UNK d   0       3.812   0.009  -6.010  0.00  0.00     0.046 H 
ATOM     29  H   UNK d   0       2.950   1.330  -6.834  0.00  0.00     0.046 H 
ATOM     30  H   UNK d   0       2.210  -0.284  -6.725  0.00  0.00     0.046 H 
ENDBRANCH  17  27
ENDBRANCH   1  10
BRANCH   4  31
ATOM     31  CB  PHE d   1       7.370  -1.211  -4.199  0.00  0.00    -0.004 C 
ATOM     32  HB1 PHE d   1       7.142  -2.225  -4.530  0.00  0.00     0.034 H 
ATOM     33  HB2 PHE d   1       8.291  -1.218  -3.615  0.00  0.00     0.034 H 
BRANCH  31  34
ATOM     34  CG  PHE d   1       6.240  -0.695  -3.346  0.00  0.00    -0.045 A 
ATOM     35  CD1 PHE d   1       5.343  -1.581  -2.779  0.00  0.00    -0.059 A 
ATOM     36  CE1 PHE d   1       4.307  -1.107  -1.993  0.00  0.00    -0.061 A 
ATOM     37  HD1 PHE d   1       5.451  -2.642  -2.947  0.00  0.00     0.062 H 
ATOM     38  CZ  PHE d   1       4.166   0.251  -1.782  0.00  0.00    -0.062 A 
ATOM     39  HE1 PHE d   1       3.609  -1.799  -1.546  0.00  0.00     0.062 H 
ATOM     40  CE2 PHE d   1       5.060   1.137  -2.354  0.00  0.00    -0.061 A 
ATOM     41  HZ  PHE d   1       3.355   0.621  -1.170  0.00  0.00     0.062 H 
ATOM     42  CD2 PHE d   1       6.097   0.663  -3.136  0.00  0.00    -0.059 A 
ATOM     43  HE2 PHE d   1       4.949   2.198  -2.188  0.00  0.00     0.062 H 
ATOM     44  HD2 PHE d   1       6.795   1.355  -3.583  0.00  0.00     0.062 H 
ENDBRANCH  31  34
ENDBRANCH   4  31
TORSDOF 7
ENDMDL
MODEL 3
REMARK VINA RESULT:      -7.3      4.391      6.704
REMARK  5 active torsions:
REMARK  status: ('A' for Active; 'I' for Inactive)
REMARK    1  A    between atoms: C_1  and  C_2 
REMARK    2  A    between atoms: C_9  and  C_12 
REMARK    3  A    between atoms: N_10  and  C_11 
REMARK       I    between atoms: C_12  and  N_14 
REMARK       I    between atoms: N_14  and  CA_15 
REMARK    4  A    between atoms: CA_15  and  CB_17 
REMARK       I    between atoms: CA_15  and  C_24 
REMARK    5  A    between atoms: CB_17  and  CG_18 
ROOT
ATOM      1  C   UNK d   0       4.641  -2.122  -7.379  0.00  0.00     0.261 C 
ATOM      2  O   UNK d   0       5.744  -1.635  -7.538  0.00  0.00    -0.269 OA
ATOM      3  N   PHE d   1       4.293  -2.627  -6.179  0.00  0.00    -0.302 N 
ATOM      4  CA  PHE d   1       5.200  -2.492  -5.037  0.00  0.00     0.067 C 
ATOM      5  HA  PHE d   1       5.722  -1.537  -5.097  0.00  0.00     0.056 H 
ATOM      6  C   PHE d   1       6.205  -3.616  -5.057  0.00  0.00     0.062 C 
ATOM      7  O   PHE d   1       6.167  -4.451  -5.944  0.00  0.00    -0.548 OA
ATOM      8  OXT PHE d   1       7.056  -3.689  -4.187  0.00  0.00    -0.548 OA
ATOM      9  H   PHE d   1       3.442  -3.081  -6.071  0.00  0.00     0.150 HD
ENDROOT
BRANCH   1  10
ATOM     10  C   UNK d   0       3.685  -2.157  -8.496  0.00  0.00     0.105 A 
ATOM     11  C   UNK d   0       3.355  -3.263  -9.215  0.00  0.00    -0.024 A 
ATOM     12  C   UNK d   0       2.409  -2.874 -10.194  0.00  0.00     0.001 A 
ATOM     13  H   UNK d   0       3.745  -4.259  -9.067  0.00  0.00     0.065 H 
ATOM     14  C   UNK d   0       2.190  -1.493 -10.027  0.00  0.00     0.049 A 
ATOM     15  C   UNK d   0       1.719  -3.569 -11.196  0.00  0.00    -0.050 A 
ATOM     16  C   UNK d   0       1.293  -0.835 -10.865  0.00  0.00    -0.037 A 
ATOM     17  N   UNK d   0       2.981  -1.074  -8.984  0.00  0.00    -0.339 N 
ATOM     18  C   UNK d   0       0.631  -1.541 -11.845  0.00  0.00    -0.057 A 
ATOM     19  H   UNK d   0       1.117   0.223 -10.747  0.00  0.00     0.064 H 
ATOM     20  C   UNK d   0       0.849  -2.903 -12.009  0.00  0.00    -0.050 A 
ATOM     21  H   UNK d   0      -0.064  -1.029 -12.495  0.00  0.00     0.062 H 
ATOM     22  H   UNK d   0       1.878  -4.629 -11.327  0.00  0.00     0.063 H 
BRANCH  20  23
ATOM     23  C   UNK d   0       0.113  -3.652 -13.089  0.00  0.00    -0.040 C 
ATOM     24  H   UNK d   0       0.657  -4.565 -13.332  0.00  0.00     0.028 H 
ATOM     25  H   UNK d   0      -0.887  -3.906 -12.738  0.00  0.00     0.028 H 
ATOM     26  H   UNK d   0       0.039  -3.027 -13.979  0.00  0.00     0.028 H 
ENDBRANCH  20  23
BRANCH  17  27
ATOM     27  C   UNK d   0       3.064   0.297  -8.472  0.00  0.00     0.013 C 
ATOM     28  H   UNK d   0       2.423   0.396  -7.596  0.00  0.00     0.046 H 
ATOM     29  H   UNK d   0       4.094   0.519  -8.196  0.00  0.00     0.046 H 
ATOM     30  H   UNK d   0       2.735   0.993  -9.243  0.00  0.00     0.046 H 
ENDBRANCH  17  27
ENDBRANCH   1  10
BRANCH   4  31
ATOM     31  CB  PHE d   1       4.396  -2.552  -3.736  0.00  0.00    -0.004 C 
ATOM     32  HB1 PHE d   1       3.442  -3.044  -3.921  0.00  0.00     0.034 H 
ATOM     33  HB2 PHE d   1       4.956  -3.113  -2.988  0.00  0.00     0.034 H 
BRANCH  31  34
ATOM     34  CG  PHE d   1       4.151  -1.153  -3.234  0.00  0.00    -0.045 A 
ATOM     35  CD1 PHE d   1       4.679  -0.751  -2.021  0.00  0.00    -0.059 A 
ATOM     36  CE1 PHE d   1       4.457   0.534  -1.562  0.00  0.00    -0.061 A 
ATOM     37  HD1 PHE d   1       5.267  -1.441  -1.434  0.00  0.00     0.062 H 
ATOM     38  CZ  PHE d   1       3.701   1.415  -2.312  0.00  0.00    -0.062 A 
ATOM     39  HE1 PHE d   1       4.873   0.849  -0.617  0.00  0.00     0.062 H 
ATOM     40  CE2 PHE d   1       3.168   1.012  -3.523  0.00  0.00    -0.061 A 
ATOM     41  HZ  PHE d   1       3.525   2.418  -1.952  0.00  0.00     0.062 H 
ATOM     42  CD2 PHE d   1       3.393  -0.272  -3.984  0.00  0.00    -0.059 A 
ATOM     43  HE2 PHE d   1       2.577   1.701  -4.108  0.00  0.00     0.062 H 
ATOM     44  HD2 PHE d   1       2.977  -0.587  -4.929  0.00  0.00     0.062 H 
ENDBRANCH  31  34
ENDBRANCH   4  31
TORSDOF 7
ENDMDL
MODEL 4
REMARK VINA RESULT:      -7.1      3.849      5.977
REMARK  5 active torsions:
REMARK  status: ('A' for Active; 'I' for Inactive)
REMARK    1  A    between atoms: C_1  and  C_2 
REMARK    2  A    between atoms: C_9  and  C_12 
REMARK    3  A    between atoms: N_10  and  C_11 
REMARK       I    between atoms: C_12  and  N_14 
REMARK       I    between atoms: N_14  and  CA_15 
REMARK    4  A    between atoms: CA_15  and  CB_17 
REMARK       I    between atoms: CA_15  and  C_24 
REMARK    5  A    between atoms: CB_17  and  CG_18 
ROOT
ATOM      1  C   UNK d   0       3.173   0.239  -5.671  0.00  0.00     0.261 C 
ATOM      2  O   UNK d   0       2.327   1.050  -5.346  0.00  0.00    -0.269 OA
ATOM      3  N   PHE d   1       3.857  -0.437  -4.727  0.00  0.00    -0.302 N 
ATOM      4  CA  PHE d   1       3.508  -0.276  -3.313  0.00  0.00     0.067 C 
ATOM      5  HA  PHE d   1       2.430  -0.142  -3.218  0.00  0.00     0.056 H 
ATOM      6  C   PHE d   1       4.215   0.933  -2.755  0.00  0.00     0.062 C 
ATOM      7  O   PHE d   1       4.943   1.598  -3.472  0.00  0.00    -0.548 OA
ATOM      8  OXT PHE d   1       4.059   1.246  -1.587  0.00  0.00    -0.548 OA
ATOM      9  H   PHE d   1       4.581  -1.030  -4.983  0.00  0.00     0.150 HD
ENDROOT
BRANCH   1  10
ATOM     10  C   UNK d   0       3.448  -0.007  -7.095  0.00  0.00     0.105 A 
ATOM     11  C   UNK d   0       2.507  -0.156  -8.064  0.00  0.00    -0.024 A 
ATOM     12  C   UNK d   0       3.182  -0.375  -9.290  0.00  0.00     0.001 A 
ATOM     13  H   UNK d   0       1.437  -0.116  -7.925  0.00  0.00     0.065 H 
ATOM     14  C   UNK d   0       4.562  -0.348  -9.009  0.00  0.00     0.049 A 
ATOM     15  C   UNK d   0       2.746  -0.585 -10.605  0.00  0.00    -0.050 A 
ATOM     16  C   UNK d   0       5.475  -0.537 -10.043  0.00  0.00    -0.037 A 
ATOM     17  N   UNK d   0       4.702  -0.123  -7.660  0.00  0.00    -0.339 N 
ATOM     18  C   UNK d   0       5.020  -0.747 -11.326  0.00  0.00    -0.057 A 
ATOM     19  H   UNK d   0       6.535  -0.520  -9.840  0.00  0.00     0.064 H 
ATOM     20  C   UNK d   0       3.659  -0.774 -11.601  0.00  0.00    -0.050 A 
ATOM     21  H   UNK d   0       5.731  -0.894 -12.127  0.00  0.00     0.062 H 
ATOM     22  H   UNK d   0       1.690  -0.602 -10.828  0.00  0.00     0.063 H 
BRANCH  20  23
ATOM     23  C   UNK d   0       3.186  -1.006 -13.013  0.00  0.00    -0.040 C 
ATOM     24  H   UNK d   0       3.945  -1.562 -13.562  0.00  0.00     0.028 H 
ATOM     25  H   UNK d   0       2.257  -1.575 -12.995  0.00  0.00     0.028 H 
ATOM     26  H   UNK d   0       3.016  -0.046 -13.501  0.00  0.00     0.028 H 
ENDBRANCH  20  23
BRANCH  17  27
ATOM     27  C   UNK d   0       5.974  -0.021  -6.940  0.00  0.00     0.013 C 
ATOM     28  H   UNK d   0       6.790  -0.313  -7.600  0.00  0.00     0.046 H 
ATOM     29  H   UNK d   0       6.124   1.007  -6.610  0.00  0.00     0.046 H 
ATOM     30  H   UNK d   0       5.955  -0.681  -6.073  0.00  0.00     0.046 H 
ENDBRANCH  17  27
ENDBRANCH   1  10
BRANCH   4  31
ATOM     31  CB  PHE d   1       3.938  -1.521  -2.536  0.00  0.00    -0.004 C 
ATOM     32  HB1 PHE d   1       4.283  -1.229  -1.544  0.00  0.00     0.034 H 
ATOM     33  HB2 PHE d   1       3.091  -2.202  -2.442  0.00  0.00     0.034 H 
BRANCH  31  34
ATOM     34  CG  PHE d   1       5.056  -2.211  -3.273  0.00  0.00    -0.045 A 
ATOM     35  CD1 PHE d   1       6.366  -1.823  -3.061  0.00  0.00    -0.059 A 
ATOM     36  CE1 PHE d   1       7.393  -2.459  -3.735  0.00  0.00    -0.061 A 
ATOM     37  HD1 PHE d   1       6.588  -1.024  -2.369  0.00  0.00     0.062 H 
ATOM     38  CZ  PHE d   1       7.109  -3.478  -4.624  0.00  0.00    -0.062 A 
ATOM     39  HE1 PHE d   1       8.416  -2.158  -3.567  0.00  0.00     0.062 H 
ATOM     40  CE2 PHE d   1       5.799  -3.863  -4.839  0.00  0.00    -0.061 A 
ATOM     41  HZ  PHE d   1       7.911  -3.973  -5.152  0.00  0.00     0.062 H 
ATOM     42  CD2 PHE d   1       4.772  -3.230  -4.163  0.00  0.00    -0.059 A 
ATOM     43  HE2 PHE d   1       5.578  -4.659  -5.535  0.00  0.00     0.062 H 
ATOM     44  HD2 PHE d   1       3.749  -3.531  -4.332  0.00  0.00     0.062 H 
ENDBRANCH  31  34
ENDBRANCH   4  31
TORSDOF 7
ENDMDL
MODEL 5
REMARK VINA RESULT:      -7.0      3.803      5.512
REMARK  5 active torsions:
REMARK  status: ('A' for Active; 'I' for Inactive)
REMARK    1  A    between atoms: C_1  and  C_2 
REMARK    2  A    between atoms: C_9  and  C_12 
REMARK    3  A    between atoms: N_10  and  C_11 
REMARK       I    between atoms: C_12  and  N_14 
REMARK       I    between atoms: N_14  and  CA_15 
REMARK    4  A    between atoms: CA_15  and  CB_17 
REMARK       I    between atoms: CA_15  and  C_24 
REMARK    5  A    between atoms: CB_17  and  CG_18 
ROOT
ATOM      1  C   UNK d   0       4.675  -2.123  -6.439  0.00  0.00     0.261 C 
ATOM      2  O   UNK d   0       4.195  -2.456  -7.506  0.00  0.00    -0.269 OA
ATOM      3  N   PHE d   1       4.226  -1.017  -5.813  0.00  0.00    -0.302 N 
ATOM      4  CA  PHE d   1       3.088  -0.276  -6.361  0.00  0.00     0.067 C 
ATOM      5  HA  PHE d   1       2.381  -0.975  -6.811  0.00  0.00     0.056 H 
ATOM      6  C   PHE d   1       3.574   0.690  -7.410  0.00  0.00     0.062 C 
ATOM      7  O   PHE d   1       4.763   0.754  -7.676  0.00  0.00    -0.548 OA
ATOM      8  OXT PHE d   1       2.781   1.408  -7.994  0.00  0.00    -0.548 OA
ATOM      9  H   PHE d   1       4.657  -0.711  -4.999  0.00  0.00     0.150 HD
ENDROOT
BRANCH   1  10
ATOM     10  C   UNK d   0       5.744  -2.929  -5.830  0.00  0.00     0.105 A 
ATOM     11  C   UNK d   0       6.615  -2.495  -4.882  0.00  0.00    -0.024 A 
ATOM     12  C   UNK d   0       7.480  -3.570  -4.566  0.00  0.00     0.001 A 
ATOM     13  H   UNK d   0       6.643  -1.506  -4.448  0.00  0.00     0.065 H 
ATOM     14  C   UNK d   0       7.087  -4.661  -5.365  0.00  0.00     0.049 A 
ATOM     15  C   UNK d   0       8.551  -3.714  -3.674  0.00  0.00    -0.050 A 
ATOM     16  C   UNK d   0       7.772  -5.869  -5.260  0.00  0.00    -0.037 A 
ATOM     17  N   UNK d   0       6.023  -4.248  -6.131  0.00  0.00    -0.339 N 
ATOM     18  C   UNK d   0       8.825  -5.983  -4.379  0.00  0.00    -0.057 A 
ATOM     19  H   UNK d   0       7.480  -6.712  -5.868  0.00  0.00     0.064 H 
ATOM     20  C   UNK d   0       9.211  -4.905  -3.593  0.00  0.00    -0.050 A 
ATOM     21  H   UNK d   0       9.356  -6.921  -4.300  0.00  0.00     0.062 H 
ATOM     22  H   UNK d   0       8.855  -2.883  -3.055  0.00  0.00     0.063 H 
BRANCH  20  23
ATOM     23  C   UNK d   0      10.367  -5.055  -2.637  0.00  0.00    -0.040 C 
ATOM     24  H   UNK d   0      10.902  -4.109  -2.564  0.00  0.00     0.028 H 
ATOM     25  H   UNK d   0       9.990  -5.337  -1.654  0.00  0.00     0.028 H 
ATOM     26  H   UNK d   0      11.043  -5.828  -3.003  0.00  0.00     0.028 H 
ENDBRANCH  20  23
BRANCH  17  27
ATOM     27  C   UNK d   0       5.303  -5.070  -7.107  0.00  0.00     0.013 C 
ATOM     28  H   UNK d   0       5.813  -5.021  -8.070  0.00  0.00     0.046 H 
ATOM     29  H   UNK d   0       5.276  -6.103  -6.762  0.00  0.00     0.046 H 
ATOM     30  H   UNK d   0       4.286  -4.696  -7.217  0.00  0.00     0.046 H 
ENDBRANCH  17  27
ENDBRANCH   1  10
BRANCH   4  31
ATOM     31  CB  PHE d   1       2.393   0.498  -5.239  0.00  0.00    -0.004 C 
ATOM     32  HB1 PHE d   1       2.414   1.563  -5.466  0.00  0.00     0.034 H 
ATOM     33  HB2 PHE d   1       1.359   0.164  -5.152  0.00  0.00     0.034 H 
BRANCH  31  34
ATOM     34  CG  PHE d   1       3.111   0.248  -3.938  0.00  0.00    -0.045 A 
ATOM     35  CD1 PHE d   1       3.097  -1.014  -3.373  0.00  0.00    -0.059 A 
ATOM     36  CE1 PHE d   1       3.759  -1.244  -2.181  0.00  0.00    -0.061 A 
ATOM     37  HD1 PHE d   1       2.570  -1.819  -3.862  0.00  0.00     0.062 H 
ATOM     38  CZ  PHE d   1       4.429  -0.213  -1.551  0.00  0.00    -0.062 A 
ATOM     39  HE1 PHE d   1       3.751  -2.231  -1.741  0.00  0.00     0.062 H 
ATOM     40  CE2 PHE d   1       4.440   1.050  -2.115  0.00  0.00    -0.061 A 
ATOM     41  HZ  PHE d   1       4.945  -0.392  -0.619  0.00  0.00     0.062 H 
ATOM     42  CD2 PHE d   1       3.781   1.280  -3.308  0.00  0.00    -0.059 A 
ATOM     43  HE2 PHE d   1       4.964   1.856  -1.623  0.00  0.00     0.062 H 
ATOM     44  HD2 PHE d   1       3.789   2.266  -3.748  0.00  0.00     0.062 H 
ENDBRANCH  31  34
ENDBRANCH   4  31
TORSDOF 7
ENDMDL
MODEL 6
REMARK VINA RESULT:      -7.0      2.383      3.022
REMARK  5 active torsions:
REMARK  status: ('A' for Active; 'I' for Inactive)
REMARK    1  A    between atoms: C_1  and  C_2 
REMARK    2  A    between atoms: C_9  and  C_12 
REMARK    3  A    between atoms: N_10  and  C_11 
REMARK       I    between atoms: C_12  and  N_14 
REMARK       I    between atoms: N_14  and  CA_15 
REMARK    4  A    between atoms: CA_15  and  CB_17 
REMARK       I    between atoms: CA_15  and  C_24 
REMARK    5  A    between atoms: CB_17  and  CG_18 
ROOT
ATOM      1  C   UNK d   0       6.112  -0.374  -6.810  0.00  0.00     0.261 C 
ATOM      2  O   UNK d   0       5.989  -1.419  -7.419  0.00  0.00    -0.269 OA
ATOM      3  N   PHE d   1       5.020   0.280  -6.365  0.00  0.00    -0.302 N 
ATOM      4  CA  PHE d   1       3.694  -0.321  -6.519  0.00  0.00     0.067 C 
ATOM      5  HA  PHE d   1       3.769  -1.402  -6.402  0.00  0.00     0.056 H 
ATOM      6  C   PHE d   1       3.151   0.000  -7.887  0.00  0.00     0.062 C 
ATOM      7  O   PHE d   1       3.812   0.669  -8.664  0.00  0.00    -0.548 OA
ATOM      8  OXT PHE d   1       2.052  -0.409  -8.219  0.00  0.00    -0.548 OA
ATOM      9  H   PHE d   1       5.114   1.150  -5.944  0.00  0.00     0.150 HD
ENDROOT
BRANCH   1  10
ATOM     10  C   UNK d   0       7.452   0.176  -6.557  0.00  0.00     0.105 A 
ATOM     11  C   UNK d   0       8.294  -0.223  -5.568  0.00  0.00    -0.024 A 
ATOM     12  C   UNK d   0       9.475   0.552  -5.667  0.00  0.00     0.001 A 
ATOM     13  H   UNK d   0       8.097  -0.993  -4.836  0.00  0.00     0.065 H 
ATOM     14  C   UNK d   0       9.301   1.428  -6.756  0.00  0.00     0.049 A 
ATOM     15  C   UNK d   0      10.671   0.582  -4.937  0.00  0.00    -0.050 A 
ATOM     16  C   UNK d   0      10.319   2.317  -7.090  0.00  0.00    -0.037 A 
ATOM     17  N   UNK d   0       8.056   1.182  -7.286  0.00  0.00    -0.339 N 
ATOM     18  C   UNK d   0      11.483   2.330  -6.353  0.00  0.00    -0.057 A 
ATOM     19  H   UNK d   0      10.197   2.993  -7.922  0.00  0.00     0.064 H 
ATOM     20  C   UNK d   0      11.652   1.466  -5.279  0.00  0.00    -0.050 A 
ATOM     21  H   UNK d   0      12.271   3.021  -6.613  0.00  0.00     0.062 H 
ATOM     22  H   UNK d   0      10.813  -0.089  -4.104  0.00  0.00     0.063 H 
BRANCH  20  23
ATOM     23  C   UNK d   0      12.935   1.501  -4.488  0.00  0.00    -0.040 C 
ATOM     24  H   UNK d   0      12.722   1.282  -3.443  0.00  0.00     0.028 H 
ATOM     25  H   UNK d   0      13.624   0.755  -4.883  0.00  0.00     0.028 H 
ATOM     26  H   UNK d   0      13.384   2.491  -4.568  0.00  0.00     0.028 H 
ENDBRANCH  20  23
BRANCH  17  27
ATOM     27  C   UNK d   0       7.467   1.873  -8.436  0.00  0.00     0.013 C 
ATOM     28  H   UNK d   0       6.968   1.147  -9.079  0.00  0.00     0.046 H 
ATOM     29  H   UNK d   0       6.743   2.608  -8.086  0.00  0.00     0.046 H 
ATOM     30  H   UNK d   0       8.253   2.376  -8.999  0.00  0.00     0.046 H 
ENDBRANCH  17  27
ENDBRANCH   1  10
BRANCH   4  31
ATOM     31  CB  PHE d   1       2.752   0.242  -5.452  0.00  0.00    -0.004 C 
ATOM     32  HB1 PHE d   1       2.630   1.315  -5.604  0.00  0.00     0.034 H 
ATOM     33  HB2 PHE d   1       1.781  -0.248  -5.529  0.00  0.00     0.034 H 
BRANCH  31  34
ATOM     34  CG  PHE d   1       3.334  -0.009  -4.086  0.00  0.00    -0.045 A 
ATOM     35  CD1 PHE d   1       3.550  -1.304  -3.654  0.00  0.00    -0.059 A 
ATOM     36  CE1 PHE d   1       4.088  -1.534  -2.401  0.00  0.00    -0.061 A 
ATOM     37  HD1 PHE d   1       3.301  -2.136  -4.296  0.00  0.00     0.062 H 
ATOM     38  CZ  PHE d   1       4.402  -0.470  -1.577  0.00  0.00    -0.062 A 
ATOM     39  HE1 PHE d   1       4.260  -2.546  -2.065  0.00  0.00     0.062 H 
ATOM     40  CE2 PHE d   1       4.182   0.826  -2.007  0.00  0.00    -0.061 A 
ATOM     41  HZ  PHE d   1       4.820  -0.650  -0.597  0.00  0.00     0.062 H 
ATOM     42  CD2 PHE d   1       3.647   1.056  -3.262  0.00  0.00    -0.059 A 
ATOM     43  HE2 PHE d   1       4.428   1.657  -1.363  0.00  0.00     0.062 H 
ATOM     44  HD2 PHE d   1       3.475   2.068  -3.597  0.00  0.00     0.062 H 
ENDBRANCH  31  34
ENDBRANCH   4  31
TORSDOF 7
ENDMDL
MODEL 7
REMARK VINA RESULT:      -6.9      2.935      5.188
REMARK  5 active torsions:
REMARK  status: ('A' for Active; 'I' for Inactive)
REMARK    1  A    between atoms: C_1  and  C_2 
REMARK    2  A    between atoms: C_9  and  C_12 
REMARK    3  A    between atoms: N_10  and  C_11 
REMARK       I    between atoms: C_12  and  N_14 
REMARK       I    between atoms: N_14  and  CA_15 
REMARK    4  A    between atoms: CA_15  and  CB_17 
REMARK       I    between atoms: CA_15  and  C_24 
REMARK    5  A    between atoms: CB_17  and  CG_18 
ROOT
ATOM      1  C   UNK d   0       9.431   3.125  -3.810  0.00  0.00     0.261 C 
ATOM      2  O   UNK d   0      10.082   2.535  -2.970  0.00  0.00    -0.269 OA
ATOM      3  N   PHE d   1       8.575   2.446  -4.599  0.00  0.00    -0.302 N 
ATOM      4  CA  PHE d   1       8.346   1.017  -4.373  0.00  0.00     0.067 C 
ATOM      5  HA  PHE d   1       8.389   0.807  -3.304  0.00  0.00     0.056 H 
ATOM      6  C   PHE d   1       9.408   0.219  -5.085  0.00  0.00     0.062 C 
ATOM      7  O   PHE d   1      10.276   0.792  -5.722  0.00  0.00    -0.548 OA
ATOM      8  OXT PHE d   1       9.400  -0.998  -5.023  0.00  0.00    -0.548 OA
ATOM      9  H   PHE d   1       8.110   2.904  -5.317  0.00  0.00     0.150 HD
ENDROOT
BRANCH   1  10
ATOM     10  C   UNK d   0       9.577   4.580  -3.964  0.00  0.00     0.105 A 
ATOM     11  C   UNK d   0       9.231   5.294  -5.068  0.00  0.00    -0.024 A 
ATOM     12  C   UNK d   0       9.530   6.654  -4.813  0.00  0.00     0.001 A 
ATOM     13  H   UNK d   0       8.805   4.895  -5.977  0.00  0.00     0.065 H 
ATOM     14  C   UNK d   0      10.067   6.720  -3.513  0.00  0.00     0.049 A 
ATOM     15  C   UNK d   0       9.387   7.828  -5.565  0.00  0.00    -0.050 A 
ATOM     16  C   UNK d   0      10.454   7.953  -2.994  0.00  0.00    -0.037 A 
ATOM     17  N   UNK d   0      10.087   5.440  -3.012  0.00  0.00    -0.339 N 
ATOM     18  C   UNK d   0      10.307   9.091  -3.754  0.00  0.00    -0.057 A 
ATOM     19  H   UNK d   0      10.867   8.015  -1.999  0.00  0.00     0.064 H 
ATOM     20  C   UNK d   0       9.778   9.024  -5.037  0.00  0.00    -0.050 A 
ATOM     21  H   UNK d   0      10.609  10.046  -3.350  0.00  0.00     0.062 H 
ATOM     22  H   UNK d   0       8.972   7.786  -6.561  0.00  0.00     0.063 H 
BRANCH  20  23
ATOM     23  C   UNK d   0       9.629  10.284  -5.850  0.00  0.00    -0.040 C 
ATOM     24  H   UNK d   0       9.351  11.108  -5.194  0.00  0.00     0.028 H 
ATOM     25  H   UNK d   0      10.574  10.512  -6.342  0.00  0.00     0.028 H 
ATOM     26  H   UNK d   0       8.852  10.141  -6.602  0.00  0.00     0.028 H 
ENDBRANCH  20  23
BRANCH  17  27
ATOM     27  C   UNK d   0      10.571   5.051  -1.684  0.00  0.00     0.013 C 
ATOM     28  H   UNK d   0      10.554   5.918  -1.023  0.00  0.00     0.046 H 
ATOM     29  H   UNK d   0       9.928   4.271  -1.278  0.00  0.00     0.046 H 
ATOM     30  H   UNK d   0      11.591   4.676  -1.765  0.00  0.00     0.046 H 
ENDBRANCH  17  27
ENDBRANCH   1  10
BRANCH   4  31
ATOM     31  CB  PHE d   1       6.969   0.628  -4.914  0.00  0.00    -0.004 C 
ATOM     32  HB1 PHE d   1       6.529   1.479  -5.434  0.00  0.00     0.034 H 
ATOM     33  HB2 PHE d   1       7.072  -0.208  -5.605  0.00  0.00     0.034 H 
BRANCH  31  34
ATOM     34  CG  PHE d   1       6.076   0.225  -3.769  0.00  0.00    -0.045 A 
ATOM     35  CD1 PHE d   1       5.540   1.190  -2.937  0.00  0.00    -0.059 A 
ATOM     36  CE1 PHE d   1       4.718   0.820  -1.888  0.00  0.00    -0.061 A 
ATOM     37  HD1 PHE d   1       5.762   2.233  -3.107  0.00  0.00     0.062 H 
ATOM     38  CZ  PHE d   1       4.438  -0.516  -1.668  0.00  0.00    -0.062 A 
ATOM     39  HE1 PHE d   1       4.296   1.574  -1.241  0.00  0.00     0.062 H 
ATOM     40  CE2 PHE d   1       4.978  -1.482  -2.498  0.00  0.00    -0.061 A 
ATOM     41  HZ  PHE d   1       3.797  -0.805  -0.848  0.00  0.00     0.062 H 
ATOM     42  CD2 PHE d   1       5.797  -1.111  -3.548  0.00  0.00    -0.059 A 
ATOM     43  HE2 PHE d   1       4.759  -2.525  -2.325  0.00  0.00     0.062 H 
ATOM     44  HD2 PHE d   1       6.219  -1.865  -4.195  0.00  0.00     0.062 H 
ENDBRANCH  31  34
ENDBRANCH   4  31
TORSDOF 7
ENDMDL
MODEL 8
REMARK VINA RESULT:      -6.8      1.820      2.801
REMARK  5 active torsions:
REMARK  status: ('A' for Active; 'I' for Inactive)
REMARK    1  A    between atoms: C_1  and  C_2 
REMARK    2  A    between atoms: C_9  and  C_12 
REMARK    3  A    between atoms: N_10  and  C_11 
REMARK       I    between atoms: C_12  and  N_14 
REMARK       I    between atoms: N_14  and  CA_15 
REMARK    4  A    between atoms: CA_15  and  CB_17 
REMARK       I    between atoms: CA_15  and  C_24 
REMARK    5  A    between atoms: CB_17  and  CG_18 
ROOT
ATOM      1  C   UNK d   0       7.096   0.285  -6.571  0.00  0.00     0.261 C 
ATOM      2  O   UNK d   0       7.578  -0.812  -6.780  0.00  0.00    -0.269 OA
ATOM      3  N   PHE d   1       5.760   0.424  -6.455  0.00  0.00    -0.302 N 
ATOM      4  CA  PHE d   1       4.897  -0.759  -6.469  0.00  0.00     0.067 C 
ATOM      5  HA  PHE d   1       5.406  -1.587  -5.975  0.00  0.00     0.056 H 
ATOM      6  C   PHE d   1       4.587  -1.138  -7.894  0.00  0.00     0.062 C 
ATOM      7  O   PHE d   1       5.046  -0.481  -8.813  0.00  0.00    -0.548 OA
ATOM      8  OXT PHE d   1       3.879  -2.102  -8.129  0.00  0.00    -0.548 OA
ATOM      9  H   PHE d   1       5.371   1.308  -6.361  0.00  0.00     0.150 HD
ENDROOT
BRANCH   1  10
ATOM     10  C   UNK d   0       7.971   1.460  -6.445  0.00  0.00     0.105 A 
ATOM     11  C   UNK d   0       8.553   2.123  -7.479  0.00  0.00    -0.024 A 
ATOM     12  C   UNK d   0       9.312   3.188  -6.935  0.00  0.00     0.001 A 
ATOM     13  H   UNK d   0       8.456   1.881  -8.526  0.00  0.00     0.065 H 
ATOM     14  C   UNK d   0       9.157   3.130  -5.537  0.00  0.00     0.049 A 
ATOM     15  C   UNK d   0      10.108   4.192  -7.504  0.00  0.00    -0.050 A 
ATOM     16  C   UNK d   0       9.801   4.071  -4.737  0.00  0.00    -0.037 A 
ATOM     17  N   UNK d   0       8.333   2.066  -5.258  0.00  0.00    -0.339 N 
ATOM     18  C   UNK d   0      10.580   5.045  -5.320  0.00  0.00    -0.057 A 
ATOM     19  H   UNK d   0       9.690   4.037  -3.664  0.00  0.00     0.064 H 
ATOM     20  C   UNK d   0      10.733   5.099  -6.700  0.00  0.00    -0.050 A 
ATOM     21  H   UNK d   0      11.080   5.773  -4.698  0.00  0.00     0.062 H 
ATOM     22  H   UNK d   0      10.228   4.245  -8.576  0.00  0.00     0.063 H 
BRANCH  20  23
ATOM     23  C   UNK d   0      11.592   6.174  -7.314  0.00  0.00    -0.040 C 
ATOM     24  H   UNK d   0      12.103   6.725  -6.526  0.00  0.00     0.028 H 
ATOM     25  H   UNK d   0      12.329   5.716  -7.975  0.00  0.00     0.028 H 
ATOM     26  H   UNK d   0      10.965   6.857  -7.887  0.00  0.00     0.028 H 
ENDBRANCH  20  23
BRANCH  17  27
ATOM     27  C   UNK d   0       7.908   1.643  -3.921  0.00  0.00     0.013 C 
ATOM     28  H   UNK d   0       8.575   0.862  -3.557  0.00  0.00     0.046 H 
ATOM     29  H   UNK d   0       7.941   2.495  -3.243  0.00  0.00     0.046 H 
ATOM     30  H   UNK d   0       6.890   1.256  -3.969  0.00  0.00     0.046 H 
ENDBRANCH  17  27
ENDBRANCH   1  10
BRANCH   4  31
ATOM     31  CB  PHE d   1       3.594  -0.449  -5.730  0.00  0.00    -0.004 C 
ATOM     32  HB1 PHE d   1       3.201   0.508  -6.071  0.00  0.00     0.034 H 
ATOM     33  HB2 PHE d   1       2.865  -1.235  -5.932  0.00  0.00     0.034 H 
BRANCH  31  34
ATOM     34  CG  PHE d   1       3.860  -0.383  -4.249  0.00  0.00    -0.045 A 
ATOM     35  CD1 PHE d   1       3.716   0.815  -3.573  0.00  0.00    -0.059 A 
ATOM     36  CE1 PHE d   1       3.957   0.875  -2.213  0.00  0.00    -0.061 A 
ATOM     37  HD1 PHE d   1       3.412   1.703  -4.108  0.00  0.00     0.062 H 
ATOM     38  CZ  PHE d   1       4.350  -0.260  -1.530  0.00  0.00    -0.062 A 
ATOM     39  HE1 PHE d   1       3.840   1.810  -1.685  0.00  0.00     0.062 H 
ATOM     40  CE2 PHE d   1       4.499  -1.457  -2.206  0.00  0.00    -0.061 A 
ATOM     41  HZ  PHE d   1       4.541  -0.213  -0.468  0.00  0.00     0.062 H 
ATOM     42  CD2 PHE d   1       4.254  -1.518  -3.566  0.00  0.00    -0.059 A 
ATOM     43  HE2 PHE d   1       4.806  -2.344  -1.672  0.00  0.00     0.062 H 
ATOM     44  HD2 PHE d   1       4.372  -2.453  -4.094  0.00  0.00     0.062 H 
ENDBRANCH  31  34
ENDBRANCH   4  31
TORSDOF 7
ENDMDL
MODEL 9
REMARK VINA RESULT:      -6.7      2.342      4.182
REMARK  5 active torsions:
REMARK  status: ('A' for Active; 'I' for Inactive)
REMARK    1  A    between atoms: C_1  and  C_2 
REMARK    2  A    between atoms: C_9  and  C_12 
REMARK    3  A    between atoms: N_10  and  C_11 
REMARK       I    between atoms: C_12  and  N_14 
REMARK       I    between atoms: N_14  and  CA_15 
REMARK    4  A    between atoms: CA_15  and  CB_17 
REMARK       I    between atoms: CA_15  and  C_24 
REMARK    5  A    between atoms: CB_17  and  CG_18 
ROOT
ATOM      1  C   UNK d   0       9.278   2.523  -4.719  0.00  0.00     0.261 C 
ATOM      2  O   UNK d   0       9.959   2.140  -3.787  0.00  0.00    -0.269 OA
ATOM      3  N   PHE d   1       8.386   1.689  -5.290  0.00  0.00    -0.302 N 
ATOM      4  CA  PHE d   1       8.158   0.359  -4.720  0.00  0.00     0.067 C 
ATOM      5  HA  PHE d   1       8.243   0.409  -3.634  0.00  0.00     0.056 H 
ATOM      6  C   PHE d   1       9.185  -0.602  -5.260  0.00  0.00     0.062 C 
ATOM      7  O   PHE d   1      10.030  -0.212  -6.048  0.00  0.00    -0.548 OA
ATOM      8  OXT PHE d   1       9.172  -1.770  -4.909  0.00  0.00    -0.548 OA
ATOM      9  H   PHE d   1       7.896   1.970  -6.079  0.00  0.00     0.150 HD
ENDROOT
BRANCH   1  10
ATOM     10  C   UNK d   0       9.427   3.897  -5.222  0.00  0.00     0.105 A 
ATOM     11  C   UNK d   0       9.177   5.027  -4.510  0.00  0.00    -0.024 A 
ATOM     12  C   UNK d   0       9.441   6.134  -5.353  0.00  0.00     0.001 A 
ATOM     13  H   UNK d   0       8.838   5.074  -3.486  0.00  0.00     0.065 H 
ATOM     14  C   UNK d   0       9.858   5.615  -6.594  0.00  0.00     0.049 A 
ATOM     15  C   UNK d   0       9.369   7.522  -5.171  0.00  0.00    -0.050 A 
ATOM     16  C   UNK d   0      10.188   6.489  -7.626  0.00  0.00    -0.037 A 
ATOM     17  N   UNK d   0       9.842   4.244  -6.493  0.00  0.00    -0.339 N 
ATOM     18  C   UNK d   0      10.104   7.849  -7.423  0.00  0.00    -0.057 A 
ATOM     19  H   UNK d   0      10.509   6.103  -8.582  0.00  0.00     0.064 H 
ATOM     20  C   UNK d   0       9.692   8.359  -6.199  0.00  0.00    -0.050 A 
ATOM     21  H   UNK d   0      10.361   8.526  -8.225  0.00  0.00     0.062 H 
ATOM     22  H   UNK d   0       9.054   7.927  -4.221  0.00  0.00     0.063 H 
BRANCH  20  23
ATOM     23  C   UNK d   0       9.607   9.851  -6.001  0.00  0.00    -0.040 C 
ATOM     24  H   UNK d   0       8.836  10.076  -5.266  0.00  0.00     0.028 H 
ATOM     25  H   UNK d   0      10.569  10.225  -5.648  0.00  0.00     0.028 H 
ATOM     26  H   UNK d   0       9.356  10.328  -6.949  0.00  0.00     0.028 H 
ENDBRANCH  20  23
BRANCH  17  27
ATOM     27  C   UNK d   0      10.205   3.305  -7.557  0.00  0.00     0.013 C 
ATOM     28  H   UNK d   0      11.202   2.907  -7.366  0.00  0.00     0.046 H 
ATOM     29  H   UNK d   0       9.486   2.487  -7.581  0.00  0.00     0.046 H 
ATOM     30  H   UNK d   0      10.199   3.823  -8.516  0.00  0.00     0.046 H 
ENDBRANCH  17  27
ENDBRANCH   1  10
BRANCH   4  31
ATOM     31  CB  PHE d   1       6.757  -0.125  -5.100  0.00  0.00    -0.004 C 
ATOM     32  HB1 PHE d   1       6.303   0.582  -5.793  0.00  0.00     0.034 H 
ATOM     33  HB2 PHE d   1       6.827  -1.105  -5.573  0.00  0.00     0.034 H 
BRANCH  31  34
ATOM     34  CG  PHE d   1       5.908  -0.228  -3.859  0.00  0.00    -0.045 A 
ATOM     35  CD1 PHE d   1       5.430  -1.458  -3.449  0.00  0.00    -0.059 A 
ATOM     36  CE1 PHE d   1       4.654  -1.553  -2.309  0.00  0.00    -0.061 A 
ATOM     37  HD1 PHE d   1       5.664  -2.345  -4.018  0.00  0.00     0.062 H 
ATOM     38  CZ  PHE d   1       4.351  -0.416  -1.582  0.00  0.00    -0.062 A 
ATOM     39  HE1 PHE d   1       4.283  -2.514  -1.986  0.00  0.00     0.062 H 
ATOM     40  CE2 PHE d   1       4.825   0.815  -1.996  0.00  0.00    -0.061 A 
ATOM     41  HZ  PHE d   1       3.742  -0.490  -0.693  0.00  0.00     0.062 H 
ATOM     42  CD2 PHE d   1       5.604   0.909  -3.134  0.00  0.00    -0.059 A 
ATOM     43  HE2 PHE d   1       4.588   1.703  -1.428  0.00  0.00     0.062 H 
ATOM     44  HD2 PHE d   1       5.975   1.871  -3.456  0.00  0.00     0.062 H 
ENDBRANCH  31  34
ENDBRANCH   4  31
TORSDOF 7
ENDMDL
MODEL 10
REMARK VINA RESULT:      -6.7      1.917      3.150
REMARK  5 active torsions:
REMARK  status: ('A' for Active; 'I' for Inactive)
REMARK    1  A    between atoms: C_1  and  C_2 
REMARK    2  A    between atoms: C_9  and  C_12 
REMARK    3  A    between atoms: N_10  and  C_11 
REMARK       I    between atoms: C_12  and  N_14 
REMARK       I    between atoms: N_14  and  CA_15 
REMARK    4  A    between atoms: CA_15  and  CB_17 
REMARK       I    between atoms: CA_15  and  C_24 
REMARK    5  A    between atoms: CB_17  and  CG_18 
ROOT
ATOM      1  C   UNK d   0       7.992   0.692  -5.724  0.00  0.00     0.261 C 
ATOM      2  O   UNK d   0       8.640  -0.337  -5.761  0.00  0.00    -0.269 OA
ATOM      3  N   PHE d   1       6.709   0.696  -6.138  0.00  0.00    -0.302 N 
ATOM      4  CA  PHE d   1       6.061  -0.558  -6.528  0.00  0.00     0.067 C 
ATOM      5  HA  PHE d   1       6.430  -1.369  -5.900  0.00  0.00     0.056 H 
ATOM      6  C   PHE d   1       6.374  -0.858  -7.971  0.00  0.00     0.062 C 
ATOM      7  O   PHE d   1       7.074  -0.095  -8.615  0.00  0.00    -0.548 OA
ATOM      8  OXT PHE d   1       5.927  -1.864  -8.496  0.00  0.00    -0.548 OA
ATOM      9  H   PHE d   1       6.215   1.530  -6.177  0.00  0.00     0.150 HD
ENDROOT
BRANCH   1  10
ATOM     10  C   UNK d   0       8.609   1.931  -5.227  0.00  0.00     0.105 A 
ATOM     11  C   UNK d   0       8.762   2.264  -3.919  0.00  0.00    -0.024 A 
ATOM     12  C   UNK d   0       9.396   3.529  -3.868  0.00  0.00     0.001 A 
ATOM     13  H   UNK d   0       8.454   1.671  -3.070  0.00  0.00     0.065 H 
ATOM     14  C   UNK d   0       9.613   3.933  -5.199  0.00  0.00     0.049 A 
ATOM     15  C   UNK d   0       9.806   4.358  -2.815  0.00  0.00    -0.050 A 
ATOM     16  C   UNK d   0      10.230   5.156  -5.451  0.00  0.00    -0.037 A 
ATOM     17  N   UNK d   0       9.124   2.941  -6.015  0.00  0.00    -0.339 N 
ATOM     18  C   UNK d   0      10.620   5.955  -4.399  0.00  0.00    -0.057 A 
ATOM     19  H   UNK d   0      10.402   5.477  -6.467  0.00  0.00     0.064 H 
ATOM     20  C   UNK d   0      10.404   5.555  -3.087  0.00  0.00    -0.050 A 
ATOM     21  H   UNK d   0      11.098   6.903  -4.597  0.00  0.00     0.062 H 
ATOM     22  H   UNK d   0       9.647   4.053  -1.792  0.00  0.00     0.063 H 
BRANCH  20  23
ATOM     23  C   UNK d   0      10.839   6.446  -1.953  0.00  0.00    -0.040 C 
ATOM     24  H   UNK d   0      11.095   7.431  -2.343  0.00  0.00     0.028 H 
ATOM     25  H   UNK d   0      10.026   6.540  -1.233  0.00  0.00     0.028 H 
ATOM     26  H   UNK d   0      11.711   6.012  -1.463  0.00  0.00     0.028 H 
ENDBRANCH  20  23
BRANCH  17  27
ATOM     27  C   UNK d   0       9.145   2.953  -7.480  0.00  0.00     0.013 C 
ATOM     28  H   UNK d   0       8.324   3.566  -7.850  0.00  0.00     0.046 H 
ATOM     29  H   UNK d   0      10.092   3.366  -7.826  0.00  0.00     0.046 H 
ATOM     30  H   UNK d   0       9.035   1.935  -7.853  0.00  0.00     0.046 H 
ENDBRANCH  17  27
ENDBRANCH   1  10
BRANCH   4  31
ATOM     31  CB  PHE d   1       4.547  -0.426  -6.352  0.00  0.00    -0.004 C 
ATOM     32  HB1 PHE d   1       4.257   0.618  -6.465  0.00  0.00     0.034 H 
ATOM     33  HB2 PHE d   1       4.039  -1.029  -7.106  0.00  0.00     0.034 H 
BRANCH  31  34
ATOM     34  CG  PHE d   1       4.158  -0.909  -4.979  0.00  0.00    -0.045 A 
ATOM     35  CD1 PHE d   1       3.188  -0.236  -4.259  0.00  0.00    -0.059 A 
ATOM     36  CE1 PHE d   1       2.829  -0.682  -3.000  0.00  0.00    -0.061 A 
ATOM     37  HD1 PHE d   1       2.711   0.635  -4.680  0.00  0.00     0.062 H 
ATOM     38  CZ  PHE d   1       3.443  -1.795  -2.459  0.00  0.00    -0.062 A 
ATOM     39  HE1 PHE d   1       2.068  -0.159  -2.439  0.00  0.00     0.062 H 
ATOM     40  CE2 PHE d   1       4.417  -2.465  -3.177  0.00  0.00    -0.061 A 
ATOM     41  HZ  PHE d   1       3.164  -2.141  -1.474  0.00  0.00     0.062 H 
ATOM     42  CD2 PHE d   1       4.773  -2.022  -4.437  0.00  0.00    -0.059 A 
ATOM     43  HE2 PHE d   1       4.897  -3.335  -2.754  0.00  0.00     0.062 H 
ATOM     44  HD2 PHE d   1       5.534  -2.545  -4.998  0.00  0.00     0.062 H 
ENDBRANCH  31  34
ENDBRANCH   4  31
TORSDOF 7
ENDMDL
