MODEL 1
REMARK VINA RESULT:      -6.5      0.000      0.000
REMARK  2 active torsions:
REMARK  status: ('A' for Active; 'I' for Inactive)
REMARK    1  A    between atoms: N_13  and  C_16 
REMARK    2  A    between atoms: C_16  and  C_17 
ROOT
ATOM      1  C   LIG d   1       4.684   0.322  -2.069  0.00  0.00    -0.061 A 
ATOM      2  C   LIG d   1       4.390  -0.955  -1.614  0.00  0.00    -0.060 A 
ATOM      3  C   LIG d   1       4.178  -1.986  -2.503  0.00  0.00    -0.038 A 
ATOM      4  C   LIG d   1       4.260  -1.747  -3.873  0.00  0.00     0.049 A 
ATOM      5  C   LIG d   1       4.560  -0.451  -4.327  0.00  0.00     0.026 A 
ATOM      6  C   LIG d   1       4.771   0.578  -3.409  0.00  0.00    -0.051 A 
ATOM      7  C   LIG d   1       4.577  -0.518  -5.795  0.00  0.00     0.103 A 
ATOM      8  C   LIG d   1       4.289  -1.839  -6.133  0.00  0.00     0.131 A 
ATOM      9  N   LIG d   1       4.102  -2.563  -4.972  0.00  0.00    -0.349 N 
ATOM     10  H   LIG d   1       3.889  -3.510  -4.936  0.00  0.00     0.166 HD
ATOM     11  C   LIG d   1       4.241  -2.182  -7.505  0.00  0.00     0.278 A 
ATOM     12  O   LIG d   1       3.993  -3.324  -7.853  0.00  0.00    -0.265 OA
ATOM     13  N   LIG d   1       4.477  -1.216  -8.418  0.00  0.00    -0.295 N 
ATOM     14  C   LIG d   1       4.757   0.051  -8.022  0.00  0.00     0.099 A 
ATOM     15  N   LIG d   1       4.799   0.386  -6.764  0.00  0.00    -0.235 NA
ATOM     16  H   LIG d   1       4.848   1.121  -1.360  0.00  0.00     0.062 H 
ATOM     17  H   LIG d   1       4.325  -1.143  -0.552  0.00  0.00     0.062 H 
ATOM     18  H   LIG d   1       3.948  -2.976  -2.139  0.00  0.00     0.064 H 
ATOM     19  H   LIG d   1       5.001   1.574  -3.755  0.00  0.00     0.062 H 
ATOM     20  H   LIG d   1       4.946   0.805  -8.773  0.00  0.00     0.103 H 
ENDROOT
BRANCH  13  21
ATOM     21  C   LIG d   1       4.435  -1.541  -9.846  0.00  0.00     0.054 C 
ATOM     22  H   LIG d   1       5.404  -1.322 -10.297  0.00  0.00     0.052 H 
ATOM     23  H   LIG d   1       4.206  -2.599  -9.972  0.00  0.00     0.052 H 
BRANCH  21  24
ATOM     24  C   LIG d   1       3.354  -0.700 -10.529  0.00  0.00     0.077 C 
ATOM     25  H   LIG d   1       3.453   0.343 -10.229  0.00  0.00     0.061 H 
ATOM     26  O   LIG d   1       3.479  -0.811 -11.952  0.00  0.00    -0.375 OA
ATOM     27  C   LIG d   1       2.293  -1.405 -12.504  0.00  0.00     0.048 C 
ATOM     28  C   LIG d   1       1.174  -1.103 -11.476  0.00  0.00    -0.027 C 
ATOM     29  H   LIG d   1       2.056  -0.951 -13.466  0.00  0.00     0.056 H 
ATOM     30  H   LIG d   1       2.426  -2.481 -12.616  0.00  0.00     0.056 H 
ATOM     31  C   LIG d   1       1.957  -1.229 -10.139  0.00  0.00    -0.023 C 
ATOM     32  H   LIG d   1       0.781  -0.094 -11.608  0.00  0.00     0.029 H 
ATOM     33  H   LIG d   1       0.375  -1.842 -11.536  0.00  0.00     0.029 H 
ATOM     34  H   LIG d   1       2.011  -2.269  -9.818  0.00  0.00     0.029 H 
ATOM     35  H   LIG d   1       1.508  -0.605  -9.365  0.00  0.00     0.029 H 
ENDBRANCH  21  24
ENDBRANCH  13  21
TORSDOF 2
ENDMDL
MODEL 2
REMARK VINA RESULT:      -6.4      1.606      2.316
REMARK  2 active torsions:
REMARK  status: ('A' for Active; 'I' for Inactive)
REMARK    1  A    between atoms: N_13  and  C_16 
REMARK    2  A    between atoms: C_16  and  C_17 
ROOT
ATOM      1  C   LIG d   1       4.617  -1.734  -2.356  0.00  0.00    -0.061 A 
ATOM      2  C   LIG d   1       4.070  -0.555  -1.871  0.00  0.00    -0.060 A 
ATOM      3  C   LIG d   1       3.559   0.389  -2.733  0.00  0.00    -0.038 A 
ATOM      4  C   LIG d   1       3.588   0.161  -4.107  0.00  0.00     0.049 A 
ATOM      5  C   LIG d   1       4.142  -1.036  -4.593  0.00  0.00     0.026 A 
ATOM      6  C   LIG d   1       4.655  -1.979  -3.700  0.00  0.00    -0.051 A 
ATOM      7  C   LIG d   1       4.029  -0.984  -6.056  0.00  0.00     0.103 A 
ATOM      8  C   LIG d   1       3.419   0.230  -6.362  0.00  0.00     0.131 A 
ATOM      9  N   LIG d   1       3.160   0.906  -5.185  0.00  0.00    -0.349 N 
ATOM     10  H   LIG d   1       2.739   1.778  -5.126  0.00  0.00     0.166 HD
ATOM     11  C   LIG d   1       3.188   0.538  -7.723  0.00  0.00     0.278 A 
ATOM     12  O   LIG d   1       2.657   1.588  -8.044  0.00  0.00    -0.265 OA
ATOM     13  N   LIG d   1       3.568  -0.358  -8.659  0.00  0.00    -0.295 N 
ATOM     14  C   LIG d   1       4.153  -1.527  -8.294  0.00  0.00     0.099 A 
ATOM     15  N   LIG d   1       4.379  -1.824  -7.046  0.00  0.00    -0.235 NA
ATOM     16  H   LIG d   1       5.014  -2.466  -1.667  0.00  0.00     0.062 H 
ATOM     17  H   LIG d   1       4.046  -0.374  -0.806  0.00  0.00     0.062 H 
ATOM     18  H   LIG d   1       3.137   1.304  -2.346  0.00  0.00     0.064 H 
ATOM     19  H   LIG d   1       5.080  -2.899  -4.070  0.00  0.00     0.062 H 
ATOM     20  H   LIG d   1       4.445  -2.228  -9.062  0.00  0.00     0.103 H 
ENDROOT
BRANCH  13  21
ATOM     21  C   LIG d   1       3.341  -0.069 -10.077  0.00  0.00     0.054 C 
ATOM     22  H   LIG d   1       2.570   0.695 -10.174  0.00  0.00     0.052 H 
ATOM     23  H   LIG d   1       4.267   0.290 -10.527  0.00  0.00     0.052 H 
BRANCH  21  24
ATOM     24  C   LIG d   1       2.888  -1.344 -10.792  0.00  0.00     0.077 C 
ATOM     25  H   LIG d   1       3.389  -2.209 -10.357  0.00  0.00     0.061 H 
ATOM     26  O   LIG d   1       1.468  -1.491 -10.668  0.00  0.00    -0.375 OA
ATOM     27  C   LIG d   1       0.857  -1.456 -11.968  0.00  0.00     0.048 C 
ATOM     28  C   LIG d   1       1.970  -1.899 -12.951  0.00  0.00    -0.027 C 
ATOM     29  H   LIG d   1       0.018  -2.149 -12.010  0.00  0.00     0.056 H 
ATOM     30  H   LIG d   1       0.523  -0.444 -12.202  0.00  0.00     0.056 H 
ATOM     31  C   LIG d   1       3.220  -1.247 -12.296  0.00  0.00    -0.023 C 
ATOM     32  H   LIG d   1       2.062  -2.985 -12.976  0.00  0.00     0.029 H 
ATOM     33  H   LIG d   1       1.795  -1.499 -13.949  0.00  0.00     0.029 H 
ATOM     34  H   LIG d   1       3.321  -0.207 -12.605  0.00  0.00     0.029 H 
ATOM     35  H   LIG d   1       4.122  -1.812 -12.532  0.00  0.00     0.029 H 
ENDBRANCH  21  24
ENDBRANCH  13  21
TORSDOF 2
ENDMDL
MODEL 3
REMARK VINA RESULT:      -6.3      4.458      5.955
REMARK  2 active torsions:
REMARK  status: ('A' for Active; 'I' for Inactive)
REMARK    1  A    between atoms: N_13  and  C_16 
REMARK    2  A    between atoms: C_16  and  C_17 
ROOT
ATOM      1  C   LIG d   1       5.000   1.011  -2.190  0.00  0.00    -0.061 A 
ATOM      2  C   LIG d   1       3.619   0.892  -2.266  0.00  0.00    -0.060 A 
ATOM      3  C   LIG d   1       3.042  -0.185  -2.900  0.00  0.00    -0.038 A 
ATOM      4  C   LIG d   1       3.848  -1.168  -3.471  0.00  0.00     0.049 A 
ATOM      5  C   LIG d   1       5.246  -1.042  -3.389  0.00  0.00     0.026 A 
ATOM      6  C   LIG d   1       5.809   0.059  -2.742  0.00  0.00    -0.051 A 
ATOM      7  C   LIG d   1       5.810  -2.214  -4.072  0.00  0.00     0.103 A 
ATOM      8  C   LIG d   1       4.728  -2.969  -4.519  0.00  0.00     0.131 A 
ATOM      9  N   LIG d   1       3.559  -2.331  -4.152  0.00  0.00    -0.349 N 
ATOM     10  H   LIG d   1       2.665  -2.654  -4.346  0.00  0.00     0.166 HD
ATOM     11  C   LIG d   1       4.993  -4.169  -5.220  0.00  0.00     0.278 A 
ATOM     12  O   LIG d   1       4.082  -4.866  -5.632  0.00  0.00    -0.265 OA
ATOM     13  N   LIG d   1       6.281  -4.524  -5.421  0.00  0.00    -0.295 N 
ATOM     14  C   LIG d   1       7.290  -3.746  -4.954  0.00  0.00     0.099 A 
ATOM     15  N   LIG d   1       7.063  -2.636  -4.312  0.00  0.00    -0.235 NA
ATOM     16  H   LIG d   1       5.439   1.862  -1.690  0.00  0.00     0.062 H 
ATOM     17  H   LIG d   1       2.992   1.652  -1.825  0.00  0.00     0.062 H 
ATOM     18  H   LIG d   1       1.967  -0.268  -2.954  0.00  0.00     0.064 H 
ATOM     19  H   LIG d   1       6.882   0.157  -2.679  0.00  0.00     0.062 H 
ATOM     20  H   LIG d   1       8.311  -4.055  -5.125  0.00  0.00     0.103 H 
ENDROOT
BRANCH  13  21
ATOM     21  C   LIG d   1       6.589  -5.762  -6.142  0.00  0.00     0.054 C 
ATOM     22  H   LIG d   1       5.718  -6.074  -6.717  0.00  0.00     0.052 H 
ATOM     23  H   LIG d   1       7.428  -5.589  -6.817  0.00  0.00     0.052 H 
BRANCH  21  24
ATOM     24  C   LIG d   1       6.958  -6.858  -5.140  0.00  0.00     0.077 C 
ATOM     25  H   LIG d   1       7.114  -6.420  -4.154  0.00  0.00     0.061 H 
ATOM     26  O   LIG d   1       5.909  -7.832  -5.079  0.00  0.00    -0.375 OA
ATOM     27  C   LIG d   1       6.404  -9.113  -5.503  0.00  0.00     0.048 C 
ATOM     28  C   LIG d   1       7.931  -9.061  -5.248  0.00  0.00    -0.027 C 
ATOM     29  H   LIG d   1       5.949  -9.908  -4.914  0.00  0.00     0.056 H 
ATOM     30  H   LIG d   1       6.200  -9.264  -6.564  0.00  0.00     0.056 H 
ATOM     31  C   LIG d   1       8.242  -7.580  -5.603  0.00  0.00    -0.023 C 
ATOM     32  H   LIG d   1       8.162  -9.270  -4.203  0.00  0.00     0.029 H 
ATOM     33  H   LIG d   1       8.464  -9.744  -5.909  0.00  0.00     0.029 H 
ATOM     34  H   LIG d   1       8.388  -7.462  -6.677  0.00  0.00     0.029 H 
ATOM     35  H   LIG d   1       9.110  -7.220  -5.050  0.00  0.00     0.029 H 
ENDBRANCH  21  24
ENDBRANCH  13  21
TORSDOF 2
ENDMDL
MODEL 4
REMARK VINA RESULT:      -5.8      1.783      6.875
REMARK  2 active torsions:
REMARK  status: ('A' for Active; 'I' for Inactive)
REMARK    1  A    between atoms: N_13  and  C_16 
REMARK    2  A    between atoms: C_16  and  C_17 
ROOT
ATOM      1  C   LIG d   1       0.723  -1.532 -12.002  0.00  0.00    -0.061 A 
ATOM      2  C   LIG d   1       1.087  -2.839 -12.295  0.00  0.00    -0.060 A 
ATOM      3  C   LIG d   1       1.962  -3.523 -11.481  0.00  0.00    -0.038 A 
ATOM      4  C   LIG d   1       2.487  -2.901 -10.350  0.00  0.00     0.049 A 
ATOM      5  C   LIG d   1       2.112  -1.577 -10.058  0.00  0.00     0.026 A 
ATOM      6  C   LIG d   1       1.224  -0.904 -10.898  0.00  0.00    -0.051 A 
ATOM      7  C   LIG d   1       2.819  -1.207  -8.825  0.00  0.00     0.103 A 
ATOM      8  C   LIG d   1       3.570  -2.319  -8.451  0.00  0.00     0.131 A 
ATOM      9  N   LIG d   1       3.362  -3.326  -9.373  0.00  0.00    -0.349 N 
ATOM     10  H   LIG d   1       3.771  -4.205  -9.338  0.00  0.00     0.166 HD
ATOM     11  C   LIG d   1       4.358  -2.231  -7.279  0.00  0.00     0.278 A 
ATOM     12  O   LIG d   1       5.034  -3.177  -6.909  0.00  0.00    -0.265 OA
ATOM     13  N   LIG d   1       4.344  -1.076  -6.580  0.00  0.00    -0.295 N 
ATOM     14  C   LIG d   1       3.585  -0.030  -6.996  0.00  0.00     0.099 A 
ATOM     15  N   LIG d   1       2.859  -0.092  -8.075  0.00  0.00    -0.235 NA
ATOM     16  H   LIG d   1       0.035  -1.008 -12.651  0.00  0.00     0.062 H 
ATOM     17  H   LIG d   1       0.683  -3.324 -13.171  0.00  0.00     0.062 H 
ATOM     18  H   LIG d   1       2.241  -4.539 -11.718  0.00  0.00     0.064 H 
ATOM     19  H   LIG d   1       0.935   0.112 -10.675  0.00  0.00     0.062 H 
ATOM     20  H   LIG d   1       3.588   0.882  -6.417  0.00  0.00     0.103 H 
ENDROOT
BRANCH  13  21
ATOM     21  C   LIG d   1       5.148  -0.953  -5.362  0.00  0.00     0.054 C 
ATOM     22  H   LIG d   1       5.677  -1.889  -5.180  0.00  0.00     0.052 H 
ATOM     23  H   LIG d   1       5.869  -0.145  -5.483  0.00  0.00     0.052 H 
BRANCH  21  24
ATOM     24  C   LIG d   1       4.232  -0.646  -4.175  0.00  0.00     0.077 C 
ATOM     25  H   LIG d   1       3.520   0.132  -4.449  0.00  0.00     0.061 H 
ATOM     26  O   LIG d   1       3.530  -1.832  -3.784  0.00  0.00    -0.375 OA
ATOM     27  C   LIG d   1       3.886  -2.191  -2.439  0.00  0.00     0.048 C 
ATOM     28  C   LIG d   1       4.353  -0.870  -1.778  0.00  0.00    -0.027 C 
ATOM     29  H   LIG d   1       3.020  -2.591  -1.913  0.00  0.00     0.056 H 
ATOM     30  H   LIG d   1       4.696  -2.921  -2.444  0.00  0.00     0.056 H 
ATOM     31  C   LIG d   1       5.077  -0.182  -2.969  0.00  0.00    -0.023 C 
ATOM     32  H   LIG d   1       3.502  -0.277  -1.440  0.00  0.00     0.029 H 
ATOM     33  H   LIG d   1       5.043  -1.064  -0.957  0.00  0.00     0.029 H 
ATOM     34  H   LIG d   1       6.104  -0.536  -3.055  0.00  0.00     0.029 H 
ATOM     35  H   LIG d   1       5.046   0.904  -2.868  0.00  0.00     0.029 H 
ENDBRANCH  21  24
ENDBRANCH  13  21
TORSDOF 2
ENDMDL
MODEL 5
REMARK VINA RESULT:      -5.5      7.689      9.516
REMARK  2 active torsions:
REMARK  status: ('A' for Active; 'I' for Inactive)
REMARK    1  A    between atoms: N_13  and  C_16 
REMARK    2  A    between atoms: C_16  and  C_17 
ROOT
ATOM      1  C   LIG d   1      10.457   8.989  -0.138  0.00  0.00    -0.061 A 
ATOM      2  C   LIG d   1      11.093   8.286   0.876  0.00  0.00    -0.060 A 
ATOM      3  C   LIG d   1      11.332   6.936   0.751  0.00  0.00    -0.038 A 
ATOM      4  C   LIG d   1      10.933   6.265  -0.404  0.00  0.00     0.049 A 
ATOM      5  C   LIG d   1      10.290   6.984  -1.427  0.00  0.00     0.026 A 
ATOM      6  C   LIG d   1      10.059   8.352  -1.279  0.00  0.00    -0.051 A 
ATOM      7  C   LIG d   1       9.999   6.017  -2.494  0.00  0.00     0.103 A 
ATOM      8  C   LIG d   1      10.479   4.786  -2.053  0.00  0.00     0.131 A 
ATOM      9  N   LIG d   1      11.036   4.949  -0.800  0.00  0.00    -0.349 N 
ATOM     10  H   LIG d   1      11.441   4.241  -0.275  0.00  0.00     0.166 HD
ATOM     11  C   LIG d   1      10.324   3.664  -2.903  0.00  0.00     0.278 A 
ATOM     12  O   LIG d   1      10.727   2.565  -2.563  0.00  0.00    -0.265 OA
ATOM     13  N   LIG d   1       9.721   3.842  -4.097  0.00  0.00    -0.295 N 
ATOM     14  C   LIG d   1       9.279   5.070  -4.470  0.00  0.00     0.099 A 
ATOM     15  N   LIG d   1       9.408   6.111  -3.698  0.00  0.00    -0.235 NA
ATOM     16  H   LIG d   1      10.277  10.049  -0.025  0.00  0.00     0.062 H 
ATOM     17  H   LIG d   1      11.403   8.803   1.772  0.00  0.00     0.062 H 
ATOM     18  H   LIG d   1      11.826   6.397   1.546  0.00  0.00     0.064 H 
ATOM     19  H   LIG d   1       9.566   8.905  -2.063  0.00  0.00     0.062 H 
ATOM     20  H   LIG d   1       8.803   5.185  -5.432  0.00  0.00     0.103 H 
ENDROOT
BRANCH  13  21
ATOM     21  C   LIG d   1       9.546   2.701  -5.000  0.00  0.00     0.054 C 
ATOM     22  H   LIG d   1       9.821   2.993  -6.013  0.00  0.00     0.052 H 
ATOM     23  H   LIG d   1      10.183   1.879  -4.673  0.00  0.00     0.052 H 
BRANCH  21  24
ATOM     24  C   LIG d   1       8.083   2.252  -4.978  0.00  0.00     0.077 C 
ATOM     25  H   LIG d   1       7.445   3.087  -4.687  0.00  0.00     0.061 H 
ATOM     26  O   LIG d   1       7.701   1.778  -6.274  0.00  0.00    -0.375 OA
ATOM     27  C   LIG d   1       7.334   0.391  -6.200  0.00  0.00     0.048 C 
ATOM     28  C   LIG d   1       6.904   0.164  -4.729  0.00  0.00    -0.027 C 
ATOM     29  H   LIG d   1       6.503   0.183  -6.873  0.00  0.00     0.056 H 
ATOM     30  H   LIG d   1       8.188  -0.241  -6.449  0.00  0.00     0.056 H 
ATOM     31  C   LIG d   1       7.908   1.086  -3.981  0.00  0.00    -0.023 C 
ATOM     32  H   LIG d   1       5.876   0.489  -4.566  0.00  0.00     0.029 H 
ATOM     33  H   LIG d   1       7.035  -0.878  -4.438  0.00  0.00     0.029 H 
ATOM     34  H   LIG d   1       8.854   0.573  -3.815  0.00  0.00     0.029 H 
ATOM     35  H   LIG d   1       7.485   1.440  -3.041  0.00  0.00     0.029 H 
ENDBRANCH  21  24
ENDBRANCH  13  21
TORSDOF 2
ENDMDL
MODEL 6
REMARK VINA RESULT:      -5.4     11.086     14.194
REMARK  2 active torsions:
REMARK  status: ('A' for Active; 'I' for Inactive)
REMARK    1  A    between atoms: N_13  and  C_16 
REMARK    2  A    between atoms: C_16  and  C_17 
ROOT
ATOM      1  C   LIG d   1       9.342   4.548  -4.837  0.00  0.00    -0.061 A 
ATOM      2  C   LIG d   1       9.754   3.323  -4.333  0.00  0.00    -0.060 A 
ATOM      3  C   LIG d   1      10.302   3.231  -3.073  0.00  0.00    -0.038 A 
ATOM      4  C   LIG d   1      10.444   4.377  -2.293  0.00  0.00     0.049 A 
ATOM      5  C   LIG d   1      10.022   5.615  -2.809  0.00  0.00     0.026 A 
ATOM      6  C   LIG d   1       9.470   5.684  -4.089  0.00  0.00    -0.051 A 
ATOM      7  C   LIG d   1      10.298   6.615  -1.769  0.00  0.00     0.103 A 
ATOM      8  C   LIG d   1      10.862   5.926  -0.698  0.00  0.00     0.131 A 
ATOM      9  N   LIG d   1      10.944   4.586  -1.026  0.00  0.00    -0.349 N 
ATOM     10  H   LIG d   1      11.301   3.893  -0.448  0.00  0.00     0.166 HD
ATOM     11  C   LIG d   1      11.228   6.662   0.453  0.00  0.00     0.278 A 
ATOM     12  O   LIG d   1      11.727   6.106   1.417  0.00  0.00    -0.265 OA
ATOM     13  N   LIG d   1      11.012   7.995   0.459  0.00  0.00    -0.295 N 
ATOM     14  C   LIG d   1      10.452   8.606  -0.616  0.00  0.00     0.099 A 
ATOM     15  N   LIG d   1      10.115   7.944  -1.686  0.00  0.00    -0.235 NA
ATOM     16  H   LIG d   1       8.914   4.605  -5.828  0.00  0.00     0.062 H 
ATOM     17  H   LIG d   1       9.646   2.433  -4.935  0.00  0.00     0.062 H 
ATOM     18  H   LIG d   1      10.621   2.273  -2.690  0.00  0.00     0.064 H 
ATOM     19  H   LIG d   1       9.146   6.634  -4.487  0.00  0.00     0.062 H 
ATOM     20  H   LIG d   1      10.287   9.673  -0.585  0.00  0.00     0.103 H 
ENDROOT
BRANCH  13  21
ATOM     21  C   LIG d   1      11.379   8.786   1.636  0.00  0.00     0.054 C 
ATOM     22  H   LIG d   1      10.487   8.992   2.228  0.00  0.00     0.052 H 
ATOM     23  H   LIG d   1      12.095   8.228   2.239  0.00  0.00     0.052 H 
BRANCH  21  24
ATOM     24  C   LIG d   1      12.009  10.106   1.188  0.00  0.00     0.077 C 
ATOM     25  H   LIG d   1      11.598  10.403   0.223  0.00  0.00     0.061 H 
ATOM     26  O   LIG d   1      11.747  11.124   2.161  0.00  0.00    -0.375 OA
ATOM     27  C   LIG d   1      12.983  11.602   2.716  0.00  0.00     0.048 C 
ATOM     28  C   LIG d   1      14.054  11.302   1.637  0.00  0.00    -0.027 C 
ATOM     29  H   LIG d   1      12.925  12.674   2.903  0.00  0.00     0.056 H 
ATOM     30  H   LIG d   1      13.214  11.070   3.639  0.00  0.00     0.056 H 
ATOM     31  C   LIG d   1      13.541   9.945   1.079  0.00  0.00    -0.023 C 
ATOM     32  H   LIG d   1      14.056  12.069   0.862  0.00  0.00     0.029 H 
ATOM     33  H   LIG d   1      15.043  11.196   2.083  0.00  0.00     0.029 H 
ATOM     34  H   LIG d   1      13.889   9.117   1.696  0.00  0.00     0.029 H 
ATOM     35  H   LIG d   1      13.844   9.811   0.040  0.00  0.00     0.029 H 
ENDBRANCH  21  24
ENDBRANCH  13  21
TORSDOF 2
ENDMDL
MODEL 7
REMARK VINA RESULT:      -5.4      3.565      6.813
REMARK  2 active torsions:
REMARK  status: ('A' for Active; 'I' for Inactive)
REMARK    1  A    between atoms: N_13  and  C_16 
REMARK    2  A    between atoms: C_16  and  C_17 
ROOT
ATOM      1  C   LIG d   1       4.641  -8.660  -6.808  0.00  0.00    -0.061 A 
ATOM      2  C   LIG d   1       4.311  -8.537  -8.151  0.00  0.00    -0.060 A 
ATOM      3  C   LIG d   1       4.099  -7.297  -8.711  0.00  0.00    -0.038 A 
ATOM      4  C   LIG d   1       4.216  -6.152  -7.925  0.00  0.00     0.049 A 
ATOM      5  C   LIG d   1       4.551  -6.284  -6.566  0.00  0.00     0.026 A 
ATOM      6  C   LIG d   1       4.762  -7.551  -6.020  0.00  0.00    -0.051 A 
ATOM      7  C   LIG d   1       4.599  -4.923  -6.016  0.00  0.00     0.103 A 
ATOM      8  C   LIG d   1       4.292  -4.061  -7.067  0.00  0.00     0.131 A 
ATOM      9  N   LIG d   1       4.065  -4.811  -8.204  0.00  0.00    -0.349 N 
ATOM     10  H   LIG d   1       3.834  -4.446  -9.073  0.00  0.00     0.166 HD
ATOM     11  C   LIG d   1       4.268  -2.671  -6.806  0.00  0.00     0.278 A 
ATOM     12  O   LIG d   1       4.005  -1.874  -7.691  0.00  0.00    -0.265 OA
ATOM     13  N   LIG d   1       4.543  -2.246  -5.554  0.00  0.00    -0.295 N 
ATOM     14  C   LIG d   1       4.840  -3.138  -4.575  0.00  0.00     0.099 A 
ATOM     15  N   LIG d   1       4.861  -4.422  -4.796  0.00  0.00    -0.235 NA
ATOM     16  H   LIG d   1       4.805  -9.640  -6.383  0.00  0.00     0.062 H 
ATOM     17  H   LIG d   1       4.220  -9.423  -8.762  0.00  0.00     0.062 H 
ATOM     18  H   LIG d   1       3.842  -7.212  -9.756  0.00  0.00     0.064 H 
ATOM     19  H   LIG d   1       5.020  -7.654  -4.977  0.00  0.00     0.062 H 
ATOM     20  H   LIG d   1       5.060  -2.773  -3.582  0.00  0.00     0.103 H 
ENDROOT
BRANCH  13  21
ATOM     21  C   LIG d   1       4.527  -0.813  -5.252  0.00  0.00     0.054 C 
ATOM     22  H   LIG d   1       5.448  -0.355  -5.612  0.00  0.00     0.052 H 
ATOM     23  H   LIG d   1       3.673  -0.348  -5.744  0.00  0.00     0.052 H 
BRANCH  21  24
ATOM     24  C   LIG d   1       4.416  -0.611  -3.739  0.00  0.00     0.077 C 
ATOM     25  H   LIG d   1       4.287  -1.575  -3.246  0.00  0.00     0.061 H 
ATOM     26  O   LIG d   1       5.597   0.032  -3.247  0.00  0.00    -0.375 OA
ATOM     27  C   LIG d   1       5.259   1.306  -2.674  0.00  0.00     0.048 C 
ATOM     28  C   LIG d   1       3.770   1.182  -2.263  0.00  0.00    -0.027 C 
ATOM     29  H   LIG d   1       5.878   1.503  -1.799  0.00  0.00     0.056 H 
ATOM     30  H   LIG d   1       5.385   2.098  -3.412  0.00  0.00     0.056 H 
ATOM     31  C   LIG d   1       3.215   0.305  -3.420  0.00  0.00    -0.023 C 
ATOM     32  H   LIG d   1       3.669   0.675  -1.302  0.00  0.00     0.029 H 
ATOM     33  H   LIG d   1       3.286   2.158  -2.241  0.00  0.00     0.029 H 
ATOM     34  H   LIG d   1       2.956   0.920  -4.281  0.00  0.00     0.029 H 
ATOM     35  H   LIG d   1       2.357  -0.281  -3.087  0.00  0.00     0.029 H 
ENDBRANCH  21  24
ENDBRANCH  13  21
TORSDOF 2
ENDMDL
MODEL 8
REMARK VINA RESULT:      -5.3      4.569      7.155
REMARK  2 active torsions:
REMARK  status: ('A' for Active; 'I' for Inactive)
REMARK    1  A    between atoms: N_13  and  C_16 
REMARK    2  A    between atoms: C_16  and  C_17 
ROOT
ATOM      1  C   LIG d   1      10.517   5.127  -7.153  0.00  0.00    -0.061 A 
ATOM      2  C   LIG d   1      10.381   4.646  -8.448  0.00  0.00    -0.060 A 
ATOM      3  C   LIG d   1       9.677   3.489  -8.696  0.00  0.00    -0.038 A 
ATOM      4  C   LIG d   1       9.095   2.791  -7.640  0.00  0.00     0.049 A 
ATOM      5  C   LIG d   1       9.236   3.284  -6.331  0.00  0.00     0.026 A 
ATOM      6  C   LIG d   1       9.953   4.460  -6.103  0.00  0.00    -0.051 A 
ATOM      7  C   LIG d   1       8.523   2.346  -5.454  0.00  0.00     0.103 A 
ATOM      8  C   LIG d   1       8.000   1.354  -6.280  0.00  0.00     0.131 A 
ATOM      9  N   LIG d   1       8.350   1.633  -7.586  0.00  0.00    -0.349 N 
ATOM     10  H   LIG d   1       8.107   1.092  -8.354  0.00  0.00     0.166 HD
ATOM     11  C   LIG d   1       7.257   0.309  -5.681  0.00  0.00     0.278 A 
ATOM     12  O   LIG d   1       6.778  -0.584  -6.359  0.00  0.00    -0.265 OA
ATOM     13  N   LIG d   1       7.090   0.325  -4.341  0.00  0.00    -0.295 N 
ATOM     14  C   LIG d   1       7.621   1.325  -3.593  0.00  0.00     0.099 A 
ATOM     15  N   LIG d   1       8.313   2.291  -4.127  0.00  0.00    -0.235 NA
ATOM     16  H   LIG d   1      11.072   6.037  -6.974  0.00  0.00     0.062 H 
ATOM     17  H   LIG d   1      10.831   5.184  -9.269  0.00  0.00     0.062 H 
ATOM     18  H   LIG d   1       9.578   3.122  -9.707  0.00  0.00     0.064 H 
ATOM     19  H   LIG d   1      10.062   4.840  -5.099  0.00  0.00     0.062 H 
ATOM     20  H   LIG d   1       7.470   1.316  -2.524  0.00  0.00     0.103 H 
ENDROOT
BRANCH  13  21
ATOM     21  C   LIG d   1       6.324  -0.742  -3.691  0.00  0.00     0.054 C 
ATOM     22  H   LIG d   1       6.052  -1.496  -4.430  0.00  0.00     0.052 H 
ATOM     23  H   LIG d   1       6.931  -1.201  -2.911  0.00  0.00     0.052 H 
BRANCH  21  24
ATOM     24  C   LIG d   1       5.055  -0.155  -3.070  0.00  0.00     0.077 C 
ATOM     25  H   LIG d   1       5.322   0.553  -2.285  0.00  0.00     0.061 H 
ATOM     26  O   LIG d   1       4.283   0.507  -4.079  0.00  0.00    -0.375 OA
ATOM     27  C   LIG d   1       3.004  -0.133  -4.217  0.00  0.00     0.048 C 
ATOM     28  C   LIG d   1       2.750  -0.825  -2.854  0.00  0.00    -0.027 C 
ATOM     29  H   LIG d   1       2.230   0.607  -4.415  0.00  0.00     0.056 H 
ATOM     30  H   LIG d   1       3.035  -0.872  -5.018  0.00  0.00     0.056 H 
ATOM     31  C   LIG d   1       4.187  -1.288  -2.483  0.00  0.00    -0.023 C 
ATOM     32  H   LIG d   1       2.364  -0.117  -2.120  0.00  0.00     0.029 H 
ATOM     33  H   LIG d   1       2.078  -1.676  -2.964  0.00  0.00     0.029 H 
ATOM     34  H   LIG d   1       4.420  -2.241  -2.956  0.00  0.00     0.029 H 
ATOM     35  H   LIG d   1       4.309  -1.349  -1.401  0.00  0.00     0.029 H 
ENDBRANCH  21  24
ENDBRANCH  13  21
TORSDOF 2
ENDMDL
MODEL 9
REMARK VINA RESULT:      -5.3      2.110      6.887
REMARK  2 active torsions:
REMARK  status: ('A' for Active; 'I' for Inactive)
REMARK    1  A    between atoms: N_13  and  C_16 
REMARK    2  A    between atoms: C_16  and  C_17 
ROOT
ATOM      1  C   LIG d   1       4.222  -0.050 -12.453  0.00  0.00    -0.061 A 
ATOM      2  C   LIG d   1       5.181  -1.026 -12.685  0.00  0.00    -0.060 A 
ATOM      3  C   LIG d   1       5.694  -1.767 -11.643  0.00  0.00    -0.038 A 
ATOM      4  C   LIG d   1       5.248  -1.538 -10.343  0.00  0.00     0.049 A 
ATOM      5  C   LIG d   1       4.275  -0.548 -10.116  0.00  0.00     0.026 A 
ATOM      6  C   LIG d   1       3.769   0.190 -11.187  0.00  0.00    -0.051 A 
ATOM      7  C   LIG d   1       4.015  -0.545  -8.670  0.00  0.00     0.103 A 
ATOM      8  C   LIG d   1       4.839  -1.523  -8.119  0.00  0.00     0.131 A 
ATOM      9  N   LIG d   1       5.572  -2.110  -9.132  0.00  0.00    -0.349 N 
ATOM     10  H   LIG d   1       6.220  -2.822  -9.009  0.00  0.00     0.166 HD
ATOM     11  C   LIG d   1       4.787  -1.731  -6.720  0.00  0.00     0.278 A 
ATOM     12  O   LIG d   1       5.488  -2.575  -6.188  0.00  0.00    -0.265 OA
ATOM     13  N   LIG d   1       3.942  -0.973  -5.989  0.00  0.00    -0.295 N 
ATOM     14  C   LIG d   1       3.161  -0.039  -6.589  0.00  0.00     0.099 A 
ATOM     15  N   LIG d   1       3.201   0.170  -7.874  0.00  0.00    -0.235 NA
ATOM     16  H   LIG d   1       3.828   0.523 -13.280  0.00  0.00     0.062 H 
ATOM     17  H   LIG d   1       5.529  -1.206 -13.691  0.00  0.00     0.062 H 
ATOM     18  H   LIG d   1       6.441  -2.523 -11.833  0.00  0.00     0.064 H 
ATOM     19  H   LIG d   1       3.022   0.950 -11.014  0.00  0.00     0.062 H 
ATOM     20  H   LIG d   1       2.492   0.552  -5.982  0.00  0.00     0.103 H 
ENDROOT
BRANCH  13  21
ATOM     21  C   LIG d   1       3.864  -1.164  -4.538  0.00  0.00     0.054 C 
ATOM     22  H   LIG d   1       2.820  -1.151  -4.226  0.00  0.00     0.052 H 
ATOM     23  H   LIG d   1       4.311  -2.122  -4.274  0.00  0.00     0.052 H 
BRANCH  21  24
ATOM     24  C   LIG d   1       4.621  -0.036  -3.833  0.00  0.00     0.077 C 
ATOM     25  H   LIG d   1       5.564   0.153  -4.346  0.00  0.00     0.061 H 
ATOM     26  O   LIG d   1       3.823   1.154  -3.828  0.00  0.00    -0.375 OA
ATOM     27  C   LIG d   1       3.525   1.539  -2.477  0.00  0.00     0.048 C 
ATOM     28  C   LIG d   1       4.659   0.920  -1.621  0.00  0.00    -0.027 C 
ATOM     29  H   LIG d   1       3.530   2.624  -2.382  0.00  0.00     0.056 H 
ATOM     30  H   LIG d   1       2.557   1.138  -2.174  0.00  0.00     0.056 H 
ATOM     31  C   LIG d   1       4.891  -0.426  -2.364  0.00  0.00    -0.023 C 
ATOM     32  H   LIG d   1       5.554   1.542  -1.645  0.00  0.00     0.029 H 
ATOM     33  H   LIG d   1       4.329   0.751  -0.595  0.00  0.00     0.029 H 
ATOM     34  H   LIG d   1       4.183  -1.182  -2.027  0.00  0.00     0.029 H 
ATOM     35  H   LIG d   1       5.918  -0.768  -2.237  0.00  0.00     0.029 H 
ENDBRANCH  21  24
ENDBRANCH  13  21
TORSDOF 2
ENDMDL
MODEL 10
REMARK VINA RESULT:      -5.1      3.579      4.516
REMARK  2 active torsions:
REMARK  status: ('A' for Active; 'I' for Inactive)
REMARK    1  A    between atoms: N_13  and  C_16 
REMARK    2  A    between atoms: C_16  and  C_17 
ROOT
ATOM      1  C   LIG d   1       8.944  -5.695  -4.207  0.00  0.00    -0.061 A 
ATOM      2  C   LIG d   1       9.576  -4.916  -3.248  0.00  0.00    -0.060 A 
ATOM      3  C   LIG d   1       9.168  -3.621  -3.016  0.00  0.00    -0.038 A 
ATOM      4  C   LIG d   1       8.111  -3.085  -3.749  0.00  0.00     0.049 A 
ATOM      5  C   LIG d   1       7.475  -3.880  -4.718  0.00  0.00     0.026 A 
ATOM      6  C   LIG d   1       7.905  -5.190  -4.936  0.00  0.00    -0.051 A 
ATOM      7  C   LIG d   1       6.419  -3.049  -5.310  0.00  0.00     0.103 A 
ATOM      8  C   LIG d   1       6.481  -1.815  -4.668  0.00  0.00     0.131 A 
ATOM      9  N   LIG d   1       7.499  -1.850  -3.735  0.00  0.00    -0.349 N 
ATOM     10  H   LIG d   1       7.747  -1.113  -3.155  0.00  0.00     0.166 HD
ATOM     11  C   LIG d   1       5.559  -0.813  -5.054  0.00  0.00     0.278 A 
ATOM     12  O   LIG d   1       5.572   0.285  -4.522  0.00  0.00    -0.265 OA
ATOM     13  N   LIG d   1       4.665  -1.101  -6.023  0.00  0.00    -0.295 N 
ATOM     14  C   LIG d   1       4.653  -2.326  -6.606  0.00  0.00     0.099 A 
ATOM     15  N   LIG d   1       5.498  -3.258  -6.268  0.00  0.00    -0.235 NA
ATOM     16  H   LIG d   1       9.275  -6.710  -4.378  0.00  0.00     0.062 H 
ATOM     17  H   LIG d   1      10.396  -5.328  -2.679  0.00  0.00     0.062 H 
ATOM     18  H   LIG d   1       9.667  -3.023  -2.269  0.00  0.00     0.064 H 
ATOM     19  H   LIG d   1       7.418  -5.802  -5.680  0.00  0.00     0.062 H 
ATOM     20  H   LIG d   1       3.926  -2.533  -7.377  0.00  0.00     0.103 H 
ENDROOT
BRANCH  13  21
ATOM     21  C   LIG d   1       3.697  -0.085  -6.445  0.00  0.00     0.054 C 
ATOM     22  H   LIG d   1       2.694  -0.393  -6.148  0.00  0.00     0.052 H 
ATOM     23  H   LIG d   1       3.940   0.866  -5.972  0.00  0.00     0.052 H 
BRANCH  21  24
ATOM     24  C   LIG d   1       3.752   0.072  -7.966  0.00  0.00     0.077 C 
ATOM     25  H   LIG d   1       3.907  -0.901  -8.432  0.00  0.00     0.061 H 
ATOM     26  O   LIG d   1       2.529   0.649  -8.439  0.00  0.00    -0.375 OA
ATOM     27  C   LIG d   1       2.793   1.916  -9.061  0.00  0.00     0.048 C 
ATOM     28  C   LIG d   1       4.272   1.843  -9.517  0.00  0.00    -0.027 C 
ATOM     29  H   LIG d   1       2.139   2.059  -9.921  0.00  0.00     0.056 H 
ATOM     30  H   LIG d   1       2.655   2.726  -8.344  0.00  0.00     0.056 H 
ATOM     31  C   LIG d   1       4.901   1.028  -8.352  0.00  0.00    -0.023 C 
ATOM     32  H   LIG d   1       4.366   1.310 -10.464  0.00  0.00     0.029 H 
ATOM     33  H   LIG d   1       4.712   2.838  -9.584  0.00  0.00     0.029 H 
ATOM     34  H   LIG d   1       5.160   1.681  -7.518  0.00  0.00     0.029 H 
ATOM     35  H   LIG d   1       5.772   0.469  -8.694  0.00  0.00     0.029 H 
ENDBRANCH  21  24
ENDBRANCH  13  21
TORSDOF 2
ENDMDL
