MODEL 1
REMARK VINA RESULT:      -6.7      0.000      0.000
REMARK  7 active torsions:
REMARK  status: ('A' for Active; 'I' for Inactive)
REMARK    1  A    between atoms: C_3  and  C_6 
REMARK    2  A    between atoms: C_6  and  N_7 
REMARK       I    between atoms: N_7  and  C_8 
REMARK    3  A    between atoms: C_8  and  C_10 
REMARK    4  A    between atoms: C_10  and  C_11 
REMARK    5  A    between atoms: C_16  and  C_18 
REMARK    6  A    between atoms: C_18  and  C_19 
REMARK    7  A    between atoms: C_21  and  C_24 
ROOT
ATOM      1  C   LIG d   1       3.583  -1.561  -4.364  0.00  0.00    -0.020 C 
ATOM      2  H   LIG d   1       2.987  -2.184  -5.032  0.00  0.00     0.031 H 
ATOM      3  C   LIG d   1       2.663  -0.872  -3.352  0.00  0.00    -0.009 C 
ATOM      4  C   LIG d   1       3.509  -0.048  -2.380  0.00  0.00    -0.033 C 
ATOM      5  C   LIG d   1       5.381  -1.566  -2.633  0.00  0.00    -0.030 C 
ATOM      6  C   LIG d   1       4.591  -2.436  -3.613  0.00  0.00     0.008 C 
ATOM      7  H   LIG d   1       4.061  -3.213  -3.064  0.00  0.00     0.036 H 
ATOM      8  H   LIG d   1       1.970  -0.216  -3.878  0.00  0.00     0.032 H 
ATOM      9  H   LIG d   1       2.103  -1.626  -2.798  0.00  0.00     0.032 H 
ATOM     10  H   LIG d   1       4.059   0.714  -2.932  0.00  0.00     0.081 H 
ATOM     11  H   LIG d   1       2.859   0.432  -1.648  0.00  0.00     0.081 H 
ATOM     12  H   LIG d   1       6.091  -2.188  -2.086  0.00  0.00     0.082 H 
ATOM     13  H   LIG d   1       5.923  -0.797  -3.185  0.00  0.00     0.082 H 
ATOM     14  N   LIG d   1       4.458  -0.931  -1.673  0.00  0.00     0.227 N 
ATOM     15  H   LIG d   1       3.934  -1.661  -1.176  0.00  0.00     0.201 HD
ATOM     16  H   LIG d   1       4.998  -0.376  -0.999  0.00  0.00     0.201 HD
ENDROOT
BRANCH   1  17
ATOM     17  C   LIG d   1       4.329  -0.503  -5.180  0.00  0.00     0.027 C 
ATOM     18  H   LIG d   1       4.583   0.338  -4.535  0.00  0.00     0.036 H 
ATOM     19  H   LIG d   1       5.242  -0.937  -5.587  0.00  0.00     0.036 H 
BRANCH  17  20
ATOM     20  C   LIG d   1       3.451  -0.027  -6.308  0.00  0.00     0.214 C 
ATOM     21  N   LIG d   1       3.166  -0.852  -7.334  0.00  0.00    -0.308 N 
ATOM     22  H   LIG d   1       3.526  -1.753  -7.347  0.00  0.00     0.149 HD
ATOM     23  O   LIG d   1       3.002   1.100  -6.292  0.00  0.00    -0.276 OA
BRANCH  21  24
ATOM     24  C   LIG d   1       2.313  -0.389  -8.431  0.00  0.00     0.070 C 
ATOM     25  H   LIG d   1       1.576  -1.157  -8.667  0.00  0.00     0.054 H 
ATOM     26  H   LIG d   1       1.803   0.527  -8.134  0.00  0.00     0.054 H 
BRANCH  24  27
ATOM     27  C   LIG d   1       3.162  -0.117  -9.647  0.00  0.00     0.122 A 
ATOM     28  C   LIG d   1       2.778  -0.281 -10.927  0.00  0.00    -0.019 A 
ATOM     29  C   LIG d   1       3.878   0.090 -11.734  0.00  0.00    -0.024 A 
ATOM     30  H   LIG d   1       1.815  -0.628 -11.270  0.00  0.00     0.065 H 
ATOM     31  C   LIG d   1       4.870   0.451 -10.900  0.00  0.00     0.092 A 
ATOM     32  H   LIG d   1       3.916   0.081 -12.813  0.00  0.00     0.065 H 
ATOM     33  O   LIG d   1       4.430   0.323  -9.638  0.00  0.00    -0.466 OA
ATOM     34  H   LIG d   1       5.853   0.786 -11.195  0.00  0.00     0.103 H 
ENDBRANCH  24  27
ENDBRANCH  21  24
ENDBRANCH  17  20
ENDBRANCH   1  17
BRANCH   6  35
ATOM     35  C   LIG d   1       5.552  -3.080  -4.614  0.00  0.00     0.001 C 
ATOM     36  H   LIG d   1       6.331  -3.619  -4.075  0.00  0.00     0.033 H 
ATOM     37  H   LIG d   1       6.006  -2.307  -5.232  0.00  0.00     0.033 H 
BRANCH  35  38
ATOM     38  C   LIG d   1       4.791  -4.042  -5.492  0.00  0.00     0.085 A 
ATOM     39  N   LIG d   1       4.138  -5.098  -5.103  0.00  0.00    -0.083 NA
ATOM     40  O   LIG d   1       3.625  -5.679  -6.031  0.00  0.00    -0.353 OA
ATOM     41  C   LIG d   1       3.875  -5.058  -7.200  0.00  0.00     0.183 A 
ATOM     42  C   LIG d   1       4.649  -3.972  -6.895  0.00  0.00     0.009 A 
ATOM     43  H   LIG d   1       5.052  -3.231  -7.569  0.00  0.00     0.068 H 
BRANCH  41  44
ATOM     44  C   LIG d   1       3.410  -5.468  -8.538  0.00  0.00     0.110 C 
ATOM     45  O   LIG d   1       3.524  -4.708  -9.479  0.00  0.00    -0.541 OA
ATOM     46  O   LIG d   1       2.860  -6.685  -8.716  0.00  0.00    -0.541 OA
ENDBRANCH  41  44
ENDBRANCH  35  38
ENDBRANCH   6  35
TORSDOF 7
ENDMDL
MODEL 2
REMARK VINA RESULT:      -6.7      3.690      7.263
REMARK  7 active torsions:
REMARK  status: ('A' for Active; 'I' for Inactive)
REMARK    1  A    between atoms: C_3  and  C_6 
REMARK    2  A    between atoms: C_6  and  N_7 
REMARK       I    between atoms: N_7  and  C_8 
REMARK    3  A    between atoms: C_8  and  C_10 
REMARK    4  A    between atoms: C_10  and  C_11 
REMARK    5  A    between atoms: C_16  and  C_18 
REMARK    6  A    between atoms: C_18  and  C_19 
REMARK    7  A    between atoms: C_21  and  C_24 
ROOT
ATOM      1  C   LIG d   1       5.046   0.809  -8.522  0.00  0.00    -0.020 C 
ATOM      2  H   LIG d   1       5.226   1.540  -7.734  0.00  0.00     0.031 H 
ATOM      3  C   LIG d   1       4.719   1.538  -9.829  0.00  0.00    -0.009 C 
ATOM      4  C   LIG d   1       4.527   0.510 -10.946  0.00  0.00    -0.033 C 
ATOM      5  C   LIG d   1       6.061  -1.028  -9.873  0.00  0.00    -0.030 C 
ATOM      6  C   LIG d   1       6.300  -0.046  -8.724  0.00  0.00     0.008 C 
ATOM      7  H   LIG d   1       7.145   0.598  -8.964  0.00  0.00     0.036 H 
ATOM      8  H   LIG d   1       3.804   2.115  -9.704  0.00  0.00     0.032 H 
ATOM      9  H   LIG d   1       5.540   2.207 -10.088  0.00  0.00     0.032 H 
ATOM     10  H   LIG d   1       3.697  -0.151 -10.693  0.00  0.00     0.081 H 
ATOM     11  H   LIG d   1       4.308   1.026 -11.881  0.00  0.00     0.081 H 
ATOM     12  H   LIG d   1       6.958  -1.630 -10.029  0.00  0.00     0.082 H 
ATOM     13  H   LIG d   1       5.224  -1.682  -9.625  0.00  0.00     0.082 H 
ATOM     14  N   LIG d   1       5.760  -0.283 -11.110  0.00  0.00     0.227 N 
ATOM     15  H   LIG d   1       6.542   0.347 -11.323  0.00  0.00     0.201 HD
ATOM     16  H   LIG d   1       5.635  -0.947 -11.883  0.00  0.00     0.201 HD
ENDROOT
BRANCH   1  17
ATOM     17  C   LIG d   1       3.871  -0.089  -8.130  0.00  0.00     0.027 C 
ATOM     18  H   LIG d   1       3.177  -0.165  -8.968  0.00  0.00     0.036 H 
ATOM     19  H   LIG d   1       4.241  -1.081  -7.875  0.00  0.00     0.036 H 
BRANCH  17  20
ATOM     20  C   LIG d   1       3.161   0.504  -6.940  0.00  0.00     0.214 C 
ATOM     21  N   LIG d   1       2.995  -0.229  -5.822  0.00  0.00    -0.308 N 
ATOM     22  H   LIG d   1       3.332  -1.137  -5.782  0.00  0.00     0.149 HD
ATOM     23  O   LIG d   1       2.738   1.640  -6.990  0.00  0.00    -0.276 OA
BRANCH  21  24
ATOM     24  C   LIG d   1       2.303   0.347  -4.665  0.00  0.00     0.070 C 
ATOM     25  H   LIG d   1       2.042   1.384  -4.878  0.00  0.00     0.054 H 
ATOM     26  H   LIG d   1       1.397  -0.222  -4.462  0.00  0.00     0.054 H 
BRANCH  24  27
ATOM     27  C   LIG d   1       3.209   0.295  -3.461  0.00  0.00     0.122 A 
ATOM     28  C   LIG d   1       3.679   1.359  -2.783  0.00  0.00    -0.019 A 
ATOM     29  C   LIG d   1       4.481   0.853  -1.735  0.00  0.00    -0.024 A 
ATOM     30  H   LIG d   1       3.479   2.398  -2.999  0.00  0.00     0.065 H 
ATOM     31  C   LIG d   1       4.460  -0.487  -1.839  0.00  0.00     0.092 A 
ATOM     32  H   LIG d   1       5.013   1.433  -0.995  0.00  0.00     0.065 H 
ATOM     33  O   LIG d   1       3.688  -0.820  -2.887  0.00  0.00    -0.466 OA
ATOM     34  H   LIG d   1       4.977  -1.180  -1.191  0.00  0.00     0.103 H 
ENDBRANCH  24  27
ENDBRANCH  21  24
ENDBRANCH  17  20
ENDBRANCH   1  17
BRANCH   6  35
ATOM     35  C   LIG d   1       6.598  -0.824  -7.440  0.00  0.00     0.001 C 
ATOM     36  H   LIG d   1       7.446  -1.488  -7.606  0.00  0.00     0.033 H 
ATOM     37  H   LIG d   1       5.725  -1.413  -7.161  0.00  0.00     0.033 H 
BRANCH  35  38
ATOM     38  C   LIG d   1       6.927   0.144  -6.332  0.00  0.00     0.085 A 
ATOM     39  N   LIG d   1       6.267   0.308  -5.223  0.00  0.00    -0.083 NA
ATOM     40  O   LIG d   1       6.765   1.158  -4.522  0.00  0.00    -0.353 OA
ATOM     41  C   LIG d   1       7.867   1.683  -5.092  0.00  0.00     0.183 A 
ATOM     42  C   LIG d   1       8.011   1.048  -6.295  0.00  0.00     0.009 A 
ATOM     43  H   LIG d   1       8.777   1.200  -7.041  0.00  0.00     0.068 H 
BRANCH  41  44
ATOM     44  C   LIG d   1       8.738   2.733  -4.534  0.00  0.00     0.110 C 
ATOM     45  O   LIG d   1       9.209   3.583  -5.263  0.00  0.00    -0.541 OA
ATOM     46  O   LIG d   1       9.013   2.749  -3.214  0.00  0.00    -0.541 OA
ENDBRANCH  41  44
ENDBRANCH  35  38
ENDBRANCH   6  35
TORSDOF 7
ENDMDL
MODEL 3
REMARK VINA RESULT:      -6.5      2.402      5.391
REMARK  7 active torsions:
REMARK  status: ('A' for Active; 'I' for Inactive)
REMARK    1  A    between atoms: C_3  and  C_6 
REMARK    2  A    between atoms: C_6  and  N_7 
REMARK       I    between atoms: N_7  and  C_8 
REMARK    3  A    between atoms: C_8  and  C_10 
REMARK    4  A    between atoms: C_10  and  C_11 
REMARK    5  A    between atoms: C_16  and  C_18 
REMARK    6  A    between atoms: C_18  and  C_19 
REMARK    7  A    between atoms: C_21  and  C_24 
ROOT
ATOM      1  C   LIG d   1       4.829  -1.779  -7.550  0.00  0.00    -0.020 C 
ATOM      2  H   LIG d   1       4.769  -2.008  -6.485  0.00  0.00     0.031 H 
ATOM      3  C   LIG d   1       6.022  -0.856  -7.808  0.00  0.00    -0.009 C 
ATOM      4  C   LIG d   1       6.137  -0.588  -9.310  0.00  0.00    -0.033 C 
ATOM      5  C   LIG d   1       5.158  -2.743  -9.829  0.00  0.00    -0.030 C 
ATOM      6  C   LIG d   1       5.014  -3.077  -8.342  0.00  0.00     0.008 C 
ATOM      7  H   LIG d   1       5.911  -3.590  -7.996  0.00  0.00     0.036 H 
ATOM      8  H   LIG d   1       5.876   0.085  -7.280  0.00  0.00     0.032 H 
ATOM      9  H   LIG d   1       6.936  -1.335  -7.454  0.00  0.00     0.032 H 
ATOM     10  H   LIG d   1       5.229  -0.098  -9.662  0.00  0.00     0.081 H 
ATOM     11  H   LIG d   1       6.995   0.057  -9.500  0.00  0.00     0.081 H 
ATOM     12  H   LIG d   1       5.305  -3.664 -10.395  0.00  0.00     0.082 H 
ATOM     13  H   LIG d   1       4.254  -2.242 -10.178  0.00  0.00     0.082 H 
ATOM     14  N   LIG d   1       6.324  -1.862 -10.031  0.00  0.00     0.227 N 
ATOM     15  H   LIG d   1       7.167  -2.330  -9.677  0.00  0.00     0.201 HD
ATOM     16  H   LIG d   1       6.433  -1.670 -11.034  0.00  0.00     0.201 HD
ENDROOT
BRANCH   1  17
ATOM     17  C   LIG d   1       3.540  -1.086  -7.997  0.00  0.00     0.027 C 
ATOM     18  H   LIG d   1       3.696  -0.625  -8.972  0.00  0.00     0.036 H 
ATOM     19  H   LIG d   1       2.738  -1.821  -8.067  0.00  0.00     0.036 H 
BRANCH  17  20
ATOM     20  C   LIG d   1       3.165  -0.027  -6.993  0.00  0.00     0.214 C 
ATOM     21  N   LIG d   1       2.838  -0.378  -5.734  0.00  0.00    -0.308 N 
ATOM     22  H   LIG d   1       2.843  -1.312  -5.474  0.00  0.00     0.149 HD
ATOM     23  O   LIG d   1       3.156   1.142  -7.319  0.00  0.00    -0.276 OA
BRANCH  21  24
ATOM     24  C   LIG d   1       2.472   0.652  -4.758  0.00  0.00     0.070 C 
ATOM     25  H   LIG d   1       2.660   1.638  -5.184  0.00  0.00     0.054 H 
ATOM     26  H   LIG d   1       1.415   0.559  -4.509  0.00  0.00     0.054 H 
BRANCH  24  27
ATOM     27  C   LIG d   1       3.299   0.478  -3.510  0.00  0.00     0.122 A 
ATOM     28  C   LIG d   1       3.795   1.471  -2.750  0.00  0.00    -0.019 A 
ATOM     29  C   LIG d   1       4.500   0.860  -1.687  0.00  0.00    -0.024 A 
ATOM     30  H   LIG d   1       3.676   2.531  -2.918  0.00  0.00     0.065 H 
ATOM     31  C   LIG d   1       4.399  -0.469  -1.866  0.00  0.00     0.092 A 
ATOM     32  H   LIG d   1       5.022   1.365  -0.887  0.00  0.00     0.065 H 
ATOM     33  O   LIG d   1       3.671  -0.694  -2.971  0.00  0.00    -0.466 OA
ATOM     34  H   LIG d   1       4.831  -1.227  -1.229  0.00  0.00     0.103 H 
ENDBRANCH  24  27
ENDBRANCH  21  24
ENDBRANCH  17  20
ENDBRANCH   1  17
BRANCH   6  35
ATOM     35  C   LIG d   1       3.796  -3.979  -8.136  0.00  0.00     0.001 C 
ATOM     36  H   LIG d   1       3.606  -4.546  -9.047  0.00  0.00     0.033 H 
ATOM     37  H   LIG d   1       2.926  -3.367  -7.900  0.00  0.00     0.033 H 
BRANCH  35  38
ATOM     38  C   LIG d   1       4.064  -4.931  -6.998  0.00  0.00     0.085 A 
ATOM     39  N   LIG d   1       3.840  -4.715  -5.735  0.00  0.00    -0.083 NA
ATOM     40  O   LIG d   1       4.155  -5.661  -5.051  0.00  0.00    -0.353 OA
ATOM     41  C   LIG d   1       4.642  -6.670  -5.800  0.00  0.00     0.183 A 
ATOM     42  C   LIG d   1       4.608  -6.231  -7.095  0.00  0.00     0.009 A 
ATOM     43  H   LIG d   1       4.919  -6.758  -7.985  0.00  0.00     0.068 H 
BRANCH  41  44
ATOM     44  C   LIG d   1       5.118  -7.980  -5.320  0.00  0.00     0.110 C 
ATOM     45  O   LIG d   1       6.308  -8.181  -5.184  0.00  0.00    -0.541 OA
ATOM     46  O   LIG d   1       4.232  -8.953  -5.030  0.00  0.00    -0.541 OA
ENDBRANCH  41  44
ENDBRANCH  35  38
ENDBRANCH   6  35
TORSDOF 7
ENDMDL
MODEL 4
REMARK VINA RESULT:      -6.3      7.941     11.315
REMARK  7 active torsions:
REMARK  status: ('A' for Active; 'I' for Inactive)
REMARK    1  A    between atoms: C_3  and  C_6 
REMARK    2  A    between atoms: C_6  and  N_7 
REMARK       I    between atoms: N_7  and  C_8 
REMARK    3  A    between atoms: C_8  and  C_10 
REMARK    4  A    between atoms: C_10  and  C_11 
REMARK    5  A    between atoms: C_16  and  C_18 
REMARK    6  A    between atoms: C_18  and  C_19 
REMARK    7  A    between atoms: C_21  and  C_24 
ROOT
ATOM      1  C   LIG d   1       9.551   3.784  -4.508  0.00  0.00    -0.020 C 
ATOM      2  H   LIG d   1       8.518   3.712  -4.168  0.00  0.00     0.031 H 
ATOM      3  C   LIG d   1       9.574   4.067  -6.013  0.00  0.00    -0.009 C 
ATOM      4  C   LIG d   1      11.025   4.227  -6.474  0.00  0.00    -0.033 C 
ATOM      5  C   LIG d   1      11.685   5.062  -4.297  0.00  0.00    -0.030 C 
ATOM      6  C   LIG d   1      10.254   4.927  -3.770  0.00  0.00     0.008 C 
ATOM      7  H   LIG d   1       9.714   5.857  -3.941  0.00  0.00     0.036 H 
ATOM      8  H   LIG d   1       9.112   3.237  -6.547  0.00  0.00     0.032 H 
ATOM      9  H   LIG d   1       9.024   4.985  -6.219  0.00  0.00     0.032 H 
ATOM     10  H   LIG d   1      11.572   3.305  -6.280  0.00  0.00     0.081 H 
ATOM     11  H   LIG d   1      11.045   4.444  -7.543  0.00  0.00     0.081 H 
ATOM     12  H   LIG d   1      12.184   5.884  -3.783  0.00  0.00     0.082 H 
ATOM     13  H   LIG d   1      12.229   4.135  -4.112  0.00  0.00     0.082 H 
ATOM     14  N   LIG d   1      11.658   5.343  -5.745  0.00  0.00     0.227 N 
ATOM     15  H   LIG d   1      11.123   6.204  -5.912  0.00  0.00     0.201 HD
ATOM     16  H   LIG d   1      12.620   5.465  -6.083  0.00  0.00     0.201 HD
ENDROOT
BRANCH   1  17
ATOM     17  C   LIG d   1      10.277   2.467  -4.224  0.00  0.00     0.027 C 
ATOM     18  H   LIG d   1      11.149   2.387  -4.874  0.00  0.00     0.036 H 
ATOM     19  H   LIG d   1      10.596   2.446  -3.183  0.00  0.00     0.036 H 
BRANCH  17  20
ATOM     20  C   LIG d   1       9.345   1.312  -4.487  0.00  0.00     0.214 C 
ATOM     21  N   LIG d   1       8.213   1.184  -3.768  0.00  0.00    -0.308 N 
ATOM     22  H   LIG d   1       7.998   1.833  -3.080  0.00  0.00     0.149 HD
ATOM     23  O   LIG d   1       9.614   0.499  -5.346  0.00  0.00    -0.276 OA
BRANCH  21  24
ATOM     24  C   LIG d   1       7.307   0.061  -4.022  0.00  0.00     0.070 C 
ATOM     25  H   LIG d   1       6.963   0.099  -5.057  0.00  0.00     0.054 H 
ATOM     26  H   LIG d   1       7.833  -0.878  -3.849  0.00  0.00     0.054 H 
BRANCH  24  27
ATOM     27  C   LIG d   1       6.122   0.151  -3.096  0.00  0.00     0.122 A 
ATOM     28  C   LIG d   1       5.330  -0.874  -2.729  0.00  0.00    -0.019 A 
ATOM     29  C   LIG d   1       4.352  -0.343  -1.857  0.00  0.00    -0.024 A 
ATOM     30  H   LIG d   1       5.424  -1.903  -3.041  0.00  0.00     0.065 H 
ATOM     31  C   LIG d   1       4.600   0.974  -1.748  0.00  0.00     0.092 A 
ATOM     32  H   LIG d   1       3.556  -0.890  -1.373  0.00  0.00     0.065 H 
ATOM     33  O   LIG d   1       5.673   1.268  -2.501  0.00  0.00    -0.466 OA
ATOM     34  H   LIG d   1       4.033   1.678  -1.156  0.00  0.00     0.103 H 
ENDBRANCH  24  27
ENDBRANCH  21  24
ENDBRANCH  17  20
ENDBRANCH   1  17
BRANCH   6  35
ATOM     35  C   LIG d   1      10.287   4.622  -2.271  0.00  0.00     0.001 C 
ATOM     36  H   LIG d   1      11.240   4.159  -2.016  0.00  0.00     0.033 H 
ATOM     37  H   LIG d   1       9.474   3.942  -2.021  0.00  0.00     0.033 H 
BRANCH  35  38
ATOM     38  C   LIG d   1      10.127   5.904  -1.495  0.00  0.00     0.085 A 
ATOM     39  N   LIG d   1      10.402   6.091  -0.238  0.00  0.00    -0.083 NA
ATOM     40  O   LIG d   1      10.172   7.225   0.113  0.00  0.00    -0.353 OA
ATOM     41  C   LIG d   1       9.702   7.969  -0.907  0.00  0.00     0.183 A 
ATOM     42  C   LIG d   1       9.648   7.137  -1.991  0.00  0.00     0.009 A 
ATOM     43  H   LIG d   1       9.321   7.369  -2.994  0.00  0.00     0.068 H 
BRANCH  41  44
ATOM     44  C   LIG d   1       9.320   9.392  -0.862  0.00  0.00     0.110 C 
ATOM     45  O   LIG d   1       8.147   9.706  -0.862  0.00  0.00    -0.541 OA
ATOM     46  O   LIG d   1      10.273  10.345  -0.820  0.00  0.00    -0.541 OA
ENDBRANCH  41  44
ENDBRANCH  35  38
ENDBRANCH   6  35
TORSDOF 7
ENDMDL
MODEL 5
REMARK VINA RESULT:      -6.3      4.013      6.553
REMARK  7 active torsions:
REMARK  status: ('A' for Active; 'I' for Inactive)
REMARK    1  A    between atoms: C_3  and  C_6 
REMARK    2  A    between atoms: C_6  and  N_7 
REMARK       I    between atoms: N_7  and  C_8 
REMARK    3  A    between atoms: C_8  and  C_10 
REMARK    4  A    between atoms: C_10  and  C_11 
REMARK    5  A    between atoms: C_16  and  C_18 
REMARK    6  A    between atoms: C_18  and  C_19 
REMARK    7  A    between atoms: C_21  and  C_24 
ROOT
ATOM      1  C   LIG d   1       5.107  -0.083  -3.743  0.00  0.00    -0.020 C 
ATOM      2  H   LIG d   1       5.060   0.838  -4.323  0.00  0.00     0.031 H 
ATOM      3  C   LIG d   1       4.612   0.184  -2.319  0.00  0.00    -0.009 C 
ATOM      4  C   LIG d   1       4.622  -1.126  -1.526  0.00  0.00    -0.033 C 
ATOM      5  C   LIG d   1       4.238  -2.415  -3.542  0.00  0.00    -0.030 C 
ATOM      6  C   LIG d   1       4.215  -1.144  -4.395  0.00  0.00     0.008 C 
ATOM      7  H   LIG d   1       3.194  -0.770  -4.463  0.00  0.00     0.036 H 
ATOM      8  H   LIG d   1       5.267   0.907  -1.835  0.00  0.00     0.032 H 
ATOM      9  H   LIG d   1       3.596   0.578  -2.354  0.00  0.00     0.032 H 
ATOM     10  H   LIG d   1       5.639  -1.514  -1.479  0.00  0.00     0.081 H 
ATOM     11  H   LIG d   1       4.256  -0.942  -0.516  0.00  0.00     0.081 H 
ATOM     12  H   LIG d   1       3.593  -3.168  -3.996  0.00  0.00     0.082 H 
ATOM     13  H   LIG d   1       5.258  -2.797  -3.486  0.00  0.00     0.082 H 
ATOM     14  N   LIG d   1       3.745  -2.113  -2.185  0.00  0.00     0.227 N 
ATOM     15  H   LIG d   1       2.793  -1.731  -2.248  0.00  0.00     0.201 HD
ATOM     16  H   LIG d   1       3.731  -2.976  -1.629  0.00  0.00     0.201 HD
ENDROOT
BRANCH   1  17
ATOM     17  C   LIG d   1       6.551  -0.586  -3.696  0.00  0.00     0.027 C 
ATOM     18  H   LIG d   1       6.863  -0.698  -2.657  0.00  0.00     0.036 H 
ATOM     19  H   LIG d   1       6.617  -1.550  -4.200  0.00  0.00     0.036 H 
BRANCH  17  20
ATOM     20  C   LIG d   1       7.451   0.405  -4.387  0.00  0.00     0.214 C 
ATOM     21  N   LIG d   1       8.781   0.369  -4.175  0.00  0.00    -0.308 N 
ATOM     22  H   LIG d   1       9.160  -0.294  -3.578  0.00  0.00     0.149 HD
ATOM     23  O   LIG d   1       6.978   1.236  -5.134  0.00  0.00    -0.276 OA
BRANCH  21  24
ATOM     24  C   LIG d   1       9.656   1.334  -4.847  0.00  0.00     0.070 C 
ATOM     25  H   LIG d   1      10.588   0.843  -5.128  0.00  0.00     0.054 H 
ATOM     26  H   LIG d   1       9.161   1.714  -5.740  0.00  0.00     0.054 H 
BRANCH  24  27
ATOM     27  C   LIG d   1       9.953   2.478  -3.912  0.00  0.00     0.122 A 
ATOM     28  C   LIG d   1       9.333   3.672  -3.908  0.00  0.00    -0.019 A 
ATOM     29  C   LIG d   1       9.922   4.435  -2.874  0.00  0.00    -0.024 A 
ATOM     30  H   LIG d   1       8.537   3.987  -4.567  0.00  0.00     0.065 H 
ATOM     31  C   LIG d   1      10.871   3.665  -2.313  0.00  0.00     0.092 A 
ATOM     32  H   LIG d   1       9.662   5.445  -2.591  0.00  0.00     0.065 H 
ATOM     33  O   LIG d   1      10.886   2.481  -2.946  0.00  0.00    -0.466 OA
ATOM     34  H   LIG d   1      11.513   3.951  -1.493  0.00  0.00     0.103 H 
ENDBRANCH  24  27
ENDBRANCH  21  24
ENDBRANCH  17  20
ENDBRANCH   1  17
BRANCH   6  35
ATOM     35  C   LIG d   1       4.740  -1.460  -5.797  0.00  0.00     0.001 C 
ATOM     36  H   LIG d   1       4.308  -2.398  -6.144  0.00  0.00     0.033 H 
ATOM     37  H   LIG d   1       5.826  -1.549  -5.767  0.00  0.00     0.033 H 
BRANCH  35  38
ATOM     38  C   LIG d   1       4.354  -0.349  -6.739  0.00  0.00     0.085 A 
ATOM     39  N   LIG d   1       3.270   0.369  -6.690  0.00  0.00    -0.083 NA
ATOM     40  O   LIG d   1       3.229   1.188  -7.579  0.00  0.00    -0.353 OA
ATOM     41  C   LIG d   1       4.325   1.123  -8.359  0.00  0.00     0.183 A 
ATOM     42  C   LIG d   1       5.097   0.116  -7.847  0.00  0.00     0.009 A 
ATOM     43  H   LIG d   1       6.053  -0.238  -8.203  0.00  0.00     0.068 H 
BRANCH  41  44
ATOM     44  C   LIG d   1       4.631   1.965  -9.531  0.00  0.00     0.110 C 
ATOM     45  O   LIG d   1       5.668   2.595  -9.571  0.00  0.00    -0.541 OA
ATOM     46  O   LIG d   1       3.758   2.033 -10.556  0.00  0.00    -0.541 OA
ENDBRANCH  41  44
ENDBRANCH  35  38
ENDBRANCH   6  35
TORSDOF 7
ENDMDL
MODEL 6
REMARK VINA RESULT:      -6.2      4.474      6.247
REMARK  7 active torsions:
REMARK  status: ('A' for Active; 'I' for Inactive)
REMARK    1  A    between atoms: C_3  and  C_6 
REMARK    2  A    between atoms: C_6  and  N_7 
REMARK       I    between atoms: N_7  and  C_8 
REMARK    3  A    between atoms: C_8  and  C_10 
REMARK    4  A    between atoms: C_10  and  C_11 
REMARK    5  A    between atoms: C_16  and  C_18 
REMARK    6  A    between atoms: C_18  and  C_19 
REMARK    7  A    between atoms: C_21  and  C_24 
ROOT
ATOM      1  C   LIG d   1       8.565   2.838  -5.238  0.00  0.00    -0.020 C 
ATOM      2  H   LIG d   1       7.507   2.830  -5.501  0.00  0.00     0.031 H 
ATOM      3  C   LIG d   1       9.034   4.283  -5.051  0.00  0.00    -0.009 C 
ATOM      4  C   LIG d   1      10.504   4.285  -4.623  0.00  0.00    -0.033 C 
ATOM      5  C   LIG d   1      10.250   2.135  -3.535  0.00  0.00    -0.030 C 
ATOM      6  C   LIG d   1       8.773   2.068  -3.930  0.00  0.00     0.008 C 
ATOM      7  H   LIG d   1       8.165   2.515  -3.144  0.00  0.00     0.036 H 
ATOM      8  H   LIG d   1       8.928   4.824  -5.991  0.00  0.00     0.032 H 
ATOM      9  H   LIG d   1       8.431   4.765  -4.281  0.00  0.00     0.032 H 
ATOM     10  H   LIG d   1      11.109   3.815  -5.398  0.00  0.00     0.081 H 
ATOM     11  H   LIG d   1      10.838   5.313  -4.475  0.00  0.00     0.081 H 
ATOM     12  H   LIG d   1      10.400   1.600  -2.597  0.00  0.00     0.082 H 
ATOM     13  H   LIG d   1      10.856   1.675  -4.316  0.00  0.00     0.082 H 
ATOM     14  N   LIG d   1      10.655   3.543  -3.357  0.00  0.00     0.227 N 
ATOM     15  H   LIG d   1      10.063   3.976  -2.638  0.00  0.00     0.201 HD
ATOM     16  H   LIG d   1      11.637   3.577  -3.060  0.00  0.00     0.201 HD
ENDROOT
BRANCH   1  17
ATOM     17  C   LIG d   1       9.375   2.177  -6.356  0.00  0.00     0.027 C 
ATOM     18  H   LIG d   1      10.343   2.673  -6.443  0.00  0.00     0.036 H 
ATOM     19  H   LIG d   1       9.527   1.124  -6.120  0.00  0.00     0.036 H 
BRANCH  17  20
ATOM     20  C   LIG d   1       8.627   2.299  -7.658  0.00  0.00     0.214 C 
ATOM     21  N   LIG d   1       7.378   1.806  -7.766  0.00  0.00    -0.308 N 
ATOM     22  H   LIG d   1       6.960   1.372  -7.006  0.00  0.00     0.149 HD
ATOM     23  O   LIG d   1       9.150   2.841  -8.609  0.00  0.00    -0.276 OA
BRANCH  21  24
ATOM     24  C   LIG d   1       6.651   1.923  -9.032  0.00  0.00     0.070 C 
ATOM     25  H   LIG d   1       6.856   2.897  -9.479  0.00  0.00     0.054 H 
ATOM     26  H   LIG d   1       6.974   1.136  -9.712  0.00  0.00     0.054 H 
BRANCH  24  27
ATOM     27  C   LIG d   1       5.172   1.790  -8.777  0.00  0.00     0.122 A 
ATOM     28  C   LIG d   1       4.215   2.613  -9.244  0.00  0.00    -0.019 A 
ATOM     29  C   LIG d   1       2.980   2.117  -8.766  0.00  0.00    -0.024 A 
ATOM     30  H   LIG d   1       4.363   3.484  -9.865  0.00  0.00     0.065 H 
ATOM     31  C   LIG d   1       3.256   1.026  -8.030  0.00  0.00     0.092 A 
ATOM     32  H   LIG d   1       2.002   2.537  -8.954  0.00  0.00     0.065 H 
ATOM     33  O   LIG d   1       4.585   0.833  -8.040  0.00  0.00    -0.466 OA
ATOM     34  H   LIG d   1       2.532   0.410  -7.517  0.00  0.00     0.103 H 
ENDBRANCH  24  27
ENDBRANCH  21  24
ENDBRANCH  17  20
ENDBRANCH   1  17
BRANCH   6  35
ATOM     35  C   LIG d   1       8.362   0.607  -4.127  0.00  0.00     0.001 C 
ATOM     36  H   LIG d   1       8.779   0.002  -3.324  0.00  0.00     0.033 H 
ATOM     37  H   LIG d   1       8.738   0.250  -5.085  0.00  0.00     0.033 H 
BRANCH  35  38
ATOM     38  C   LIG d   1       6.858   0.503  -4.107  0.00  0.00     0.085 A 
ATOM     39  N   LIG d   1       6.082   0.275  -5.126  0.00  0.00    -0.083 NA
ATOM     40  O   LIG d   1       4.916   0.245  -4.808  0.00  0.00    -0.353 OA
ATOM     41  C   LIG d   1       4.760   0.450  -3.486  0.00  0.00     0.183 A 
ATOM     42  C   LIG d   1       6.018   0.632  -2.979  0.00  0.00     0.009 A 
ATOM     43  H   LIG d   1       6.302   0.824  -1.956  0.00  0.00     0.068 H 
BRANCH  41  44
ATOM     44  C   LIG d   1       3.491   0.476  -2.737  0.00  0.00     0.110 C 
ATOM     45  O   LIG d   1       3.237   1.411  -2.004  0.00  0.00    -0.541 OA
ATOM     46  O   LIG d   1       2.611  -0.537  -2.866  0.00  0.00    -0.541 OA
ENDBRANCH  41  44
ENDBRANCH  35  38
ENDBRANCH   6  35
TORSDOF 7
ENDMDL
MODEL 7
REMARK VINA RESULT:      -6.0      2.661      5.852
REMARK  7 active torsions:
REMARK  status: ('A' for Active; 'I' for Inactive)
REMARK    1  A    between atoms: C_3  and  C_6 
REMARK    2  A    between atoms: C_6  and  N_7 
REMARK       I    between atoms: N_7  and  C_8 
REMARK    3  A    between atoms: C_8  and  C_10 
REMARK    4  A    between atoms: C_10  and  C_11 
REMARK    5  A    between atoms: C_16  and  C_18 
REMARK    6  A    between atoms: C_18  and  C_19 
REMARK    7  A    between atoms: C_21  and  C_24 
ROOT
ATOM      1  C   LIG d   1       4.754  -0.458  -8.347  0.00  0.00    -0.020 C 
ATOM      2  H   LIG d   1       5.176  -0.326  -7.351  0.00  0.00     0.031 H 
ATOM      3  C   LIG d   1       5.422   0.519  -9.318  0.00  0.00    -0.009 C 
ATOM      4  C   LIG d   1       4.869   0.288 -10.727  0.00  0.00    -0.033 C 
ATOM      5  C   LIG d   1       4.463  -2.052 -10.245  0.00  0.00    -0.030 C 
ATOM      6  C   LIG d   1       5.004  -1.891  -8.823  0.00  0.00     0.008 C 
ATOM      7  H   LIG d   1       6.074  -2.096  -8.815  0.00  0.00     0.036 H 
ATOM      8  H   LIG d   1       5.212   1.542  -9.008  0.00  0.00     0.032 H 
ATOM      9  H   LIG d   1       6.499   0.351  -9.319  0.00  0.00     0.032 H 
ATOM     10  H   LIG d   1       3.794   0.468 -10.729  0.00  0.00     0.081 H 
ATOM     11  H   LIG d   1       5.354   0.972 -11.424  0.00  0.00     0.081 H 
ATOM     12  H   LIG d   1       4.652  -3.068 -10.593  0.00  0.00     0.082 H 
ATOM     13  H   LIG d   1       3.389  -1.861 -10.250  0.00  0.00     0.082 H 
ATOM     14  N   LIG d   1       5.140  -1.100 -11.147  0.00  0.00     0.227 N 
ATOM     15  H   LIG d   1       6.153  -1.271 -11.118  0.00  0.00     0.201 HD
ATOM     16  H   LIG d   1       4.796  -1.237 -12.104  0.00  0.00     0.201 HD
ENDROOT
BRANCH   1  17
ATOM     17  C   LIG d   1       3.248  -0.187  -8.305  0.00  0.00     0.027 C 
ATOM     18  H   LIG d   1       2.961   0.401  -9.177  0.00  0.00     0.036 H 
ATOM     19  H   LIG d   1       2.709  -1.134  -8.312  0.00  0.00     0.036 H 
BRANCH  17  20
ATOM     20  C   LIG d   1       2.909   0.575  -7.050  0.00  0.00     0.214 C 
ATOM     21  N   LIG d   1       2.735  -0.085  -5.888  0.00  0.00    -0.308 N 
ATOM     22  H   LIG d   1       2.826  -1.050  -5.859  0.00  0.00     0.149 HD
ATOM     23  O   LIG d   1       2.793   1.782  -7.085  0.00  0.00    -0.276 OA
BRANCH  21  24
ATOM     24  C   LIG d   1       2.404   0.655  -4.668  0.00  0.00     0.070 C 
ATOM     25  H   LIG d   1       2.148   1.683  -4.926  0.00  0.00     0.054 H 
ATOM     26  H   LIG d   1       1.557   0.182  -4.172  0.00  0.00     0.054 H 
BRANCH  24  27
ATOM     27  C   LIG d   1       3.593   0.652  -3.741  0.00  0.00     0.122 A 
ATOM     28  C   LIG d   1       3.543   0.710  -2.397  0.00  0.00    -0.019 A 
ATOM     29  C   LIG d   1       4.879   0.681  -1.937  0.00  0.00    -0.024 A 
ATOM     30  H   LIG d   1       2.653   0.768  -1.788  0.00  0.00     0.065 H 
ATOM     31  C   LIG d   1       5.666   0.614  -3.026  0.00  0.00     0.092 A 
ATOM     32  H   LIG d   1       5.206   0.710  -0.908  0.00  0.00     0.065 H 
ATOM     33  O   LIG d   1       4.881   0.597  -4.115  0.00  0.00    -0.466 OA
ATOM     34  H   LIG d   1       6.745   0.580  -3.025  0.00  0.00     0.103 H 
ENDBRANCH  24  27
ENDBRANCH  21  24
ENDBRANCH  17  20
ENDBRANCH   1  17
BRANCH   6  35
ATOM     35  C   LIG d   1       4.288  -2.871  -7.890  0.00  0.00     0.001 C 
ATOM     36  H   LIG d   1       4.294  -3.866  -8.334  0.00  0.00     0.033 H 
ATOM     37  H   LIG d   1       3.259  -2.545  -7.741  0.00  0.00     0.033 H 
BRANCH  35  38
ATOM     38  C   LIG d   1       5.000  -2.909  -6.561  0.00  0.00     0.085 A 
ATOM     39  N   LIG d   1       4.506  -2.573  -5.406  0.00  0.00    -0.083 NA
ATOM     40  O   LIG d   1       5.310  -2.707  -4.514  0.00  0.00    -0.353 OA
ATOM     41  C   LIG d   1       6.487  -3.172  -4.977  0.00  0.00     0.183 A 
ATOM     42  C   LIG d   1       6.332  -3.315  -6.329  0.00  0.00     0.009 A 
ATOM     43  H   LIG d   1       7.058  -3.663  -7.049  0.00  0.00     0.068 H 
BRANCH  41  44
ATOM     44  C   LIG d   1       7.697  -3.464  -4.187  0.00  0.00     0.110 C 
ATOM     45  O   LIG d   1       8.043  -2.706  -3.304  0.00  0.00    -0.541 OA
ATOM     46  O   LIG d   1       8.418  -4.573  -4.446  0.00  0.00    -0.541 OA
ENDBRANCH  41  44
ENDBRANCH  35  38
ENDBRANCH   6  35
TORSDOF 7
ENDMDL
MODEL 8
REMARK VINA RESULT:      -5.9      8.150     11.472
REMARK  7 active torsions:
REMARK  status: ('A' for Active; 'I' for Inactive)
REMARK    1  A    between atoms: C_3  and  C_6 
REMARK    2  A    between atoms: C_6  and  N_7 
REMARK       I    between atoms: N_7  and  C_8 
REMARK    3  A    between atoms: C_8  and  C_10 
REMARK    4  A    between atoms: C_10  and  C_11 
REMARK    5  A    between atoms: C_16  and  C_18 
REMARK    6  A    between atoms: C_18  and  C_19 
REMARK    7  A    between atoms: C_21  and  C_24 
ROOT
ATOM      1  C   LIG d   1      10.016   3.999  -4.253  0.00  0.00    -0.020 C 
ATOM      2  H   LIG d   1       9.063   4.443  -4.541  0.00  0.00     0.031 H 
ATOM      3  C   LIG d   1      10.832   3.682  -5.509  0.00  0.00    -0.009 C 
ATOM      4  C   LIG d   1      12.193   3.117  -5.098  0.00  0.00    -0.033 C 
ATOM      5  C   LIG d   1      12.159   4.383  -3.032  0.00  0.00    -0.030 C 
ATOM      6  C   LIG d   1      10.797   4.987  -3.382  0.00  0.00     0.008 C 
ATOM      7  H   LIG d   1      10.941   5.919  -3.928  0.00  0.00     0.036 H 
ATOM      8  H   LIG d   1      10.300   2.948  -6.113  0.00  0.00     0.032 H 
ATOM      9  H   LIG d   1      10.978   4.594  -6.089  0.00  0.00     0.032 H 
ATOM     10  H   LIG d   1      12.048   2.198  -4.530  0.00  0.00     0.081 H 
ATOM     11  H   LIG d   1      12.783   2.903  -5.990  0.00  0.00     0.081 H 
ATOM     12  H   LIG d   1      12.724   5.090  -2.423  0.00  0.00     0.082 H 
ATOM     13  H   LIG d   1      12.014   3.458  -2.473  0.00  0.00     0.082 H 
ATOM     14  N   LIG d   1      12.913   4.104  -4.269  0.00  0.00     0.227 N 
ATOM     15  H   LIG d   1      13.024   4.975  -4.801  0.00  0.00     0.201 HD
ATOM     16  H   LIG d   1      13.837   3.730  -4.025  0.00  0.00     0.201 HD
ENDROOT
BRANCH   1  17
ATOM     17  C   LIG d   1       9.765   2.710  -3.467  0.00  0.00     0.027 C 
ATOM     18  H   LIG d   1      10.627   2.051  -3.568  0.00  0.00     0.036 H 
ATOM     19  H   LIG d   1       9.612   2.951  -2.415  0.00  0.00     0.036 H 
BRANCH  17  20
ATOM     20  C   LIG d   1       8.539   2.022  -4.009  0.00  0.00     0.214 C 
ATOM     21  N   LIG d   1       8.285   0.741  -3.680  0.00  0.00    -0.308 N 
ATOM     22  H   LIG d   1       8.891   0.261  -3.094  0.00  0.00     0.149 HD
ATOM     23  O   LIG d   1       7.781   2.622  -4.743  0.00  0.00    -0.276 OA
BRANCH  21  24
ATOM     24  C   LIG d   1       7.094   0.071  -4.208  0.00  0.00     0.070 C 
ATOM     25  H   LIG d   1       6.764   0.579  -5.115  0.00  0.00     0.054 H 
ATOM     26  H   LIG d   1       7.331  -0.967  -4.438  0.00  0.00     0.054 H 
BRANCH  24  27
ATOM     27  C   LIG d   1       5.994   0.118  -3.178  0.00  0.00     0.122 A 
ATOM     28  C   LIG d   1       5.258  -0.930  -2.764  0.00  0.00    -0.019 A 
ATOM     29  C   LIG d   1       4.351  -0.437  -1.798  0.00  0.00    -0.024 A 
ATOM     30  H   LIG d   1       5.345  -1.952  -3.105  0.00  0.00     0.065 H 
ATOM     31  C   LIG d   1       4.582   0.882  -1.684  0.00  0.00     0.092 A 
ATOM     32  H   LIG d   1       3.613  -1.011  -1.257  0.00  0.00     0.065 H 
ATOM     33  O   LIG d   1       5.577   1.213  -2.523  0.00  0.00    -0.466 OA
ATOM     34  H   LIG d   1       4.056   1.562  -1.030  0.00  0.00     0.103 H 
ENDBRANCH  24  27
ENDBRANCH  21  24
ENDBRANCH  17  20
ENDBRANCH   1  17
BRANCH   6  35
ATOM     35  C   LIG d   1      10.015   5.262  -2.096  0.00  0.00     0.001 C 
ATOM     36  H   LIG d   1      10.561   4.857  -1.245  0.00  0.00     0.033 H 
ATOM     37  H   LIG d   1       9.035   4.790  -2.159  0.00  0.00     0.033 H 
BRANCH  35  38
ATOM     38  C   LIG d   1       9.844   6.750  -1.922  0.00  0.00     0.085 A 
ATOM     39  N   LIG d   1       9.276   7.355  -0.920  0.00  0.00    -0.083 NA
ATOM     40  O   LIG d   1       9.284   8.557  -1.053  0.00  0.00    -0.353 OA
ATOM     41  C   LIG d   1       9.888   8.921  -2.201  0.00  0.00     0.183 A 
ATOM     42  C   LIG d   1      10.270   7.759  -2.814  0.00  0.00     0.009 A 
ATOM     43  H   LIG d   1      10.783   7.641  -3.757  0.00  0.00     0.068 H 
BRANCH  41  44
ATOM     44  C   LIG d   1      10.093  10.294  -2.697  0.00  0.00     0.110 C 
ATOM     45  O   LIG d   1      10.821  11.055  -2.094  0.00  0.00    -0.541 OA
ATOM     46  O   LIG d   1       9.472  10.703  -3.822  0.00  0.00    -0.541 OA
ENDBRANCH  41  44
ENDBRANCH  35  38
ENDBRANCH   6  35
TORSDOF 7
ENDMDL
MODEL 9
REMARK VINA RESULT:      -5.8      2.984      6.915
REMARK  7 active torsions:
REMARK  status: ('A' for Active; 'I' for Inactive)
REMARK    1  A    between atoms: C_3  and  C_6 
REMARK    2  A    between atoms: C_6  and  N_7 
REMARK       I    between atoms: N_7  and  C_8 
REMARK    3  A    between atoms: C_8  and  C_10 
REMARK    4  A    between atoms: C_10  and  C_11 
REMARK    5  A    between atoms: C_16  and  C_18 
REMARK    6  A    between atoms: C_18  and  C_19 
REMARK    7  A    between atoms: C_21  and  C_24 
ROOT
ATOM      1  C   LIG d   1       2.516  -1.611  -9.237  0.00  0.00    -0.020 C 
ATOM      2  H   LIG d   1       1.800  -2.106  -8.580  0.00  0.00     0.031 H 
ATOM      3  C   LIG d   1       1.775  -0.994 -10.427  0.00  0.00    -0.009 C 
ATOM      4  C   LIG d   1       2.776  -0.249 -11.313  0.00  0.00    -0.033 C 
ATOM      5  C   LIG d   1       4.196   0.227  -9.409  0.00  0.00    -0.030 C 
ATOM      6  C   LIG d   1       3.238  -0.504  -8.465  0.00  0.00     0.008 C 
ATOM      7  H   LIG d   1       2.507   0.202  -8.071  0.00  0.00     0.036 H 
ATOM      8  H   LIG d   1       1.294  -1.783 -11.004  0.00  0.00     0.032 H 
ATOM      9  H   LIG d   1       1.021  -0.295 -10.064  0.00  0.00     0.032 H 
ATOM     10  H   LIG d   1       3.522  -0.950 -11.687  0.00  0.00     0.081 H 
ATOM     11  H   LIG d   1       2.250   0.204 -12.154  0.00  0.00     0.081 H 
ATOM     12  H   LIG d   1       4.702   1.026  -8.865  0.00  0.00     0.082 H 
ATOM     13  H   LIG d   1       4.936  -0.477  -9.791  0.00  0.00     0.082 H 
ATOM     14  N   LIG d   1       3.439   0.812 -10.532  0.00  0.00     0.227 N 
ATOM     15  H   LIG d   1       2.729   1.455 -10.162  0.00  0.00     0.201 HD
ATOM     16  H   LIG d   1       4.084   1.328 -11.142  0.00  0.00     0.201 HD
ENDROOT
BRANCH   1  17
ATOM     17  C   LIG d   1       3.537  -2.632  -9.744  0.00  0.00     0.027 C 
ATOM     18  H   LIG d   1       3.734  -2.453 -10.802  0.00  0.00     0.036 H 
ATOM     19  H   LIG d   1       4.464  -2.529  -9.180  0.00  0.00     0.036 H 
BRANCH  17  20
ATOM     20  C   LIG d   1       2.989  -4.024  -9.562  0.00  0.00     0.214 C 
ATOM     21  N   LIG d   1       2.225  -4.577 -10.523  0.00  0.00    -0.308 N 
ATOM     22  H   LIG d   1       2.026  -4.080 -11.332  0.00  0.00     0.149 HD
ATOM     23  O   LIG d   1       3.236  -4.645  -8.550  0.00  0.00    -0.276 OA
BRANCH  21  24
ATOM     24  C   LIG d   1       1.691  -5.930 -10.346  0.00  0.00     0.070 C 
ATOM     25  H   LIG d   1       1.870  -6.513 -11.250  0.00  0.00     0.054 H 
ATOM     26  H   LIG d   1       2.185  -6.409  -9.501  0.00  0.00     0.054 H 
BRANCH  24  27
ATOM     27  C   LIG d   1       0.208  -5.855 -10.084  0.00  0.00     0.122 A 
ATOM     28  C   LIG d   1      -0.615  -4.873 -10.496  0.00  0.00    -0.019 A 
ATOM     29  C   LIG d   1      -1.909  -5.204 -10.034  0.00  0.00    -0.024 A 
ATOM     30  H   LIG d   1      -0.339  -4.001 -11.070  0.00  0.00     0.065 H 
ATOM     31  C   LIG d   1      -1.799  -6.364  -9.362  0.00  0.00     0.092 A 
ATOM     32  H   LIG d   1      -2.813  -4.633 -10.189  0.00  0.00     0.065 H 
ATOM     33  O   LIG d   1      -0.514  -6.753  -9.395  0.00  0.00    -0.466 OA
ATOM     34  H   LIG d   1      -2.606  -6.892  -8.877  0.00  0.00     0.103 H 
ENDBRANCH  24  27
ENDBRANCH  21  24
ENDBRANCH  17  20
ENDBRANCH   1  17
BRANCH   6  35
ATOM     35  C   LIG d   1       4.029  -1.120  -7.309  0.00  0.00     0.001 C 
ATOM     36  H   LIG d   1       5.096  -1.054  -7.524  0.00  0.00     0.033 H 
ATOM     37  H   LIG d   1       3.745  -2.165  -7.191  0.00  0.00     0.033 H 
BRANCH  35  38
ATOM     38  C   LIG d   1       3.725  -0.370  -6.037  0.00  0.00     0.085 A 
ATOM     39  N   LIG d   1       3.008   0.709  -5.924  0.00  0.00    -0.083 NA
ATOM     40  O   LIG d   1       2.937   1.087  -4.778  0.00  0.00    -0.353 OA
ATOM     41  C   LIG d   1       3.620   0.275  -3.948  0.00  0.00     0.183 A 
ATOM     42  C   LIG d   1       4.165  -0.702  -4.736  0.00  0.00     0.009 A 
ATOM     43  H   LIG d   1       4.782  -1.535  -4.434  0.00  0.00     0.068 H 
BRANCH  41  44
ATOM     44  C   LIG d   1       3.755   0.412  -2.486  0.00  0.00     0.110 C 
ATOM     45  O   LIG d   1       3.425   1.445  -1.941  0.00  0.00    -0.541 OA
ATOM     46  O   LIG d   1       4.243  -0.611  -1.756  0.00  0.00    -0.541 OA
ENDBRANCH  41  44
ENDBRANCH  35  38
ENDBRANCH   6  35
TORSDOF 7
ENDMDL
