MODEL 1
REMARK VINA RESULT:      -6.6      0.000      0.000
REMARK  22 active torsions:
REMARK  status: ('A' for Active; 'I' for Inactive)
REMARK    1  A    between atoms: C_1  and  C_2 
REMARK    2  A    between atoms: C_2  and  C_3 
REMARK    3  A    between atoms: C_3  and  C_37 
REMARK    4  A    between atoms: C_6  and  C_9 
REMARK    5  A    between atoms: C_9  and  C_36 
REMARK    6  A    between atoms: C_15  and  O_35 
REMARK    7  A    between atoms: C_17  and  C_34 
REMARK    8  A    between atoms: C_19  and  C_22 
REMARK    9  A    between atoms: C_22  and  C_24 
REMARK   10  A    between atoms: C_22  and  C_25 
REMARK   11  A    between atoms: C_25  and  C_27 
REMARK   12  A    between atoms: C_25  and  O_32 
REMARK   13  A    between atoms: C_27  and  C_29 
REMARK   14  A    between atoms: C_27  and  C_30 
REMARK   15  A    between atoms: O_32  and  C_33 
REMARK   16  A    between atoms: C_39  and  C_59 
REMARK   17  A    between atoms: C_42  and  C_45 
REMARK   18  A    between atoms: C_47  and  C_58 
REMARK   19  A    between atoms: C_50  and  C_57 
REMARK   20  A    between atoms: C_52  and  C_54 
REMARK   21  A    between atoms: C_52  and  O_56 
REMARK   22  A    between atoms: C_54  and  O_55 
ROOT
ATOM      1  C   LIG d   1       4.030   0.615  -9.246  0.00  0.00     0.096 C 
ATOM      2  C   LIG d   1       2.602   1.033  -8.835  0.00  0.00    -0.019 C 
ATOM      3  C   LIG d   1       1.736  -0.096  -9.459  0.00  0.00    -0.021 C 
ATOM      4  C   LIG d   1       2.537  -0.403 -10.749  0.00  0.00     0.088 C 
ATOM      5  H   LIG d   1       2.281   0.309 -11.533  0.00  0.00     0.062 H 
ATOM      6  O   LIG d   1       3.917  -0.258 -10.376  0.00  0.00    -0.365 OA
ATOM      7  H   LIG d   1       2.499   1.046  -7.750  0.00  0.00     0.029 H 
ATOM      8  H   LIG d   1       2.344   2.003  -9.260  0.00  0.00     0.029 H 
ATOM      9  H   LIG d   1       0.734   0.263  -9.694  0.00  0.00     0.029 H 
ATOM     10  H   LIG d   1       1.696  -0.966  -8.804  0.00  0.00     0.029 H 
ENDROOT
BRANCH   4  11
ATOM     11  C   LIG d   1       2.261  -1.832 -11.217  0.00  0.00     0.096 C 
ATOM     12  O   LIG d   1       1.092  -1.858 -12.055  0.00  0.00    -0.340 OA
ATOM     13  C   LIG d   1       1.317  -2.861 -13.059  0.00  0.00     0.174 C 
ATOM     14  C   LIG d   1       2.807  -2.699 -13.430  0.00  0.00     0.004 C 
ATOM     15  O   LIG d   1       1.081  -4.161 -12.532  0.00  0.00    -0.345 OA
ATOM     16  C   LIG d   1       0.443  -2.599 -14.281  0.00  0.00     0.028 C 
ATOM     17  C   LIG d   1       3.444  -2.343 -12.064  0.00  0.00    -0.017 C 
ATOM     18  H   LIG d   1       3.214  -3.633 -13.819  0.00  0.00     0.032 H 
ATOM     19  H   LIG d   1       2.943  -1.890 -14.147  0.00  0.00     0.032 H 
ATOM     20  H   LIG d   1       3.886  -3.229 -11.607  0.00  0.00     0.029 H 
ATOM     21  H   LIG d   1       4.194  -1.562 -12.185  0.00  0.00     0.029 H 
ATOM     22  C   LIG d   1      -0.271  -4.396 -12.131  0.00  0.00     0.072 C 
ATOM     23  C   LIG d   1      -1.197  -4.224 -13.337  0.00  0.00     0.009 C 
ATOM     24  H   LIG d   1      -0.549  -3.684 -11.354  0.00  0.00     0.060 H 
ATOM     25  C   LIG d   1      -1.027  -2.812 -13.906  0.00  0.00     0.065 C 
ATOM     26  H   LIG d   1      -2.232  -4.370 -13.026  0.00  0.00     0.035 H 
ATOM     27  H   LIG d   1      -1.650  -2.697 -14.793  0.00  0.00     0.060 H 
ATOM     28  H   LIG d   1       0.588  -1.572 -14.617  0.00  0.00     0.034 H 
ATOM     29  H   LIG d   1       0.719  -3.286 -15.080  0.00  0.00     0.034 H 
BRANCH  22  30
ATOM     30  C   LIG d   1      -0.401  -5.820 -11.586  0.00  0.00     0.010 C 
ATOM     31  H   LIG d   1       0.001  -6.526 -12.314  0.00  0.00     0.035 H 
BRANCH  30  32
ATOM     32  C   LIG d   1       0.380  -5.939 -10.276  0.00  0.00    -0.058 C 
ATOM     33  H   LIG d   1       1.396  -5.574 -10.425  0.00  0.00     0.023 H 
ATOM     34  H   LIG d   1      -0.110  -5.343  -9.505  0.00  0.00     0.023 H 
ATOM     35  H   LIG d   1       0.410  -6.982  -9.964  0.00  0.00     0.023 H 
ENDBRANCH  30  32
BRANCH  30  36
ATOM     36  C   LIG d   1      -1.876  -6.136 -11.332  0.00  0.00     0.071 C 
ATOM     37  H   LIG d   1      -2.488  -5.645 -12.088  0.00  0.00     0.060 H 
BRANCH  36  38
ATOM     38  C   LIG d   1      -2.274  -5.627  -9.944  0.00  0.00     0.022 C 
ATOM     39  H   LIG d   1      -1.443  -5.073  -9.508  0.00  0.00     0.038 H 
BRANCH  38  40
ATOM     40  C   LIG d   1      -2.624  -6.815  -9.047  0.00  0.00    -0.055 C 
ATOM     41  H   LIG d   1      -2.849  -6.458  -8.042  0.00  0.00     0.024 H 
ATOM     42  H   LIG d   1      -3.494  -7.333  -9.451  0.00  0.00     0.024 H 
ATOM     43  H   LIG d   1      -1.778  -7.502  -9.007  0.00  0.00     0.024 H 
ENDBRANCH  38  40
BRANCH  38  44
ATOM     44  C   LIG d   1      -3.473  -4.721 -10.067  0.00  0.00     0.047 C 
ATOM     45  O   LIG d   1      -3.756  -4.236 -11.136  0.00  0.00    -0.549 OA
ATOM     46  O   LIG d   1      -4.224  -4.452  -8.988  0.00  0.00    -0.549 OA
ENDBRANCH  38  44
ENDBRANCH  36  38
BRANCH  36  47
ATOM     47  O   LIG d   1      -2.079  -7.548 -11.397  0.00  0.00    -0.379 OA
BRANCH  47  48
ATOM     48  C   LIG d   1      -2.677  -7.994 -12.616  0.00  0.00     0.037 C 
ATOM     49  H   LIG d   1      -2.371  -9.021 -12.816  0.00  0.00     0.052 H 
ATOM     50  H   LIG d   1      -3.762  -7.950 -12.527  0.00  0.00     0.052 H 
ATOM     51  H   LIG d   1      -2.353  -7.351 -13.435  0.00  0.00     0.052 H 
ENDBRANCH  47  48
ENDBRANCH  36  47
ENDBRANCH  30  36
ENDBRANCH  22  30
BRANCH  23  52
ATOM     52  C   LIG d   1      -0.835  -5.253 -14.410  0.00  0.00    -0.058 C 
ATOM     53  H   LIG d   1      -0.357  -4.749 -15.250  0.00  0.00     0.023 H 
ATOM     54  H   LIG d   1      -0.149  -5.989 -13.990  0.00  0.00     0.023 H 
ATOM     55  H   LIG d   1      -1.740  -5.754 -14.753  0.00  0.00     0.023 H 
ENDBRANCH  23  52
BRANCH  25  56
ATOM     56  O   LIG d   1      -1.415  -1.851 -12.922  0.00  0.00    -0.391 OA
ATOM     57  H   LIG d   1      -1.574  -2.227 -12.045  0.00  0.00     0.210 HD
ENDBRANCH  25  56
BRANCH  11  58
ATOM     58  C   LIG d   1       2.055  -2.745 -10.008  0.00  0.00    -0.033 C 
ATOM     59  H   LIG d   1       2.954  -3.341  -9.844  0.00  0.00     0.026 H 
ATOM     60  H   LIG d   1       1.855  -2.140  -9.124  0.00  0.00     0.026 H 
ATOM     61  H   LIG d   1       1.210  -3.408 -10.192  0.00  0.00     0.026 H 
ENDBRANCH  11  58
ENDBRANCH   4  11
BRANCH   1  62
ATOM     62  C   LIG d   1       4.846   1.853  -9.626  0.00  0.00    -0.024 C 
ATOM     63  H   LIG d   1       5.790   1.847  -9.083  0.00  0.00     0.029 H 
ATOM     64  H   LIG d   1       5.042   1.844 -10.698  0.00  0.00     0.029 H 
BRANCH  62  65
ATOM     65  C   LIG d   1       4.058   3.114  -9.262  0.00  0.00    -0.063 C 
ATOM     66  H   LIG d   1       3.092   2.830  -8.844  0.00  0.00     0.023 H 
ATOM     67  H   LIG d   1       4.616   3.692  -8.527  0.00  0.00     0.023 H 
ATOM     68  H   LIG d   1       3.902   3.716 -10.157  0.00  0.00     0.023 H 
ENDBRANCH  62  65
ENDBRANCH   1  62
BRANCH   1  69
ATOM     69  C   LIG d   1       4.710  -0.120  -8.089  0.00  0.00     0.091 C 
ATOM     70  H   LIG d   1       3.977  -0.410  -7.337  0.00  0.00     0.063 H 
ATOM     71  O   LIG d   1       5.746   0.700  -7.505  0.00  0.00    -0.368 OA
ATOM     72  C   LIG d   1       6.643  -0.185  -6.816  0.00  0.00     0.086 C 
ATOM     73  C   LIG d   1       6.553  -1.559  -7.507  0.00  0.00    -0.019 C 
ATOM     74  H   LIG d   1       7.663   0.195  -6.879  0.00  0.00     0.062 H 
ATOM     75  C   LIG d   1       5.481  -1.360  -8.608  0.00  0.00    -0.012 C 
ATOM     76  H   LIG d   1       6.234  -2.323  -6.799  0.00  0.00     0.029 H 
ATOM     77  H   LIG d   1       7.511  -1.827  -7.952  0.00  0.00     0.029 H 
ATOM     78  H   LIG d   1       4.824  -2.227  -8.673  0.00  0.00     0.033 H 
BRANCH  72  79
ATOM     79  C   LIG d   1       6.225  -0.313  -5.349  0.00  0.00     0.091 C 
ATOM     80  H   LIG d   1       6.693   0.481  -4.768  0.00  0.00     0.063 H 
ATOM     81  O   LIG d   1       4.804  -0.206  -5.247  0.00  0.00    -0.340 OA
ATOM     82  C   LIG d   1       4.307  -0.288  -3.910  0.00  0.00     0.194 C 
ATOM     83  C   LIG d   1       4.679  -1.647  -3.311  0.00  0.00     0.013 C 
ATOM     84  C   LIG d   1       6.200  -1.819  -3.359  0.00  0.00    -0.041 C 
ATOM     85  H   LIG d   1       4.204  -2.441  -3.887  0.00  0.00     0.035 H 
ATOM     86  C   LIG d   1       6.674  -1.674  -4.809  0.00  0.00    -0.015 C 
ATOM     87  H   LIG d   1       6.468  -2.808  -2.986  0.00  0.00     0.027 H 
ATOM     88  H   LIG d   1       6.675  -1.057  -2.742  0.00  0.00     0.027 H 
ATOM     89  H   LIG d   1       6.239  -2.468  -5.416  0.00  0.00     0.032 H 
BRANCH  82  90
ATOM     90  C   LIG d   1       2.786  -0.134  -3.920  0.00  0.00     0.098 C 
ATOM     91  H   LIG d   1       2.332  -0.967  -3.384  0.00  0.00     0.061 H 
ATOM     92  H   LIG d   1       2.512   0.802  -3.433  0.00  0.00     0.061 H 
BRANCH  90  93
ATOM     93  O   LIG d   1       2.316  -0.124  -5.270  0.00  0.00    -0.390 OA
ATOM     94  H   LIG d   1       1.698   0.592  -5.466  0.00  0.00     0.210 HD
ENDBRANCH  90  93
ENDBRANCH  82  90
BRANCH  82  95
ATOM     95  O   LIG d   1       4.887   0.754  -3.121  0.00  0.00    -0.363 OA
ATOM     96  H   LIG d   1       4.484   0.856  -2.247  0.00  0.00     0.213 HD
ENDBRANCH  82  95
BRANCH  83  97
ATOM     97  C   LIG d   1       4.203  -1.713  -1.859  0.00  0.00    -0.057 C 
ATOM     98  H   LIG d   1       4.984  -1.332  -1.202  0.00  0.00     0.023 H 
ATOM     99  H   LIG d   1       3.303  -1.108  -1.743  0.00  0.00     0.023 H 
ATOM    100  H   LIG d   1       3.981  -2.748  -1.596  0.00  0.00     0.023 H 
ENDBRANCH  83  97
BRANCH  86 101
ATOM    101  C   LIG d   1       8.200  -1.767  -4.860  0.00  0.00    -0.060 C 
ATOM    102  H   LIG d   1       8.604  -0.866  -5.322  0.00  0.00     0.023 H 
ATOM    103  H   LIG d   1       8.593  -1.863  -3.848  0.00  0.00     0.023 H 
ATOM    104  H   LIG d   1       8.492  -2.637  -5.447  0.00  0.00     0.023 H 
ENDBRANCH  86 101
ENDBRANCH  72  79
BRANCH  75 105
ATOM    105  C   LIG d   1       6.135  -1.070  -9.961  0.00  0.00    -0.060 C 
ATOM    106  H   LIG d   1       5.373  -0.752 -10.672  0.00  0.00     0.023 H 
ATOM    107  H   LIG d   1       6.875  -0.277  -9.843  0.00  0.00     0.023 H 
ATOM    108  H   LIG d   1       6.624  -1.972 -10.328  0.00  0.00     0.023 H 
ENDBRANCH  75 105
ENDBRANCH   1  69
TORSDOF 22
ENDMDL
MODEL 2
REMARK VINA RESULT:      -6.5      8.024     14.989
REMARK  22 active torsions:
REMARK  status: ('A' for Active; 'I' for Inactive)
REMARK    1  A    between atoms: C_1  and  C_2 
REMARK    2  A    between atoms: C_2  and  C_3 
REMARK    3  A    between atoms: C_3  and  C_37 
REMARK    4  A    between atoms: C_6  and  C_9 
REMARK    5  A    between atoms: C_9  and  C_36 
REMARK    6  A    between atoms: C_15  and  O_35 
REMARK    7  A    between atoms: C_17  and  C_34 
REMARK    8  A    between atoms: C_19  and  C_22 
REMARK    9  A    between atoms: C_22  and  C_24 
REMARK   10  A    between atoms: C_22  and  C_25 
REMARK   11  A    between atoms: C_25  and  C_27 
REMARK   12  A    between atoms: C_25  and  O_32 
REMARK   13  A    between atoms: C_27  and  C_29 
REMARK   14  A    between atoms: C_27  and  C_30 
REMARK   15  A    between atoms: O_32  and  C_33 
REMARK   16  A    between atoms: C_39  and  C_59 
REMARK   17  A    between atoms: C_42  and  C_45 
REMARK   18  A    between atoms: C_47  and  C_58 
REMARK   19  A    between atoms: C_50  and  C_57 
REMARK   20  A    between atoms: C_52  and  C_54 
REMARK   21  A    between atoms: C_52  and  O_56 
REMARK   22  A    between atoms: C_54  and  O_55 
ROOT
ATOM      1  C   LIG d   1      10.668   2.142  -5.163  0.00  0.00     0.096 C 
ATOM      2  C   LIG d   1      11.403   1.726  -3.871  0.00  0.00    -0.019 C 
ATOM      3  C   LIG d   1      11.283   3.005  -2.997  0.00  0.00    -0.021 C 
ATOM      4  C   LIG d   1      11.359   4.110  -4.080  0.00  0.00     0.088 C 
ATOM      5  H   LIG d   1      12.397   4.314  -4.341  0.00  0.00     0.062 H 
ATOM      6  O   LIG d   1      10.657   3.574  -5.213  0.00  0.00    -0.365 OA
ATOM      7  H   LIG d   1      10.904   0.882  -3.395  0.00  0.00     0.029 H 
ATOM      8  H   LIG d   1      12.448   1.491  -4.078  0.00  0.00     0.029 H 
ATOM      9  H   LIG d   1      12.115   3.081  -2.297  0.00  0.00     0.029 H 
ATOM     10  H   LIG d   1      10.328   3.033  -2.472  0.00  0.00     0.029 H 
ENDROOT
BRANCH   4  11
ATOM     11  C   LIG d   1      10.675   5.385  -3.585  0.00  0.00     0.096 C 
ATOM     12  O   LIG d   1      11.519   6.524  -3.831  0.00  0.00    -0.340 OA
ATOM     13  C   LIG d   1      10.655   7.627  -4.148  0.00  0.00     0.174 C 
ATOM     14  C   LIG d   1       9.544   7.001  -5.020  0.00  0.00     0.004 C 
ATOM     15  O   LIG d   1      10.095   8.182  -2.965  0.00  0.00    -0.345 OA
ATOM     16  C   LIG d   1      11.410   8.685  -4.945  0.00  0.00     0.028 C 
ATOM     17  C   LIG d   1       9.363   5.610  -4.363  0.00  0.00    -0.017 C 
ATOM     18  H   LIG d   1       8.625   7.585  -4.957  0.00  0.00     0.032 H 
ATOM     19  H   LIG d   1       9.871   6.904  -6.055  0.00  0.00     0.032 H 
ATOM     20  H   LIG d   1       8.512   5.618  -3.682  0.00  0.00     0.029 H 
ATOM     21  H   LIG d   1       9.233   4.843  -5.126  0.00  0.00     0.029 H 
ATOM     22  C   LIG d   1      11.054   8.761  -2.076  0.00  0.00     0.072 C 
ATOM     23  C   LIG d   1      11.797   9.890  -2.795  0.00  0.00     0.009 C 
ATOM     24  H   LIG d   1      11.766   7.998  -1.763  0.00  0.00     0.060 H 
ATOM     25  C   LIG d   1      12.474   9.328  -4.050  0.00  0.00     0.065 C 
ATOM     26  H   LIG d   1      12.551  10.311  -2.130  0.00  0.00     0.035 H 
ATOM     27  H   LIG d   1      12.967  10.136  -4.591  0.00  0.00     0.060 H 
ATOM     28  H   LIG d   1      11.891   8.217  -5.804  0.00  0.00     0.034 H 
ATOM     29  H   LIG d   1      10.712   9.448  -5.289  0.00  0.00     0.034 H 
BRANCH  22  30
ATOM     30  C   LIG d   1      10.336   9.325  -0.848  0.00  0.00     0.010 C 
ATOM     31  H   LIG d   1      10.357  10.414  -0.882  0.00  0.00     0.035 H 
BRANCH  30  32
ATOM     32  C   LIG d   1       8.883   8.843  -0.840  0.00  0.00    -0.058 C 
ATOM     33  H   LIG d   1       8.846   7.798  -1.148  0.00  0.00     0.023 H 
ATOM     34  H   LIG d   1       8.473   8.940   0.166  0.00  0.00     0.023 H 
ATOM     35  H   LIG d   1       8.297   9.447  -1.531  0.00  0.00     0.023 H 
ENDBRANCH  30  32
BRANCH  30  36
ATOM     36  C   LIG d   1      11.041   8.842   0.421  0.00  0.00     0.071 C 
ATOM     37  H   LIG d   1      10.332   8.834   1.249  0.00  0.00     0.060 H 
BRANCH  36  38
ATOM     38  C   LIG d   1      12.200   9.785   0.750  0.00  0.00     0.022 C 
ATOM     39  H   LIG d   1      12.097  10.703   0.172  0.00  0.00     0.038 H 
BRANCH  38  40
ATOM     40  C   LIG d   1      13.525   9.106   0.398  0.00  0.00    -0.055 C 
ATOM     41  H   LIG d   1      14.093   9.746  -0.277  0.00  0.00     0.024 H 
ATOM     42  H   LIG d   1      14.101   8.939   1.309  0.00  0.00     0.024 H 
ATOM     43  H   LIG d   1      13.326   8.151  -0.088  0.00  0.00     0.024 H 
ENDBRANCH  38  40
BRANCH  38  44
ATOM     44  C   LIG d   1      12.179  10.112   2.222  0.00  0.00     0.047 C 
ATOM     45  O   LIG d   1      11.878  11.222   2.590  0.00  0.00    -0.549 OA
ATOM     46  O   LIG d   1      12.494   9.169   3.124  0.00  0.00    -0.549 OA
ENDBRANCH  38  44
ENDBRANCH  36  38
BRANCH  36  47
ATOM     47  O   LIG d   1      11.545   7.522   0.213  0.00  0.00    -0.379 OA
BRANCH  47  48
ATOM     48  C   LIG d   1      11.079   6.564   1.165  0.00  0.00     0.037 C 
ATOM     49  H   LIG d   1      11.641   6.670   2.093  0.00  0.00     0.052 H 
ATOM     50  H   LIG d   1      10.020   6.733   1.362  0.00  0.00     0.052 H 
ATOM     51  H   LIG d   1      11.218   5.558   0.767  0.00  0.00     0.052 H 
ENDBRANCH  47  48
ENDBRANCH  36  47
ENDBRANCH  30  36
ENDBRANCH  22  30
BRANCH  23  52
ATOM     52  C   LIG d   1      10.802  10.981  -3.197  0.00  0.00    -0.058 C 
ATOM     53  H   LIG d   1      11.216  11.564  -4.020  0.00  0.00     0.023 H 
ATOM     54  H   LIG d   1       9.866  10.521  -3.513  0.00  0.00     0.023 H 
ATOM     55  H   LIG d   1      10.616  11.635  -2.346  0.00  0.00     0.023 H 
ENDBRANCH  23  52
BRANCH  25  56
ATOM     56  O   LIG d   1      13.440   8.346  -3.672  0.00  0.00    -0.391 OA
ATOM     57  H   LIG d   1      14.323   8.503  -4.033  0.00  0.00     0.210 HD
ENDBRANCH  25  56
BRANCH  11  58
ATOM     58  C   LIG d   1      10.379   5.270  -2.089  0.00  0.00    -0.033 C 
ATOM     59  H   LIG d   1       9.694   6.066  -1.792  0.00  0.00     0.026 H 
ATOM     60  H   LIG d   1       9.923   4.303  -1.881  0.00  0.00     0.026 H 
ATOM     61  H   LIG d   1      11.308   5.363  -1.526  0.00  0.00     0.026 H 
ENDBRANCH  11  58
ENDBRANCH   4  11
BRANCH   1  62
ATOM     62  C   LIG d   1      11.404   1.586  -6.383  0.00  0.00    -0.024 C 
ATOM     63  H   LIG d   1      10.773   0.853  -6.886  0.00  0.00     0.029 H 
ATOM     64  H   LIG d   1      11.635   2.400  -7.070  0.00  0.00     0.029 H 
BRANCH  62  65
ATOM     65  C   LIG d   1      12.704   0.915  -5.933  0.00  0.00    -0.063 C 
ATOM     66  H   LIG d   1      13.283   0.620  -6.808  0.00  0.00     0.023 H 
ATOM     67  H   LIG d   1      13.285   1.615  -5.333  0.00  0.00     0.023 H 
ATOM     68  H   LIG d   1      12.471   0.033  -5.338  0.00  0.00     0.023 H 
ENDBRANCH  62  65
ENDBRANCH   1  62
BRANCH   1  69
ATOM     69  C   LIG d   1       9.232   1.613  -5.137  0.00  0.00     0.091 C 
ATOM     70  H   LIG d   1       8.757   1.842  -4.183  0.00  0.00     0.063 H 
ATOM     71  O   LIG d   1       9.210   0.192  -5.392  0.00  0.00    -0.368 OA
ATOM     72  C   LIG d   1       7.888  -0.132  -5.850  0.00  0.00     0.086 C 
ATOM     73  C   LIG d   1       7.305   1.137  -6.502  0.00  0.00    -0.019 C 
ATOM     74  H   LIG d   1       7.934  -0.938  -6.584  0.00  0.00     0.062 H 
ATOM     75  C   LIG d   1       8.412   2.204  -6.311  0.00  0.00    -0.012 C 
ATOM     76  H   LIG d   1       6.391   1.442  -5.994  0.00  0.00     0.029 H 
ATOM     77  H   LIG d   1       7.116   0.970  -7.562  0.00  0.00     0.029 H 
ATOM     78  H   LIG d   1       7.981   3.167  -6.039  0.00  0.00     0.033 H 
BRANCH  72  79
ATOM     79  C   LIG d   1       7.015  -0.556  -4.666  0.00  0.00     0.091 C 
ATOM     80  H   LIG d   1       7.541  -0.346  -3.735  0.00  0.00     0.063 H 
ATOM     81  O   LIG d   1       5.786   0.173  -4.695  0.00  0.00    -0.340 OA
ATOM     82  C   LIG d   1       4.903  -0.130  -3.614  0.00  0.00     0.194 C 
ATOM     83  C   LIG d   1       4.524  -1.612  -3.665  0.00  0.00     0.013 C 
ATOM     84  C   LIG d   1       5.798  -2.459  -3.607  0.00  0.00    -0.041 C 
ATOM     85  H   LIG d   1       3.990  -1.820  -4.593  0.00  0.00     0.035 H 
ATOM     86  C   LIG d   1       6.720  -2.055  -4.762  0.00  0.00    -0.015 C 
ATOM     87  H   LIG d   1       5.539  -3.515  -3.700  0.00  0.00     0.027 H 
ATOM     88  H   LIG d   1       6.306  -2.292  -2.658  0.00  0.00     0.027 H 
ATOM     89  H   LIG d   1       6.231  -2.271  -5.712  0.00  0.00     0.032 H 
BRANCH  82  90
ATOM     90  C   LIG d   1       3.640   0.725  -3.732  0.00  0.00     0.098 C 
ATOM     91  H   LIG d   1       3.345   0.795  -4.778  0.00  0.00     0.061 H 
ATOM     92  H   LIG d   1       2.835   0.266  -3.158  0.00  0.00     0.061 H 
BRANCH  90  93
ATOM     93  O   LIG d   1       3.901   2.035  -3.223  0.00  0.00    -0.390 OA
ATOM     94  H   LIG d   1       3.911   2.725  -3.899  0.00  0.00     0.210 HD
ENDBRANCH  90  93
ENDBRANCH  82  90
BRANCH  82  95
ATOM     95  O   LIG d   1       5.554   0.152  -2.373  0.00  0.00    -0.363 OA
ATOM     96  H   LIG d   1       6.520   0.115  -2.419  0.00  0.00     0.213 HD
ENDBRANCH  82  95
BRANCH  83  97
ATOM     97  C   LIG d   1       3.628  -1.952  -2.473  0.00  0.00    -0.057 C 
ATOM     98  H   LIG d   1       3.619  -3.031  -2.320  0.00  0.00     0.023 H 
ATOM     99  H   LIG d   1       4.012  -1.461  -1.578  0.00  0.00     0.023 H 
ATOM    100  H   LIG d   1       2.613  -1.606  -2.670  0.00  0.00     0.023 H 
ENDBRANCH  83  97
BRANCH  86 101
ATOM    101  C   LIG d   1       8.030  -2.841  -4.669  0.00  0.00    -0.060 C 
ATOM    102  H   LIG d   1       8.872  -2.156  -4.765  0.00  0.00     0.023 H 
ATOM    103  H   LIG d   1       8.082  -3.348  -3.705  0.00  0.00     0.023 H 
ATOM    104  H   LIG d   1       8.069  -3.579  -5.470  0.00  0.00     0.023 H 
ENDBRANCH  86 101
ENDBRANCH  72  79
BRANCH  75 105
ATOM    105  C   LIG d   1       9.273   2.328  -7.571  0.00  0.00    -0.060 C 
ATOM    106  H   LIG d   1       9.016   1.530  -8.267  0.00  0.00     0.023 H 
ATOM    107  H   LIG d   1       9.088   3.295  -8.042  0.00  0.00     0.023 H 
ATOM    108  H   LIG d   1      10.325   2.251  -7.299  0.00  0.00     0.023 H 
ENDBRANCH  75 105
ENDBRANCH   1  69
TORSDOF 22
ENDMDL
MODEL 3
REMARK VINA RESULT:      -6.3      2.160      3.244
REMARK  22 active torsions:
REMARK  status: ('A' for Active; 'I' for Inactive)
REMARK    1  A    between atoms: C_1  and  C_2 
REMARK    2  A    between atoms: C_2  and  C_3 
REMARK    3  A    between atoms: C_3  and  C_37 
REMARK    4  A    between atoms: C_6  and  C_9 
REMARK    5  A    between atoms: C_9  and  C_36 
REMARK    6  A    between atoms: C_15  and  O_35 
REMARK    7  A    between atoms: C_17  and  C_34 
REMARK    8  A    between atoms: C_19  and  C_22 
REMARK    9  A    between atoms: C_22  and  C_24 
REMARK   10  A    between atoms: C_22  and  C_25 
REMARK   11  A    between atoms: C_25  and  C_27 
REMARK   12  A    between atoms: C_25  and  O_32 
REMARK   13  A    between atoms: C_27  and  C_29 
REMARK   14  A    between atoms: C_27  and  C_30 
REMARK   15  A    between atoms: O_32  and  C_33 
REMARK   16  A    between atoms: C_39  and  C_59 
REMARK   17  A    between atoms: C_42  and  C_45 
REMARK   18  A    between atoms: C_47  and  C_58 
REMARK   19  A    between atoms: C_50  and  C_57 
REMARK   20  A    between atoms: C_52  and  C_54 
REMARK   21  A    between atoms: C_52  and  O_56 
REMARK   22  A    between atoms: C_54  and  O_55 
ROOT
ATOM      1  C   LIG d   1       4.151   0.614  -9.333  0.00  0.00     0.096 C 
ATOM      2  C   LIG d   1       2.650   0.764  -9.004  0.00  0.00    -0.019 C 
ATOM      3  C   LIG d   1       2.023  -0.430  -9.774  0.00  0.00    -0.021 C 
ATOM      4  C   LIG d   1       2.946  -0.496 -11.017  0.00  0.00     0.088 C 
ATOM      5  H   LIG d   1       2.628   0.230 -11.765  0.00  0.00     0.062 H 
ATOM      6  O   LIG d   1       4.256  -0.167 -10.529  0.00  0.00    -0.365 OA
ATOM      7  H   LIG d   1       2.476   0.670  -7.933  0.00  0.00     0.029 H 
ATOM      8  H   LIG d   1       2.265   1.714  -9.376  0.00  0.00     0.029 H 
ATOM      9  H   LIG d   1       0.993  -0.215 -10.060  0.00  0.00     0.029 H 
ATOM     10  H   LIG d   1       2.083  -1.348  -9.190  0.00  0.00     0.029 H 
ENDROOT
BRANCH   4  11
ATOM     11  C   LIG d   1       2.939  -1.906 -11.608  0.00  0.00     0.096 C 
ATOM     12  O   LIG d   1       1.689  -2.557 -11.315  0.00  0.00    -0.340 OA
ATOM     13  C   LIG d   1       1.373  -3.388 -12.444  0.00  0.00     0.174 C 
ATOM     14  C   LIG d   1       1.797  -2.545 -13.666  0.00  0.00     0.004 C 
ATOM     15  O   LIG d   1       2.117  -4.598 -12.400  0.00  0.00    -0.345 OA
ATOM     16  C   LIG d   1      -0.125  -3.668 -12.497  0.00  0.00     0.028 C 
ATOM     17  C   LIG d   1       3.067  -1.832 -13.143  0.00  0.00    -0.017 C 
ATOM     18  H   LIG d   1       2.031  -3.185 -14.518  0.00  0.00     0.032 H 
ATOM     19  H   LIG d   1       1.023  -1.823 -13.928  0.00  0.00     0.032 H 
ATOM     20  H   LIG d   1       3.963  -2.356 -13.476  0.00  0.00     0.029 H 
ATOM     21  H   LIG d   1       3.087  -0.794 -13.476  0.00  0.00     0.029 H 
ATOM     22  C   LIG d   1       1.814  -5.435 -11.282  0.00  0.00     0.072 C 
ATOM     23  C   LIG d   1       0.333  -5.819 -11.320  0.00  0.00     0.009 C 
ATOM     24  H   LIG d   1       2.028  -4.898 -10.358  0.00  0.00     0.060 H 
ATOM     25  C   LIG d   1      -0.518  -4.545 -11.304  0.00  0.00     0.065 C 
ATOM     26  H   LIG d   1       0.092  -6.430 -10.450  0.00  0.00     0.035 H 
ATOM     27  H   LIG d   1      -1.573  -4.810 -11.377  0.00  0.00     0.060 H 
ATOM     28  H   LIG d   1      -0.673  -2.726 -12.453  0.00  0.00     0.034 H 
ATOM     29  H   LIG d   1      -0.365  -4.186 -13.426  0.00  0.00     0.034 H 
BRANCH  22  30
ATOM     30  C   LIG d   1       2.671  -6.701 -11.345  0.00  0.00     0.010 C 
ATOM     31  H   LIG d   1       2.117  -7.491 -11.853  0.00  0.00     0.035 H 
BRANCH  30  32
ATOM     32  C   LIG d   1       3.960  -6.407 -12.115  0.00  0.00    -0.058 C 
ATOM     33  H   LIG d   1       4.568  -5.701 -11.548  0.00  0.00     0.023 H 
ATOM     34  H   LIG d   1       4.518  -7.333 -12.257  0.00  0.00     0.023 H 
ATOM     35  H   LIG d   1       3.714  -5.978 -13.085  0.00  0.00     0.023 H 
ENDBRANCH  30  32
BRANCH  30  36
ATOM     36  C   LIG d   1       3.016  -7.155  -9.925  0.00  0.00     0.071 C 
ATOM     37  H   LIG d   1       2.294  -6.736  -9.225  0.00  0.00     0.060 H 
BRANCH  36  38
ATOM     38  C   LIG d   1       4.421  -6.668  -9.562  0.00  0.00     0.022 C 
ATOM     39  H   LIG d   1       4.894  -6.232 -10.443  0.00  0.00     0.038 H 
BRANCH  38  40
ATOM     40  C   LIG d   1       5.257  -7.848  -9.066  0.00  0.00    -0.055 C 
ATOM     41  H   LIG d   1       5.419  -8.549  -9.884  0.00  0.00     0.024 H 
ATOM     42  H   LIG d   1       6.220  -7.485  -8.704  0.00  0.00     0.024 H 
ATOM     43  H   LIG d   1       4.731  -8.352  -8.255  0.00  0.00     0.024 H 
ENDBRANCH  38  40
BRANCH  38  44
ATOM     44  C   LIG d   1       4.326  -5.627  -8.475  0.00  0.00     0.047 C 
ATOM     45  O   LIG d   1       5.198  -4.800  -8.353  0.00  0.00    -0.549 OA
ATOM     46  O   LIG d   1       3.272  -5.619  -7.644  0.00  0.00    -0.549 OA
ENDBRANCH  38  44
ENDBRANCH  36  38
BRANCH  36  47
ATOM     47  O   LIG d   1       2.975  -8.581  -9.857  0.00  0.00    -0.379 OA
BRANCH  47  48
ATOM     48  C   LIG d   1       1.916  -9.169 -10.616  0.00  0.00     0.037 C 
ATOM     49  H   LIG d   1       1.443  -9.956 -10.030  0.00  0.00     0.052 H 
ATOM     50  H   LIG d   1       1.178  -8.406 -10.862  0.00  0.00     0.052 H 
ATOM     51  H   LIG d   1       2.321  -9.593 -11.536  0.00  0.00     0.052 H 
ENDBRANCH  47  48
ENDBRANCH  36  47
ENDBRANCH  30  36
ENDBRANCH  22  30
BRANCH  23  52
ATOM     52  C   LIG d   1       0.043  -6.611 -12.597  0.00  0.00    -0.058 C 
ATOM     53  H   LIG d   1      -0.607  -6.025 -13.247  0.00  0.00     0.023 H 
ATOM     54  H   LIG d   1       0.980  -6.821 -13.114  0.00  0.00     0.023 H 
ATOM     55  H   LIG d   1      -0.448  -7.548 -12.340  0.00  0.00     0.023 H 
ENDBRANCH  23  52
BRANCH  25  56
ATOM     56  O   LIG d   1      -0.287  -3.832 -10.089  0.00  0.00    -0.391 OA
ATOM     57  H   LIG d   1      -1.075  -3.727  -9.537  0.00  0.00     0.210 HD
ENDBRANCH  25  56
BRANCH  11  58
ATOM     58  C   LIG d   1       4.096  -2.720 -11.028  0.00  0.00    -0.033 C 
ATOM     59  H   LIG d   1       4.955  -2.660 -11.698  0.00  0.00     0.026 H 
ATOM     60  H   LIG d   1       4.369  -2.321 -10.051  0.00  0.00     0.026 H 
ATOM     61  H   LIG d   1       3.792  -3.762 -10.922  0.00  0.00     0.026 H 
ENDBRANCH  11  58
ENDBRANCH   4  11
BRANCH   1  62
ATOM     62  C   LIG d   1       4.776   1.992  -9.556  0.00  0.00    -0.024 C 
ATOM     63  H   LIG d   1       5.629   2.118  -8.890  0.00  0.00     0.029 H 
ATOM     64  H   LIG d   1       5.107   2.078 -10.591  0.00  0.00     0.029 H 
BRANCH  62  65
ATOM     65  C   LIG d   1       3.736   3.077  -9.263  0.00  0.00    -0.063 C 
ATOM     66  H   LIG d   1       4.218   3.913  -8.754  0.00  0.00     0.023 H 
ATOM     67  H   LIG d   1       3.300   3.425 -10.199  0.00  0.00     0.023 H 
ATOM     68  H   LIG d   1       2.953   2.668  -8.627  0.00  0.00     0.023 H 
ENDBRANCH  62  65
ENDBRANCH   1  62
BRANCH   1  69
ATOM     69  C   LIG d   1       4.865  -0.099  -8.182  0.00  0.00     0.091 C 
ATOM     70  H   LIG d   1       4.146  -0.618  -7.549  0.00  0.00     0.063 H 
ATOM     71  O   LIG d   1       5.646   0.838  -7.410  0.00  0.00    -0.368 OA
ATOM     72  C   LIG d   1       6.646   0.078  -6.713  0.00  0.00     0.086 C 
ATOM     73  C   LIG d   1       6.913  -1.195  -7.540  0.00  0.00    -0.019 C 
ATOM     74  H   LIG d   1       7.564   0.660  -6.625  0.00  0.00     0.062 H 
ATOM     75  C   LIG d   1       5.926  -1.089  -8.729  0.00  0.00    -0.012 C 
ATOM     76  H   LIG d   1       6.701  -2.086  -6.948  0.00  0.00     0.029 H 
ATOM     77  H   LIG d   1       7.941  -1.210  -7.899  0.00  0.00     0.029 H 
ATOM     78  H   LIG d   1       5.477  -2.056  -8.951  0.00  0.00     0.033 H 
BRANCH  72  79
ATOM     79  C   LIG d   1       6.136  -0.303  -5.322  0.00  0.00     0.091 C 
ATOM     80  H   LIG d   1       6.625   0.319  -4.573  0.00  0.00     0.063 H 
ATOM     81  O   LIG d   1       4.723  -0.103  -5.261  0.00  0.00    -0.340 OA
ATOM     82  C   LIG d   1       4.144  -0.407  -3.990  0.00  0.00     0.194 C 
ATOM     83  C   LIG d   1       4.382  -1.883  -3.663  0.00  0.00     0.013 C 
ATOM     84  C   LIG d   1       5.887  -2.166  -3.680  0.00  0.00    -0.041 C 
ATOM     85  H   LIG d   1       3.885  -2.506  -4.407  0.00  0.00     0.035 H 
ATOM     86  C   LIG d   1       6.453  -1.777  -5.049  0.00  0.00    -0.015 C 
ATOM     87  H   LIG d   1       6.060  -3.229  -3.504  0.00  0.00     0.027 H 
ATOM     88  H   LIG d   1       6.378  -1.583  -2.902  0.00  0.00     0.027 H 
ATOM     89  H   LIG d   1       5.998  -2.396  -5.822  0.00  0.00     0.032 H 
BRANCH  82  90
ATOM     90  C   LIG d   1       2.641  -0.129  -4.033  0.00  0.00     0.098 C 
ATOM     91  H   LIG d   1       2.111  -0.913  -3.493  0.00  0.00     0.061 H 
ATOM     92  H   LIG d   1       2.436   0.835  -3.568  0.00  0.00     0.061 H 
BRANCH  90  93
ATOM     93  O   LIG d   1       2.199  -0.105  -5.393  0.00  0.00    -0.390 OA
ATOM     94  H   LIG d   1       2.883   0.152  -6.024  0.00  0.00     0.210 HD
ENDBRANCH  90  93
ENDBRANCH  82  90
BRANCH  82  95
ATOM     95  O   LIG d   1       4.750   0.407  -2.983  0.00  0.00    -0.363 OA
ATOM     96  H   LIG d   1       4.445   0.214  -2.085  0.00  0.00     0.213 HD
ENDBRANCH  82  95
BRANCH  83  97
ATOM     97  C   LIG d   1       3.819  -2.196  -2.275  0.00  0.00    -0.057 C 
ATOM     98  H   LIG d   1       4.390  -1.657  -1.520  0.00  0.00     0.023 H 
ATOM     99  H   LIG d   1       2.773  -1.888  -2.229  0.00  0.00     0.023 H 
ATOM    100  H   LIG d   1       3.890  -3.268  -2.088  0.00  0.00     0.023 H 
ENDBRANCH  83  97
BRANCH  86 101
ATOM    101  C   LIG d   1       7.969  -1.982  -5.053  0.00  0.00    -0.060 C 
ATOM    102  H   LIG d   1       8.296  -2.259  -6.055  0.00  0.00     0.023 H 
ATOM    103  H   LIG d   1       8.462  -1.058  -4.752  0.00  0.00     0.023 H 
ATOM    104  H   LIG d   1       8.229  -2.777  -4.354  0.00  0.00     0.023 H 
ENDBRANCH  86 101
ENDBRANCH  72  79
BRANCH  75 105
ATOM    105  C   LIG d   1       6.621  -0.515  -9.966  0.00  0.00    -0.060 C 
ATOM    106  H   LIG d   1       7.483   0.075  -9.657  0.00  0.00     0.023 H 
ATOM    107  H   LIG d   1       6.952  -1.333 -10.608  0.00  0.00     0.023 H 
ATOM    108  H   LIG d   1       5.923   0.117 -10.514  0.00  0.00     0.023 H 
ENDBRANCH  75 105
ENDBRANCH   1  69
TORSDOF 22
ENDMDL
MODEL 4
REMARK VINA RESULT:      -6.3      4.825      9.925
REMARK  22 active torsions:
REMARK  status: ('A' for Active; 'I' for Inactive)
REMARK    1  A    between atoms: C_1  and  C_2 
REMARK    2  A    between atoms: C_2  and  C_3 
REMARK    3  A    between atoms: C_3  and  C_37 
REMARK    4  A    between atoms: C_6  and  C_9 
REMARK    5  A    between atoms: C_9  and  C_36 
REMARK    6  A    between atoms: C_15  and  O_35 
REMARK    7  A    between atoms: C_17  and  C_34 
REMARK    8  A    between atoms: C_19  and  C_22 
REMARK    9  A    between atoms: C_22  and  C_24 
REMARK   10  A    between atoms: C_22  and  C_25 
REMARK   11  A    between atoms: C_25  and  C_27 
REMARK   12  A    between atoms: C_25  and  O_32 
REMARK   13  A    between atoms: C_27  and  C_29 
REMARK   14  A    between atoms: C_27  and  C_30 
REMARK   15  A    between atoms: O_32  and  C_33 
REMARK   16  A    between atoms: C_39  and  C_59 
REMARK   17  A    between atoms: C_42  and  C_45 
REMARK   18  A    between atoms: C_47  and  C_58 
REMARK   19  A    between atoms: C_50  and  C_57 
REMARK   20  A    between atoms: C_52  and  C_54 
REMARK   21  A    between atoms: C_52  and  O_56 
REMARK   22  A    between atoms: C_54  and  O_55 
ROOT
ATOM      1  C   LIG d   1       5.529   0.161 -10.082  0.00  0.00     0.096 C 
ATOM      2  C   LIG d   1       6.015  -0.956 -11.030  0.00  0.00    -0.019 C 
ATOM      3  C   LIG d   1       7.554  -0.923 -10.817  0.00  0.00    -0.021 C 
ATOM      4  C   LIG d   1       7.786   0.590 -10.579  0.00  0.00     0.088 C 
ATOM      5  H   LIG d   1       7.846   1.119 -11.530  0.00  0.00     0.062 H 
ATOM      6  O   LIG d   1       6.639   1.033  -9.836  0.00  0.00    -0.365 OA
ATOM      7  H   LIG d   1       5.603  -1.921 -10.736  0.00  0.00     0.029 H 
ATOM      8  H   LIG d   1       5.759  -0.725 -12.064  0.00  0.00     0.029 H 
ATOM      9  H   LIG d   1       8.081  -1.267 -11.707  0.00  0.00     0.029 H 
ATOM     10  H   LIG d   1       7.841  -1.507  -9.943  0.00  0.00     0.029 H 
ENDROOT
BRANCH   4  11
ATOM     11  C   LIG d   1       9.062   0.810  -9.767  0.00  0.00     0.096 C 
ATOM     12  O   LIG d   1       9.064  -0.047  -8.611  0.00  0.00    -0.340 OA
ATOM     13  C   LIG d   1      10.427  -0.439  -8.380  0.00  0.00     0.174 C 
ATOM     14  C   LIG d   1      11.000  -0.670  -9.795  0.00  0.00     0.004 C 
ATOM     15  O   LIG d   1      11.143   0.599  -7.724  0.00  0.00    -0.345 OA
ATOM     16  C   LIG d   1      10.481  -1.734  -7.577  0.00  0.00     0.028 C 
ATOM     17  C   LIG d   1      10.294   0.437 -10.616  0.00  0.00    -0.017 C 
ATOM     18  H   LIG d   1      12.082  -0.532  -9.804  0.00  0.00     0.032 H 
ATOM     19  H   LIG d   1      10.734  -1.660 -10.166  0.00  0.00     0.032 H 
ATOM     20  H   LIG d   1      10.950   1.300 -10.735  0.00  0.00     0.029 H 
ATOM     21  H   LIG d   1       9.987   0.055 -11.589  0.00  0.00     0.029 H 
ATOM     22  C   LIG d   1      10.664   0.906  -6.413  0.00  0.00     0.072 C 
ATOM     23  C   LIG d   1      10.766  -0.339  -5.529  0.00  0.00     0.009 C 
ATOM     24  H   LIG d   1       9.624   1.227  -6.472  0.00  0.00     0.060 H 
ATOM     25  C   LIG d   1       9.954  -1.474  -6.162  0.00  0.00     0.065 C 
ATOM     26  H   LIG d   1      10.369  -0.116  -4.538  0.00  0.00     0.035 H 
ATOM     27  H   LIG d   1      10.060  -2.377  -5.562  0.00  0.00     0.060 H 
ATOM     28  H   LIG d   1       9.863  -2.489  -8.063  0.00  0.00     0.034 H 
ATOM     29  H   LIG d   1      11.511  -2.086  -7.524  0.00  0.00     0.034 H 
BRANCH  22  30
ATOM     30  C   LIG d   1      11.510   2.030  -5.811  0.00  0.00     0.010 C 
ATOM     31  H   LIG d   1      12.441   1.616  -5.423  0.00  0.00     0.035 H 
BRANCH  30  32
ATOM     32  C   LIG d   1      11.824   3.067  -6.891  0.00  0.00    -0.058 C 
ATOM     33  H   LIG d   1      12.860   3.392  -6.792  0.00  0.00     0.023 H 
ATOM     34  H   LIG d   1      11.676   2.623  -7.876  0.00  0.00     0.023 H 
ATOM     35  H   LIG d   1      11.162   3.924  -6.776  0.00  0.00     0.023 H 
ENDBRANCH  30  32
BRANCH  30  36
ATOM     36  C   LIG d   1      10.737   2.697  -4.672  0.00  0.00     0.071 C 
ATOM     37  H   LIG d   1      10.545   1.966  -3.886  0.00  0.00     0.060 H 
BRANCH  36  38
ATOM     38  C   LIG d   1       9.406   3.233  -5.206  0.00  0.00     0.022 C 
ATOM     39  H   LIG d   1       9.422   3.226  -6.296  0.00  0.00     0.038 H 
BRANCH  38  40
ATOM     40  C   LIG d   1       9.195   4.663  -4.707  0.00  0.00    -0.055 C 
ATOM     41  H   LIG d   1       8.324   4.696  -4.054  0.00  0.00     0.024 H 
ATOM     42  H   LIG d   1      10.076   4.988  -4.152  0.00  0.00     0.024 H 
ATOM     43  H   LIG d   1       9.037   5.326  -5.558  0.00  0.00     0.024 H 
ENDBRANCH  38  40
BRANCH  38  44
ATOM     44  C   LIG d   1       8.280   2.358  -4.714  0.00  0.00     0.047 C 
ATOM     45  O   LIG d   1       8.086   2.232  -3.529  0.00  0.00    -0.549 OA
ATOM     46  O   LIG d   1       7.493   1.720  -5.594  0.00  0.00    -0.549 OA
ENDBRANCH  38  44
ENDBRANCH  36  38
BRANCH  36  47
ATOM     47  O   LIG d   1      11.506   3.778  -4.142  0.00  0.00    -0.379 OA
BRANCH  47  48
ATOM     48  C   LIG d   1      12.674   3.365  -3.430  0.00  0.00     0.037 C 
ATOM     49  H   LIG d   1      12.395   2.651  -2.655  0.00  0.00     0.052 H 
ATOM     50  H   LIG d   1      13.374   2.895  -4.121  0.00  0.00     0.052 H 
ATOM     51  H   LIG d   1      13.146   4.235  -2.972  0.00  0.00     0.052 H 
ENDBRANCH  47  48
ENDBRANCH  36  47
ENDBRANCH  30  36
ENDBRANCH  22  30
BRANCH  23  52
ATOM     52  C   LIG d   1      12.231  -0.763  -5.411  0.00  0.00    -0.058 C 
ATOM     53  H   LIG d   1      12.809  -0.297  -6.209  0.00  0.00     0.023 H 
ATOM     54  H   LIG d   1      12.624  -0.446  -4.445  0.00  0.00     0.023 H 
ATOM     55  H   LIG d   1      12.303  -1.847  -5.495  0.00  0.00     0.023 H 
ENDBRANCH  23  52
BRANCH  25  56
ATOM     56  O   LIG d   1       8.577  -1.099  -6.225  0.00  0.00    -0.391 OA
ATOM     57  H   LIG d   1       8.033  -1.476  -5.520  0.00  0.00     0.210 HD
ENDBRANCH  25  56
BRANCH  11  58
ATOM     58  C   LIG d   1       9.155   2.272  -9.329  0.00  0.00    -0.033 C 
ATOM     59  H   LIG d   1       9.584   2.867 -10.136  0.00  0.00     0.026 H 
ATOM     60  H   LIG d   1       8.159   2.646  -9.092  0.00  0.00     0.026 H 
ATOM     61  H   LIG d   1       9.791   2.348  -8.446  0.00  0.00     0.026 H 
ENDBRANCH  11  58
ENDBRANCH   4  11
BRANCH   1  62
ATOM     62  C   LIG d   1       4.390   0.943 -10.739  0.00  0.00    -0.024 C 
ATOM     63  H   LIG d   1       4.703   1.281 -11.726  0.00  0.00     0.029 H 
ATOM     64  H   LIG d   1       3.516   0.300 -10.834  0.00  0.00     0.029 H 
BRANCH  62  65
ATOM     65  C   LIG d   1       4.038   2.155  -9.873  0.00  0.00    -0.063 C 
ATOM     66  H   LIG d   1       3.865   3.020 -10.513  0.00  0.00     0.023 H 
ATOM     67  H   LIG d   1       3.136   1.942  -9.299  0.00  0.00     0.023 H 
ATOM     68  H   LIG d   1       4.861   2.367  -9.192  0.00  0.00     0.023 H 
ENDBRANCH  62  65
ENDBRANCH   1  62
BRANCH   1  69
ATOM     69  C   LIG d   1       5.047  -0.450  -8.764  0.00  0.00     0.091 C 
ATOM     70  H   LIG d   1       4.825   0.332  -8.038  0.00  0.00     0.063 H 
ATOM     71  O   LIG d   1       6.029  -1.370  -8.241  0.00  0.00    -0.368 OA
ATOM     72  C   LIG d   1       5.340  -2.252  -7.340  0.00  0.00     0.086 C 
ATOM     73  C   LIG d   1       3.869  -2.316  -7.796  0.00  0.00    -0.019 C 
ATOM     74  H   LIG d   1       5.783  -3.248  -7.380  0.00  0.00     0.062 H 
ATOM     75  C   LIG d   1       3.803  -1.344  -9.001  0.00  0.00    -0.012 C 
ATOM     76  H   LIG d   1       3.207  -1.979  -6.999  0.00  0.00     0.029 H 
ATOM     77  H   LIG d   1       3.609  -3.327  -8.108  0.00  0.00     0.029 H 
ATOM     78  H   LIG d   1       2.888  -0.753  -8.974  0.00  0.00     0.033 H 
BRANCH  72  79
ATOM     79  C   LIG d   1       5.418  -1.705  -5.913  0.00  0.00     0.091 C 
ATOM     80  H   LIG d   1       6.312  -1.090  -5.809  0.00  0.00     0.063 H 
ATOM     81  O   LIG d   1       4.260  -0.913  -5.642  0.00  0.00    -0.340 OA
ATOM     82  C   LIG d   1       4.244  -0.330  -4.338  0.00  0.00     0.194 C 
ATOM     83  C   LIG d   1       4.260  -1.440  -3.284  0.00  0.00     0.013 C 
ATOM     84  C   LIG d   1       5.498  -2.316  -3.495  0.00  0.00    -0.041 C 
ATOM     85  H   LIG d   1       3.361  -2.049  -3.382  0.00  0.00     0.035 H 
ATOM     86  C   LIG d   1       5.480  -2.871  -4.923  0.00  0.00    -0.015 C 
ATOM     87  H   LIG d   1       5.486  -3.142  -2.783  0.00  0.00     0.027 H 
ATOM     88  H   LIG d   1       6.398  -1.720  -3.346  0.00  0.00     0.027 H 
ATOM     89  H   LIG d   1       4.606  -3.508  -5.056  0.00  0.00     0.032 H 
BRANCH  82  90
ATOM     90  C   LIG d   1       2.979   0.514  -4.171  0.00  0.00     0.098 C 
ATOM     91  H   LIG d   1       2.824   0.733  -3.115  0.00  0.00     0.061 H 
ATOM     92  H   LIG d   1       3.089   1.447  -4.723  0.00  0.00     0.061 H 
BRANCH  90  93
ATOM     93  O   LIG d   1       1.854  -0.208  -4.676  0.00  0.00    -0.390 OA
ATOM     94  H   LIG d   1       2.064  -0.806  -5.406  0.00  0.00     0.210 HD
ENDBRANCH  90  93
ENDBRANCH  82  90
BRANCH  82  95
ATOM     95  O   LIG d   1       5.395   0.501  -4.172  0.00  0.00    -0.363 OA
ATOM     96  H   LIG d   1       5.383   1.033  -3.364  0.00  0.00     0.213 HD
ENDBRANCH  82  95
BRANCH  83  97
ATOM     97  C   LIG d   1       4.305  -0.818  -1.887  0.00  0.00    -0.057 C 
ATOM     98  H   LIG d   1       4.897   0.097  -1.915  0.00  0.00     0.023 H 
ATOM     99  H   LIG d   1       3.291  -0.586  -1.559  0.00  0.00     0.023 H 
ATOM    100  H   LIG d   1       4.760  -1.523  -1.190  0.00  0.00     0.023 H 
ENDBRANCH  83  97
BRANCH  86 101
ATOM    101  C   LIG d   1       6.752  -3.685  -5.171  0.00  0.00    -0.060 C 
ATOM    102  H   LIG d   1       6.975  -4.287  -4.290  0.00  0.00     0.023 H 
ATOM    103  H   LIG d   1       6.603  -4.339  -6.030  0.00  0.00     0.023 H 
ATOM    104  H   LIG d   1       7.583  -3.009  -5.368  0.00  0.00     0.023 H 
ENDBRANCH  86 101
ENDBRANCH  72  79
BRANCH  75 105
ATOM    105  C   LIG d   1       3.921  -2.105 -10.323  0.00  0.00    -0.060 C 
ATOM    106  H   LIG d   1       3.132  -2.853 -10.384  0.00  0.00     0.023 H 
ATOM    107  H   LIG d   1       3.824  -1.406 -11.154  0.00  0.00     0.023 H 
ATOM    108  H   LIG d   1       4.893  -2.596 -10.373  0.00  0.00     0.023 H 
ENDBRANCH  75 105
ENDBRANCH   1  69
TORSDOF 22
ENDMDL
MODEL 5
REMARK VINA RESULT:      -6.2      4.874     10.648
REMARK  22 active torsions:
REMARK  status: ('A' for Active; 'I' for Inactive)
REMARK    1  A    between atoms: C_1  and  C_2 
REMARK    2  A    between atoms: C_2  and  C_3 
REMARK    3  A    between atoms: C_3  and  C_37 
REMARK    4  A    between atoms: C_6  and  C_9 
REMARK    5  A    between atoms: C_9  and  C_36 
REMARK    6  A    between atoms: C_15  and  O_35 
REMARK    7  A    between atoms: C_17  and  C_34 
REMARK    8  A    between atoms: C_19  and  C_22 
REMARK    9  A    between atoms: C_22  and  C_24 
REMARK   10  A    between atoms: C_22  and  C_25 
REMARK   11  A    between atoms: C_25  and  C_27 
REMARK   12  A    between atoms: C_25  and  O_32 
REMARK   13  A    between atoms: C_27  and  C_29 
REMARK   14  A    between atoms: C_27  and  C_30 
REMARK   15  A    between atoms: O_32  and  C_33 
REMARK   16  A    between atoms: C_39  and  C_59 
REMARK   17  A    between atoms: C_42  and  C_45 
REMARK   18  A    between atoms: C_47  and  C_58 
REMARK   19  A    between atoms: C_50  and  C_57 
REMARK   20  A    between atoms: C_52  and  C_54 
REMARK   21  A    between atoms: C_52  and  O_56 
REMARK   22  A    between atoms: C_54  and  O_55 
ROOT
ATOM      1  C   LIG d   1       5.731   0.263  -9.988  0.00  0.00     0.096 C 
ATOM      2  C   LIG d   1       6.443  -0.814 -10.834  0.00  0.00    -0.019 C 
ATOM      3  C   LIG d   1       7.936  -0.591 -10.464  0.00  0.00    -0.021 C 
ATOM      4  C   LIG d   1       7.963   0.946 -10.265  0.00  0.00     0.088 C 
ATOM      5  H   LIG d   1       8.063   1.451 -11.226  0.00  0.00     0.062 H 
ATOM      6  O   LIG d   1       6.698   1.268  -9.664  0.00  0.00    -0.365 OA
ATOM      7  H   LIG d   1       6.118  -1.814 -10.544  0.00  0.00     0.029 H 
ATOM      8  H   LIG d   1       6.275  -0.646 -11.898  0.00  0.00     0.029 H 
ATOM      9  H   LIG d   1       8.592  -0.893 -11.280  0.00  0.00     0.029 H 
ATOM     10  H   LIG d   1       8.193  -1.111  -9.541  0.00  0.00     0.029 H 
ENDROOT
BRANCH   4  11
ATOM     11  C   LIG d   1       9.109   1.340  -9.335  0.00  0.00     0.096 C 
ATOM     12  O   LIG d   1       8.693   1.222  -7.962  0.00  0.00    -0.340 OA
ATOM     13  C   LIG d   1       9.838   0.788  -7.211  0.00  0.00     0.174 C 
ATOM     14  C   LIG d   1      10.531  -0.237  -8.135  0.00  0.00     0.004 C 
ATOM     15  O   LIG d   1      10.709   1.880  -6.948  0.00  0.00    -0.345 OA
ATOM     16  C   LIG d   1       9.401   0.111  -5.916  0.00  0.00     0.028 C 
ATOM     17  C   LIG d   1      10.301   0.382  -9.536  0.00  0.00    -0.017 C 
ATOM     18  H   LIG d   1      11.597  -0.305  -7.910  0.00  0.00     0.032 H 
ATOM     19  H   LIG d   1      10.057  -1.215  -8.058  0.00  0.00     0.032 H 
ATOM     20  H   LIG d   1      11.184   0.934  -9.859  0.00  0.00     0.029 H 
ATOM     21  H   LIG d   1      10.051  -0.393 -10.259  0.00  0.00     0.029 H 
ATOM     22  C   LIG d   1      10.142   2.898  -6.121  0.00  0.00     0.072 C 
ATOM     23  C   LIG d   1       9.752   2.297  -4.768  0.00  0.00     0.009 C 
ATOM     24  H   LIG d   1       9.257   3.309  -6.606  0.00  0.00     0.060 H 
ATOM     25  C   LIG d   1       8.760   1.152  -4.993  0.00  0.00     0.065 C 
ATOM     26  H   LIG d   1       9.289   3.065  -4.148  0.00  0.00     0.035 H 
ATOM     27  H   LIG d   1       8.513   0.689  -4.038  0.00  0.00     0.060 H 
ATOM     28  H   LIG d   1       8.677  -0.672  -6.142  0.00  0.00     0.034 H 
ATOM     29  H   LIG d   1      10.269  -0.328  -5.425  0.00  0.00     0.034 H 
BRANCH  22  30
ATOM     30  C   LIG d   1      11.169   4.013  -5.907  0.00  0.00     0.010 C 
ATOM     31  H   LIG d   1      11.565   3.952  -4.893  0.00  0.00     0.035 H 
BRANCH  30  32
ATOM     32  C   LIG d   1      12.312   3.853  -6.912  0.00  0.00    -0.058 C 
ATOM     33  H   LIG d   1      13.197   3.478  -6.397  0.00  0.00     0.023 H 
ATOM     34  H   LIG d   1      12.017   3.147  -7.688  0.00  0.00     0.023 H 
ATOM     35  H   LIG d   1      12.535   4.819  -7.364  0.00  0.00     0.023 H 
ENDBRANCH  30  32
BRANCH  30  36
ATOM     36  C   LIG d   1      10.497   5.372  -6.110  0.00  0.00     0.071 C 
ATOM     37  H   LIG d   1      11.253   6.117  -6.357  0.00  0.00     0.060 H 
BRANCH  36  38
ATOM     38  C   LIG d   1       9.777   5.782  -4.823  0.00  0.00     0.022 C 
ATOM     39  H   LIG d   1       8.983   5.067  -4.607  0.00  0.00     0.038 H 
BRANCH  38  40
ATOM     40  C   LIG d   1       9.175   7.177  -4.998  0.00  0.00    -0.055 C 
ATOM     41  H   LIG d   1       9.964   7.925  -4.923  0.00  0.00     0.024 H 
ATOM     42  H   LIG d   1       8.700   7.247  -5.977  0.00  0.00     0.024 H 
ATOM     43  H   LIG d   1       8.432   7.353  -4.220  0.00  0.00     0.024 H 
ENDBRANCH  38  40
BRANCH  38  44
ATOM     44  C   LIG d   1      10.762   5.799  -3.681  0.00  0.00     0.047 C 
ATOM     45  O   LIG d   1      11.721   6.532  -3.722  0.00  0.00    -0.549 OA
ATOM     46  O   LIG d   1      10.573   5.000  -2.619  0.00  0.00    -0.549 OA
ENDBRANCH  38  44
ENDBRANCH  36  38
BRANCH  36  47
ATOM     47  O   LIG d   1       9.550   5.281  -7.176  0.00  0.00    -0.379 OA
BRANCH  47  48
ATOM     48  C   LIG d   1       9.806   6.178  -8.259  0.00  0.00     0.037 C 
ATOM     49  H   LIG d   1       9.779   7.205  -7.893  0.00  0.00     0.052 H 
ATOM     50  H   LIG d   1      10.789   5.969  -8.679  0.00  0.00     0.052 H 
ATOM     51  H   LIG d   1       9.045   6.045  -9.028  0.00  0.00     0.052 H 
ENDBRANCH  47  48
ENDBRANCH  36  47
ENDBRANCH  30  36
ENDBRANCH  22  30
BRANCH  23  52
ATOM     52  C   LIG d   1      11.002   1.760  -4.069  0.00  0.00    -0.058 C 
ATOM     53  H   LIG d   1      10.720   1.308  -3.118  0.00  0.00     0.023 H 
ATOM     54  H   LIG d   1      11.477   1.009  -4.700  0.00  0.00     0.023 H 
ATOM     55  H   LIG d   1      11.699   2.578  -3.890  0.00  0.00     0.023 H 
ENDBRANCH  23  52
BRANCH  25  56
ATOM     56  O   LIG d   1       7.571   1.662  -5.599  0.00  0.00    -0.391 OA
ATOM     57  H   LIG d   1       7.676   2.537  -5.998  0.00  0.00     0.210 HD
ENDBRANCH  25  56
BRANCH  11  58
ATOM     58  C   LIG d   1       9.544   2.778  -9.624  0.00  0.00    -0.033 C 
ATOM     59  H   LIG d   1      10.252   2.784 -10.453  0.00  0.00     0.026 H 
ATOM     60  H   LIG d   1       8.671   3.376  -9.887  0.00  0.00     0.026 H 
ATOM     61  H   LIG d   1      10.019   3.200  -8.738  0.00  0.00     0.026 H 
ENDBRANCH  11  58
ENDBRANCH   4  11
BRANCH   1  62
ATOM     62  C   LIG d   1       4.586   0.883 -10.791  0.00  0.00    -0.024 C 
ATOM     63  H   LIG d   1       4.958   1.211 -11.761  0.00  0.00     0.029 H 
ATOM     64  H   LIG d   1       3.800   0.142 -10.933  0.00  0.00     0.029 H 
BRANCH  62  65
ATOM     65  C   LIG d   1       4.022   2.085 -10.029  0.00  0.00    -0.063 C 
ATOM     66  H   LIG d   1       3.715   2.853 -10.740  0.00  0.00     0.023 H 
ATOM     67  H   LIG d   1       3.161   1.770  -9.441  0.00  0.00     0.023 H 
ATOM     68  H   LIG d   1       4.787   2.488  -9.368  0.00  0.00     0.023 H 
ENDBRANCH  62  65
ENDBRANCH   1  62
BRANCH   1  69
ATOM     69  C   LIG d   1       5.184  -0.364  -8.703  0.00  0.00     0.091 C 
ATOM     70  H   LIG d   1       4.960   0.407  -7.966  0.00  0.00     0.063 H 
ATOM     71  O   LIG d   1       6.119  -1.326  -8.169  0.00  0.00    -0.368 OA
ATOM     72  C   LIG d   1       5.372  -2.208  -7.315  0.00  0.00     0.086 C 
ATOM     73  C   LIG d   1       3.917  -2.216  -7.824  0.00  0.00    -0.019 C 
ATOM     74  H   LIG d   1       5.787  -3.215  -7.364  0.00  0.00     0.062 H 
ATOM     75  C   LIG d   1       3.924  -1.214  -9.005  0.00  0.00    -0.012 C 
ATOM     76  H   LIG d   1       3.238  -1.878  -7.042  0.00  0.00     0.029 H 
ATOM     77  H   LIG d   1       3.639  -3.211  -8.169  0.00  0.00     0.029 H 
ATOM     78  H   LIG d   1       3.026  -0.596  -8.997  0.00  0.00     0.033 H 
BRANCH  72  79
ATOM     79  C   LIG d   1       5.415  -1.697  -5.873  0.00  0.00     0.091 C 
ATOM     80  H   LIG d   1       6.251  -1.008  -5.757  0.00  0.00     0.063 H 
ATOM     81  O   LIG d   1       4.194  -1.021  -5.570  0.00  0.00    -0.340 OA
ATOM     82  C   LIG d   1       4.138  -0.479  -4.249  0.00  0.00     0.194 C 
ATOM     83  C   LIG d   1       4.265  -1.613  -3.228  0.00  0.00     0.013 C 
ATOM     84  C   LIG d   1       5.574  -2.367  -3.474  0.00  0.00    -0.041 C 
ATOM     85  H   LIG d   1       3.423  -2.298  -3.338  0.00  0.00     0.035 H 
ATOM     86  C   LIG d   1       5.592  -2.881  -4.918  0.00  0.00    -0.015 C 
ATOM     87  H   LIG d   1       5.644  -3.212  -2.787  0.00  0.00     0.027 H 
ATOM     88  H   LIG d   1       6.419  -1.698  -3.314  0.00  0.00     0.027 H 
ATOM     89  H   LIG d   1       4.777  -3.590  -5.063  0.00  0.00     0.032 H 
BRANCH  82  90
ATOM     90  C   LIG d   1       2.804   0.242  -4.048  0.00  0.00     0.098 C 
ATOM     91  H   LIG d   1       2.380  -0.040  -3.085  0.00  0.00     0.061 H 
ATOM     92  H   LIG d   1       2.966   1.319  -4.072  0.00  0.00     0.061 H 
BRANCH  90  93
ATOM     93  O   LIG d   1       1.900  -0.127  -5.092  0.00  0.00    -0.390 OA
ATOM     94  H   LIG d   1       0.968  -0.030  -4.857  0.00  0.00     0.210 HD
ENDBRANCH  90  93
ENDBRANCH  82  90
BRANCH  82  95
ATOM     95  O   LIG d   1       5.212   0.446  -4.067  0.00  0.00    -0.363 OA
ATOM     96  H   LIG d   1       5.520   0.516  -3.152  0.00  0.00     0.213 HD
ENDBRANCH  82  95
BRANCH  83  97
ATOM     97  C   LIG d   1       4.268  -1.030  -1.814  0.00  0.00    -0.057 C 
ATOM     98  H   LIG d   1       4.317   0.057  -1.868  0.00  0.00     0.023 H 
ATOM     99  H   LIG d   1       3.356  -1.328  -1.296  0.00  0.00     0.023 H 
ATOM    100  H   LIG d   1       5.135  -1.405  -1.269  0.00  0.00     0.023 H 
ENDBRANCH  83  97
BRANCH  86 101
ATOM    101  C   LIG d   1       6.929  -3.569  -5.199  0.00  0.00    -0.060 C 
ATOM    102  H   LIG d   1       7.742  -2.962  -4.801  0.00  0.00     0.023 H 
ATOM    103  H   LIG d   1       6.941  -4.549  -4.723  0.00  0.00     0.023 H 
ATOM    104  H   LIG d   1       7.058  -3.687  -6.275  0.00  0.00     0.023 H 
ENDBRANCH  86 101
ENDBRANCH  72  79
BRANCH  75 105
ATOM    105  C   LIG d   1       4.067  -1.947 -10.341  0.00  0.00    -0.060 C 
ATOM    106  H   LIG d   1       3.483  -2.867 -10.316  0.00  0.00     0.023 H 
ATOM    107  H   LIG d   1       3.703  -1.308 -11.147  0.00  0.00     0.023 H 
ATOM    108  H   LIG d   1       5.116  -2.186 -10.513  0.00  0.00     0.023 H 
ENDBRANCH  75 105
ENDBRANCH   1  69
TORSDOF 22
ENDMDL
MODEL 6
REMARK VINA RESULT:      -6.2      5.248      9.679
REMARK  22 active torsions:
REMARK  status: ('A' for Active; 'I' for Inactive)
REMARK    1  A    between atoms: C_1  and  C_2 
REMARK    2  A    between atoms: C_2  and  C_3 
REMARK    3  A    between atoms: C_3  and  C_37 
REMARK    4  A    between atoms: C_6  and  C_9 
REMARK    5  A    between atoms: C_9  and  C_36 
REMARK    6  A    between atoms: C_15  and  O_35 
REMARK    7  A    between atoms: C_17  and  C_34 
REMARK    8  A    between atoms: C_19  and  C_22 
REMARK    9  A    between atoms: C_22  and  C_24 
REMARK   10  A    between atoms: C_22  and  C_25 
REMARK   11  A    between atoms: C_25  and  C_27 
REMARK   12  A    between atoms: C_25  and  O_32 
REMARK   13  A    between atoms: C_27  and  C_29 
REMARK   14  A    between atoms: C_27  and  C_30 
REMARK   15  A    between atoms: O_32  and  C_33 
REMARK   16  A    between atoms: C_39  and  C_59 
REMARK   17  A    between atoms: C_42  and  C_45 
REMARK   18  A    between atoms: C_47  and  C_58 
REMARK   19  A    between atoms: C_50  and  C_57 
REMARK   20  A    between atoms: C_52  and  C_54 
REMARK   21  A    between atoms: C_52  and  O_56 
REMARK   22  A    between atoms: C_54  and  O_55 
ROOT
ATOM      1  C   LIG d   1      11.702   0.605  -4.992  0.00  0.00     0.096 C 
ATOM      2  C   LIG d   1      11.839   0.868  -6.507  0.00  0.00    -0.019 C 
ATOM      3  C   LIG d   1      10.356   0.978  -6.958  0.00  0.00    -0.021 C 
ATOM      4  C   LIG d   1       9.682  -0.040  -6.005  0.00  0.00     0.088 C 
ATOM      5  H   LIG d   1       9.787  -1.052  -6.395  0.00  0.00     0.062 H 
ATOM      6  O   LIG d   1      10.387   0.088  -4.759  0.00  0.00    -0.365 OA
ATOM      7  H   LIG d   1      12.372   1.800  -6.693  0.00  0.00     0.029 H 
ATOM      8  H   LIG d   1      12.336   0.033  -7.002  0.00  0.00     0.029 H 
ATOM      9  H   LIG d   1      10.239   0.680  -8.000  0.00  0.00     0.029 H 
ATOM     10  H   LIG d   1       9.971   1.985  -6.795  0.00  0.00     0.029 H 
ENDROOT
BRANCH   4  11
ATOM     11  C   LIG d   1       8.205   0.306  -5.818  0.00  0.00     0.096 C 
ATOM     12  O   LIG d   1       7.548  -0.728  -5.063  0.00  0.00    -0.340 OA
ATOM     13  C   LIG d   1       6.556  -0.087  -4.246  0.00  0.00     0.174 C 
ATOM     14  C   LIG d   1       7.239   1.214  -3.770  0.00  0.00     0.004 C 
ATOM     15  O   LIG d   1       5.397   0.218  -5.009  0.00  0.00    -0.345 OA
ATOM     16  C   LIG d   1       6.207  -0.962  -3.046  0.00  0.00     0.028 C 
ATOM     17  C   LIG d   1       8.072   1.615  -5.013  0.00  0.00    -0.017 C 
ATOM     18  H   LIG d   1       6.498   1.978  -3.534  0.00  0.00     0.032 H 
ATOM     19  H   LIG d   1       7.884   1.023  -2.912  0.00  0.00     0.032 H 
ATOM     20  H   LIG d   1       7.545   2.370  -5.596  0.00  0.00     0.029 H 
ATOM     21  H   LIG d   1       9.053   1.981  -4.712  0.00  0.00     0.029 H 
ATOM     22  C   LIG d   1       4.710  -0.927  -5.520  0.00  0.00     0.072 C 
ATOM     23  C   LIG d   1       4.261  -1.813  -4.355  0.00  0.00     0.009 C 
ATOM     24  H   LIG d   1       5.379  -1.491  -6.170  0.00  0.00     0.060 H 
ATOM     25  C   LIG d   1       5.487  -2.224  -3.533  0.00  0.00     0.065 C 
ATOM     26  H   LIG d   1       3.767  -2.703  -4.744  0.00  0.00     0.035 H 
ATOM     27  H   LIG d   1       5.170  -2.817  -2.675  0.00  0.00     0.060 H 
ATOM     28  H   LIG d   1       7.121  -1.243  -2.523  0.00  0.00     0.034 H 
ATOM     29  H   LIG d   1       5.556  -0.408  -2.370  0.00  0.00     0.034 H 
BRANCH  22  30
ATOM     30  C   LIG d   1       3.485  -0.475  -6.318  0.00  0.00     0.010 C 
ATOM     31  H   LIG d   1       2.674  -1.189  -6.175  0.00  0.00     0.035 H 
BRANCH  30  32
ATOM     32  C   LIG d   1       3.041   0.906  -5.831  0.00  0.00    -0.058 C 
ATOM     33  H   LIG d   1       3.126   0.952  -4.745  0.00  0.00     0.023 H 
ATOM     34  H   LIG d   1       3.675   1.671  -6.278  0.00  0.00     0.023 H 
ATOM     35  H   LIG d   1       2.005   1.077  -6.121  0.00  0.00     0.023 H 
ENDBRANCH  30  32
BRANCH  30  36
ATOM     36  C   LIG d   1       3.843  -0.401  -7.803  0.00  0.00     0.071 C 
ATOM     37  H   LIG d   1       4.905  -0.181  -7.910  0.00  0.00     0.060 H 
BRANCH  36  38
ATOM     38  C   LIG d   1       3.024   0.707  -8.470  0.00  0.00     0.022 C 
ATOM     39  H   LIG d   1       2.531   1.306  -7.704  0.00  0.00     0.038 H 
BRANCH  38  40
ATOM     40  C   LIG d   1       1.971   0.081  -9.386  0.00  0.00    -0.055 C 
ATOM     41  H   LIG d   1       2.070  -1.004  -9.366  0.00  0.00     0.024 H 
ATOM     42  H   LIG d   1       0.976   0.361  -9.039  0.00  0.00     0.024 H 
ATOM     43  H   LIG d   1       2.115   0.441 -10.405  0.00  0.00     0.024 H 
ENDBRANCH  38  40
BRANCH  38  44
ATOM     44  C   LIG d   1       3.939   1.586  -9.284  0.00  0.00     0.047 C 
ATOM     45  O   LIG d   1       4.823   2.205  -8.741  0.00  0.00    -0.549 OA
ATOM     46  O   LIG d   1       3.771   1.683 -10.613  0.00  0.00    -0.549 OA
ENDBRANCH  38  44
ENDBRANCH  36  38
BRANCH  36  47
ATOM     47  O   LIG d   1       3.549  -1.652  -8.427  0.00  0.00    -0.379 OA
BRANCH  47  48
ATOM     48  C   LIG d   1       4.699  -2.334  -8.932  0.00  0.00     0.037 C 
ATOM     49  H   LIG d   1       4.435  -3.366  -9.167  0.00  0.00     0.052 H 
ATOM     50  H   LIG d   1       5.050  -1.835  -9.835  0.00  0.00     0.052 H 
ATOM     51  H   LIG d   1       5.488  -2.322  -8.179  0.00  0.00     0.052 H 
ENDBRANCH  47  48
ENDBRANCH  36  47
ENDBRANCH  30  36
ENDBRANCH  22  30
BRANCH  23  52
ATOM     52  C   LIG d   1       3.289  -1.034  -3.467  0.00  0.00    -0.058 C 
ATOM     53  H   LIG d   1       2.537  -0.550  -4.089  0.00  0.00     0.023 H 
ATOM     54  H   LIG d   1       2.800  -1.720  -2.775  0.00  0.00     0.023 H 
ATOM     55  H   LIG d   1       3.836  -0.279  -2.904  0.00  0.00     0.023 H 
ENDBRANCH  23  52
BRANCH  25  56
ATOM     56  O   LIG d   1       6.372  -2.995  -4.347  0.00  0.00    -0.391 OA
ATOM     57  H   LIG d   1       7.248  -2.601  -4.460  0.00  0.00     0.210 HD
ENDBRANCH  25  56
BRANCH  11  58
ATOM     58  C   LIG d   1       7.530   0.464  -7.181  0.00  0.00    -0.033 C 
ATOM     59  H   LIG d   1       7.914  -0.293  -7.866  0.00  0.00     0.026 H 
ATOM     60  H   LIG d   1       6.452   0.340  -7.070  0.00  0.00     0.026 H 
ATOM     61  H   LIG d   1       7.742   1.456  -7.580  0.00  0.00     0.026 H 
ENDBRANCH  11  58
ENDBRANCH   4  11
BRANCH   1  62
ATOM     62  C   LIG d   1      12.748  -0.416  -4.544  0.00  0.00    -0.024 C 
ATOM     63  H   LIG d   1      13.500  -0.534  -5.324  0.00  0.00     0.029 H 
ATOM     64  H   LIG d   1      13.226  -0.070  -3.628  0.00  0.00     0.029 H 
BRANCH  62  65
ATOM     65  C   LIG d   1      12.068  -1.763  -4.285  0.00  0.00    -0.063 C 
ATOM     66  H   LIG d   1      12.757  -2.422  -3.756  0.00  0.00     0.023 H 
ATOM     67  H   LIG d   1      11.176  -1.609  -3.679  0.00  0.00     0.023 H 
ATOM     68  H   LIG d   1      11.789  -2.218  -5.235  0.00  0.00     0.023 H 
ENDBRANCH  62  65
ENDBRANCH   1  62
BRANCH   1  69
ATOM     69  C   LIG d   1      11.890   1.913  -4.220  0.00  0.00     0.091 C 
ATOM     70  H   LIG d   1      11.343   1.883  -3.278  0.00  0.00     0.063 H 
ATOM     71  O   LIG d   1      11.471   3.040  -5.020  0.00  0.00    -0.368 OA
ATOM     72  C   LIG d   1      12.121   4.203  -4.481  0.00  0.00     0.086 C 
ATOM     73  C   LIG d   1      13.420   3.727  -3.801  0.00  0.00    -0.019 C 
ATOM     74  H   LIG d   1      12.359   4.903  -5.282  0.00  0.00     0.062 H 
ATOM     75  C   LIG d   1      13.395   2.187  -3.970  0.00  0.00    -0.012 C 
ATOM     76  H   LIG d   1      13.417   3.994  -2.744  0.00  0.00     0.029 H 
ATOM     77  H   LIG d   1      14.291   4.151  -4.300  0.00  0.00     0.029 H 
ATOM     78  H   LIG d   1      13.735   1.690  -3.062  0.00  0.00     0.033 H 
BRANCH  72  79
ATOM     79  C   LIG d   1      11.213   4.878  -3.451  0.00  0.00     0.091 C 
ATOM     80  H   LIG d   1      10.562   4.132  -2.997  0.00  0.00     0.063 H 
ATOM     81  O   LIG d   1      12.013   5.493  -2.440  0.00  0.00    -0.340 OA
ATOM     82  C   LIG d   1      11.259   6.135  -1.409  0.00  0.00     0.194 C 
ATOM     83  C   LIG d   1      10.409   7.252  -2.021  0.00  0.00     0.013 C 
ATOM     84  C   LIG d   1       9.498   6.657  -3.099  0.00  0.00    -0.041 C 
ATOM     85  H   LIG d   1      11.061   8.003  -2.467  0.00  0.00     0.035 H 
ATOM     86  C   LIG d   1      10.362   5.945  -4.145  0.00  0.00    -0.015 C 
ATOM     87  H   LIG d   1       8.931   7.456  -3.578  0.00  0.00     0.027 H 
ATOM     88  H   LIG d   1       8.811   5.944  -2.645  0.00  0.00     0.027 H 
ATOM     89  H   LIG d   1      11.013   6.669  -4.635  0.00  0.00     0.032 H 
BRANCH  82  90
ATOM     90  C   LIG d   1      12.214   6.729  -0.373  0.00  0.00     0.098 C 
ATOM     91  H   LIG d   1      13.244   6.545  -0.680  0.00  0.00     0.061 H 
ATOM     92  H   LIG d   1      12.045   7.803  -0.296  0.00  0.00     0.061 H 
BRANCH  90  93
ATOM     93  O   LIG d   1      11.980   6.118   0.898  0.00  0.00    -0.390 OA
ATOM     94  H   LIG d   1      12.579   6.416   1.595  0.00  0.00     0.210 HD
ENDBRANCH  90  93
ENDBRANCH  82  90
BRANCH  82  95
ATOM     95  O   LIG d   1      10.405   5.179  -0.777  0.00  0.00    -0.363 OA
ATOM     96  H   LIG d   1       9.463   5.320  -0.947  0.00  0.00     0.213 HD
ENDBRANCH  82  95
BRANCH  83  97
ATOM     97  C   LIG d   1       9.555   7.899  -0.929  0.00  0.00    -0.057 C 
ATOM     98  H   LIG d   1       9.590   7.287  -0.028  0.00  0.00     0.023 H 
ATOM     99  H   LIG d   1       9.941   8.895  -0.708  0.00  0.00     0.023 H 
ATOM    100  H   LIG d   1       8.524   7.978  -1.274  0.00  0.00     0.023 H 
ENDBRANCH  83  97
BRANCH  86 101
ATOM    101  C   LIG d   1       9.458   5.281  -5.187  0.00  0.00    -0.060 C 
ATOM    102  H   LIG d   1       9.517   4.198  -5.081  0.00  0.00     0.023 H 
ATOM    103  H   LIG d   1       8.429   5.605  -5.035  0.00  0.00     0.023 H 
ATOM    104  H   LIG d   1       9.786   5.566  -6.186  0.00  0.00     0.023 H 
ENDBRANCH  86 101
ENDBRANCH  72  79
BRANCH  75 105
ATOM    105  C   LIG d   1      14.236   1.757  -5.174  0.00  0.00    -0.060 C 
ATOM    106  H   LIG d   1      14.605   2.640  -5.694  0.00  0.00     0.023 H 
ATOM    107  H   LIG d   1      15.080   1.158  -4.831  0.00  0.00     0.023 H 
ATOM    108  H   LIG d   1      13.622   1.164  -5.851  0.00  0.00     0.023 H 
ENDBRANCH  75 105
ENDBRANCH   1  69
TORSDOF 22
ENDMDL
MODEL 7
REMARK VINA RESULT:      -6.2      3.457      9.680
REMARK  22 active torsions:
REMARK  status: ('A' for Active; 'I' for Inactive)
REMARK    1  A    between atoms: C_1  and  C_2 
REMARK    2  A    between atoms: C_2  and  C_3 
REMARK    3  A    between atoms: C_3  and  C_37 
REMARK    4  A    between atoms: C_6  and  C_9 
REMARK    5  A    between atoms: C_9  and  C_36 
REMARK    6  A    between atoms: C_15  and  O_35 
REMARK    7  A    between atoms: C_17  and  C_34 
REMARK    8  A    between atoms: C_19  and  C_22 
REMARK    9  A    between atoms: C_22  and  C_24 
REMARK   10  A    between atoms: C_22  and  C_25 
REMARK   11  A    between atoms: C_25  and  C_27 
REMARK   12  A    between atoms: C_25  and  O_32 
REMARK   13  A    between atoms: C_27  and  C_29 
REMARK   14  A    between atoms: C_27  and  C_30 
REMARK   15  A    between atoms: O_32  and  C_33 
REMARK   16  A    between atoms: C_39  and  C_59 
REMARK   17  A    between atoms: C_42  and  C_45 
REMARK   18  A    between atoms: C_47  and  C_58 
REMARK   19  A    between atoms: C_50  and  C_57 
REMARK   20  A    between atoms: C_52  and  C_54 
REMARK   21  A    between atoms: C_52  and  O_56 
REMARK   22  A    between atoms: C_54  and  O_55 
ROOT
ATOM      1  C   LIG d   1       5.063  -7.841  -7.974  0.00  0.00     0.096 C 
ATOM      2  C   LIG d   1       4.535  -7.965  -6.529  0.00  0.00    -0.019 C 
ATOM      3  C   LIG d   1       4.883  -6.575  -5.930  0.00  0.00    -0.021 C 
ATOM      4  C   LIG d   1       6.210  -6.261  -6.667  0.00  0.00     0.088 C 
ATOM      5  H   LIG d   1       7.046  -6.752  -6.168  0.00  0.00     0.062 H 
ATOM      6  O   LIG d   1       6.039  -6.793  -7.990  0.00  0.00    -0.365 OA
ATOM      7  H   LIG d   1       3.458  -8.132  -6.522  0.00  0.00     0.029 H 
ATOM      8  H   LIG d   1       5.053  -8.762  -5.994  0.00  0.00     0.029 H 
ATOM      9  H   LIG d   1       5.037  -6.639  -4.853  0.00  0.00     0.029 H 
ATOM     10  H   LIG d   1       4.116  -5.840  -6.173  0.00  0.00     0.029 H 
ENDROOT
BRANCH   4  11
ATOM     11  C   LIG d   1       6.439  -4.751  -6.727  0.00  0.00     0.096 C 
ATOM     12  O   LIG d   1       5.976  -4.134  -5.512  0.00  0.00    -0.340 OA
ATOM     13  C   LIG d   1       6.863  -3.038  -5.233  0.00  0.00     0.174 C 
ATOM     14  C   LIG d   1       8.260  -3.575  -5.610  0.00  0.00     0.004 C 
ATOM     15  O   LIG d   1       6.537  -1.912  -6.036  0.00  0.00    -0.345 OA
ATOM     16  C   LIG d   1       6.823  -2.684  -3.750  0.00  0.00     0.028 C 
ATOM     17  C   LIG d   1       7.947  -4.454  -6.846  0.00  0.00    -0.017 C 
ATOM     18  H   LIG d   1       8.933  -2.758  -5.872  0.00  0.00     0.032 H 
ATOM     19  H   LIG d   1       8.678  -4.175  -4.801  0.00  0.00     0.032 H 
ATOM     20  H   LIG d   1       8.157  -3.907  -7.765  0.00  0.00     0.029 H 
ATOM     21  H   LIG d   1       8.523  -5.378  -6.813  0.00  0.00     0.029 H 
ATOM     22  C   LIG d   1       5.243  -1.361  -5.779  0.00  0.00     0.072 C 
ATOM     23  C   LIG d   1       5.163  -0.910  -4.319  0.00  0.00     0.009 C 
ATOM     24  H   LIG d   1       4.482  -2.117  -5.969  0.00  0.00     0.060 H 
ATOM     25  C   LIG d   1       5.445  -2.107  -3.405  0.00  0.00     0.065 C 
ATOM     26  H   LIG d   1       4.166  -0.520  -4.112  0.00  0.00     0.035 H 
ATOM     27  H   LIG d   1       5.435  -1.784  -2.365  0.00  0.00     0.060 H 
ATOM     28  H   LIG d   1       7.001  -3.581  -3.157  0.00  0.00     0.034 H 
ATOM     29  H   LIG d   1       7.592  -1.944  -3.532  0.00  0.00     0.034 H 
BRANCH  22  30
ATOM     30  C   LIG d   1       5.008  -0.159  -6.697  0.00  0.00     0.010 C 
ATOM     31  H   LIG d   1       5.331   0.752  -6.193  0.00  0.00     0.035 H 
BRANCH  30  32
ATOM     32  C   LIG d   1       5.811  -0.339  -7.988  0.00  0.00    -0.058 C 
ATOM     33  H   LIG d   1       6.687   0.309  -7.963  0.00  0.00     0.023 H 
ATOM     34  H   LIG d   1       6.130  -1.378  -8.076  0.00  0.00     0.023 H 
ATOM     35  H   LIG d   1       5.188  -0.076  -8.843  0.00  0.00     0.023 H 
ENDBRANCH  30  32
BRANCH  30  36
ATOM     36  C   LIG d   1       3.520  -0.056  -7.032  0.00  0.00     0.071 C 
ATOM     37  H   LIG d   1       3.013  -0.968  -6.717  0.00  0.00     0.060 H 
BRANCH  36  38
ATOM     38  C   LIG d   1       3.348   0.127  -8.542  0.00  0.00     0.022 C 
ATOM     39  H   LIG d   1       4.322   0.067  -9.028  0.00  0.00     0.038 H 
BRANCH  38  40
ATOM     40  C   LIG d   1       2.721   1.494  -8.822  0.00  0.00    -0.055 C 
ATOM     41  H   LIG d   1       2.980   1.813  -9.831  0.00  0.00     0.024 H 
ATOM     42  H   LIG d   1       1.637   1.422  -8.731  0.00  0.00     0.024 H 
ATOM     43  H   LIG d   1       3.099   2.222  -8.103  0.00  0.00     0.024 H 
ENDBRANCH  38  40
BRANCH  38  44
ATOM     44  C   LIG d   1       2.450  -0.957  -9.080  0.00  0.00     0.047 C 
ATOM     45  O   LIG d   1       2.748  -2.118  -8.931  0.00  0.00    -0.549 OA
ATOM     46  O   LIG d   1       1.318  -0.633  -9.726  0.00  0.00    -0.549 OA
ENDBRANCH  38  44
ENDBRANCH  36  38
BRANCH  36  47
ATOM     47  O   LIG d   1       2.954   1.064  -6.350  0.00  0.00    -0.379 OA
BRANCH  47  48
ATOM     48  C   LIG d   1       2.281   0.726  -5.135  0.00  0.00     0.037 C 
ATOM     49  H   LIG d   1       1.891  -0.289  -5.207  0.00  0.00     0.052 H 
ATOM     50  H   LIG d   1       2.981   0.788  -4.302  0.00  0.00     0.052 H 
ATOM     51  H   LIG d   1       1.458   1.422  -4.970  0.00  0.00     0.052 H 
ENDBRANCH  47  48
ENDBRANCH  36  47
ENDBRANCH  30  36
ENDBRANCH  22  30
BRANCH  23  52
ATOM     52  C   LIG d   1       6.203   0.183  -4.063  0.00  0.00    -0.058 C 
ATOM     53  H   LIG d   1       7.073  -0.252  -3.571  0.00  0.00     0.023 H 
ATOM     54  H   LIG d   1       6.507   0.624  -5.013  0.00  0.00     0.023 H 
ATOM     55  H   LIG d   1       5.772   0.954  -3.427  0.00  0.00     0.023 H 
ENDBRANCH  23  52
BRANCH  25  56
ATOM     56  O   LIG d   1       4.444  -3.107  -3.606  0.00  0.00    -0.391 OA
ATOM     57  H   LIG d   1       3.609  -2.924  -3.154  0.00  0.00     0.210 HD
ENDBRANCH  25  56
BRANCH  11  58
ATOM     58  C   LIG d   1       5.696  -4.159  -7.925  0.00  0.00    -0.033 C 
ATOM     59  H   LIG d   1       4.801  -3.641  -7.579  0.00  0.00     0.026 H 
ATOM     60  H   LIG d   1       6.345  -3.454  -8.445  0.00  0.00     0.026 H 
ATOM     61  H   LIG d   1       5.410  -4.959  -8.608  0.00  0.00     0.026 H 
ENDBRANCH  11  58
ENDBRANCH   4  11
BRANCH   1  62
ATOM     62  C   LIG d   1       5.709  -9.158  -8.408  0.00  0.00    -0.024 C 
ATOM     63  H   LIG d   1       5.115  -9.611  -9.202  0.00  0.00     0.029 H 
ATOM     64  H   LIG d   1       6.718  -8.966  -8.772  0.00  0.00     0.029 H 
BRANCH  62  65
ATOM     65  C   LIG d   1       5.772 -10.113  -7.213  0.00  0.00    -0.063 C 
ATOM     66  H   LIG d   1       6.692  -9.935  -6.655  0.00  0.00     0.023 H 
ATOM     67  H   LIG d   1       4.915  -9.940  -6.564  0.00  0.00     0.023 H 
ATOM     68  H   LIG d   1       5.758 -11.143  -7.569  0.00  0.00     0.023 H 
ENDBRANCH  62  65
ENDBRANCH   1  62
BRANCH   1  69
ATOM     69  C   LIG d   1       3.911  -7.492  -8.920  0.00  0.00     0.091 C 
ATOM     70  H   LIG d   1       3.173  -6.872  -8.411  0.00  0.00     0.063 H 
ATOM     71  O   LIG d   1       3.299  -8.692  -9.440  0.00  0.00    -0.368 OA
ATOM     72  C   LIG d   1       2.616  -8.325 -10.649  0.00  0.00     0.086 C 
ATOM     73  C   LIG d   1       3.334  -7.088 -11.224  0.00  0.00    -0.019 C 
ATOM     74  H   LIG d   1       2.659  -9.145 -11.366  0.00  0.00     0.062 H 
ATOM     75  C   LIG d   1       4.443  -6.779 -10.188  0.00  0.00    -0.012 C 
ATOM     76  H   LIG d   1       2.643  -6.249 -11.304  0.00  0.00     0.029 H 
ATOM     77  H   LIG d   1       3.772  -7.318 -12.195  0.00  0.00     0.029 H 
ATOM     78  H   LIG d   1       4.533  -5.706 -10.022  0.00  0.00     0.033 H 
BRANCH  72  79
ATOM     79  C   LIG d   1       1.157  -7.981 -10.339  0.00  0.00     0.091 C 
ATOM     80  H   LIG d   1       0.953  -8.178  -9.287  0.00  0.00     0.063 H 
ATOM     81  O   LIG d   1       0.922  -6.600 -10.620  0.00  0.00    -0.340 OA
ATOM     82  C   LIG d   1      -0.410  -6.165 -10.340  0.00  0.00     0.194 C 
ATOM     83  C   LIG d   1      -1.395  -6.952 -11.209  0.00  0.00     0.013 C 
ATOM     84  C   LIG d   1      -1.221  -8.449 -10.937  0.00  0.00    -0.041 C 
ATOM     85  H   LIG d   1      -1.197  -6.747 -12.261  0.00  0.00     0.035 H 
ATOM     86  C   LIG d   1       0.235  -8.841 -11.209  0.00  0.00    -0.015 C 
ATOM     87  H   LIG d   1      -1.880  -9.018 -11.594  0.00  0.00     0.027 H 
ATOM     88  H   LIG d   1      -1.468  -8.664  -9.898  0.00  0.00     0.027 H 
ATOM     89  H   LIG d   1       0.467  -8.674 -12.261  0.00  0.00     0.032 H 
BRANCH  82  90
ATOM     90  C   LIG d   1      -0.535  -4.673 -10.650  0.00  0.00     0.098 C 
ATOM     91  H   LIG d   1      -0.550  -4.525 -11.730  0.00  0.00     0.061 H 
ATOM     92  H   LIG d   1      -1.459  -4.288 -10.218  0.00  0.00     0.061 H 
BRANCH  90  93
ATOM     93  O   LIG d   1       0.579  -3.974 -10.090  0.00  0.00    -0.390 OA
ATOM     94  H   LIG d   1       0.367  -3.467  -9.296  0.00  0.00     0.210 HD
ENDBRANCH  90  93
ENDBRANCH  82  90
BRANCH  82  95
ATOM     95  O   LIG d   1      -0.706  -6.392  -8.961  0.00  0.00    -0.363 OA
ATOM     96  H   LIG d   1      -0.289  -5.758  -8.360  0.00  0.00     0.213 HD
ENDBRANCH  82  95
BRANCH  83  97
ATOM     97  C   LIG d   1      -2.825  -6.533 -10.867  0.00  0.00    -0.057 C 
ATOM     98  H   LIG d   1      -3.121  -5.697 -11.500  0.00  0.00     0.023 H 
ATOM     99  H   LIG d   1      -3.500  -7.372 -11.035  0.00  0.00     0.023 H 
ATOM    100  H   LIG d   1      -2.875  -6.231  -9.820  0.00  0.00     0.023 H 
ENDBRANCH  83  97
BRANCH  86 101
ATOM    101  C   LIG d   1       0.440 -10.318 -10.866  0.00  0.00    -0.060 C 
ATOM    102  H   LIG d   1       0.934 -10.819 -11.699  0.00  0.00     0.023 H 
ATOM    103  H   LIG d   1       1.058 -10.402  -9.973  0.00  0.00     0.023 H 
ATOM    104  H   LIG d   1      -0.527 -10.786 -10.684  0.00  0.00     0.023 H 
ENDBRANCH  86 101
ENDBRANCH  72  79
BRANCH  75 105
ATOM    105  C   LIG d   1       5.783  -7.375 -10.628  0.00  0.00    -0.060 C 
ATOM    106  H   LIG d   1       6.487  -7.337  -9.799  0.00  0.00     0.023 H 
ATOM    107  H   LIG d   1       5.635  -8.411 -10.934  0.00  0.00     0.023 H 
ATOM    108  H   LIG d   1       6.176  -6.801 -11.467  0.00  0.00     0.023 H 
ENDBRANCH  75 105
ENDBRANCH   1  69
TORSDOF 22
ENDMDL
MODEL 8
REMARK VINA RESULT:      -6.2      2.348      8.909
REMARK  22 active torsions:
REMARK  status: ('A' for Active; 'I' for Inactive)
REMARK    1  A    between atoms: C_1  and  C_2 
REMARK    2  A    between atoms: C_2  and  C_3 
REMARK    3  A    between atoms: C_3  and  C_37 
REMARK    4  A    between atoms: C_6  and  C_9 
REMARK    5  A    between atoms: C_9  and  C_36 
REMARK    6  A    between atoms: C_15  and  O_35 
REMARK    7  A    between atoms: C_17  and  C_34 
REMARK    8  A    between atoms: C_19  and  C_22 
REMARK    9  A    between atoms: C_22  and  C_24 
REMARK   10  A    between atoms: C_22  and  C_25 
REMARK   11  A    between atoms: C_25  and  C_27 
REMARK   12  A    between atoms: C_25  and  O_32 
REMARK   13  A    between atoms: C_27  and  C_29 
REMARK   14  A    between atoms: C_27  and  C_30 
REMARK   15  A    between atoms: O_32  and  C_33 
REMARK   16  A    between atoms: C_39  and  C_59 
REMARK   17  A    between atoms: C_42  and  C_45 
REMARK   18  A    between atoms: C_47  and  C_58 
REMARK   19  A    between atoms: C_50  and  C_57 
REMARK   20  A    between atoms: C_52  and  C_54 
REMARK   21  A    between atoms: C_52  and  O_56 
REMARK   22  A    between atoms: C_54  and  O_55 
ROOT
ATOM      1  C   LIG d   1       4.821  -1.039 -11.682  0.00  0.00     0.096 C 
ATOM      2  C   LIG d   1       6.026  -1.906 -12.105  0.00  0.00    -0.019 C 
ATOM      3  C   LIG d   1       6.939  -1.836 -10.851  0.00  0.00    -0.021 C 
ATOM      4  C   LIG d   1       6.652  -0.395 -10.358  0.00  0.00     0.088 C 
ATOM      5  H   LIG d   1       7.257   0.323 -10.912  0.00  0.00     0.062 H 
ATOM      6  O   LIG d   1       5.257  -0.179 -10.623  0.00  0.00    -0.365 OA
ATOM      7  H   LIG d   1       5.716  -2.932 -12.303  0.00  0.00     0.029 H 
ATOM      8  H   LIG d   1       6.525  -1.478 -12.976  0.00  0.00     0.029 H 
ATOM      9  H   LIG d   1       7.988  -1.957 -11.121  0.00  0.00     0.029 H 
ATOM     10  H   LIG d   1       6.640  -2.573 -10.106  0.00  0.00     0.029 H 
ENDROOT
BRANCH   4  11
ATOM     11  C   LIG d   1       6.932  -0.282  -8.859  0.00  0.00     0.096 C 
ATOM     12  O   LIG d   1       6.765  -1.565  -8.229  0.00  0.00    -0.340 OA
ATOM     13  C   LIG d   1       7.739  -1.645  -7.176  0.00  0.00     0.174 C 
ATOM     14  C   LIG d   1       9.000  -0.983  -7.774  0.00  0.00     0.004 C 
ATOM     15  O   LIG d   1       7.303  -0.924  -6.031  0.00  0.00    -0.345 OA
ATOM     16  C   LIG d   1       8.030  -3.101  -6.828  0.00  0.00     0.028 C 
ATOM     17  C   LIG d   1       8.393   0.155  -8.630  0.00  0.00    -0.017 C 
ATOM     18  H   LIG d   1       9.639  -0.581  -6.987  0.00  0.00     0.032 H 
ATOM     19  H   LIG d   1       9.552  -1.688  -8.396  0.00  0.00     0.032 H 
ATOM     20  H   LIG d   1       8.428   1.100  -8.088  0.00  0.00     0.029 H 
ATOM     21  H   LIG d   1       8.920   0.241  -9.580  0.00  0.00     0.029 H 
ATOM     22  C   LIG d   1       6.119  -1.447  -5.423  0.00  0.00     0.072 C 
ATOM     23  C   LIG d   1       6.371  -2.890  -4.978  0.00  0.00     0.009 C 
ATOM     24  H   LIG d   1       5.301  -1.425  -6.143  0.00  0.00     0.060 H 
ATOM     25  C   LIG d   1       6.785  -3.727  -6.192  0.00  0.00     0.065 C 
ATOM     26  H   LIG d   1       5.459  -3.301  -4.544  0.00  0.00     0.035 H 
ATOM     27  H   LIG d   1       7.010  -4.745  -5.874  0.00  0.00     0.060 H 
ATOM     28  H   LIG d   1       8.289  -3.647  -7.736  0.00  0.00     0.034 H 
ATOM     29  H   LIG d   1       8.862  -3.148  -6.126  0.00  0.00     0.034 H 
BRANCH  22  30
ATOM     30  C   LIG d   1       5.751  -0.594  -4.207  0.00  0.00     0.010 C 
ATOM     31  H   LIG d   1       5.735  -1.221  -3.315  0.00  0.00     0.035 H 
BRANCH  30  32
ATOM     32  C   LIG d   1       6.788   0.517  -4.030  0.00  0.00    -0.058 C 
ATOM     33  H   LIG d   1       7.699   0.251  -4.566  0.00  0.00     0.023 H 
ATOM     34  H   LIG d   1       6.391   1.451  -4.429  0.00  0.00     0.023 H 
ATOM     35  H   LIG d   1       7.011   0.640  -2.971  0.00  0.00     0.023 H 
ENDBRANCH  30  32
BRANCH  30  36
ATOM     36  C   LIG d   1       4.369   0.026  -4.419  0.00  0.00     0.071 C 
ATOM     37  H   LIG d   1       4.477   1.089  -4.634  0.00  0.00     0.060 H 
BRANCH  36  38
ATOM     38  C   LIG d   1       3.530  -0.154  -3.151  0.00  0.00     0.022 C 
ATOM     39  H   LIG d   1       2.477  -0.243  -3.422  0.00  0.00     0.038 H 
BRANCH  38  40
ATOM     40  C   LIG d   1       3.722   1.056  -2.237  0.00  0.00    -0.055 C 
ATOM     41  H   LIG d   1       2.966   1.807  -2.465  0.00  0.00     0.024 H 
ATOM     42  H   LIG d   1       3.621   0.745  -1.196  0.00  0.00     0.024 H 
ATOM     43  H   LIG d   1       4.714   1.479  -2.396  0.00  0.00     0.024 H 
ENDBRANCH  38  40
BRANCH  38  44
ATOM     44  C   LIG d   1       3.971  -1.403  -2.431  0.00  0.00     0.047 C 
ATOM     45  O   LIG d   1       4.618  -1.318  -1.415  0.00  0.00    -0.549 OA
ATOM     46  O   LIG d   1       3.644  -2.611  -2.919  0.00  0.00    -0.549 OA
ENDBRANCH  38  44
ENDBRANCH  36  38
BRANCH  36  47
ATOM     47  O   LIG d   1       3.719  -0.619  -5.515  0.00  0.00    -0.379 OA
BRANCH  47  48
ATOM     48  C   LIG d   1       2.847   0.234  -6.258  0.00  0.00     0.037 C 
ATOM     49  H   LIG d   1       3.322   1.205  -6.399  0.00  0.00     0.052 H 
ATOM     50  H   LIG d   1       2.642  -0.213  -7.231  0.00  0.00     0.052 H 
ATOM     51  H   LIG d   1       1.912   0.362  -5.712  0.00  0.00     0.052 H 
ENDBRANCH  47  48
ENDBRANCH  36  47
ENDBRANCH  30  36
ENDBRANCH  22  30
BRANCH  23  52
ATOM     52  C   LIG d   1       7.490  -2.914  -3.935  0.00  0.00    -0.058 C 
ATOM     53  H   LIG d   1       8.114  -3.794  -4.093  0.00  0.00     0.023 H 
ATOM     54  H   LIG d   1       8.099  -2.016  -4.035  0.00  0.00     0.023 H 
ATOM     55  H   LIG d   1       7.056  -2.950  -2.937  0.00  0.00     0.023 H 
ENDBRANCH  23  52
BRANCH  25  56
ATOM     56  O   LIG d   1       5.720  -3.747  -7.144  0.00  0.00    -0.391 OA
ATOM     57  H   LIG d   1       4.875  -3.426  -6.798  0.00  0.00     0.210 HD
ENDBRANCH  25  56
BRANCH  11  58
ATOM     58  C   LIG d   1       5.980   0.735  -8.227  0.00  0.00    -0.033 C 
ATOM     59  H   LIG d   1       5.773   0.447  -7.196  0.00  0.00     0.026 H 
ATOM     60  H   LIG d   1       6.440   1.723  -8.243  0.00  0.00     0.026 H 
ATOM     61  H   LIG d   1       5.047   0.760  -8.791  0.00  0.00     0.026 H 
ENDBRANCH  11  58
ENDBRANCH   4  11
BRANCH   1  62
ATOM     62  C   LIG d   1       4.342  -0.200 -12.868  0.00  0.00    -0.024 C 
ATOM     63  H   LIG d   1       3.263  -0.310 -12.980  0.00  0.00     0.029 H 
ATOM     64  H   LIG d   1       4.584   0.848 -12.693  0.00  0.00     0.029 H 
BRANCH  62  65
ATOM     65  C   LIG d   1       5.037  -0.677 -14.145  0.00  0.00    -0.063 C 
ATOM     66  H   LIG d   1       5.376  -1.705 -14.012  0.00  0.00     0.023 H 
ATOM     67  H   LIG d   1       4.338  -0.631 -14.979  0.00  0.00     0.023 H 
ATOM     68  H   LIG d   1       5.895  -0.037 -14.353  0.00  0.00     0.023 H 
ENDBRANCH  62  65
ENDBRANCH   1  62
BRANCH   1  69
ATOM     69  C   LIG d   1       3.684  -1.937 -11.189  0.00  0.00     0.091 C 
ATOM     70  H   LIG d   1       4.060  -2.930 -10.944  0.00  0.00     0.063 H 
ATOM     71  O   LIG d   1       2.633  -2.015 -12.176  0.00  0.00    -0.368 OA
ATOM     72  C   LIG d   1       1.438  -2.415 -11.487  0.00  0.00     0.086 C 
ATOM     73  C   LIG d   1       1.574  -1.948 -10.024  0.00  0.00    -0.019 C 
ATOM     74  H   LIG d   1       0.567  -1.945 -11.945  0.00  0.00     0.062 H 
ATOM     75  C   LIG d   1       2.981  -1.301  -9.962  0.00  0.00    -0.012 C 
ATOM     76  H   LIG d   1       1.516  -2.798  -9.345  0.00  0.00     0.029 H 
ATOM     77  H   LIG d   1       0.806  -1.213  -9.784  0.00  0.00     0.029 H 
ATOM     78  H   LIG d   1       3.492  -1.569  -9.039  0.00  0.00     0.033 H 
BRANCH  72  79
ATOM     79  C   LIG d   1       1.293  -3.938 -11.534  0.00  0.00     0.091 C 
ATOM     80  H   LIG d   1       1.659  -4.307 -12.492  0.00  0.00     0.063 H 
ATOM     81  O   LIG d   1       2.053  -4.522 -10.475  0.00  0.00    -0.340 OA
ATOM     82  C   LIG d   1       2.007  -5.950 -10.442  0.00  0.00     0.194 C 
ATOM     83  C   LIG d   1       0.561  -6.408 -10.236  0.00  0.00     0.013 C 
ATOM     84  C   LIG d   1      -0.312  -5.841 -11.359  0.00  0.00    -0.041 C 
ATOM     85  H   LIG d   1       0.198  -6.046  -9.274  0.00  0.00     0.035 H 
ATOM     86  C   LIG d   1      -0.182  -4.314 -11.370  0.00  0.00    -0.015 C 
ATOM     87  H   LIG d   1      -1.353  -6.117 -11.187  0.00  0.00     0.027 H 
ATOM     88  H   LIG d   1       0.017  -6.242 -12.317  0.00  0.00     0.027 H 
ATOM     89  H   LIG d   1      -0.559  -3.909 -10.431  0.00  0.00     0.032 H 
BRANCH  82  90
ATOM     90  C   LIG d   1       2.874  -6.463  -9.292  0.00  0.00     0.098 C 
ATOM     91  H   LIG d   1       2.483  -7.417  -8.938  0.00  0.00     0.061 H 
ATOM     92  H   LIG d   1       3.898  -6.598  -9.640  0.00  0.00     0.061 H 
BRANCH  90  93
ATOM     93  O   LIG d   1       2.856  -5.516  -8.221  0.00  0.00    -0.390 OA
ATOM     94  H   LIG d   1       2.154  -4.856  -8.291  0.00  0.00     0.210 HD
ENDBRANCH  90  93
ENDBRANCH  82  90
BRANCH  82  95
ATOM     95  O   LIG d   1       2.499  -6.471 -11.679  0.00  0.00    -0.363 OA
ATOM     96  H   LIG d   1       2.573  -5.811 -12.382  0.00  0.00     0.213 HD
ENDBRANCH  82  95
BRANCH  83  97
ATOM     97  C   LIG d   1       0.500  -7.936 -10.263  0.00  0.00    -0.057 C 
ATOM     98  H   LIG d   1      -0.057  -8.263 -11.140  0.00  0.00     0.023 H 
ATOM     99  H   LIG d   1       1.512  -8.340 -10.304  0.00  0.00     0.023 H 
ATOM    100  H   LIG d   1       0.002  -8.296  -9.362  0.00  0.00     0.023 H 
ENDBRANCH  83  97
BRANCH  86 101
ATOM    101  C   LIG d   1      -0.989  -3.741 -12.537  0.00  0.00    -0.060 C 
ATOM    102  H   LIG d   1      -1.802  -3.127 -12.150  0.00  0.00     0.023 H 
ATOM    103  H   LIG d   1      -0.339  -3.131 -13.164  0.00  0.00     0.023 H 
ATOM    104  H   LIG d   1      -1.402  -4.558 -13.129  0.00  0.00     0.023 H 
ENDBRANCH  86 101
ENDBRANCH  72  79
BRANCH  75 105
ATOM    105  C   LIG d   1       2.889   0.219 -10.113  0.00  0.00    -0.060 C 
ATOM    106  H   LIG d   1       3.825   0.601 -10.520  0.00  0.00     0.023 H 
ATOM    107  H   LIG d   1       2.071   0.469 -10.789  0.00  0.00     0.023 H 
ATOM    108  H   LIG d   1       2.705   0.670  -9.138  0.00  0.00     0.023 H 
ENDBRANCH  75 105
ENDBRANCH   1  69
TORSDOF 22
ENDMDL
MODEL 9
REMARK VINA RESULT:      -6.1      5.061      9.740
REMARK  22 active torsions:
REMARK  status: ('A' for Active; 'I' for Inactive)
REMARK    1  A    between atoms: C_1  and  C_2 
REMARK    2  A    between atoms: C_2  and  C_3 
REMARK    3  A    between atoms: C_3  and  C_37 
REMARK    4  A    between atoms: C_6  and  C_9 
REMARK    5  A    between atoms: C_9  and  C_36 
REMARK    6  A    between atoms: C_15  and  O_35 
REMARK    7  A    between atoms: C_17  and  C_34 
REMARK    8  A    between atoms: C_19  and  C_22 
REMARK    9  A    between atoms: C_22  and  C_24 
REMARK   10  A    between atoms: C_22  and  C_25 
REMARK   11  A    between atoms: C_25  and  C_27 
REMARK   12  A    between atoms: C_25  and  O_32 
REMARK   13  A    between atoms: C_27  and  C_29 
REMARK   14  A    between atoms: C_27  and  C_30 
REMARK   15  A    between atoms: O_32  and  C_33 
REMARK   16  A    between atoms: C_39  and  C_59 
REMARK   17  A    between atoms: C_42  and  C_45 
REMARK   18  A    between atoms: C_47  and  C_58 
REMARK   19  A    between atoms: C_50  and  C_57 
REMARK   20  A    between atoms: C_52  and  C_54 
REMARK   21  A    between atoms: C_52  and  O_56 
REMARK   22  A    between atoms: C_54  and  O_55 
ROOT
ATOM      1  C   LIG d   1      11.312   1.641  -5.039  0.00  0.00     0.096 C 
ATOM      2  C   LIG d   1      11.411   0.759  -6.302  0.00  0.00    -0.019 C 
ATOM      3  C   LIG d   1       9.922   0.414  -6.581  0.00  0.00    -0.021 C 
ATOM      4  C   LIG d   1       9.364   0.330  -5.138  0.00  0.00     0.088 C 
ATOM      5  H   LIG d   1       9.572  -0.649  -4.707  0.00  0.00     0.062 H 
ATOM      6  O   LIG d   1      10.059   1.353  -4.407  0.00  0.00    -0.365 OA
ATOM      7  H   LIG d   1      11.842   1.317  -7.133  0.00  0.00     0.029 H 
ATOM      8  H   LIG d   1      11.989  -0.143  -6.101  0.00  0.00     0.029 H 
ATOM      9  H   LIG d   1       9.830  -0.543  -7.095  0.00  0.00     0.029 H 
ATOM     10  H   LIG d   1       9.435   1.209  -7.146  0.00  0.00     0.029 H 
ENDROOT
BRANCH   4  11
ATOM     11  C   LIG d   1       7.860   0.605  -5.135  0.00  0.00     0.096 C 
ATOM     12  O   LIG d   1       7.164  -0.475  -4.486  0.00  0.00    -0.340 OA
ATOM     13  C   LIG d   1       6.047   0.102  -3.791  0.00  0.00     0.174 C 
ATOM     14  C   LIG d   1       6.601   1.423  -3.213  0.00  0.00     0.004 C 
ATOM     15  O   LIG d   1       4.980   0.370  -4.691  0.00  0.00    -0.345 OA
ATOM     16  C   LIG d   1       5.592  -0.812  -2.658  0.00  0.00     0.028 C 
ATOM     17  C   LIG d   1       7.563   1.888  -4.333  0.00  0.00    -0.017 C 
ATOM     18  H   LIG d   1       5.800   2.148  -3.061  0.00  0.00     0.032 H 
ATOM     19  H   LIG d   1       7.141   1.245  -2.283  0.00  0.00     0.032 H 
ATOM     20  H   LIG d   1       7.079   2.630  -4.968  0.00  0.00     0.029 H 
ATOM     21  H   LIG d   1       8.480   2.293  -3.905  0.00  0.00     0.029 H 
ATOM     22  C   LIG d   1       4.420  -0.794  -5.302  0.00  0.00     0.072 C 
ATOM     23  C   LIG d   1       3.871  -1.724  -4.216  0.00  0.00     0.009 C 
ATOM     24  H   LIG d   1       5.191  -1.314  -5.870  0.00  0.00     0.060 H 
ATOM     25  C   LIG d   1       5.001  -2.095  -3.252  0.00  0.00     0.065 C 
ATOM     26  H   LIG d   1       3.473  -2.628  -4.678  0.00  0.00     0.035 H 
ATOM     27  H   LIG d   1       4.608  -2.720  -2.451  0.00  0.00     0.060 H 
ATOM     28  H   LIG d   1       6.446  -1.062  -2.028  0.00  0.00     0.034 H 
ATOM     29  H   LIG d   1       4.835  -0.304  -2.062  0.00  0.00     0.034 H 
BRANCH  22  30
ATOM     30  C   LIG d   1       3.285  -0.382  -6.242  0.00  0.00     0.010 C 
ATOM     31  H   LIG d   1       2.478  -1.112  -6.180  0.00  0.00     0.035 H 
BRANCH  30  32
ATOM     32  C   LIG d   1       2.758   0.995  -5.833  0.00  0.00    -0.058 C 
ATOM     33  H   LIG d   1       2.481   0.979  -4.778  0.00  0.00     0.023 H 
ATOM     34  H   LIG d   1       3.535   1.744  -5.992  0.00  0.00     0.023 H 
ATOM     35  H   LIG d   1       1.885   1.244  -6.435  0.00  0.00     0.023 H 
ENDBRANCH  30  32
BRANCH  30  36
ATOM     36  C   LIG d   1       3.808  -0.322  -7.678  0.00  0.00     0.071 C 
ATOM     37  H   LIG d   1       4.864  -0.052  -7.668  0.00  0.00     0.060 H 
BRANCH  36  38
ATOM     38  C   LIG d   1       3.020   0.727  -8.464  0.00  0.00     0.022 C 
ATOM     39  H   LIG d   1       2.463   1.358  -7.771  0.00  0.00     0.038 H 
BRANCH  38  40
ATOM     40  C   LIG d   1       2.046   0.028  -9.414  0.00  0.00    -0.055 C 
ATOM     41  H   LIG d   1       1.724  -0.916  -8.974  0.00  0.00     0.024 H 
ATOM     42  H   LIG d   1       1.177   0.666  -9.578  0.00  0.00     0.024 H 
ATOM     43  H   LIG d   1       2.540  -0.164 -10.366  0.00  0.00     0.024 H 
ENDBRANCH  38  40
BRANCH  38  44
ATOM     44  C   LIG d   1       3.975   1.578  -9.262  0.00  0.00     0.047 C 
ATOM     45  O   LIG d   1       4.908   2.114  -8.714  0.00  0.00    -0.549 OA
ATOM     46  O   LIG d   1       3.788   1.741 -10.582  0.00  0.00    -0.549 OA
ENDBRANCH  38  44
ENDBRANCH  36  38
BRANCH  36  47
ATOM     47  O   LIG d   1       3.648  -1.600  -8.297  0.00  0.00    -0.379 OA
BRANCH  47  48
ATOM     48  C   LIG d   1       4.875  -2.197  -8.722  0.00  0.00     0.037 C 
ATOM     49  H   LIG d   1       5.513  -1.436  -9.172  0.00  0.00     0.052 H 
ATOM     50  H   LIG d   1       5.383  -2.634  -7.862  0.00  0.00     0.052 H 
ATOM     51  H   LIG d   1       4.665  -2.977  -9.455  0.00  0.00     0.052 H 
ENDBRANCH  47  48
ENDBRANCH  36  47
ENDBRANCH  30  36
ENDBRANCH  22  30
BRANCH  23  52
ATOM     52  C   LIG d   1       2.757  -1.010  -3.447  0.00  0.00    -0.058 C 
ATOM     53  H   LIG d   1       2.824  -1.267  -2.390  0.00  0.00     0.023 H 
ATOM     54  H   LIG d   1       2.868   0.068  -3.565  0.00  0.00     0.023 H 
ATOM     55  H   LIG d   1       1.789  -1.320  -3.838  0.00  0.00     0.023 H 
ENDBRANCH  23  52
BRANCH  25  56
ATOM     56  O   LIG d   1       6.018  -2.808  -3.959  0.00  0.00    -0.391 OA
ATOM     57  H   LIG d   1       5.739  -3.136  -4.825  0.00  0.00     0.210 HD
ENDBRANCH  25  56
BRANCH  11  58
ATOM     58  C   LIG d   1       7.355   0.759  -6.570  0.00  0.00    -0.033 C 
ATOM     59  H   LIG d   1       6.267   0.825  -6.568  0.00  0.00     0.026 H 
ATOM     60  H   LIG d   1       7.773   1.666  -7.007  0.00  0.00     0.026 H 
ATOM     61  H   LIG d   1       7.665  -0.104  -7.160  0.00  0.00     0.026 H 
ENDBRANCH  11  58
ENDBRANCH   4  11
BRANCH   1  62
ATOM     62  C   LIG d   1      12.462   1.315  -4.085  0.00  0.00    -0.024 C 
ATOM     63  H   LIG d   1      13.357   1.855  -4.395  0.00  0.00     0.029 H 
ATOM     64  H   LIG d   1      12.190   1.613  -3.073  0.00  0.00     0.029 H 
BRANCH  62  65
ATOM     65  C   LIG d   1      12.739  -0.190  -4.116  0.00  0.00    -0.063 C 
ATOM     66  H   LIG d   1      13.137  -0.466  -5.093  0.00  0.00     0.023 H 
ATOM     67  H   LIG d   1      13.466  -0.442  -3.344  0.00  0.00     0.023 H 
ATOM     68  H   LIG d   1      11.813  -0.734  -3.934  0.00  0.00     0.023 H 
ENDBRANCH  62  65
ENDBRANCH   1  62
BRANCH   1  69
ATOM     69  C   LIG d   1      11.367   3.119  -5.433  0.00  0.00     0.091 C 
ATOM     70  H   LIG d   1      11.061   3.749  -4.598  0.00  0.00     0.063 H 
ATOM     71  O   LIG d   1      10.543   3.367  -6.592  0.00  0.00    -0.368 OA
ATOM     72  C   LIG d   1      11.019   4.582  -7.194  0.00  0.00     0.086 C 
ATOM     73  C   LIG d   1      12.508   4.725  -6.821  0.00  0.00    -0.019 C 
ATOM     74  H   LIG d   1      10.913   4.528  -8.278  0.00  0.00     0.062 H 
ATOM     75  C   LIG d   1      12.790   3.502  -5.913  0.00  0.00    -0.012 C 
ATOM     76  H   LIG d   1      12.676   5.652  -6.274  0.00  0.00     0.029 H 
ATOM     77  H   LIG d   1      13.131   4.689  -7.714  0.00  0.00     0.029 H 
ATOM     78  H   LIG d   1      13.423   3.781  -5.071  0.00  0.00     0.033 H 
BRANCH  72  79
ATOM     79  C   LIG d   1      10.231   5.776  -6.652  0.00  0.00     0.091 C 
ATOM     80  H   LIG d   1       9.240   5.446  -6.339  0.00  0.00     0.063 H 
ATOM     81  O   LIG d   1      10.922   6.337  -5.534  0.00  0.00    -0.340 OA
ATOM     82  C   LIG d   1      10.256   7.449  -4.933  0.00  0.00     0.194 C 
ATOM     83  C   LIG d   1      10.118   8.575  -5.961  0.00  0.00     0.013 C 
ATOM     84  C   LIG d   1       9.355   8.053  -7.181  0.00  0.00    -0.041 C 
ATOM     85  H   LIG d   1      11.108   8.913  -6.267  0.00  0.00     0.035 H 
ATOM     86  C   LIG d   1      10.093   6.836  -7.749  0.00  0.00    -0.015 C 
ATOM     87  H   LIG d   1       9.303   8.834  -7.941  0.00  0.00     0.027 H 
ATOM     88  H   LIG d   1       8.347   7.763  -6.887  0.00  0.00     0.027 H 
ATOM     89  H   LIG d   1      11.084   7.137  -8.091  0.00  0.00     0.032 H 
BRANCH  82  90
ATOM     90  C   LIG d   1      11.068   7.945  -3.737  0.00  0.00     0.098 C 
ATOM     91  H   LIG d   1      12.011   7.400  -3.686  0.00  0.00     0.061 H 
ATOM     92  H   LIG d   1      11.271   9.010  -3.851  0.00  0.00     0.061 H 
BRANCH  90  93
ATOM     93  O   LIG d   1      10.328   7.728  -2.534  0.00  0.00    -0.390 OA
ATOM     94  H   LIG d   1      10.857   7.792  -1.728  0.00  0.00     0.210 HD
ENDBRANCH  90  93
ENDBRANCH  82  90
BRANCH  82  95
ATOM     95  O   LIG d   1       8.957   7.045  -4.493  0.00  0.00    -0.363 OA
ATOM     96  H   LIG d   1       8.577   7.620  -3.813  0.00  0.00     0.213 HD
ENDBRANCH  82  95
BRANCH  83  97
ATOM     97  C   LIG d   1       9.350   9.743  -5.339  0.00  0.00    -0.057 C 
ATOM     98  H   LIG d   1      10.031  10.352  -4.746  0.00  0.00     0.023 H 
ATOM     99  H   LIG d   1       8.912  10.353  -6.130  0.00  0.00     0.023 H 
ATOM    100  H   LIG d   1       8.557   9.356  -4.698  0.00  0.00     0.023 H 
ENDBRANCH  83  97
BRANCH  86 101
ATOM    101  C   LIG d   1       9.299   6.258  -8.922  0.00  0.00    -0.060 C 
ATOM    102  H   LIG d   1       9.829   5.398  -9.332  0.00  0.00     0.023 H 
ATOM    103  H   LIG d   1       8.314   5.946  -8.576  0.00  0.00     0.023 H 
ATOM    104  H   LIG d   1       9.189   7.018  -9.696  0.00  0.00     0.023 H 
ENDBRANCH  86 101
ENDBRANCH  72  79
BRANCH  75 105
ATOM    105  C   LIG d   1      13.422   2.362  -6.715  0.00  0.00    -0.060 C 
ATOM    106  H   LIG d   1      14.256   1.941  -6.154  0.00  0.00     0.023 H 
ATOM    107  H   LIG d   1      12.676   1.587  -6.893  0.00  0.00     0.023 H 
ATOM    108  H   LIG d   1      13.782   2.745  -7.669  0.00  0.00     0.023 H 
ENDBRANCH  75 105
ENDBRANCH   1  69
TORSDOF 22
ENDMDL
MODEL 10
REMARK VINA RESULT:      -6.1      6.569     10.587
REMARK  22 active torsions:
REMARK  status: ('A' for Active; 'I' for Inactive)
REMARK    1  A    between atoms: C_1  and  C_2 
REMARK    2  A    between atoms: C_2  and  C_3 
REMARK    3  A    between atoms: C_3  and  C_37 
REMARK    4  A    between atoms: C_6  and  C_9 
REMARK    5  A    between atoms: C_9  and  C_36 
REMARK    6  A    between atoms: C_15  and  O_35 
REMARK    7  A    between atoms: C_17  and  C_34 
REMARK    8  A    between atoms: C_19  and  C_22 
REMARK    9  A    between atoms: C_22  and  C_24 
REMARK   10  A    between atoms: C_22  and  C_25 
REMARK   11  A    between atoms: C_25  and  C_27 
REMARK   12  A    between atoms: C_25  and  O_32 
REMARK   13  A    between atoms: C_27  and  C_29 
REMARK   14  A    between atoms: C_27  and  C_30 
REMARK   15  A    between atoms: O_32  and  C_33 
REMARK   16  A    between atoms: C_39  and  C_59 
REMARK   17  A    between atoms: C_42  and  C_45 
REMARK   18  A    between atoms: C_47  and  C_58 
REMARK   19  A    between atoms: C_50  and  C_57 
REMARK   20  A    between atoms: C_52  and  C_54 
REMARK   21  A    between atoms: C_52  and  O_56 
REMARK   22  A    between atoms: C_54  and  O_55 
ROOT
ATOM      1  C   LIG d   1      11.477   4.045  -6.105  0.00  0.00     0.096 C 
ATOM      2  C   LIG d   1      10.182   4.529  -6.793  0.00  0.00    -0.019 C 
ATOM      3  C   LIG d   1       9.223   3.327  -6.572  0.00  0.00    -0.021 C 
ATOM      4  C   LIG d   1      10.215   2.140  -6.652  0.00  0.00     0.088 C 
ATOM      5  H   LIG d   1      10.405   1.873  -7.691  0.00  0.00     0.062 H 
ATOM      6  O   LIG d   1      11.420   2.616  -6.031  0.00  0.00    -0.365 OA
ATOM      7  H   LIG d   1       9.797   5.427  -6.309  0.00  0.00     0.029 H 
ATOM      8  H   LIG d   1      10.350   4.704  -7.856  0.00  0.00     0.029 H 
ATOM      9  H   LIG d   1       8.476   3.270  -7.364  0.00  0.00     0.029 H 
ATOM     10  H   LIG d   1       8.749   3.379  -5.592  0.00  0.00     0.029 H 
ENDROOT
BRANCH   4  11
ATOM     11  C   LIG d   1       9.664   0.936  -5.886  0.00  0.00     0.096 C 
ATOM     12  O   LIG d   1       9.031   0.021  -6.798  0.00  0.00    -0.340 OA
ATOM     13  C   LIG d   1       9.275  -1.305  -6.301  0.00  0.00     0.174 C 
ATOM     14  C   LIG d   1      10.731  -1.255  -5.788  0.00  0.00     0.004 C 
ATOM     15  O   LIG d   1       8.389  -1.612  -5.233  0.00  0.00    -0.345 OA
ATOM     16  C   LIG d   1       9.154  -2.328  -7.426  0.00  0.00     0.028 C 
ATOM     17  C   LIG d   1      10.819   0.176  -5.203  0.00  0.00    -0.017 C 
ATOM     18  H   LIG d   1      10.896  -2.004  -5.012  0.00  0.00     0.032 H 
ATOM     19  H   LIG d   1      11.438  -1.386  -6.607  0.00  0.00     0.032 H 
ATOM     20  H   LIG d   1      10.676   0.156  -4.123  0.00  0.00     0.029 H 
ATOM     21  H   LIG d   1      11.777   0.632  -5.452  0.00  0.00     0.029 H 
ATOM     22  C   LIG d   1       7.010  -1.652  -5.607  0.00  0.00     0.072 C 
ATOM     23  C   LIG d   1       6.805  -2.720  -6.684  0.00  0.00     0.009 C 
ATOM     24  H   LIG d   1       6.711  -0.679  -5.998  0.00  0.00     0.060 H 
ATOM     25  C   LIG d   1       7.695  -2.398  -7.889  0.00  0.00     0.065 C 
ATOM     26  H   LIG d   1       5.760  -2.729  -6.995  0.00  0.00     0.035 H 
ATOM     27  H   LIG d   1       7.589  -3.180  -8.641  0.00  0.00     0.060 H 
ATOM     28  H   LIG d   1       9.787  -2.026  -8.261  0.00  0.00     0.034 H 
ATOM     29  H   LIG d   1       9.470  -3.305  -7.064  0.00  0.00     0.034 H 
BRANCH  22  30
ATOM     30  C   LIG d   1       6.158  -1.993  -4.382  0.00  0.00     0.010 C 
ATOM     31  H   LIG d   1       5.640  -2.937  -4.551  0.00  0.00     0.035 H 
BRANCH  30  32
ATOM     32  C   LIG d   1       7.060  -2.118  -3.153  0.00  0.00    -0.058 C 
ATOM     33  H   LIG d   1       8.104  -2.045  -3.460  0.00  0.00     0.023 H 
ATOM     34  H   LIG d   1       6.831  -1.317  -2.450  0.00  0.00     0.023 H 
ATOM     35  H   LIG d   1       6.889  -3.081  -2.673  0.00  0.00     0.023 H 
ENDBRANCH  30  32
BRANCH  30  36
ATOM     36  C   LIG d   1       5.131  -0.883  -4.150  0.00  0.00     0.071 C 
ATOM     37  H   LIG d   1       5.523   0.060  -4.530  0.00  0.00     0.060 H 
BRANCH  36  38
ATOM     38  C   LIG d   1       4.851  -0.753  -2.651  0.00  0.00     0.022 C 
ATOM     39  H   LIG d   1       5.670  -1.203  -2.088  0.00  0.00     0.038 H 
BRANCH  38  40
ATOM     40  C   LIG d   1       3.544  -1.470  -2.312  0.00  0.00    -0.055 C 
ATOM     41  H   LIG d   1       2.839  -0.757  -1.886  0.00  0.00     0.024 H 
ATOM     42  H   LIG d   1       3.119  -1.900  -3.220  0.00  0.00     0.024 H 
ATOM     43  H   LIG d   1       3.740  -2.263  -1.591  0.00  0.00     0.024 H 
ENDBRANCH  38  40
BRANCH  38  44
ATOM     44  C   LIG d   1       4.734   0.706  -2.288  0.00  0.00     0.047 C 
ATOM     45  O   LIG d   1       5.711   1.415  -2.312  0.00  0.00    -0.549 OA
ATOM     46  O   LIG d   1       3.543   1.216  -1.937  0.00  0.00    -0.549 OA
ENDBRANCH  38  44
ENDBRANCH  36  38
BRANCH  36  47
ATOM     47  O   LIG d   1       3.919  -1.205  -4.834  0.00  0.00    -0.379 OA
BRANCH  47  48
ATOM     48  C   LIG d   1       3.542  -0.251  -5.829  0.00  0.00     0.037 C 
ATOM     49  H   LIG d   1       4.437   0.190  -6.267  0.00  0.00     0.052 H 
ATOM     50  H   LIG d   1       2.964  -0.749  -6.609  0.00  0.00     0.052 H 
ATOM     51  H   LIG d   1       2.936   0.531  -5.371  0.00  0.00     0.052 H 
ENDBRANCH  47  48
ENDBRANCH  36  47
ENDBRANCH  30  36
ENDBRANCH  22  30
BRANCH  23  52
ATOM     52  C   LIG d   1       7.183  -4.092  -6.122  0.00  0.00    -0.058 C 
ATOM     53  H   LIG d   1       6.312  -4.746  -6.144  0.00  0.00     0.023 H 
ATOM     54  H   LIG d   1       7.978  -4.526  -6.728  0.00  0.00     0.023 H 
ATOM     55  H   LIG d   1       7.529  -3.980  -5.095  0.00  0.00     0.023 H 
ENDBRANCH  23  52
BRANCH  25  56
ATOM     56  O   LIG d   1       7.308  -1.142  -8.447  0.00  0.00    -0.391 OA
ATOM     57  H   LIG d   1       7.882  -0.835  -9.162  0.00  0.00     0.210 HD
ENDBRANCH  25  56
BRANCH  11  58
ATOM     58  C   LIG d   1       8.656   1.404  -4.836  0.00  0.00    -0.033 C 
ATOM     59  H   LIG d   1       9.176   1.615  -3.901  0.00  0.00     0.026 H 
ATOM     60  H   LIG d   1       8.157   2.307  -5.186  0.00  0.00     0.026 H 
ATOM     61  H   LIG d   1       7.915   0.622  -4.669  0.00  0.00     0.026 H 
ENDBRANCH  11  58
ENDBRANCH   4  11
BRANCH   1  62
ATOM     62  C   LIG d   1      12.694   4.476  -6.925  0.00  0.00    -0.024 C 
ATOM     63  H   LIG d   1      13.231   5.262  -6.394  0.00  0.00     0.029 H 
ATOM     64  H   LIG d   1      13.354   3.621  -7.072  0.00  0.00     0.029 H 
BRANCH  62  65
ATOM     65  C   LIG d   1      12.232   5.003  -8.285  0.00  0.00    -0.063 C 
ATOM     66  H   LIG d   1      11.148   4.911  -8.361  0.00  0.00     0.023 H 
ATOM     67  H   LIG d   1      12.515   6.050  -8.385  0.00  0.00     0.023 H 
ATOM     68  H   LIG d   1      12.702   4.422  -9.079  0.00  0.00     0.023 H 
ENDBRANCH  62  65
ENDBRANCH   1  62
BRANCH   1  69
ATOM     69  C   LIG d   1      11.566   4.634  -4.695  0.00  0.00     0.091 C 
ATOM     70  H   LIG d   1      10.569   4.802  -4.286  0.00  0.00     0.063 H 
ATOM     71  O   LIG d   1      12.328   5.861  -4.704  0.00  0.00    -0.368 OA
ATOM     72  C   LIG d   1      12.797   6.074  -3.363  0.00  0.00     0.086 C 
ATOM     73  C   LIG d   1      12.897   4.692  -2.687  0.00  0.00    -0.019 C 
ATOM     74  H   LIG d   1      13.778   6.549  -3.381  0.00  0.00     0.062 H 
ATOM     75  C   LIG d   1      12.388   3.705  -3.766  0.00  0.00    -0.012 C 
ATOM     76  H   LIG d   1      12.259   4.652  -1.804  0.00  0.00     0.029 H 
ATOM     77  H   LIG d   1      13.930   4.469  -2.423  0.00  0.00     0.029 H 
ATOM     78  H   LIG d   1      11.753   2.937  -3.324  0.00  0.00     0.033 H 
BRANCH  72  79
ATOM     79  C   LIG d   1      11.806   6.955  -2.598  0.00  0.00     0.091 C 
ATOM     80  H   LIG d   1      10.801   6.790  -2.985  0.00  0.00     0.063 H 
ATOM     81  O   LIG d   1      11.845   6.623  -1.210  0.00  0.00    -0.340 OA
ATOM     82  C   LIG d   1      10.935   7.374  -0.404  0.00  0.00     0.194 C 
ATOM     83  C   LIG d   1      11.281   8.862  -0.498  0.00  0.00     0.013 C 
ATOM     84  C   LIG d   1      11.228   9.299  -1.965  0.00  0.00    -0.041 C 
ATOM     85  H   LIG d   1      12.283   9.029  -0.103  0.00  0.00     0.035 H 
ATOM     86  C   LIG d   1      12.188   8.427  -2.781  0.00  0.00    -0.015 C 
ATOM     87  H   LIG d   1      11.529  10.345  -2.045  0.00  0.00     0.027 H 
ATOM     88  H   LIG d   1      10.215   9.181  -2.346  0.00  0.00     0.027 H 
ATOM     89  H   LIG d   1      13.209   8.584  -2.432  0.00  0.00     0.032 H 
BRANCH  82  90
ATOM     90  C   LIG d   1      11.043   6.916   1.051  0.00  0.00     0.098 C 
ATOM     91  H   LIG d   1      12.070   7.036   1.395  0.00  0.00     0.061 H 
ATOM     92  H   LIG d   1      10.380   7.517   1.673  0.00  0.00     0.061 H 
BRANCH  90  93
ATOM     93  O   LIG d   1      10.668   5.540   1.147  0.00  0.00    -0.390 OA
ATOM     94  H   LIG d   1      11.113   5.059   1.858  0.00  0.00     0.210 HD
ENDBRANCH  90  93
ENDBRANCH  82  90
BRANCH  82  95
ATOM     95  O   LIG d   1       9.600   7.165  -0.871  0.00  0.00    -0.363 OA
ATOM     96  H   LIG d   1       9.240   7.908  -1.377  0.00  0.00     0.213 HD
ENDBRANCH  82  95
BRANCH  83  97
ATOM     97  C   LIG d   1      10.270   9.674   0.314  0.00  0.00    -0.057 C 
ATOM     98  H   LIG d   1       9.698  10.317  -0.355  0.00  0.00     0.023 H 
ATOM     99  H   LIG d   1       9.593   8.996   0.834  0.00  0.00     0.023 H 
ATOM    100  H   LIG d   1      10.799  10.289   1.043  0.00  0.00     0.023 H 
ENDBRANCH  83  97
BRANCH  86 101
ATOM    101  C   LIG d   1      12.088   8.802  -4.261  0.00  0.00    -0.060 C 
ATOM    102  H   LIG d   1      12.561   8.028  -4.865  0.00  0.00     0.023 H 
ATOM    103  H   LIG d   1      11.039   8.892  -4.542  0.00  0.00     0.023 H 
ATOM    104  H   LIG d   1      12.592   9.753  -4.429  0.00  0.00     0.023 H 
ENDBRANCH  86 101
ENDBRANCH  72  79
BRANCH  75 105
ATOM    105  C   LIG d   1      13.558   3.073  -4.524  0.00  0.00    -0.060 C 
ATOM    106  H   LIG d   1      13.456   1.989  -4.513  0.00  0.00     0.023 H 
ATOM    107  H   LIG d   1      13.557   3.428  -5.555  0.00  0.00     0.023 H 
ATOM    108  H   LIG d   1      14.495   3.355  -4.044  0.00  0.00     0.023 H 
ENDBRANCH  75 105
ENDBRANCH   1  69
TORSDOF 22
ENDMDL
