MODEL 1
REMARK VINA RESULT:      -7.8      0.000      0.000
REMARK  5 active torsions:
REMARK  status: ('A' for Active; 'I' for Inactive)
REMARK    1  A    between atoms: C_1  and  C_2 
REMARK    2  A    between atoms: C_6  and  C_8 
REMARK    3  A    between atoms: N_26  and  C_29 
REMARK    4  A    between atoms: C_32  and  O_35 
REMARK    5  A    between atoms: O_35  and  C_36 
ROOT
ATOM      1  C   LIG d   1       5.683  -1.974  -5.786  0.00  0.00     0.094 C 
ATOM      2  H   LIG d   1       6.757  -1.838  -5.662  0.00  0.00     0.062 H 
ATOM      3  C   LIG d   1       5.184  -1.163  -6.966  0.00  0.00     0.046 A 
ATOM      4  C   LIG d   1       4.459  -1.683  -7.978  0.00  0.00    -0.015 A 
ATOM      5  C   LIG d   1       4.175  -0.592  -8.892  0.00  0.00     0.003 A 
ATOM      6  C   LIG d   1       3.469  -0.529 -10.097  0.00  0.00    -0.052 A 
ATOM      7  C   LIG d   1       3.400   0.697 -10.711  0.00  0.00    -0.061 A 
ATOM      8  C   LIG d   1       3.998   1.824 -10.173  0.00  0.00    -0.060 A 
ATOM      9  C   LIG d   1       4.703   1.790  -8.982  0.00  0.00    -0.038 A 
ATOM     10  C   LIG d   1       4.788   0.559  -8.336  0.00  0.00     0.047 A 
ATOM     11  N   LIG d   1       5.389   0.175  -7.172  0.00  0.00    -0.356 N 
ATOM     12  H   LIG d   1       5.887   0.762  -6.581  0.00  0.00     0.166 HD
ATOM     13  C   LIG d   1       4.046  -3.128  -8.117  0.00  0.00     0.002 C 
ATOM     14  C   LIG d   1       4.133  -3.816  -6.750  0.00  0.00     0.110 A 
ATOM     15  H   LIG d   1       3.260  -3.614  -6.128  0.00  0.00     0.060 H 
ATOM     16  N   LIG d   1       5.386  -3.378  -6.096  0.00  0.00    -0.261 N 
ATOM     17  C   LIG d   1       6.127  -4.469  -5.888  0.00  0.00     0.317 A 
ATOM     18  O   LIG d   1       7.199  -4.461  -5.316  0.00  0.00    -0.252 OA
ATOM     19  N   LIG d   1       5.552  -5.572  -6.387  0.00  0.00    -0.193 N 
ATOM     20  C   LIG d   1       4.352  -5.303  -6.941  0.00  0.00     0.248 A 
ATOM     21  O   LIG d   1       3.603  -6.089  -7.481  0.00  0.00    -0.273 OA
ATOM     22  H   LIG d   1       2.999  -1.403 -10.525  0.00  0.00     0.062 H 
ATOM     23  H   LIG d   1       2.862   0.786 -11.644  0.00  0.00     0.062 H 
ATOM     24  H   LIG d   1       3.913   2.763 -10.701  0.00  0.00     0.062 H 
ATOM     25  H   LIG d   1       5.166   2.676  -8.573  0.00  0.00     0.064 H 
ATOM     26  H   LIG d   1       4.711  -3.630  -8.820  0.00  0.00     0.034 H 
ATOM     27  H   LIG d   1       3.021  -3.179  -8.486  0.00  0.00     0.034 H 
ENDROOT
BRANCH   1  28
ATOM     28  C   LIG d   1       4.961  -1.558  -4.530  0.00  0.00    -0.021 A 
ATOM     29  C   LIG d   1       4.549  -2.513  -3.621  0.00  0.00    -0.056 A 
ATOM     30  C   LIG d   1       3.889  -2.132  -2.467  0.00  0.00    -0.061 A 
ATOM     31  H   LIG d   1       4.743  -3.559  -3.811  0.00  0.00     0.062 H 
ATOM     32  C   LIG d   1       3.635  -0.795  -2.227  0.00  0.00    -0.059 A 
ATOM     33  H   LIG d   1       3.569  -2.879  -1.756  0.00  0.00     0.062 H 
ATOM     34  C   LIG d   1       4.044   0.161  -3.139  0.00  0.00    -0.050 A 
ATOM     35  H   LIG d   1       3.118  -0.496  -1.328  0.00  0.00     0.062 H 
ATOM     36  C   LIG d   1       4.706  -0.220  -4.290  0.00  0.00    -0.053 A 
ATOM     37  H   LIG d   1       5.026   0.527  -5.002  0.00  0.00     0.062 H 
BRANCH  34  38
ATOM     38  C   LIG d   1       3.767   1.619  -2.877  0.00  0.00    -0.040 C 
ATOM     39  H   LIG d   1       3.327   1.733  -1.886  0.00  0.00     0.028 H 
ATOM     40  H   LIG d   1       4.700   2.181  -2.927  0.00  0.00     0.028 H 
ATOM     41  H   LIG d   1       3.074   1.998  -3.627  0.00  0.00     0.028 H 
ENDBRANCH  34  38
ENDBRANCH   1  28
BRANCH  19  42
ATOM     42  C   LIG d   1       6.127  -6.852  -6.336  0.00  0.00     0.046 A 
ATOM     43  C   LIG d   1       5.840  -7.699  -5.274  0.00  0.00    -0.036 A 
ATOM     44  C   LIG d   1       6.406  -8.957  -5.223  0.00  0.00    -0.018 A 
ATOM     45  H   LIG d   1       5.177  -7.373  -4.487  0.00  0.00     0.064 H 
ATOM     46  C   LIG d   1       7.259  -9.376  -6.234  0.00  0.00     0.120 A 
ATOM     47  H   LIG d   1       6.184  -9.617  -4.397  0.00  0.00     0.066 H 
ATOM     48  C   LIG d   1       7.545  -8.530  -7.295  0.00  0.00    -0.018 A 
ATOM     49  C   LIG d   1       6.980  -7.271  -7.347  0.00  0.00    -0.036 A 
ATOM     50  H   LIG d   1       8.206  -8.858  -8.085  0.00  0.00     0.066 H 
ATOM     51  H   LIG d   1       7.203  -6.613  -8.173  0.00  0.00     0.064 H 
BRANCH  46  52
ATOM     52  O   LIG d   1       7.815 -10.616  -6.184  0.00  0.00    -0.495 OA
BRANCH  52  53
ATOM     53  C   LIG d   1       7.618 -11.367  -4.985  0.00  0.00     0.079 C 
ATOM     54  H   LIG d   1       6.639 -11.135  -4.567  0.00  0.00     0.066 H 
ATOM     55  H   LIG d   1       7.673 -12.432  -5.211  0.00  0.00     0.066 H 
ATOM     56  H   LIG d   1       8.393 -11.110  -4.263  0.00  0.00     0.066 H 
ENDBRANCH  52  53
ENDBRANCH  46  52
ENDBRANCH  19  42
TORSDOF 5
ENDMDL
MODEL 2
REMARK VINA RESULT:      -7.7      4.498      7.084
REMARK  5 active torsions:
REMARK  status: ('A' for Active; 'I' for Inactive)
REMARK    1  A    between atoms: C_1  and  C_2 
REMARK    2  A    between atoms: C_6  and  C_8 
REMARK    3  A    between atoms: N_26  and  C_29 
REMARK    4  A    between atoms: C_32  and  O_35 
REMARK    5  A    between atoms: O_35  and  C_36 
ROOT
ATOM      1  C   LIG d   1       5.135  -1.040  -6.945  0.00  0.00     0.094 C 
ATOM      2  H   LIG d   1       5.385  -2.098  -7.025  0.00  0.00     0.062 H 
ATOM      3  C   LIG d   1       6.397  -0.211  -6.813  0.00  0.00     0.046 A 
ATOM      4  C   LIG d   1       6.689   0.840  -7.607  0.00  0.00    -0.015 A 
ATOM      5  C   LIG d   1       7.965   1.363  -7.155  0.00  0.00     0.003 A 
ATOM      6  C   LIG d   1       8.754   2.433  -7.589  0.00  0.00    -0.052 A 
ATOM      7  C   LIG d   1       9.933   2.646  -6.917  0.00  0.00    -0.061 A 
ATOM      8  C   LIG d   1      10.332   1.844  -5.860  0.00  0.00    -0.060 A 
ATOM      9  C   LIG d   1       9.571   0.779  -5.411  0.00  0.00    -0.038 A 
ATOM     10  C   LIG d   1       8.368   0.541  -6.073  0.00  0.00     0.047 A 
ATOM     11  N   LIG d   1       7.396  -0.400  -5.894  0.00  0.00    -0.356 N 
ATOM     12  H   LIG d   1       7.411  -1.098  -5.221  0.00  0.00     0.166 HD
ATOM     13  C   LIG d   1       5.841   1.347  -8.747  0.00  0.00     0.002 C 
ATOM     14  C   LIG d   1       4.406   0.835  -8.582  0.00  0.00     0.110 A 
ATOM     15  H   LIG d   1       3.832   1.433  -7.873  0.00  0.00     0.060 H 
ATOM     16  N   LIG d   1       4.471  -0.586  -8.174  0.00  0.00    -0.261 N 
ATOM     17  C   LIG d   1       3.850  -1.298  -9.116  0.00  0.00     0.317 A 
ATOM     18  O   LIG d   1       3.680  -2.500  -9.056  0.00  0.00    -0.252 OA
ATOM     19  N   LIG d   1       3.441  -0.534 -10.139  0.00  0.00    -0.193 N 
ATOM     20  C   LIG d   1       3.729   0.768  -9.936  0.00  0.00     0.248 A 
ATOM     21  O   LIG d   1       3.496   1.693 -10.683  0.00  0.00    -0.273 OA
ATOM     22  H   LIG d   1       8.451   3.063  -8.413  0.00  0.00     0.062 H 
ATOM     23  H   LIG d   1      10.569   3.463  -7.223  0.00  0.00     0.062 H 
ATOM     24  H   LIG d   1      11.271   2.057  -5.369  0.00  0.00     0.062 H 
ATOM     25  H   LIG d   1       9.893   0.162  -4.585  0.00  0.00     0.064 H 
ATOM     26  H   LIG d   1       6.249   0.986  -9.692  0.00  0.00     0.034 H 
ATOM     27  H   LIG d   1       5.841   2.437  -8.743  0.00  0.00     0.034 H 
ENDROOT
BRANCH   1  28
ATOM     28  C   LIG d   1       4.237  -0.810  -5.757  0.00  0.00    -0.021 A 
ATOM     29  C   LIG d   1       3.243   0.149  -5.817  0.00  0.00    -0.056 A 
ATOM     30  C   LIG d   1       2.417   0.358  -4.728  0.00  0.00    -0.061 A 
ATOM     31  H   LIG d   1       3.111   0.733  -6.715  0.00  0.00     0.062 H 
ATOM     32  C   LIG d   1       2.590  -0.386  -3.577  0.00  0.00    -0.059 A 
ATOM     33  H   LIG d   1       1.639   1.106  -4.776  0.00  0.00     0.062 H 
ATOM     34  C   LIG d   1       3.587  -1.343  -3.515  0.00  0.00    -0.050 A 
ATOM     35  H   LIG d   1       1.947  -0.222  -2.725  0.00  0.00     0.062 H 
ATOM     36  C   LIG d   1       4.410  -1.554  -4.605  0.00  0.00    -0.053 A 
ATOM     37  H   LIG d   1       5.189  -2.302  -4.557  0.00  0.00     0.062 H 
BRANCH  34  38
ATOM     38  C   LIG d   1       3.775  -2.155  -2.260  0.00  0.00    -0.040 C 
ATOM     39  H   LIG d   1       2.914  -2.016  -1.605  0.00  0.00     0.028 H 
ATOM     40  H   LIG d   1       3.869  -3.209  -2.519  0.00  0.00     0.028 H 
ATOM     41  H   LIG d   1       4.678  -1.825  -1.746  0.00  0.00     0.028 H 
ENDBRANCH  34  38
ENDBRANCH   1  28
BRANCH  19  42
ATOM     42  C   LIG d   1       2.788  -1.028 -11.280  0.00  0.00     0.046 A 
ATOM     43  C   LIG d   1       3.521  -1.362 -12.409  0.00  0.00    -0.036 A 
ATOM     44  C   LIG d   1       2.878  -1.847 -13.531  0.00  0.00    -0.018 A 
ATOM     45  H   LIG d   1       4.594  -1.241 -12.412  0.00  0.00     0.064 H 
ATOM     46  C   LIG d   1       1.500  -2.001 -13.528  0.00  0.00     0.120 A 
ATOM     47  H   LIG d   1       3.449  -2.107 -14.411  0.00  0.00     0.066 H 
ATOM     48  C   LIG d   1       0.767  -1.668 -12.398  0.00  0.00    -0.018 A 
ATOM     49  C   LIG d   1       1.409  -1.182 -11.276  0.00  0.00    -0.036 A 
ATOM     50  H   LIG d   1      -0.307  -1.792 -12.395  0.00  0.00     0.066 H 
ATOM     51  H   LIG d   1       0.837  -0.923 -10.398  0.00  0.00     0.064 H 
BRANCH  46  52
ATOM     52  O   LIG d   1       0.867  -2.480 -14.632  0.00  0.00    -0.495 OA
BRANCH  52  53
ATOM     53  C   LIG d   1      -0.559  -2.553 -14.581  0.00  0.00     0.079 C 
ATOM     54  H   LIG d   1      -0.871  -2.895 -13.595  0.00  0.00     0.066 H 
ATOM     55  H   LIG d   1      -0.980  -1.567 -14.774  0.00  0.00     0.066 H 
ATOM     56  H   LIG d   1      -0.914  -3.253 -15.338  0.00  0.00     0.066 H 
ENDBRANCH  52  53
ENDBRANCH  46  52
ENDBRANCH  19  42
TORSDOF 5
ENDMDL
MODEL 3
REMARK VINA RESULT:      -7.7      3.583      6.290
REMARK  5 active torsions:
REMARK  status: ('A' for Active; 'I' for Inactive)
REMARK    1  A    between atoms: C_1  and  C_2 
REMARK    2  A    between atoms: C_6  and  C_8 
REMARK    3  A    between atoms: N_26  and  C_29 
REMARK    4  A    between atoms: C_32  and  O_35 
REMARK    5  A    between atoms: O_35  and  C_36 
ROOT
ATOM      1  C   LIG d   1       3.087  -0.346  -7.589  0.00  0.00     0.094 C 
ATOM      2  H   LIG d   1       2.014  -0.190  -7.694  0.00  0.00     0.062 H 
ATOM      3  C   LIG d   1       3.460  -0.457  -6.124  0.00  0.00     0.046 A 
ATOM      4  C   LIG d   1       4.168  -1.483  -5.606  0.00  0.00    -0.015 A 
ATOM      5  C   LIG d   1       4.320  -1.213  -4.189  0.00  0.00     0.003 A 
ATOM      6  C   LIG d   1       4.955  -1.911  -3.157  0.00  0.00    -0.052 A 
ATOM      7  C   LIG d   1       4.898  -1.351  -1.904  0.00  0.00    -0.061 A 
ATOM      8  C   LIG d   1       4.245  -0.154  -1.661  0.00  0.00    -0.060 A 
ATOM      9  C   LIG d   1       3.609   0.557  -2.664  0.00  0.00    -0.038 A 
ATOM     10  C   LIG d   1       3.651   0.014  -3.946  0.00  0.00     0.047 A 
ATOM     11  N   LIG d   1       3.143   0.442  -5.139  0.00  0.00    -0.356 N 
ATOM     12  H   LIG d   1       2.635   1.257  -5.269  0.00  0.00     0.166 HD
ATOM     13  C   LIG d   1       4.682  -2.676  -6.374  0.00  0.00     0.002 C 
ATOM     14  C   LIG d   1       4.719  -2.342  -7.869  0.00  0.00     0.110 A 
ATOM     15  H   LIG d   1       5.606  -1.770  -8.144  0.00  0.00     0.060 H 
ATOM     16  N   LIG d   1       3.473  -1.621  -8.209  0.00  0.00    -0.261 N 
ATOM     17  C   LIG d   1       2.829  -2.350  -9.123  0.00  0.00     0.317 A 
ATOM     18  O   LIG d   1       1.791  -2.007  -9.654  0.00  0.00    -0.252 OA
ATOM     19  N   LIG d   1       3.458  -3.505  -9.383  0.00  0.00    -0.193 N 
ATOM     20  C   LIG d   1       4.603  -3.618  -8.679  0.00  0.00     0.248 A 
ATOM     21  O   LIG d   1       5.380  -4.549  -8.692  0.00  0.00    -0.273 OA
ATOM     22  H   LIG d   1       5.466  -2.846  -3.337  0.00  0.00     0.062 H 
ATOM     23  H   LIG d   1       5.378  -1.862  -1.082  0.00  0.00     0.062 H 
ATOM     24  H   LIG d   1       4.232   0.238  -0.655  0.00  0.00     0.062 H 
ATOM     25  H   LIG d   1       3.103   1.490  -2.462  0.00  0.00     0.064 H 
ATOM     26  H   LIG d   1       4.020  -3.527  -6.208  0.00  0.00     0.034 H 
ATOM     27  H   LIG d   1       5.686  -2.924  -6.031  0.00  0.00     0.034 H 
ENDROOT
BRANCH   1  28
ATOM     28  C   LIG d   1       3.841   0.790  -8.231  0.00  0.00    -0.021 A 
ATOM     29  C   LIG d   1       3.153   1.866  -8.757  0.00  0.00    -0.056 A 
ATOM     30  C   LIG d   1       3.845   2.910  -9.344  0.00  0.00    -0.061 A 
ATOM     31  H   LIG d   1       2.075   1.892  -8.710  0.00  0.00     0.062 H 
ATOM     32  C   LIG d   1       5.225   2.873  -9.410  0.00  0.00    -0.059 A 
ATOM     33  H   LIG d   1       3.307   3.752  -9.753  0.00  0.00     0.062 H 
ATOM     34  C   LIG d   1       5.914   1.794  -8.886  0.00  0.00    -0.050 A 
ATOM     35  H   LIG d   1       5.766   3.686  -9.869  0.00  0.00     0.062 H 
ATOM     36  C   LIG d   1       5.222   0.752  -8.298  0.00  0.00    -0.053 A 
ATOM     37  H   LIG d   1       5.760  -0.091  -7.889  0.00  0.00     0.062 H 
BRANCH  34  38
ATOM     38  C   LIG d   1       7.419   1.754  -8.958  0.00  0.00    -0.040 C 
ATOM     39  H   LIG d   1       7.803   2.766  -9.082  0.00  0.00     0.028 H 
ATOM     40  H   LIG d   1       7.815   1.324  -8.039  0.00  0.00     0.028 H 
ATOM     41  H   LIG d   1       7.725   1.143  -9.807  0.00  0.00     0.028 H 
ENDBRANCH  34  38
ENDBRANCH   1  28
BRANCH  19  42
ATOM     42  C   LIG d   1       2.986  -4.475 -10.281  0.00  0.00     0.046 A 
ATOM     43  C   LIG d   1       3.349  -4.417 -11.618  0.00  0.00    -0.036 A 
ATOM     44  C   LIG d   1       2.884  -5.371 -12.501  0.00  0.00    -0.018 A 
ATOM     45  H   LIG d   1       3.994  -3.625 -11.970  0.00  0.00     0.064 H 
ATOM     46  C   LIG d   1       2.054  -6.388 -12.051  0.00  0.00     0.120 A 
ATOM     47  H   LIG d   1       3.166  -5.327 -13.543  0.00  0.00     0.066 H 
ATOM     48  C   LIG d   1       1.692  -6.446 -10.713  0.00  0.00    -0.018 A 
ATOM     49  C   LIG d   1       2.156  -5.492  -9.829  0.00  0.00    -0.036 A 
ATOM     50  H   LIG d   1       1.049  -7.240 -10.362  0.00  0.00     0.066 H 
ATOM     51  H   LIG d   1       1.873  -5.537  -8.789  0.00  0.00     0.064 H 
BRANCH  46  52
ATOM     52  O   LIG d   1       1.598  -7.328 -12.920  0.00  0.00    -0.495 OA
BRANCH  52  53
ATOM     53  C   LIG d   1       0.515  -8.149 -12.478  0.00  0.00     0.079 C 
ATOM     54  H   LIG d   1      -0.286  -7.518 -12.093  0.00  0.00     0.066 H 
ATOM     55  H   LIG d   1       0.142  -8.740 -13.314  0.00  0.00     0.066 H 
ATOM     56  H   LIG d   1       0.863  -8.816 -11.689  0.00  0.00     0.066 H 
ENDBRANCH  52  53
ENDBRANCH  46  52
ENDBRANCH  19  42
TORSDOF 5
ENDMDL
MODEL 4
REMARK VINA RESULT:      -7.2      3.938      5.240
REMARK  5 active torsions:
REMARK  status: ('A' for Active; 'I' for Inactive)
REMARK    1  A    between atoms: C_1  and  C_2 
REMARK    2  A    between atoms: C_6  and  C_8 
REMARK    3  A    between atoms: N_26  and  C_29 
REMARK    4  A    between atoms: C_32  and  O_35 
REMARK    5  A    between atoms: O_35  and  C_36 
ROOT
ATOM      1  C   LIG d   1       6.293  -0.081  -5.469  0.00  0.00     0.094 C 
ATOM      2  H   LIG d   1       6.709   0.905  -5.672  0.00  0.00     0.062 H 
ATOM      3  C   LIG d   1       5.292  -0.459  -6.544  0.00  0.00     0.046 A 
ATOM      4  C   LIG d   1       5.343  -1.612  -7.243  0.00  0.00    -0.015 A 
ATOM      5  C   LIG d   1       4.216  -1.597  -8.156  0.00  0.00     0.003 A 
ATOM      6  C   LIG d   1       3.761  -2.512  -9.111  0.00  0.00    -0.052 A 
ATOM      7  C   LIG d   1       2.635  -2.165  -9.815  0.00  0.00    -0.061 A 
ATOM      8  C   LIG d   1       1.973  -0.967  -9.601  0.00  0.00    -0.060 A 
ATOM      9  C   LIG d   1       2.401  -0.044  -8.663  0.00  0.00    -0.038 A 
ATOM     10  C   LIG d   1       3.541  -0.370  -7.932  0.00  0.00     0.047 A 
ATOM     11  N   LIG d   1       4.220   0.292  -6.950  0.00  0.00    -0.356 N 
ATOM     12  H   LIG d   1       3.981   1.162  -6.595  0.00  0.00     0.166 HD
ATOM     13  C   LIG d   1       6.389  -2.689  -7.094  0.00  0.00     0.002 C 
ATOM     14  C   LIG d   1       7.089  -2.535  -5.739  0.00  0.00     0.110 A 
ATOM     15  H   LIG d   1       6.511  -2.967  -4.922  0.00  0.00     0.060 H 
ATOM     16  N   LIG d   1       7.354  -1.095  -5.521  0.00  0.00    -0.261 N 
ATOM     17  C   LIG d   1       8.676  -0.947  -5.409  0.00  0.00     0.317 A 
ATOM     18  O   LIG d   1       9.221   0.111  -5.169  0.00  0.00    -0.252 OA
ATOM     19  N   LIG d   1       9.331  -2.102  -5.596  0.00  0.00    -0.193 N 
ATOM     20  C   LIG d   1       8.482  -3.127  -5.814  0.00  0.00     0.248 A 
ATOM     21  O   LIG d   1       8.773  -4.285  -6.026  0.00  0.00    -0.273 OA
ATOM     22  H   LIG d   1       4.271  -3.449  -9.285  0.00  0.00     0.062 H 
ATOM     23  H   LIG d   1       2.253  -2.847 -10.561  0.00  0.00     0.062 H 
ATOM     24  H   LIG d   1       1.092  -0.746 -10.185  0.00  0.00     0.062 H 
ATOM     25  H   LIG d   1       1.876   0.887  -8.505  0.00  0.00     0.064 H 
ATOM     26  H   LIG d   1       7.123  -2.596  -7.894  0.00  0.00     0.034 H 
ATOM     27  H   LIG d   1       5.913  -3.668  -7.148  0.00  0.00     0.034 H 
ENDROOT
BRANCH   1  28
ATOM     28  C   LIG d   1       5.630  -0.096  -4.116  0.00  0.00    -0.021 A 
ATOM     29  C   LIG d   1       5.707   1.014  -3.297  0.00  0.00    -0.056 A 
ATOM     30  C   LIG d   1       5.096   1.002  -2.056  0.00  0.00    -0.061 A 
ATOM     31  H   LIG d   1       6.244   1.891  -3.626  0.00  0.00     0.062 H 
ATOM     32  C   LIG d   1       4.414  -0.123  -1.633  0.00  0.00    -0.059 A 
ATOM     33  H   LIG d   1       5.155   1.870  -1.417  0.00  0.00     0.062 H 
ATOM     34  C   LIG d   1       4.340  -1.236  -2.452  0.00  0.00    -0.050 A 
ATOM     35  H   LIG d   1       3.939  -0.134  -0.664  0.00  0.00     0.062 H 
ATOM     36  C   LIG d   1       4.948  -1.222  -3.693  0.00  0.00    -0.053 A 
ATOM     37  H   LIG d   1       4.890  -2.091  -4.332  0.00  0.00     0.062 H 
BRANCH  34  38
ATOM     38  C   LIG d   1       3.596  -2.462  -1.990  0.00  0.00    -0.040 C 
ATOM     39  H   LIG d   1       2.695  -2.161  -1.455  0.00  0.00     0.028 H 
ATOM     40  H   LIG d   1       3.321  -3.067  -2.854  0.00  0.00     0.028 H 
ATOM     41  H   LIG d   1       4.234  -3.045  -1.327  0.00  0.00     0.028 H 
ENDBRANCH  34  38
ENDBRANCH   1  28
BRANCH  19  42
ATOM     42  C   LIG d   1      10.728  -2.230  -5.565  0.00  0.00     0.046 A 
ATOM     43  C   LIG d   1      11.469  -2.032  -6.721  0.00  0.00    -0.036 A 
ATOM     44  C   LIG d   1      12.844  -2.158  -6.689  0.00  0.00    -0.018 A 
ATOM     45  H   LIG d   1      10.971  -1.782  -7.646  0.00  0.00     0.064 H 
ATOM     46  C   LIG d   1      13.484  -2.480  -5.502  0.00  0.00     0.120 A 
ATOM     47  H   LIG d   1      13.422  -2.004  -7.589  0.00  0.00     0.066 H 
ATOM     48  C   LIG d   1      12.743  -2.677  -4.346  0.00  0.00    -0.018 A 
ATOM     49  C   LIG d   1      11.368  -2.552  -4.376  0.00  0.00    -0.036 A 
ATOM     50  H   LIG d   1      13.243  -2.925  -3.420  0.00  0.00     0.066 H 
ATOM     51  H   LIG d   1      10.793  -2.706  -3.476  0.00  0.00     0.064 H 
BRANCH  46  52
ATOM     52  O   LIG d   1      14.838  -2.603  -5.471  0.00  0.00    -0.495 OA
BRANCH  52  53
ATOM     53  C   LIG d   1      15.437  -2.852  -4.198  0.00  0.00     0.079 C 
ATOM     54  H   LIG d   1      15.935  -3.821  -4.214  0.00  0.00     0.066 H 
ATOM     55  H   LIG d   1      16.167  -2.072  -3.981  0.00  0.00     0.066 H 
ATOM     56  H   LIG d   1      14.667  -2.852  -3.427  0.00  0.00     0.066 H 
ENDBRANCH  52  53
ENDBRANCH  46  52
ENDBRANCH  19  42
TORSDOF 5
ENDMDL
MODEL 5
REMARK VINA RESULT:      -7.2      2.551      5.252
REMARK  5 active torsions:
REMARK  status: ('A' for Active; 'I' for Inactive)
REMARK    1  A    between atoms: C_1  and  C_2 
REMARK    2  A    between atoms: C_6  and  C_8 
REMARK    3  A    between atoms: N_26  and  C_29 
REMARK    4  A    between atoms: C_32  and  O_35 
REMARK    5  A    between atoms: O_35  and  C_36 
ROOT
ATOM      1  C   LIG d   1       4.888  -4.113  -5.435  0.00  0.00     0.094 C 
ATOM      2  H   LIG d   1       4.350  -4.930  -4.954  0.00  0.00     0.062 H 
ATOM      3  C   LIG d   1       4.754  -2.844  -4.616  0.00  0.00     0.046 A 
ATOM      4  C   LIG d   1       5.804  -2.102  -4.208  0.00  0.00    -0.015 A 
ATOM      5  C   LIG d   1       5.260  -0.979  -3.469  0.00  0.00     0.003 A 
ATOM      6  C   LIG d   1       5.860   0.107  -2.824  0.00  0.00    -0.052 A 
ATOM      7  C   LIG d   1       5.020   1.002  -2.207  0.00  0.00    -0.061 A 
ATOM      8  C   LIG d   1       3.644   0.847  -2.215  0.00  0.00    -0.060 A 
ATOM      9  C   LIG d   1       3.024  -0.218  -2.846  0.00  0.00    -0.038 A 
ATOM     10  C   LIG d   1       3.851  -1.142  -3.482  0.00  0.00     0.047 A 
ATOM     11  N   LIG d   1       3.582  -2.281  -4.185  0.00  0.00    -0.356 N 
ATOM     12  H   LIG d   1       2.696  -2.638  -4.352  0.00  0.00     0.166 HD
ATOM     13  C   LIG d   1       7.257  -2.409  -4.473  0.00  0.00     0.002 C 
ATOM     14  C   LIG d   1       7.366  -3.382  -5.653  0.00  0.00     0.110 A 
ATOM     15  H   LIG d   1       7.286  -2.876  -6.615  0.00  0.00     0.060 H 
ATOM     16  N   LIG d   1       6.323  -4.418  -5.488  0.00  0.00    -0.261 N 
ATOM     17  C   LIG d   1       6.945  -5.596  -5.393  0.00  0.00     0.317 A 
ATOM     18  O   LIG d   1       6.369  -6.661  -5.304  0.00  0.00    -0.252 OA
ATOM     19  N   LIG d   1       8.280  -5.464  -5.401  0.00  0.00    -0.193 N 
ATOM     20  C   LIG d   1       8.653  -4.175  -5.542  0.00  0.00     0.248 A 
ATOM     21  O   LIG d   1       9.784  -3.741  -5.573  0.00  0.00    -0.273 OA
ATOM     22  H   LIG d   1       6.932   0.237  -2.812  0.00  0.00     0.062 H 
ATOM     23  H   LIG d   1       5.447   1.854  -1.698  0.00  0.00     0.062 H 
ATOM     24  H   LIG d   1       3.032   1.581  -1.712  0.00  0.00     0.062 H 
ATOM     25  H   LIG d   1       1.950  -0.329  -2.846  0.00  0.00     0.064 H 
ATOM     26  H   LIG d   1       7.700  -2.863  -3.586  0.00  0.00     0.034 H 
ATOM     27  H   LIG d   1       7.786  -1.486  -4.712  0.00  0.00     0.034 H 
ENDROOT
BRANCH   1  28
ATOM     28  C   LIG d   1       4.354  -3.891  -6.826  0.00  0.00    -0.021 A 
ATOM     29  C   LIG d   1       4.386  -2.629  -7.386  0.00  0.00    -0.056 A 
ATOM     30  C   LIG d   1       3.899  -2.425  -8.664  0.00  0.00    -0.061 A 
ATOM     31  H   LIG d   1       4.793  -1.800  -6.825  0.00  0.00     0.062 H 
ATOM     32  C   LIG d   1       3.374  -3.484  -9.379  0.00  0.00    -0.059 A 
ATOM     33  H   LIG d   1       3.927  -1.438  -9.102  0.00  0.00     0.062 H 
ATOM     34  C   LIG d   1       3.338  -4.748  -8.818  0.00  0.00    -0.050 A 
ATOM     35  H   LIG d   1       2.991  -3.326 -10.376  0.00  0.00     0.062 H 
ATOM     36  C   LIG d   1       3.827  -4.951  -7.542  0.00  0.00    -0.053 A 
ATOM     37  H   LIG d   1       3.800  -5.938  -7.103  0.00  0.00     0.062 H 
BRANCH  34  38
ATOM     38  C   LIG d   1       2.765  -5.903  -9.598  0.00  0.00    -0.040 C 
ATOM     39  H   LIG d   1       3.045  -6.841  -9.117  0.00  0.00     0.028 H 
ATOM     40  H   LIG d   1       1.679  -5.819  -9.626  0.00  0.00     0.028 H 
ATOM     41  H   LIG d   1       3.158  -5.885 -10.614  0.00  0.00     0.028 H 
ENDBRANCH  34  38
ENDBRANCH   1  28
BRANCH  19  42
ATOM     42  C   LIG d   1       9.178  -6.536  -5.284  0.00  0.00     0.046 A 
ATOM     43  C   LIG d   1       9.595  -6.957  -4.029  0.00  0.00    -0.036 A 
ATOM     44  C   LIG d   1      10.480  -8.011  -3.914  0.00  0.00    -0.018 A 
ATOM     45  H   LIG d   1       9.230  -6.459  -3.143  0.00  0.00     0.064 H 
ATOM     46  C   LIG d   1      10.950  -8.650  -5.052  0.00  0.00     0.120 A 
ATOM     47  H   LIG d   1      10.805  -8.339  -2.937  0.00  0.00     0.066 H 
ATOM     48  C   LIG d   1      10.532  -8.229  -6.306  0.00  0.00    -0.018 A 
ATOM     49  C   LIG d   1       9.648  -7.175  -6.422  0.00  0.00    -0.036 A 
ATOM     50  H   LIG d   1      10.895  -8.730  -7.192  0.00  0.00     0.066 H 
ATOM     51  H   LIG d   1       9.324  -6.848  -7.399  0.00  0.00     0.064 H 
BRANCH  46  52
ATOM     52  O   LIG d   1      11.819  -9.689  -4.938  0.00  0.00    -0.495 OA
BRANCH  52  53
ATOM     53  C   LIG d   1      12.142 -10.122  -3.615  0.00  0.00     0.079 C 
ATOM     54  H   LIG d   1      13.133  -9.759  -3.345  0.00  0.00     0.066 H 
ATOM     55  H   LIG d   1      11.407  -9.727  -2.914  0.00  0.00     0.066 H 
ATOM     56  H   LIG d   1      12.131 -11.212  -3.576  0.00  0.00     0.066 H 
ENDBRANCH  52  53
ENDBRANCH  46  52
ENDBRANCH  19  42
TORSDOF 5
ENDMDL
MODEL 6
REMARK VINA RESULT:      -7.2      2.907      3.345
REMARK  5 active torsions:
REMARK  status: ('A' for Active; 'I' for Inactive)
REMARK    1  A    between atoms: C_1  and  C_2 
REMARK    2  A    between atoms: C_6  and  C_8 
REMARK    3  A    between atoms: N_26  and  C_29 
REMARK    4  A    between atoms: C_32  and  O_35 
REMARK    5  A    between atoms: O_35  and  C_36 
ROOT
ATOM      1  C   LIG d   1       5.863  -1.504  -5.738  0.00  0.00     0.094 C 
ATOM      2  H   LIG d   1       6.552  -0.669  -5.866  0.00  0.00     0.062 H 
ATOM      3  C   LIG d   1       4.809  -1.485  -6.828  0.00  0.00     0.046 A 
ATOM      4  C   LIG d   1       4.529  -2.543  -7.617  0.00  0.00    -0.015 A 
ATOM      5  C   LIG d   1       3.467  -2.126  -8.513  0.00  0.00     0.003 A 
ATOM      6  C   LIG d   1       2.776  -2.789  -9.532  0.00  0.00    -0.052 A 
ATOM      7  C   LIG d   1       1.809  -2.072 -10.194  0.00  0.00    -0.061 A 
ATOM      8  C   LIG d   1       1.524  -0.754  -9.877  0.00  0.00    -0.060 A 
ATOM      9  C   LIG d   1       2.193  -0.074  -8.873  0.00  0.00    -0.038 A 
ATOM     10  C   LIG d   1       3.178  -0.777  -8.184  0.00  0.00     0.047 A 
ATOM     11  N   LIG d   1       4.009  -0.423  -7.161  0.00  0.00    -0.356 N 
ATOM     12  H   LIG d   1       4.031   0.448  -6.735  0.00  0.00     0.166 HD
ATOM     13  C   LIG d   1       5.212  -3.887  -7.566  0.00  0.00     0.002 C 
ATOM     14  C   LIG d   1       5.909  -4.053  -6.211  0.00  0.00     0.110 A 
ATOM     15  H   LIG d   1       5.220  -4.361  -5.425  0.00  0.00     0.060 H 
ATOM     16  N   LIG d   1       6.581  -2.776  -5.883  0.00  0.00    -0.261 N 
ATOM     17  C   LIG d   1       7.887  -3.031  -5.775  0.00  0.00     0.317 A 
ATOM     18  O   LIG d   1       8.716  -2.201  -5.458  0.00  0.00    -0.252 OA
ATOM     19  N   LIG d   1       8.177  -4.309  -6.061  0.00  0.00    -0.193 N 
ATOM     20  C   LIG d   1       7.068  -5.020  -6.349  0.00  0.00     0.248 A 
ATOM     21  O   LIG d   1       7.010  -6.191  -6.657  0.00  0.00    -0.273 OA
ATOM     22  H   LIG d   1       2.991  -3.817  -9.786  0.00  0.00     0.062 H 
ATOM     23  H   LIG d   1       1.254  -2.551 -10.987  0.00  0.00     0.062 H 
ATOM     24  H   LIG d   1       0.754  -0.239 -10.432  0.00  0.00     0.062 H 
ATOM     25  H   LIG d   1       1.961   0.954  -8.636  0.00  0.00     0.064 H 
ATOM     26  H   LIG d   1       5.951  -3.950  -8.365  0.00  0.00     0.034 H 
ATOM     27  H   LIG d   1       4.471  -4.676  -7.693  0.00  0.00     0.034 H 
ENDROOT
BRANCH   1  28
ATOM     28  C   LIG d   1       5.208  -1.431  -4.383  0.00  0.00    -0.021 A 
ATOM     29  C   LIG d   1       4.620  -2.555  -3.838  0.00  0.00    -0.056 A 
ATOM     30  C   LIG d   1       4.021  -2.489  -2.593  0.00  0.00    -0.061 A 
ATOM     31  H   LIG d   1       4.628  -3.487  -4.384  0.00  0.00     0.062 H 
ATOM     32  C   LIG d   1       4.007  -1.296  -1.897  0.00  0.00    -0.059 A 
ATOM     33  H   LIG d   1       3.564  -3.369  -2.166  0.00  0.00     0.062 H 
ATOM     34  C   LIG d   1       4.593  -0.169  -2.444  0.00  0.00    -0.050 A 
ATOM     35  H   LIG d   1       3.538  -1.243  -0.926  0.00  0.00     0.062 H 
ATOM     36  C   LIG d   1       5.193  -0.236  -3.687  0.00  0.00    -0.053 A 
ATOM     37  H   LIG d   1       5.651   0.644  -4.114  0.00  0.00     0.062 H 
BRANCH  34  38
ATOM     38  C   LIG d   1       4.576   1.133  -1.684  0.00  0.00    -0.040 C 
ATOM     39  H   LIG d   1       5.567   1.586  -1.718  0.00  0.00     0.028 H 
ATOM     40  H   LIG d   1       3.852   1.809  -2.137  0.00  0.00     0.028 H 
ATOM     41  H   LIG d   1       4.299   0.945  -0.647  0.00  0.00     0.028 H 
ENDBRANCH  34  38
ENDBRANCH   1  28
BRANCH  19  42
ATOM     42  C   LIG d   1       9.476  -4.842  -6.055  0.00  0.00     0.046 A 
ATOM     43  C   LIG d   1       9.990  -5.405  -4.896  0.00  0.00    -0.036 A 
ATOM     44  C   LIG d   1      11.267  -5.928  -4.891  0.00  0.00    -0.018 A 
ATOM     45  H   LIG d   1       9.392  -5.431  -3.997  0.00  0.00     0.064 H 
ATOM     46  C   LIG d   1      12.036  -5.893  -6.045  0.00  0.00     0.120 A 
ATOM     47  H   LIG d   1      11.668  -6.367  -3.989  0.00  0.00     0.066 H 
ATOM     48  C   LIG d   1      11.522  -5.331  -7.204  0.00  0.00    -0.018 A 
ATOM     49  C   LIG d   1      10.245  -4.807  -7.210  0.00  0.00    -0.036 A 
ATOM     50  H   LIG d   1      12.120  -5.308  -8.104  0.00  0.00     0.066 H 
ATOM     51  H   LIG d   1       9.846  -4.369  -8.113  0.00  0.00     0.064 H 
BRANCH  46  52
ATOM     52  O   LIG d   1      13.294  -6.411  -6.040  0.00  0.00    -0.495 OA
BRANCH  52  53
ATOM     53  C   LIG d   1      14.101  -6.142  -4.892  0.00  0.00     0.079 C 
ATOM     54  H   LIG d   1      14.005  -6.962  -4.181  0.00  0.00     0.066 H 
ATOM     55  H   LIG d   1      15.143  -6.045  -5.196  0.00  0.00     0.066 H 
ATOM     56  H   LIG d   1      13.772  -5.214  -4.425  0.00  0.00     0.066 H 
ENDBRANCH  52  53
ENDBRANCH  46  52
ENDBRANCH  19  42
TORSDOF 5
ENDMDL
MODEL 7
REMARK VINA RESULT:      -7.1      3.307      7.836
REMARK  5 active torsions:
REMARK  status: ('A' for Active; 'I' for Inactive)
REMARK    1  A    between atoms: C_1  and  C_2 
REMARK    2  A    between atoms: C_6  and  C_8 
REMARK    3  A    between atoms: N_26  and  C_29 
REMARK    4  A    between atoms: C_32  and  O_35 
REMARK    5  A    between atoms: O_35  and  C_36 
ROOT
ATOM      1  C   LIG d   1       5.173  -1.904  -5.768  0.00  0.00     0.094 C 
ATOM      2  H   LIG d   1       4.410  -1.698  -6.518  0.00  0.00     0.062 H 
ATOM      3  C   LIG d   1       5.488  -3.386  -5.733  0.00  0.00     0.046 A 
ATOM      4  C   LIG d   1       6.735  -3.890  -5.841  0.00  0.00    -0.015 A 
ATOM      5  C   LIG d   1       6.612  -5.333  -5.752  0.00  0.00     0.003 A 
ATOM      6  C   LIG d   1       7.554  -6.366  -5.794  0.00  0.00    -0.052 A 
ATOM      7  C   LIG d   1       7.074  -7.647  -5.680  0.00  0.00    -0.061 A 
ATOM      8  C   LIG d   1       5.723  -7.917  -5.530  0.00  0.00    -0.060 A 
ATOM      9  C   LIG d   1       4.770  -6.914  -5.484  0.00  0.00    -0.038 A 
ATOM     10  C   LIG d   1       5.228  -5.603  -5.597  0.00  0.00     0.047 A 
ATOM     11  N   LIG d   1       4.579  -4.402  -5.590  0.00  0.00    -0.356 N 
ATOM     12  H   LIG d   1       3.621  -4.286  -5.499  0.00  0.00     0.166 HD
ATOM     13  C   LIG d   1       7.998  -3.086  -6.029  0.00  0.00     0.002 C 
ATOM     14  C   LIG d   1       7.747  -1.636  -5.601  0.00  0.00     0.110 A 
ATOM     15  H   LIG d   1       7.811  -1.505  -4.520  0.00  0.00     0.060 H 
ATOM     16  N   LIG d   1       6.426  -1.226  -6.126  0.00  0.00    -0.261 N 
ATOM     17  C   LIG d   1       6.627  -0.191  -6.944  0.00  0.00     0.317 A 
ATOM     18  O   LIG d   1       5.735   0.418  -7.499  0.00  0.00    -0.252 OA
ATOM     19  N   LIG d   1       7.930   0.094  -7.086  0.00  0.00    -0.193 N 
ATOM     20  C   LIG d   1       8.703  -0.716  -6.334  0.00  0.00     0.248 A 
ATOM     21  O   LIG d   1       9.913  -0.710  -6.260  0.00  0.00    -0.273 OA
ATOM     22  H   LIG d   1       8.609  -6.165  -5.911  0.00  0.00     0.062 H 
ATOM     23  H   LIG d   1       7.771  -8.471  -5.708  0.00  0.00     0.062 H 
ATOM     24  H   LIG d   1       5.402  -8.944  -5.446  0.00  0.00     0.062 H 
ATOM     25  H   LIG d   1       3.720  -7.137  -5.367  0.00  0.00     0.064 H 
ATOM     26  H   LIG d   1       8.291  -3.110  -7.078  0.00  0.00     0.034 H 
ATOM     27  H   LIG d   1       8.794  -3.513  -5.419  0.00  0.00     0.034 H 
ENDROOT
BRANCH   1  28
ATOM     28  C   LIG d   1       4.704  -1.442  -4.412  0.00  0.00    -0.021 A 
ATOM     29  C   LIG d   1       4.585  -2.347  -3.376  0.00  0.00    -0.056 A 
ATOM     30  C   LIG d   1       4.158  -1.923  -2.131  0.00  0.00    -0.061 A 
ATOM     31  H   LIG d   1       4.828  -3.387  -3.538  0.00  0.00     0.062 H 
ATOM     32  C   LIG d   1       3.843  -0.593  -1.926  0.00  0.00    -0.059 A 
ATOM     33  H   LIG d   1       4.068  -2.631  -1.320  0.00  0.00     0.062 H 
ATOM     34  C   LIG d   1       3.958   0.313  -2.964  0.00  0.00    -0.050 A 
ATOM     35  H   LIG d   1       3.507  -0.261  -0.955  0.00  0.00     0.062 H 
ATOM     36  C   LIG d   1       4.388  -0.111  -4.207  0.00  0.00    -0.053 A 
ATOM     37  H   LIG d   1       4.478   0.597  -5.018  0.00  0.00     0.062 H 
BRANCH  34  38
ATOM     38  C   LIG d   1       3.614   1.763  -2.740  0.00  0.00    -0.040 C 
ATOM     39  H   LIG d   1       4.511   2.372  -2.857  0.00  0.00     0.028 H 
ATOM     40  H   LIG d   1       2.866   2.076  -3.468  0.00  0.00     0.028 H 
ATOM     41  H   LIG d   1       3.218   1.891  -1.733  0.00  0.00     0.028 H 
ENDBRANCH  34  38
ENDBRANCH   1  28
BRANCH  19  42
ATOM     42  C   LIG d   1       8.428   1.114  -7.912  0.00  0.00     0.046 A 
ATOM     43  C   LIG d   1       8.646   2.382  -7.393  0.00  0.00    -0.036 A 
ATOM     44  C   LIG d   1       9.135   3.385  -8.206  0.00  0.00    -0.018 A 
ATOM     45  H   LIG d   1       8.432   2.585  -6.354  0.00  0.00     0.064 H 
ATOM     46  C   LIG d   1       9.409   3.125  -9.541  0.00  0.00     0.120 A 
ATOM     47  H   LIG d   1       9.306   4.373  -7.803  0.00  0.00     0.066 H 
ATOM     48  C   LIG d   1       9.192   1.857 -10.059  0.00  0.00    -0.018 A 
ATOM     49  C   LIG d   1       8.702   0.853  -9.248  0.00  0.00    -0.036 A 
ATOM     50  H   LIG d   1       9.409   1.654 -11.098  0.00  0.00     0.066 H 
ATOM     51  H   LIG d   1       8.532  -0.133  -9.652  0.00  0.00     0.064 H 
BRANCH  46  52
ATOM     52  O   LIG d   1       9.893   4.113 -10.341  0.00  0.00    -0.495 OA
BRANCH  52  53
ATOM     53  C   LIG d   1       9.319   5.412 -10.186  0.00  0.00     0.079 C 
ATOM     54  H   LIG d   1       9.997   6.160 -10.596  0.00  0.00     0.066 H 
ATOM     55  H   LIG d   1       8.367   5.455 -10.716  0.00  0.00     0.066 H 
ATOM     56  H   LIG d   1       9.153   5.613  -9.127  0.00  0.00     0.066 H 
ENDBRANCH  52  53
ENDBRANCH  46  52
ENDBRANCH  19  42
TORSDOF 5
ENDMDL
MODEL 8
REMARK VINA RESULT:      -7.1      1.532      4.606
REMARK  5 active torsions:
REMARK  status: ('A' for Active; 'I' for Inactive)
REMARK    1  A    between atoms: C_1  and  C_2 
REMARK    2  A    between atoms: C_6  and  C_8 
REMARK    3  A    between atoms: N_26  and  C_29 
REMARK    4  A    between atoms: C_32  and  O_35 
REMARK    5  A    between atoms: O_35  and  C_36 
ROOT
ATOM      1  C   LIG d   1       4.090  -2.596  -6.815  0.00  0.00     0.094 C 
ATOM      2  H   LIG d   1       3.070  -2.912  -7.029  0.00  0.00     0.062 H 
ATOM      3  C   LIG d   1       4.114  -1.691  -5.599  0.00  0.00     0.046 A 
ATOM      4  C   LIG d   1       4.908  -1.897  -4.527  0.00  0.00    -0.015 A 
ATOM      5  C   LIG d   1       4.642  -0.816  -3.596  0.00  0.00     0.003 A 
ATOM      6  C   LIG d   1       5.162  -0.505  -2.336  0.00  0.00    -0.052 A 
ATOM      7  C   LIG d   1       4.668   0.620  -1.722  0.00  0.00    -0.061 A 
ATOM      8  C   LIG d   1       3.700   1.415  -2.312  0.00  0.00    -0.060 A 
ATOM      9  C   LIG d   1       3.168   1.131  -3.558  0.00  0.00    -0.038 A 
ATOM     10  C   LIG d   1       3.652  -0.004  -4.206  0.00  0.00     0.047 A 
ATOM     11  N   LIG d   1       3.357  -0.564  -5.415  0.00  0.00    -0.356 N 
ATOM     12  H   LIG d   1       2.708  -0.217  -6.048  0.00  0.00     0.166 HD
ATOM     13  C   LIG d   1       5.871  -3.044  -4.350  0.00  0.00     0.002 C 
ATOM     14  C   LIG d   1       6.184  -3.663  -5.717  0.00  0.00     0.110 A 
ATOM     15  H   LIG d   1       6.940  -3.098  -6.264  0.00  0.00     0.060 H 
ATOM     16  N   LIG d   1       4.918  -3.761  -6.476  0.00  0.00    -0.261 N 
ATOM     17  C   LIG d   1       4.715  -5.053  -6.743  0.00  0.00     0.317 A 
ATOM     18  O   LIG d   1       3.784  -5.471  -7.403  0.00  0.00    -0.252 OA
ATOM     19  N   LIG d   1       5.654  -5.836  -6.193  0.00  0.00    -0.193 N 
ATOM     20  C   LIG d   1       6.587  -5.113  -5.541  0.00  0.00     0.248 A 
ATOM     21  O   LIG d   1       7.550  -5.535  -4.937  0.00  0.00    -0.273 OA
ATOM     22  H   LIG d   1       5.917  -1.120  -1.868  0.00  0.00     0.062 H 
ATOM     23  H   LIG d   1       5.046   0.892  -0.747  0.00  0.00     0.062 H 
ATOM     24  H   LIG d   1       3.347   2.287  -1.782  0.00  0.00     0.062 H 
ATOM     25  H   LIG d   1       2.413   1.759  -4.008  0.00  0.00     0.064 H 
ATOM     26  H   LIG d   1       5.422  -3.799  -3.704  0.00  0.00     0.034 H 
ATOM     27  H   LIG d   1       6.792  -2.679  -3.896  0.00  0.00     0.034 H 
ENDROOT
BRANCH   1  28
ATOM     28  C   LIG d   1       4.671  -1.879  -8.006  0.00  0.00    -0.021 A 
ATOM     29  C   LIG d   1       4.510  -2.403  -9.274  0.00  0.00    -0.056 A 
ATOM     30  C   LIG d   1       5.040  -1.743 -10.368  0.00  0.00    -0.061 A 
ATOM     31  H   LIG d   1       3.969  -3.327  -9.411  0.00  0.00     0.062 H 
ATOM     32  C   LIG d   1       5.737  -0.563 -10.191  0.00  0.00    -0.059 A 
ATOM     33  H   LIG d   1       4.912  -2.151 -11.360  0.00  0.00     0.062 H 
ATOM     34  C   LIG d   1       5.901  -0.040  -8.921  0.00  0.00    -0.050 A 
ATOM     35  H   LIG d   1       6.153  -0.048 -11.044  0.00  0.00     0.062 H 
ATOM     36  C   LIG d   1       5.369  -0.698  -7.829  0.00  0.00    -0.053 A 
ATOM     37  H   LIG d   1       5.497  -0.290  -6.837  0.00  0.00     0.062 H 
BRANCH  34  38
ATOM     38  C   LIG d   1       6.661   1.247  -8.729  0.00  0.00    -0.040 C 
ATOM     39  H   LIG d   1       6.450   1.649  -7.737  0.00  0.00     0.028 H 
ATOM     40  H   LIG d   1       7.729   1.055  -8.824  0.00  0.00     0.028 H 
ATOM     41  H   LIG d   1       6.352   1.968  -9.485  0.00  0.00     0.028 H 
ENDBRANCH  34  38
ENDBRANCH   1  28
BRANCH  19  42
ATOM     42  C   LIG d   1       5.668  -7.236  -6.289  0.00  0.00     0.046 A 
ATOM     43  C   LIG d   1       6.307  -7.852  -7.355  0.00  0.00    -0.036 A 
ATOM     44  C   LIG d   1       6.320  -9.229  -7.450  0.00  0.00    -0.018 A 
ATOM     45  H   LIG d   1       6.793  -7.254  -8.113  0.00  0.00     0.064 H 
ATOM     46  C   LIG d   1       5.696  -9.997  -6.479  0.00  0.00     0.120 A 
ATOM     47  H   LIG d   1       6.818  -9.710  -8.281  0.00  0.00     0.066 H 
ATOM     48  C   LIG d   1       5.057  -9.382  -5.412  0.00  0.00    -0.018 A 
ATOM     49  C   LIG d   1       5.043  -8.005  -5.317  0.00  0.00    -0.036 A 
ATOM     50  H   LIG d   1       4.574  -9.981  -4.653  0.00  0.00     0.066 H 
ATOM     51  H   LIG d   1       4.546  -7.526  -4.487  0.00  0.00     0.064 H 
BRANCH  46  52
ATOM     52  O   LIG d   1       5.710 -11.354  -6.571  0.00  0.00    -0.495 OA
BRANCH  52  53
ATOM     53  C   LIG d   1       5.044 -12.082  -5.538  0.00  0.00     0.079 C 
ATOM     54  H   LIG d   1       3.977 -12.125  -5.754  0.00  0.00     0.066 H 
ATOM     55  H   LIG d   1       5.446 -13.093  -5.489  0.00  0.00     0.066 H 
ATOM     56  H   LIG d   1       5.202 -11.582  -4.582  0.00  0.00     0.066 H 
ENDBRANCH  52  53
ENDBRANCH  46  52
ENDBRANCH  19  42
TORSDOF 5
ENDMDL
MODEL 9
REMARK VINA RESULT:      -7.0      2.742      8.286
REMARK  5 active torsions:
REMARK  status: ('A' for Active; 'I' for Inactive)
REMARK    1  A    between atoms: C_1  and  C_2 
REMARK    2  A    between atoms: C_6  and  C_8 
REMARK    3  A    between atoms: N_26  and  C_29 
REMARK    4  A    between atoms: C_32  and  O_35 
REMARK    5  A    between atoms: O_35  and  C_36 
ROOT
ATOM      1  C   LIG d   1       5.599  -7.452  -6.214  0.00  0.00     0.094 C 
ATOM      2  H   LIG d   1       4.623  -7.490  -6.697  0.00  0.00     0.062 H 
ATOM      3  C   LIG d   1       6.696  -7.723  -7.225  0.00  0.00     0.046 A 
ATOM      4  C   LIG d   1       7.757  -6.911  -7.414  0.00  0.00    -0.015 A 
ATOM      5  C   LIG d   1       8.570  -7.521  -8.449  0.00  0.00     0.003 A 
ATOM      6  C   LIG d   1       9.775  -7.142  -9.050  0.00  0.00    -0.052 A 
ATOM      7  C   LIG d   1      10.271  -7.976 -10.022  0.00  0.00    -0.061 A 
ATOM      8  C   LIG d   1       9.619  -9.139 -10.398  0.00  0.00    -0.060 A 
ATOM      9  C   LIG d   1       8.426  -9.537  -9.819  0.00  0.00    -0.038 A 
ATOM     10  C   LIG d   1       7.899  -8.711  -8.829  0.00  0.00     0.047 A 
ATOM     11  N   LIG d   1       6.769  -8.800  -8.068  0.00  0.00    -0.356 N 
ATOM     12  H   LIG d   1       6.117  -9.517  -8.117  0.00  0.00     0.166 HD
ATOM     13  C   LIG d   1       8.019  -5.616  -6.685  0.00  0.00     0.002 C 
ATOM     14  C   LIG d   1       7.202  -5.587  -5.388  0.00  0.00     0.110 A 
ATOM     15  H   LIG d   1       7.679  -6.149  -4.585  0.00  0.00     0.060 H 
ATOM     16  N   LIG d   1       5.848  -6.103  -5.689  0.00  0.00    -0.261 N 
ATOM     17  C   LIG d   1       4.981  -5.127  -5.408  0.00  0.00     0.317 A 
ATOM     18  O   LIG d   1       3.775  -5.247  -5.495  0.00  0.00    -0.252 OA
ATOM     19  N   LIG d   1       5.596  -3.999  -5.025  0.00  0.00    -0.193 N 
ATOM     20  C   LIG d   1       6.936  -4.151  -4.985  0.00  0.00     0.248 A 
ATOM     21  O   LIG d   1       7.758  -3.311  -4.689  0.00  0.00    -0.273 OA
ATOM     22  H   LIG d   1      10.290  -6.237  -8.764  0.00  0.00     0.062 H 
ATOM     23  H   LIG d   1      11.200  -7.717 -10.508  0.00  0.00     0.062 H 
ATOM     24  H   LIG d   1      10.056  -9.756 -11.169  0.00  0.00     0.062 H 
ATOM     25  H   LIG d   1       7.927 -10.446 -10.121  0.00  0.00     0.064 H 
ATOM     26  H   LIG d   1       7.726  -4.778  -7.317  0.00  0.00     0.034 H 
ATOM     27  H   LIG d   1       9.080  -5.540  -6.449  0.00  0.00     0.034 H 
ENDROOT
BRANCH   1  28
ATOM     28  C   LIG d   1       5.663  -8.461  -5.097  0.00  0.00    -0.021 A 
ATOM     29  C   LIG d   1       6.863  -8.715  -4.462  0.00  0.00    -0.056 A 
ATOM     30  C   LIG d   1       6.921  -9.639  -3.435  0.00  0.00    -0.061 A 
ATOM     31  H   LIG d   1       7.756  -8.190  -4.767  0.00  0.00     0.062 H 
ATOM     32  C   LIG d   1       5.779 -10.313  -3.048  0.00  0.00    -0.059 A 
ATOM     33  H   LIG d   1       7.859  -9.835  -2.937  0.00  0.00     0.062 H 
ATOM     34  C   LIG d   1       4.577 -10.062  -3.685  0.00  0.00    -0.050 A 
ATOM     35  H   LIG d   1       5.824 -11.037  -2.247  0.00  0.00     0.062 H 
ATOM     36  C   LIG d   1       4.520  -9.137  -4.710  0.00  0.00    -0.053 A 
ATOM     37  H   LIG d   1       3.581  -8.940  -5.208  0.00  0.00     0.062 H 
BRANCH  34  38
ATOM     38  C   LIG d   1       3.332 -10.798  -3.263  0.00  0.00    -0.040 C 
ATOM     39  H   LIG d   1       3.090 -11.558  -4.007  0.00  0.00     0.028 H 
ATOM     40  H   LIG d   1       3.501 -11.275  -2.298  0.00  0.00     0.028 H 
ATOM     41  H   LIG d   1       2.504 -10.094  -3.181  0.00  0.00     0.028 H 
ENDBRANCH  34  38
ENDBRANCH   1  28
BRANCH  19  42
ATOM     42  C   LIG d   1       4.928  -2.808  -4.701  0.00  0.00     0.046 A 
ATOM     43  C   LIG d   1       4.735  -1.835  -5.670  0.00  0.00    -0.036 A 
ATOM     44  C   LIG d   1       4.078  -0.663  -5.350  0.00  0.00    -0.018 A 
ATOM     45  H   LIG d   1       5.101  -1.991  -6.674  0.00  0.00     0.064 H 
ATOM     46  C   LIG d   1       3.610  -0.460  -4.060  0.00  0.00     0.120 A 
ATOM     47  H   LIG d   1       3.928   0.096  -6.104  0.00  0.00     0.066 H 
ATOM     48  C   LIG d   1       3.801  -1.435  -3.091  0.00  0.00    -0.018 A 
ATOM     49  C   LIG d   1       4.459  -2.606  -3.410  0.00  0.00    -0.036 A 
ATOM     50  H   LIG d   1       3.432  -1.278  -2.088  0.00  0.00     0.066 H 
ATOM     51  H   LIG d   1       4.608  -3.364  -2.656  0.00  0.00     0.064 H 
BRANCH  46  52
ATOM     52  O   LIG d   1       2.961   0.693  -3.745  0.00  0.00    -0.495 OA
BRANCH  52  53
ATOM     53  C   LIG d   1       3.580   1.541  -2.777  0.00  0.00     0.079 C 
ATOM     54  H   LIG d   1       4.493   1.071  -2.412  0.00  0.00     0.066 H 
ATOM     55  H   LIG d   1       3.824   2.499  -3.236  0.00  0.00     0.066 H 
ATOM     56  H   LIG d   1       2.896   1.702  -1.944  0.00  0.00     0.066 H 
ENDBRANCH  52  53
ENDBRANCH  46  52
ENDBRANCH  19  42
TORSDOF 5
ENDMDL
