MODEL 1
REMARK VINA RESULT:      -6.7      0.000      0.000
REMARK  2 active torsions:
REMARK  status: ('A' for Active; 'I' for Inactive)
REMARK    1  A    between atoms: C_4  and  C_7 
REMARK    2  A    between atoms: C_11  and  C_13 
ROOT
ATOM      1  C   LIG d   1       5.549  -2.427  -4.038  0.00  0.00    -0.017 A 
ATOM      2  C   LIG d   1       6.932  -2.566  -4.160  0.00  0.00    -0.054 A 
ATOM      3  C   LIG d   1       7.466  -3.693  -4.753  0.00  0.00    -0.061 A 
ATOM      4  C   LIG d   1       6.638  -4.683  -5.240  0.00  0.00    -0.053 A 
ATOM      5  C   LIG d   1       5.252  -4.553  -5.130  0.00  0.00    -0.002 A 
ATOM      6  C   LIG d   1       4.706  -3.420  -4.526  0.00  0.00    -0.045 A 
ATOM      7  H   LIG d   1       7.585  -1.792  -3.785  0.00  0.00     0.062 H 
ATOM      8  H   LIG d   1       8.538  -3.796  -4.841  0.00  0.00     0.062 H 
ATOM      9  H   LIG d   1       7.061  -5.560  -5.707  0.00  0.00     0.062 H 
ATOM     10  H   LIG d   1       3.636  -3.315  -4.438  0.00  0.00     0.063 H 
ENDROOT
BRANCH   1  11
ATOM     11  C   LIG d   1       4.978  -1.218  -3.394  0.00  0.00    -0.018 A 
ATOM     12  C   LIG d   1       3.604  -1.118  -3.186  0.00  0.00    -0.054 A 
ATOM     13  C   LIG d   1       3.079   0.008  -2.587  0.00  0.00    -0.061 A 
ATOM     14  H   LIG d   1       2.951  -1.922  -3.493  0.00  0.00     0.062 H 
ATOM     15  C   LIG d   1       3.914   1.038  -2.194  0.00  0.00    -0.062 A 
ATOM     16  H   LIG d   1       2.014   0.088  -2.429  0.00  0.00     0.062 H 
ATOM     17  C   LIG d   1       5.279   0.946  -2.398  0.00  0.00    -0.061 A 
ATOM     18  H   LIG d   1       3.499   1.919  -1.725  0.00  0.00     0.062 H 
ATOM     19  C   LIG d   1       5.815  -0.177  -2.996  0.00  0.00    -0.054 A 
ATOM     20  H   LIG d   1       5.927   1.752  -2.089  0.00  0.00     0.062 H 
ATOM     21  H   LIG d   1       6.880  -0.249  -3.155  0.00  0.00     0.062 H 
ENDBRANCH   1  11
BRANCH   5  22
ATOM     22  C   LIG d   1       4.364  -5.614  -5.651  0.00  0.00     0.072 C 
ATOM     23  O   LIG d   1       3.401  -5.319  -6.330  0.00  0.00    -0.545 OA
ATOM     24  O   LIG d   1       4.623  -6.906  -5.372  0.00  0.00    -0.545 OA
ENDBRANCH   5  22
TORSDOF 2
ENDMDL
MODEL 2
REMARK VINA RESULT:      -5.9      2.701      3.505
REMARK  2 active torsions:
REMARK  status: ('A' for Active; 'I' for Inactive)
REMARK    1  A    between atoms: C_4  and  C_7 
REMARK    2  A    between atoms: C_11  and  C_13 
ROOT
ATOM      1  C   LIG d   1       5.998  -2.243  -3.851  0.00  0.00    -0.017 A 
ATOM      2  C   LIG d   1       5.405  -3.176  -4.701  0.00  0.00    -0.054 A 
ATOM      3  C   LIG d   1       6.152  -4.215  -5.220  0.00  0.00    -0.061 A 
ATOM      4  C   LIG d   1       7.487  -4.345  -4.894  0.00  0.00    -0.053 A 
ATOM      5  C   LIG d   1       8.091  -3.421  -4.039  0.00  0.00    -0.002 A 
ATOM      6  C   LIG d   1       7.343  -2.366  -3.516  0.00  0.00    -0.045 A 
ATOM      7  H   LIG d   1       4.360  -3.083  -4.957  0.00  0.00     0.062 H 
ATOM      8  H   LIG d   1       5.687  -4.933  -5.882  0.00  0.00     0.062 H 
ATOM      9  H   LIG d   1       8.065  -5.162  -5.300  0.00  0.00     0.062 H 
ATOM     10  H   LIG d   1       7.805  -1.649  -2.855  0.00  0.00     0.063 H 
ENDROOT
BRANCH   1  11
ATOM     11  C   LIG d   1       5.194  -1.125  -3.300  0.00  0.00    -0.018 A 
ATOM     12  C   LIG d   1       5.817   0.057  -2.905  0.00  0.00    -0.054 A 
ATOM     13  C   LIG d   1       5.064   1.095  -2.393  0.00  0.00    -0.061 A 
ATOM     14  H   LIG d   1       6.888   0.162  -3.001  0.00  0.00     0.062 H 
ATOM     15  C   LIG d   1       3.693   0.961  -2.271  0.00  0.00    -0.062 A 
ATOM     16  H   LIG d   1       5.547   2.009  -2.084  0.00  0.00     0.062 H 
ATOM     17  C   LIG d   1       3.068  -0.210  -2.660  0.00  0.00    -0.061 A 
ATOM     18  H   LIG d   1       3.107   1.775  -1.869  0.00  0.00     0.062 H 
ATOM     19  C   LIG d   1       3.812  -1.253  -3.173  0.00  0.00    -0.054 A 
ATOM     20  H   LIG d   1       1.998  -0.308  -2.562  0.00  0.00     0.062 H 
ATOM     21  H   LIG d   1       3.324  -2.167  -3.478  0.00  0.00     0.062 H 
ENDBRANCH   1  11
BRANCH   5  22
ATOM     22  C   LIG d   1       9.520  -3.559  -3.689  0.00  0.00     0.072 C 
ATOM     23  O   LIG d   1      10.375  -3.224  -4.484  0.00  0.00    -0.545 OA
ATOM     24  O   LIG d   1       9.874  -4.058  -2.488  0.00  0.00    -0.545 OA
ENDBRANCH   5  22
TORSDOF 2
ENDMDL
MODEL 3
REMARK VINA RESULT:      -5.8      5.255      6.649
REMARK  2 active torsions:
REMARK  status: ('A' for Active; 'I' for Inactive)
REMARK    1  A    between atoms: C_4  and  C_7 
REMARK    2  A    between atoms: C_11  and  C_13 
ROOT
ATOM      1  C   LIG d   1       7.192   1.013  -4.272  0.00  0.00    -0.017 A 
ATOM      2  C   LIG d   1       7.443   0.558  -5.567  0.00  0.00    -0.054 A 
ATOM      3  C   LIG d   1       8.368   1.206  -6.362  0.00  0.00    -0.061 A 
ATOM      4  C   LIG d   1       9.058   2.300  -5.880  0.00  0.00    -0.053 A 
ATOM      5  C   LIG d   1       8.820   2.761  -4.584  0.00  0.00    -0.002 A 
ATOM      6  C   LIG d   1       7.883   2.115  -3.778  0.00  0.00    -0.045 A 
ATOM      7  H   LIG d   1       6.910  -0.299  -5.949  0.00  0.00     0.062 H 
ATOM      8  H   LIG d   1       8.555   0.851  -7.366  0.00  0.00     0.062 H 
ATOM      9  H   LIG d   1       9.783   2.800  -6.506  0.00  0.00     0.062 H 
ATOM     10  H   LIG d   1       7.695   2.467  -2.775  0.00  0.00     0.063 H 
ENDROOT
BRANCH   1  11
ATOM     11  C   LIG d   1       6.194   0.319  -3.422  0.00  0.00    -0.018 A 
ATOM     12  C   LIG d   1       6.085  -1.069  -3.462  0.00  0.00    -0.054 A 
ATOM     13  C   LIG d   1       5.155  -1.710  -2.668  0.00  0.00    -0.061 A 
ATOM     14  H   LIG d   1       6.728  -1.643  -4.113  0.00  0.00     0.062 H 
ATOM     15  C   LIG d   1       4.331  -0.975  -1.835  0.00  0.00    -0.062 A 
ATOM     16  H   LIG d   1       5.067  -2.785  -2.702  0.00  0.00     0.062 H 
ATOM     17  C   LIG d   1       4.434   0.404  -1.790  0.00  0.00    -0.061 A 
ATOM     18  H   LIG d   1       3.604  -1.480  -1.215  0.00  0.00     0.062 H 
ATOM     19  C   LIG d   1       5.360   1.054  -2.580  0.00  0.00    -0.054 A 
ATOM     20  H   LIG d   1       3.788   0.972  -1.138  0.00  0.00     0.062 H 
ATOM     21  H   LIG d   1       5.441   2.130  -2.544  0.00  0.00     0.062 H 
ENDBRANCH   1  11
BRANCH   5  22
ATOM     22  C   LIG d   1       9.558   3.932  -4.067  0.00  0.00     0.072 C 
ATOM     23  O   LIG d   1       9.865   4.837  -4.817  0.00  0.00    -0.545 OA
ATOM     24  O   LIG d   1       9.890   3.996  -2.763  0.00  0.00    -0.545 OA
ENDBRANCH   5  22
TORSDOF 2
ENDMDL
MODEL 4
REMARK VINA RESULT:      -5.8      3.798      4.541
REMARK  2 active torsions:
REMARK  status: ('A' for Active; 'I' for Inactive)
REMARK    1  A    between atoms: C_4  and  C_7 
REMARK    2  A    between atoms: C_11  and  C_13 
ROOT
ATOM      1  C   LIG d   1       3.982  -0.793  -5.634  0.00  0.00    -0.017 A 
ATOM      2  C   LIG d   1       4.575  -1.980  -6.064  0.00  0.00    -0.054 A 
ATOM      3  C   LIG d   1       4.468  -2.370  -7.385  0.00  0.00    -0.061 A 
ATOM      4  C   LIG d   1       3.785  -1.585  -8.291  0.00  0.00    -0.053 A 
ATOM      5  C   LIG d   1       3.192  -0.391  -7.874  0.00  0.00    -0.002 A 
ATOM      6  C   LIG d   1       3.292   0.005  -6.541  0.00  0.00    -0.045 A 
ATOM      7  H   LIG d   1       5.115  -2.598  -5.362  0.00  0.00     0.062 H 
ATOM      8  H   LIG d   1       4.927  -3.293  -7.711  0.00  0.00     0.062 H 
ATOM      9  H   LIG d   1       3.709  -1.893  -9.323  0.00  0.00     0.062 H 
ATOM     10  H   LIG d   1       2.835   0.927  -6.213  0.00  0.00     0.063 H 
ENDROOT
BRANCH   1  11
ATOM     11  C   LIG d   1       4.094  -0.380  -4.214  0.00  0.00    -0.018 A 
ATOM     12  C   LIG d   1       4.618  -1.258  -3.268  0.00  0.00    -0.054 A 
ATOM     13  C   LIG d   1       4.719  -0.868  -1.948  0.00  0.00    -0.061 A 
ATOM     14  H   LIG d   1       4.944  -2.243  -3.568  0.00  0.00     0.062 H 
ATOM     15  C   LIG d   1       4.301   0.393  -1.564  0.00  0.00    -0.062 A 
ATOM     16  H   LIG d   1       5.121  -1.550  -1.214  0.00  0.00     0.062 H 
ATOM     17  C   LIG d   1       3.780   1.271  -2.498  0.00  0.00    -0.061 A 
ATOM     18  H   LIG d   1       4.382   0.695  -0.530  0.00  0.00     0.062 H 
ATOM     19  C   LIG d   1       3.674   0.890  -3.821  0.00  0.00    -0.054 A 
ATOM     20  H   LIG d   1       3.455   2.253  -2.192  0.00  0.00     0.062 H 
ATOM     21  H   LIG d   1       3.267   1.575  -4.549  0.00  0.00     0.062 H 
ENDBRANCH   1  11
BRANCH   5  22
ATOM     22  C   LIG d   1       2.460   0.451  -8.844  0.00  0.00     0.072 C 
ATOM     23  O   LIG d   1       1.783  -0.067  -9.708  0.00  0.00    -0.545 OA
ATOM     24  O   LIG d   1       2.546   1.793  -8.768  0.00  0.00    -0.545 OA
ENDBRANCH   5  22
TORSDOF 2
ENDMDL
MODEL 5
REMARK VINA RESULT:      -5.7      2.680      5.428
REMARK  2 active torsions:
REMARK  status: ('A' for Active; 'I' for Inactive)
REMARK    1  A    between atoms: C_4  and  C_7 
REMARK    2  A    between atoms: C_11  and  C_13 
ROOT
ATOM      1  C   LIG d   1       5.251  -1.741  -3.688  0.00  0.00    -0.017 A 
ATOM      2  C   LIG d   1       5.015  -1.526  -2.330  0.00  0.00    -0.054 A 
ATOM      3  C   LIG d   1       4.080  -0.592  -1.928  0.00  0.00    -0.061 A 
ATOM      4  C   LIG d   1       3.364   0.126  -2.865  0.00  0.00    -0.053 A 
ATOM      5  C   LIG d   1       3.587  -0.085  -4.227  0.00  0.00    -0.002 A 
ATOM      6  C   LIG d   1       4.535  -1.022  -4.639  0.00  0.00    -0.045 A 
ATOM      7  H   LIG d   1       5.568  -2.087  -1.592  0.00  0.00     0.062 H 
ATOM      8  H   LIG d   1       3.904  -0.427  -0.875  0.00  0.00     0.062 H 
ATOM      9  H   LIG d   1       2.631   0.852  -2.545  0.00  0.00     0.062 H 
ATOM     10  H   LIG d   1       4.711  -1.189  -5.691  0.00  0.00     0.063 H 
ENDROOT
BRANCH   1  11
ATOM     11  C   LIG d   1       6.260  -2.740  -4.116  0.00  0.00    -0.018 A 
ATOM     12  C   LIG d   1       7.574  -2.649  -3.660  0.00  0.00    -0.054 A 
ATOM     13  C   LIG d   1       8.508  -3.582  -4.061  0.00  0.00    -0.061 A 
ATOM     14  H   LIG d   1       7.859  -1.849  -2.993  0.00  0.00     0.062 H 
ATOM     15  C   LIG d   1       8.143  -4.606  -4.916  0.00  0.00    -0.062 A 
ATOM     16  H   LIG d   1       9.527  -3.508  -3.712  0.00  0.00     0.062 H 
ATOM     17  C   LIG d   1       6.840  -4.703  -5.372  0.00  0.00    -0.061 A 
ATOM     18  H   LIG d   1       8.877  -5.334  -5.228  0.00  0.00     0.062 H 
ATOM     19  C   LIG d   1       5.898  -3.775  -4.977  0.00  0.00    -0.054 A 
ATOM     20  H   LIG d   1       6.561  -5.505  -6.039  0.00  0.00     0.062 H 
ATOM     21  H   LIG d   1       4.882  -3.852  -5.333  0.00  0.00     0.062 H 
ENDBRANCH   1  11
BRANCH   5  22
ATOM     22  C   LIG d   1       2.822   0.683  -5.232  0.00  0.00     0.072 C 
ATOM     23  O   LIG d   1       2.449   1.811  -4.979  0.00  0.00    -0.545 OA
ATOM     24  O   LIG d   1       2.537   0.132  -6.427  0.00  0.00    -0.545 OA
ENDBRANCH   5  22
TORSDOF 2
ENDMDL
MODEL 6
REMARK VINA RESULT:      -5.7      4.563      5.567
REMARK  2 active torsions:
REMARK  status: ('A' for Active; 'I' for Inactive)
REMARK    1  A    between atoms: C_4  and  C_7 
REMARK    2  A    between atoms: C_11  and  C_13 
ROOT
ATOM      1  C   LIG d   1       3.437   0.015  -6.513  0.00  0.00    -0.017 A 
ATOM      2  C   LIG d   1       2.536   0.631  -5.644  0.00  0.00    -0.054 A 
ATOM      3  C   LIG d   1       2.420   0.192  -4.339  0.00  0.00    -0.061 A 
ATOM      4  C   LIG d   1       3.201  -0.850  -3.882  0.00  0.00    -0.053 A 
ATOM      5  C   LIG d   1       4.111  -1.471  -4.740  0.00  0.00    -0.002 A 
ATOM      6  C   LIG d   1       4.228  -1.036  -6.060  0.00  0.00    -0.045 A 
ATOM      7  H   LIG d   1       1.925   1.449  -5.994  0.00  0.00     0.062 H 
ATOM      8  H   LIG d   1       1.717   0.671  -3.672  0.00  0.00     0.062 H 
ATOM      9  H   LIG d   1       3.108  -1.186  -2.860  0.00  0.00     0.062 H 
ATOM     10  H   LIG d   1       4.930  -1.512  -6.728  0.00  0.00     0.063 H 
ENDROOT
BRANCH   1  11
ATOM     11  C   LIG d   1       3.555   0.485  -7.914  0.00  0.00    -0.018 A 
ATOM     12  C   LIG d   1       4.070  -0.360  -8.895  0.00  0.00    -0.054 A 
ATOM     13  C   LIG d   1       4.177   0.082 -10.198  0.00  0.00    -0.061 A 
ATOM     14  H   LIG d   1       4.384  -1.361  -8.636  0.00  0.00     0.062 H 
ATOM     15  C   LIG d   1       3.776   1.363 -10.531  0.00  0.00    -0.062 A 
ATOM     16  H   LIG d   1       4.580  -0.571 -10.958  0.00  0.00     0.062 H 
ATOM     17  C   LIG d   1       3.264   2.208  -9.562  0.00  0.00    -0.061 A 
ATOM     18  H   LIG d   1       3.862   1.706 -11.552  0.00  0.00     0.062 H 
ATOM     19  C   LIG d   1       3.152   1.775  -8.256  0.00  0.00    -0.054 A 
ATOM     20  H   LIG d   1       2.952   3.206  -9.827  0.00  0.00     0.062 H 
ATOM     21  H   LIG d   1       2.752   2.434  -7.500  0.00  0.00     0.062 H 
ENDBRANCH   1  11
BRANCH   5  22
ATOM     22  C   LIG d   1       4.948  -2.587  -4.251  0.00  0.00     0.072 C 
ATOM     23  O   LIG d   1       4.570  -3.733  -4.386  0.00  0.00    -0.545 OA
ATOM     24  O   LIG d   1       6.129  -2.331  -3.657  0.00  0.00    -0.545 OA
ENDBRANCH   5  22
TORSDOF 2
ENDMDL
MODEL 7
REMARK VINA RESULT:      -5.6      4.693      6.005
REMARK  2 active torsions:
REMARK  status: ('A' for Active; 'I' for Inactive)
REMARK    1  A    between atoms: C_4  and  C_7 
REMARK    2  A    between atoms: C_11  and  C_13 
ROOT
ATOM      1  C   LIG d   1       6.931   0.078  -3.907  0.00  0.00    -0.017 A 
ATOM      2  C   LIG d   1       7.733  -0.797  -4.639  0.00  0.00    -0.054 A 
ATOM      3  C   LIG d   1       8.963  -0.382  -5.111  0.00  0.00    -0.061 A 
ATOM      4  C   LIG d   1       9.413   0.897  -4.853  0.00  0.00    -0.053 A 
ATOM      5  C   LIG d   1       8.622   1.781  -4.116  0.00  0.00    -0.002 A 
ATOM      6  C   LIG d   1       7.377   1.369  -3.642  0.00  0.00    -0.045 A 
ATOM      7  H   LIG d   1       7.390  -1.801  -4.842  0.00  0.00     0.062 H 
ATOM      8  H   LIG d   1       9.578  -1.063  -5.682  0.00  0.00     0.062 H 
ATOM      9  H   LIG d   1      10.377   1.215  -5.221  0.00  0.00     0.062 H 
ATOM     10  H   LIG d   1       6.762   2.048  -3.071  0.00  0.00     0.063 H 
ENDROOT
BRANCH   1  11
ATOM     11  C   LIG d   1       5.609  -0.369  -3.407  0.00  0.00    -0.018 A 
ATOM     12  C   LIG d   1       5.362  -1.724  -3.197  0.00  0.00    -0.054 A 
ATOM     13  C   LIG d   1       4.129  -2.135  -2.731  0.00  0.00    -0.061 A 
ATOM     14  H   LIG d   1       6.134  -2.452  -3.399  0.00  0.00     0.062 H 
ATOM     15  C   LIG d   1       3.140  -1.204  -2.473  0.00  0.00    -0.062 A 
ATOM     16  H   LIG d   1       3.935  -3.186  -2.573  0.00  0.00     0.062 H 
ATOM     17  C   LIG d   1       3.379   0.143  -2.679  0.00  0.00    -0.061 A 
ATOM     18  H   LIG d   1       2.176  -1.529  -2.108  0.00  0.00     0.062 H 
ATOM     19  C   LIG d   1       4.608   0.565  -3.145  0.00  0.00    -0.054 A 
ATOM     20  H   LIG d   1       2.603   0.866  -2.475  0.00  0.00     0.062 H 
ATOM     21  H   LIG d   1       4.794   1.616  -3.304  0.00  0.00     0.062 H 
ENDBRANCH   1  11
BRANCH   5  22
ATOM     22  C   LIG d   1       9.103   3.151  -3.838  0.00  0.00     0.072 C 
ATOM     23  O   LIG d   1       9.597   3.414  -2.760  0.00  0.00    -0.545 OA
ATOM     24  O   LIG d   1       8.993   4.107  -4.781  0.00  0.00    -0.545 OA
ENDBRANCH   5  22
TORSDOF 2
ENDMDL
MODEL 8
REMARK VINA RESULT:      -5.5      3.060      3.807
REMARK  2 active torsions:
REMARK  status: ('A' for Active; 'I' for Inactive)
REMARK    1  A    between atoms: C_4  and  C_7 
REMARK    2  A    between atoms: C_11  and  C_13 
ROOT
ATOM      1  C   LIG d   1       3.730  -0.548  -5.710  0.00  0.00    -0.017 A 
ATOM      2  C   LIG d   1       2.835   0.277  -6.391  0.00  0.00    -0.054 A 
ATOM      3  C   LIG d   1       2.638   0.117  -7.748  0.00  0.00    -0.061 A 
ATOM      4  C   LIG d   1       3.316  -0.866  -8.440  0.00  0.00    -0.053 A 
ATOM      5  C   LIG d   1       4.211  -1.702  -7.769  0.00  0.00    -0.002 A 
ATOM      6  C   LIG d   1       4.418  -1.542  -6.399  0.00  0.00    -0.045 A 
ATOM      7  H   LIG d   1       2.297   1.046  -5.855  0.00  0.00     0.062 H 
ATOM      8  H   LIG d   1       1.946   0.762  -8.270  0.00  0.00     0.062 H 
ATOM      9  H   LIG d   1       3.156  -0.989  -9.501  0.00  0.00     0.062 H 
ATOM     10  H   LIG d   1       5.108  -2.186  -5.876  0.00  0.00     0.063 H 
ENDROOT
BRANCH   1  11
ATOM     11  C   LIG d   1       3.944  -0.370  -4.253  0.00  0.00    -0.018 A 
ATOM     12  C   LIG d   1       4.401  -1.433  -3.477  0.00  0.00    -0.054 A 
ATOM     13  C   LIG d   1       4.598  -1.261  -2.122  0.00  0.00    -0.061 A 
ATOM     14  H   LIG d   1       4.602  -2.390  -3.937  0.00  0.00     0.062 H 
ATOM     15  C   LIG d   1       4.341  -0.036  -1.534  0.00  0.00    -0.062 A 
ATOM     16  H   LIG d   1       4.949  -2.086  -1.520  0.00  0.00     0.062 H 
ATOM     17  C   LIG d   1       3.886   1.023  -2.298  0.00  0.00    -0.061 A 
ATOM     18  H   LIG d   1       4.496   0.094  -0.473  0.00  0.00     0.062 H 
ATOM     19  C   LIG d   1       3.686   0.862  -3.654  0.00  0.00    -0.054 A 
ATOM     20  H   LIG d   1       3.687   1.977  -1.834  0.00  0.00     0.062 H 
ATOM     21  H   LIG d   1       3.332   1.690  -4.250  0.00  0.00     0.062 H 
ENDBRANCH   1  11
BRANCH   5  22
ATOM     22  C   LIG d   1       4.938  -2.756  -8.509  0.00  0.00     0.072 C 
ATOM     23  O   LIG d   1       4.682  -2.963  -9.678  0.00  0.00    -0.545 OA
ATOM     24  O   LIG d   1       5.883  -3.486  -7.885  0.00  0.00    -0.545 OA
ENDBRANCH   5  22
TORSDOF 2
ENDMDL
MODEL 9
REMARK VINA RESULT:      -5.5      4.330      5.654
REMARK  2 active torsions:
REMARK  status: ('A' for Active; 'I' for Inactive)
REMARK    1  A    between atoms: C_4  and  C_7 
REMARK    2  A    between atoms: C_11  and  C_13 
ROOT
ATOM      1  C   LIG d   1       4.107  -1.070  -5.241  0.00  0.00    -0.017 A 
ATOM      2  C   LIG d   1       4.403  -2.345  -4.760  0.00  0.00    -0.054 A 
ATOM      3  C   LIG d   1       4.592  -2.550  -3.408  0.00  0.00    -0.061 A 
ATOM      4  C   LIG d   1       4.480  -1.499  -2.521  0.00  0.00    -0.053 A 
ATOM      5  C   LIG d   1       4.178  -0.218  -2.989  0.00  0.00    -0.002 A 
ATOM      6  C   LIG d   1       3.991  -0.004  -4.355  0.00  0.00    -0.045 A 
ATOM      7  H   LIG d   1       4.489  -3.173  -5.448  0.00  0.00     0.062 H 
ATOM      8  H   LIG d   1       4.825  -3.540  -3.042  0.00  0.00     0.062 H 
ATOM      9  H   LIG d   1       4.625  -1.666  -1.464  0.00  0.00     0.062 H 
ATOM     10  H   LIG d   1       3.758   0.984  -4.722  0.00  0.00     0.063 H 
ENDROOT
BRANCH   1  11
ATOM     11  C   LIG d   1       3.910  -0.852  -6.695  0.00  0.00    -0.018 A 
ATOM     12  C   LIG d   1       2.915   0.014  -7.145  0.00  0.00    -0.054 A 
ATOM     13  C   LIG d   1       2.737   0.213  -8.499  0.00  0.00    -0.061 A 
ATOM     14  H   LIG d   1       2.285   0.528  -6.434  0.00  0.00     0.062 H 
ATOM     15  C   LIG d   1       3.543  -0.446  -9.409  0.00  0.00    -0.062 A 
ATOM     16  H   LIG d   1       1.963   0.880  -8.848  0.00  0.00     0.062 H 
ATOM     17  C   LIG d   1       4.533  -1.307  -8.969  0.00  0.00    -0.061 A 
ATOM     18  H   LIG d   1       3.400  -0.288 -10.468  0.00  0.00     0.062 H 
ATOM     19  C   LIG d   1       4.720  -1.513  -7.617  0.00  0.00    -0.054 A 
ATOM     20  H   LIG d   1       5.159  -1.818  -9.684  0.00  0.00     0.062 H 
ATOM     21  H   LIG d   1       5.493  -2.184  -7.275  0.00  0.00     0.062 H 
ENDBRANCH   1  11
BRANCH   5  22
ATOM     22  C   LIG d   1       4.057   0.909  -2.040  0.00  0.00     0.072 C 
ATOM     23  O   LIG d   1       3.098   1.652  -2.099  0.00  0.00    -0.545 OA
ATOM     24  O   LIG d   1       5.010   1.111  -1.110  0.00  0.00    -0.545 OA
ENDBRANCH   5  22
TORSDOF 2
ENDMDL
MODEL 10
REMARK VINA RESULT:      -5.5      4.425      5.446
REMARK  2 active torsions:
REMARK  status: ('A' for Active; 'I' for Inactive)
REMARK    1  A    between atoms: C_4  and  C_7 
REMARK    2  A    between atoms: C_11  and  C_13 
ROOT
ATOM      1  C   LIG d   1       3.965  -0.245  -6.348  0.00  0.00    -0.017 A 
ATOM      2  C   LIG d   1       2.807   0.258  -6.941  0.00  0.00    -0.054 A 
ATOM      3  C   LIG d   1       2.867   0.856  -8.185  0.00  0.00    -0.061 A 
ATOM      4  C   LIG d   1       4.070   0.949  -8.856  0.00  0.00    -0.053 A 
ATOM      5  C   LIG d   1       5.236   0.444  -8.276  0.00  0.00    -0.002 A 
ATOM      6  C   LIG d   1       5.181  -0.155  -7.017  0.00  0.00    -0.045 A 
ATOM      7  H   LIG d   1       1.862   0.185  -6.424  0.00  0.00     0.062 H 
ATOM      8  H   LIG d   1       1.967   1.247  -8.638  0.00  0.00     0.062 H 
ATOM      9  H   LIG d   1       4.111   1.414  -9.830  0.00  0.00     0.062 H 
ATOM     10  H   LIG d   1       6.079  -0.547  -6.564  0.00  0.00     0.063 H 
ENDROOT
BRANCH   1  11
ATOM     11  C   LIG d   1       3.898  -0.880  -5.010  0.00  0.00    -0.018 A 
ATOM     12  C   LIG d   1       4.690  -1.989  -4.721  0.00  0.00    -0.054 A 
ATOM     13  C   LIG d   1       4.623  -2.576  -3.473  0.00  0.00    -0.061 A 
ATOM     14  H   LIG d   1       5.355  -2.389  -5.472  0.00  0.00     0.062 H 
ATOM     15  C   LIG d   1       3.771  -2.065  -2.511  0.00  0.00    -0.062 A 
ATOM     16  H   LIG d   1       5.233  -3.439  -3.250  0.00  0.00     0.062 H 
ATOM     17  C   LIG d   1       2.982  -0.964  -2.792  0.00  0.00    -0.061 A 
ATOM     18  H   LIG d   1       3.721  -2.528  -1.536  0.00  0.00     0.062 H 
ATOM     19  C   LIG d   1       3.041  -0.370  -4.036  0.00  0.00    -0.054 A 
ATOM     20  H   LIG d   1       2.319  -0.570  -2.037  0.00  0.00     0.062 H 
ATOM     21  H   LIG d   1       2.425   0.490  -4.254  0.00  0.00     0.062 H 
ENDBRANCH   1  11
BRANCH   5  22
ATOM     22  C   LIG d   1       6.524   0.544  -8.993  0.00  0.00     0.072 C 
ATOM     23  O   LIG d   1       7.237  -0.434  -9.099  0.00  0.00    -0.545 OA
ATOM     24  O   LIG d   1       6.907   1.719  -9.528  0.00  0.00    -0.545 OA
ENDBRANCH   5  22
TORSDOF 2
ENDMDL
