MODEL 1
REMARK VINA RESULT:      -4.7      0.000      0.000
REMARK  3 active torsions:
REMARK  status: ('A' for Active; 'I' for Inactive)
REMARK    1  A    between atoms: C_3  and  O_10 
REMARK    2  A    between atoms: C_6  and  C_7 
REMARK    3  A    between atoms: C_7  and  C_8 
ROOT
ATOM      1  C   LIG d   1       6.404  -1.546  -3.010  0.00  0.00    -0.055 A 
ATOM      2  C   LIG d   1       7.101  -2.335  -3.905  0.00  0.00    -0.020 A 
ATOM      3  C   LIG d   1       6.426  -3.275  -4.671  0.00  0.00     0.117 A 
ATOM      4  C   LIG d   1       5.053  -3.423  -4.532  0.00  0.00    -0.020 A 
ATOM      5  C   LIG d   1       4.362  -2.635  -3.632  0.00  0.00    -0.055 A 
ATOM      6  C   LIG d   1       5.037  -1.700  -2.870  0.00  0.00    -0.042 A 
ATOM      7  H   LIG d   1       6.929  -0.811  -2.417  0.00  0.00     0.062 H 
ATOM      8  H   LIG d   1       8.169  -2.217  -4.011  0.00  0.00     0.065 H 
ATOM      9  H   LIG d   1       4.526  -4.154  -5.127  0.00  0.00     0.065 H 
ATOM     10  H   LIG d   1       3.295  -2.751  -3.523  0.00  0.00     0.062 H 
ENDROOT
BRANCH   6  11
ATOM     11  C   LIG d   1       4.280  -0.842  -1.888  0.00  0.00     0.012 C 
ATOM     12  H   LIG d   1       4.657  -1.024  -0.881  0.00  0.00     0.037 H 
ATOM     13  H   LIG d   1       3.221  -1.091  -1.931  0.00  0.00     0.037 H 
BRANCH  11  14
ATOM     14  C   LIG d   1       4.470   0.611  -2.240  0.00  0.00     0.046 C 
ATOM     15  O   LIG d   1       4.926   1.376  -1.423  0.00  0.00    -0.549 OA
ATOM     16  O   LIG d   1       4.139   1.054  -3.463  0.00  0.00    -0.549 OA
ENDBRANCH  11  14
ENDBRANCH   6  11
BRANCH   3  17
ATOM     17  O   LIG d   1       7.108  -4.048  -5.555  0.00  0.00    -0.507 OA
ATOM     18  H   LIG d   1       7.230  -3.640  -6.423  0.00  0.00     0.292 HD
ENDBRANCH   3  17
TORSDOF 3
ENDMDL
MODEL 2
REMARK VINA RESULT:      -4.6      1.556      4.687
REMARK  3 active torsions:
REMARK  status: ('A' for Active; 'I' for Inactive)
REMARK    1  A    between atoms: C_3  and  O_10 
REMARK    2  A    between atoms: C_6  and  C_7 
REMARK    3  A    between atoms: C_7  and  C_8 
ROOT
ATOM      1  C   LIG d   1       4.286  -2.291  -3.034  0.00  0.00    -0.055 A 
ATOM      2  C   LIG d   1       3.897  -1.223  -2.248  0.00  0.00    -0.020 A 
ATOM      3  C   LIG d   1       4.686  -0.083  -2.191  0.00  0.00     0.117 A 
ATOM      4  C   LIG d   1       5.866  -0.020  -2.918  0.00  0.00    -0.020 A 
ATOM      5  C   LIG d   1       6.252  -1.094  -3.698  0.00  0.00    -0.055 A 
ATOM      6  C   LIG d   1       5.464  -2.228  -3.754  0.00  0.00    -0.042 A 
ATOM      7  H   LIG d   1       3.669  -3.177  -3.082  0.00  0.00     0.062 H 
ATOM      8  H   LIG d   1       2.979  -1.274  -1.683  0.00  0.00     0.065 H 
ATOM      9  H   LIG d   1       6.481   0.866  -2.876  0.00  0.00     0.065 H 
ATOM     10  H   LIG d   1       7.170  -1.046  -4.265  0.00  0.00     0.062 H 
ENDROOT
BRANCH   6  11
ATOM     11  C   LIG d   1       5.888  -3.398  -4.606  0.00  0.00     0.012 C 
ATOM     12  H   LIG d   1       6.113  -4.251  -3.965  0.00  0.00     0.037 H 
ATOM     13  H   LIG d   1       6.776  -3.127  -5.176  0.00  0.00     0.037 H 
BRANCH  11  14
ATOM     14  C   LIG d   1       4.774  -3.761  -5.552  0.00  0.00     0.046 C 
ATOM     15  O   LIG d   1       4.485  -3.017  -6.459  0.00  0.00    -0.549 OA
ATOM     16  O   LIG d   1       4.106  -4.914  -5.391  0.00  0.00    -0.549 OA
ENDBRANCH  11  14
ENDBRANCH   6  11
BRANCH   3  17
ATOM     17  O   LIG d   1       4.304   0.971  -1.423  0.00  0.00    -0.507 OA
ATOM     18  H   LIG d   1       3.346   1.059  -1.324  0.00  0.00     0.292 HD
ENDBRANCH   3  17
TORSDOF 3
ENDMDL
MODEL 3
REMARK VINA RESULT:      -4.4      1.227      4.601
REMARK  3 active torsions:
REMARK  status: ('A' for Active; 'I' for Inactive)
REMARK    1  A    between atoms: C_3  and  O_10 
REMARK    2  A    between atoms: C_6  and  C_7 
REMARK    3  A    between atoms: C_7  and  C_8 
ROOT
ATOM      1  C   LIG d   1       3.894  -1.029  -4.522  0.00  0.00    -0.055 A 
ATOM      2  C   LIG d   1       3.530   0.169  -3.940  0.00  0.00    -0.020 A 
ATOM      3  C   LIG d   1       3.722   0.366  -2.580  0.00  0.00     0.117 A 
ATOM      4  C   LIG d   1       4.273  -0.646  -1.807  0.00  0.00    -0.020 A 
ATOM      5  C   LIG d   1       4.630  -1.845  -2.393  0.00  0.00    -0.055 A 
ATOM      6  C   LIG d   1       4.439  -2.037  -3.748  0.00  0.00    -0.042 A 
ATOM      7  H   LIG d   1       3.750  -1.180  -5.582  0.00  0.00     0.062 H 
ATOM      8  H   LIG d   1       3.102   0.955  -4.545  0.00  0.00     0.065 H 
ATOM      9  H   LIG d   1       4.423  -0.496  -0.748  0.00  0.00     0.065 H 
ATOM     10  H   LIG d   1       5.059  -2.632  -1.791  0.00  0.00     0.062 H 
ENDROOT
BRANCH   6  11
ATOM     11  C   LIG d   1       4.829  -3.347  -4.385  0.00  0.00     0.012 C 
ATOM     12  H   LIG d   1       4.114  -3.597  -5.169  0.00  0.00     0.037 H 
ATOM     13  H   LIG d   1       4.829  -4.132  -3.629  0.00  0.00     0.037 H 
BRANCH  11  14
ATOM     14  C   LIG d   1       6.207  -3.224  -4.983  0.00  0.00     0.046 C 
ATOM     15  O   LIG d   1       7.182  -3.451  -4.306  0.00  0.00    -0.549 OA
ATOM     16  O   LIG d   1       6.351  -2.869  -6.269  0.00  0.00    -0.549 OA
ENDBRANCH  11  14
ENDBRANCH   6  11
BRANCH   3  17
ATOM     17  O   LIG d   1       3.369   1.545  -2.006  0.00  0.00    -0.507 OA
ATOM     18  H   LIG d   1       2.441   1.592  -1.741  0.00  0.00     0.292 HD
ENDBRANCH   3  17
TORSDOF 3
ENDMDL
MODEL 4
REMARK VINA RESULT:      -4.4      2.884      3.695
REMARK  3 active torsions:
REMARK  status: ('A' for Active; 'I' for Inactive)
REMARK    1  A    between atoms: C_3  and  O_10 
REMARK    2  A    between atoms: C_6  and  C_7 
REMARK    3  A    between atoms: C_7  and  C_8 
ROOT
ATOM      1  C   LIG d   1       2.900   0.351  -4.327  0.00  0.00    -0.055 A 
ATOM      2  C   LIG d   1       2.381   0.538  -5.593  0.00  0.00    -0.020 A 
ATOM      3  C   LIG d   1       3.031   0.001  -6.695  0.00  0.00     0.117 A 
ATOM      4  C   LIG d   1       4.205  -0.718  -6.523  0.00  0.00    -0.020 A 
ATOM      5  C   LIG d   1       4.723  -0.897  -5.254  0.00  0.00    -0.055 A 
ATOM      6  C   LIG d   1       4.073  -0.362  -4.159  0.00  0.00    -0.042 A 
ATOM      7  H   LIG d   1       2.391   0.764  -3.468  0.00  0.00     0.062 H 
ATOM      8  H   LIG d   1       1.467   1.098  -5.725  0.00  0.00     0.065 H 
ATOM      9  H   LIG d   1       4.713  -1.137  -7.378  0.00  0.00     0.065 H 
ATOM     10  H   LIG d   1       5.637  -1.457  -5.119  0.00  0.00     0.062 H 
ENDROOT
BRANCH   6  11
ATOM     11  C   LIG d   1       4.641  -0.560  -2.776  0.00  0.00     0.012 C 
ATOM     12  H   LIG d   1       5.454  -1.284  -2.818  0.00  0.00     0.037 H 
ATOM     13  H   LIG d   1       3.859  -0.929  -2.112  0.00  0.00     0.037 H 
BRANCH  11  14
ATOM     14  C   LIG d   1       5.164   0.754  -2.255  0.00  0.00     0.046 C 
ATOM     15  O   LIG d   1       4.709   1.226  -1.241  0.00  0.00    -0.549 OA
ATOM     16  O   LIG d   1       6.141   1.395  -2.915  0.00  0.00    -0.549 OA
ENDBRANCH  11  14
ENDBRANCH   6  11
BRANCH   3  17
ATOM     17  O   LIG d   1       2.520   0.180  -7.941  0.00  0.00    -0.507 OA
ATOM     18  H   LIG d   1       1.555   0.126  -7.982  0.00  0.00     0.292 HD
ENDBRANCH   3  17
TORSDOF 3
ENDMDL
MODEL 5
REMARK VINA RESULT:      -4.4      2.890      4.062
REMARK  3 active torsions:
REMARK  status: ('A' for Active; 'I' for Inactive)
REMARK    1  A    between atoms: C_3  and  O_10 
REMARK    2  A    between atoms: C_6  and  C_7 
REMARK    3  A    between atoms: C_7  and  C_8 
ROOT
ATOM      1  C   LIG d   1       5.300   0.991  -2.674  0.00  0.00    -0.055 A 
ATOM      2  C   LIG d   1       4.365   0.055  -2.276  0.00  0.00    -0.020 A 
ATOM      3  C   LIG d   1       4.605  -1.296  -2.484  0.00  0.00     0.117 A 
ATOM      4  C   LIG d   1       5.781  -1.702  -3.099  0.00  0.00    -0.020 A 
ATOM      5  C   LIG d   1       6.710  -0.762  -3.500  0.00  0.00    -0.055 A 
ATOM      6  C   LIG d   1       6.469   0.583  -3.290  0.00  0.00    -0.042 A 
ATOM      7  H   LIG d   1       5.116   2.042  -2.507  0.00  0.00     0.062 H 
ATOM      8  H   LIG d   1       3.451   0.374  -1.798  0.00  0.00     0.065 H 
ATOM      9  H   LIG d   1       5.970  -2.753  -3.263  0.00  0.00     0.065 H 
ATOM     10  H   LIG d   1       7.625  -1.078  -3.978  0.00  0.00     0.062 H 
ENDROOT
BRANCH   6  11
ATOM     11  C   LIG d   1       7.484   1.607  -3.730  0.00  0.00     0.012 C 
ATOM     12  H   LIG d   1       8.325   1.607  -3.035  0.00  0.00     0.037 H 
ATOM     13  H   LIG d   1       7.022   2.594  -3.742  0.00  0.00     0.037 H 
BRANCH  11  14
ATOM     14  C   LIG d   1       7.976   1.266  -5.113  0.00  0.00     0.046 C 
ATOM     15  O   LIG d   1       7.244   1.400  -6.064  0.00  0.00    -0.549 OA
ATOM     16  O   LIG d   1       9.230   0.819  -5.287  0.00  0.00    -0.549 OA
ENDBRANCH  11  14
ENDBRANCH   6  11
BRANCH   3  17
ATOM     17  O   LIG d   1       3.690  -2.218  -2.089  0.00  0.00    -0.507 OA
ATOM     18  H   LIG d   1       3.983  -2.774  -1.354  0.00  0.00     0.292 HD
ENDBRANCH   3  17
TORSDOF 3
ENDMDL
MODEL 6
REMARK VINA RESULT:      -4.3      1.332      4.377
REMARK  3 active torsions:
REMARK  status: ('A' for Active; 'I' for Inactive)
REMARK    1  A    between atoms: C_3  and  O_10 
REMARK    2  A    between atoms: C_6  and  C_7 
REMARK    3  A    between atoms: C_7  and  C_8 
ROOT
ATOM      1  C   LIG d   1       6.039  -1.417  -3.783  0.00  0.00    -0.055 A 
ATOM      2  C   LIG d   1       6.002  -0.255  -3.036  0.00  0.00    -0.020 A 
ATOM      3  C   LIG d   1       4.916   0.004  -2.212  0.00  0.00     0.117 A 
ATOM      4  C   LIG d   1       3.866  -0.902  -2.146  0.00  0.00    -0.020 A 
ATOM      5  C   LIG d   1       3.906  -2.059  -2.900  0.00  0.00    -0.055 A 
ATOM      6  C   LIG d   1       4.990  -2.315  -3.719  0.00  0.00    -0.042 A 
ATOM      7  H   LIG d   1       6.887  -1.621  -4.421  0.00  0.00     0.062 H 
ATOM      8  H   LIG d   1       6.820   0.447  -3.089  0.00  0.00     0.065 H 
ATOM      9  H   LIG d   1       3.020  -0.703  -1.506  0.00  0.00     0.065 H 
ATOM     10  H   LIG d   1       3.090  -2.764  -2.849  0.00  0.00     0.062 H 
ENDROOT
BRANCH   6  11
ATOM     11  C   LIG d   1       5.030  -3.579  -4.541  0.00  0.00     0.012 C 
ATOM     12  H   LIG d   1       4.063  -4.080  -4.484  0.00  0.00     0.037 H 
ATOM     13  H   LIG d   1       5.805  -4.239  -4.153  0.00  0.00     0.037 H 
BRANCH  11  14
ATOM     14  C   LIG d   1       5.334  -3.235  -5.976  0.00  0.00     0.046 C 
ATOM     15  O   LIG d   1       6.371  -3.599  -6.478  0.00  0.00    -0.549 OA
ATOM     16  O   LIG d   1       4.449  -2.531  -6.699  0.00  0.00    -0.549 OA
ENDBRANCH  11  14
ENDBRANCH   6  11
BRANCH   3  17
ATOM     17  O   LIG d   1       4.879   1.143  -1.473  0.00  0.00    -0.507 OA
ATOM     18  H   LIG d   1       5.472   1.135  -0.709  0.00  0.00     0.292 HD
ENDBRANCH   3  17
TORSDOF 3
ENDMDL
MODEL 7
REMARK VINA RESULT:      -4.2     10.556     12.028
REMARK  3 active torsions:
REMARK  status: ('A' for Active; 'I' for Inactive)
REMARK    1  A    between atoms: C_3  and  O_10 
REMARK    2  A    between atoms: C_6  and  C_7 
REMARK    3  A    between atoms: C_7  and  C_8 
ROOT
ATOM      1  C   LIG d   1       9.773   7.390  -0.794  0.00  0.00    -0.055 A 
ATOM      2  C   LIG d   1       8.853   8.260  -1.345  0.00  0.00    -0.020 A 
ATOM      3  C   LIG d   1       8.891   9.608  -1.017  0.00  0.00     0.117 A 
ATOM      4  C   LIG d   1       9.851  10.077  -0.131  0.00  0.00    -0.020 A 
ATOM      5  C   LIG d   1      10.766   9.201   0.421  0.00  0.00    -0.055 A 
ATOM      6  C   LIG d   1      10.726   7.859   0.092  0.00  0.00    -0.042 A 
ATOM      7  H   LIG d   1       9.747   6.341  -1.053  0.00  0.00     0.062 H 
ATOM      8  H   LIG d   1       8.107   7.893  -2.034  0.00  0.00     0.065 H 
ATOM      9  H   LIG d   1       9.884  11.125   0.126  0.00  0.00     0.065 H 
ATOM     10  H   LIG d   1      11.513   9.565   1.110  0.00  0.00     0.062 H 
ENDROOT
BRANCH   6  11
ATOM     11  C   LIG d   1      11.725   6.905   0.696  0.00  0.00     0.012 C 
ATOM     12  H   LIG d   1      12.650   7.440   0.916  0.00  0.00     0.037 H 
ATOM     13  H   LIG d   1      11.929   6.100  -0.008  0.00  0.00     0.037 H 
BRANCH  11  14
ATOM     14  C   LIG d   1      11.163   6.329   1.970  0.00  0.00     0.046 C 
ATOM     15  O   LIG d   1      10.593   5.264   1.952  0.00  0.00    -0.549 OA
ATOM     16  O   LIG d   1      11.301   6.997   3.126  0.00  0.00    -0.549 OA
ENDBRANCH  11  14
ENDBRANCH   6  11
BRANCH   3  17
ATOM     17  O   LIG d   1       7.991  10.467  -1.561  0.00  0.00    -0.507 OA
ATOM     18  H   LIG d   1       8.387  11.161  -2.105  0.00  0.00     0.292 HD
ENDBRANCH   3  17
TORSDOF 3
ENDMDL
MODEL 8
REMARK VINA RESULT:      -4.1      2.122      4.253
REMARK  3 active torsions:
REMARK  status: ('A' for Active; 'I' for Inactive)
REMARK    1  A    between atoms: C_3  and  O_10 
REMARK    2  A    between atoms: C_6  and  C_7 
REMARK    3  A    between atoms: C_7  and  C_8 
ROOT
ATOM      1  C   LIG d   1       5.229  -0.873  -4.577  0.00  0.00    -0.055 A 
ATOM      2  C   LIG d   1       3.917  -0.546  -4.858  0.00  0.00    -0.020 A 
ATOM      3  C   LIG d   1       2.927  -0.785  -3.916  0.00  0.00     0.117 A 
ATOM      4  C   LIG d   1       3.257  -1.358  -2.696  0.00  0.00    -0.020 A 
ATOM      5  C   LIG d   1       4.571  -1.688  -2.423  0.00  0.00    -0.055 A 
ATOM      6  C   LIG d   1       5.555  -1.448  -3.363  0.00  0.00    -0.042 A 
ATOM      7  H   LIG d   1       6.001  -0.682  -5.309  0.00  0.00     0.062 H 
ATOM      8  H   LIG d   1       3.662  -0.100  -5.808  0.00  0.00     0.065 H 
ATOM      9  H   LIG d   1       2.489  -1.545  -1.960  0.00  0.00     0.065 H 
ATOM     10  H   LIG d   1       4.829  -2.134  -1.474  0.00  0.00     0.062 H 
ENDROOT
BRANCH   6  11
ATOM     11  C   LIG d   1       6.987  -1.810  -3.062  0.00  0.00     0.012 C 
ATOM     12  H   LIG d   1       7.025  -2.431  -2.167  0.00  0.00     0.037 H 
ATOM     13  H   LIG d   1       7.564  -0.900  -2.897  0.00  0.00     0.037 H 
BRANCH  11  14
ATOM     14  C   LIG d   1       7.569  -2.570  -4.226  0.00  0.00     0.046 C 
ATOM     15  O   LIG d   1       8.490  -2.103  -4.853  0.00  0.00    -0.549 OA
ATOM     16  O   LIG d   1       7.067  -3.769  -4.562  0.00  0.00    -0.549 OA
ENDBRANCH  11  14
ENDBRANCH   6  11
BRANCH   3  17
ATOM     17  O   LIG d   1       1.636  -0.460  -4.187  0.00  0.00    -0.507 OA
ATOM     18  H   LIG d   1       1.454   0.489  -4.155  0.00  0.00     0.292 HD
ENDBRANCH   3  17
TORSDOF 3
ENDMDL
MODEL 9
REMARK VINA RESULT:      -4.1      3.686      4.788
REMARK  3 active torsions:
REMARK  status: ('A' for Active; 'I' for Inactive)
REMARK    1  A    between atoms: C_3  and  O_10 
REMARK    2  A    between atoms: C_6  and  C_7 
REMARK    3  A    between atoms: C_7  and  C_8 
ROOT
ATOM      1  C   LIG d   1       4.346  -1.014  -5.631  0.00  0.00    -0.055 A 
ATOM      2  C   LIG d   1       4.695  -1.185  -4.306  0.00  0.00    -0.020 A 
ATOM      3  C   LIG d   1       3.967  -0.549  -3.310  0.00  0.00     0.117 A 
ATOM      4  C   LIG d   1       2.894   0.262  -3.649  0.00  0.00    -0.020 A 
ATOM      5  C   LIG d   1       2.553   0.435  -4.977  0.00  0.00    -0.055 A 
ATOM      6  C   LIG d   1       3.280  -0.200  -5.966  0.00  0.00    -0.042 A 
ATOM      7  H   LIG d   1       4.910  -1.513  -6.406  0.00  0.00     0.062 H 
ATOM      8  H   LIG d   1       5.530  -1.818  -4.044  0.00  0.00     0.065 H 
ATOM      9  H   LIG d   1       2.326   0.758  -2.876  0.00  0.00     0.065 H 
ATOM     10  H   LIG d   1       1.719   1.066  -5.241  0.00  0.00     0.062 H 
ENDROOT
BRANCH   6  11
ATOM     11  C   LIG d   1       2.905  -0.010  -7.414  0.00  0.00     0.012 C 
ATOM     12  H   LIG d   1       1.820   0.042  -7.505  0.00  0.00     0.037 H 
ATOM     13  H   LIG d   1       3.279  -0.849  -7.999  0.00  0.00     0.037 H 
BRANCH  11  14
ATOM     14  C   LIG d   1       3.513   1.271  -7.926  0.00  0.00     0.046 C 
ATOM     15  O   LIG d   1       4.662   1.287  -8.300  0.00  0.00    -0.549 OA
ATOM     16  O   LIG d   1       2.776   2.391  -7.973  0.00  0.00    -0.549 OA
ENDBRANCH  11  14
ENDBRANCH   6  11
BRANCH   3  17
ATOM     17  O   LIG d   1       4.305  -0.720  -2.005  0.00  0.00    -0.507 OA
ATOM     18  H   LIG d   1       4.254  -1.637  -1.702  0.00  0.00     0.292 HD
ENDBRANCH   3  17
TORSDOF 3
ENDMDL
MODEL 10
REMARK VINA RESULT:      -4.0      7.105      7.654
REMARK  3 active torsions:
REMARK  status: ('A' for Active; 'I' for Inactive)
REMARK    1  A    between atoms: C_3  and  O_10 
REMARK    2  A    between atoms: C_6  and  C_7 
REMARK    3  A    between atoms: C_7  and  C_8 
ROOT
ATOM      1  C   LIG d   1       3.713   0.676 -11.066  0.00  0.00    -0.055 A 
ATOM      2  C   LIG d   1       2.875  -0.348 -11.462  0.00  0.00    -0.020 A 
ATOM      3  C   LIG d   1       1.861  -0.780 -10.619  0.00  0.00     0.117 A 
ATOM      4  C   LIG d   1       1.696  -0.185  -9.376  0.00  0.00    -0.020 A 
ATOM      5  C   LIG d   1       2.541   0.835  -8.982  0.00  0.00    -0.055 A 
ATOM      6  C   LIG d   1       3.549   1.263  -9.825  0.00  0.00    -0.042 A 
ATOM      7  H   LIG d   1       4.499   1.016 -11.724  0.00  0.00     0.062 H 
ATOM      8  H   LIG d   1       3.006  -0.809 -12.430  0.00  0.00     0.065 H 
ATOM      9  H   LIG d   1       0.908  -0.519  -8.717  0.00  0.00     0.065 H 
ATOM     10  H   LIG d   1       2.413   1.298  -8.015  0.00  0.00     0.062 H 
ENDROOT
BRANCH   6  11
ATOM     11  C   LIG d   1       4.469   2.377  -9.392  0.00  0.00     0.012 C 
ATOM     12  H   LIG d   1       4.003   2.939  -8.583  0.00  0.00     0.037 H 
ATOM     13  H   LIG d   1       4.657   3.040 -10.235  0.00  0.00     0.037 H 
BRANCH  11  14
ATOM     14  C   LIG d   1       5.773   1.793  -8.912  0.00  0.00     0.046 C 
ATOM     15  O   LIG d   1       6.771   1.911  -9.583  0.00  0.00    -0.549 OA
ATOM     16  O   LIG d   1       5.827   1.147  -7.737  0.00  0.00    -0.549 OA
ENDBRANCH  11  14
ENDBRANCH   6  11
BRANCH   3  17
ATOM     17  O   LIG d   1       1.033  -1.783 -11.008  0.00  0.00    -0.507 OA
ATOM     18  H   LIG d   1       1.480  -2.508 -11.466  0.00  0.00     0.292 HD
ENDBRANCH   3  17
TORSDOF 3
ENDMDL
