MODEL 1
REMARK VINA RESULT:      -6.3      0.000      0.000
REMARK  9 active torsions:
REMARK  status: ('A' for Active; 'I' for Inactive)
REMARK    1  A    between atoms: C_1  and  C_2 
REMARK    2  A    between atoms: C_2  and  C_3 
REMARK    3  A    between atoms: C_3  and  C_4 
REMARK    4  A    between atoms: C_4  and  S_5 
REMARK    5  A    between atoms: S_5  and  C_6 
REMARK    6  A    between atoms: C_6  and  C_7 
REMARK    7  A    between atoms: C_7  and  C_9 
REMARK    8  A    between atoms: C_7  and  O_25 
REMARK    9  A    between atoms: C_9  and  N_51 
ROOT
ATOM      1  C   LIG d   1       3.225   0.773  -3.448  0.00  0.00    -0.027 C 
ATOM      2  C   LIG d   1       4.194   0.788  -2.273  0.00  0.00     0.018 C 
ATOM      3  H   LIG d   1       3.778   1.424  -1.492  0.00  0.00     0.037 H 
ATOM      4  C   LIG d   1       4.391  -0.618  -1.697  0.00  0.00    -0.031 C 
ATOM      5  C   LIG d   1       4.856  -1.524  -2.841  0.00  0.00     0.040 C 
ATOM      6  H   LIG d   1       5.055  -2.532  -2.474  0.00  0.00     0.042 H 
ATOM      7  C   LIG d   1       3.749  -1.548  -3.909  0.00  0.00    -0.023 C 
ATOM      8  C   LIG d   1       6.094  -0.940  -3.484  0.00  0.00     0.030 A 
ATOM      9  C   LIG d   1       6.951  -1.782  -4.093  0.00  0.00    -0.042 A 
ATOM     10  C   LIG d   1       8.081  -1.296  -4.760  0.00  0.00    -0.055 A 
ATOM     11  C   LIG d   1       8.291   0.052  -4.802  0.00  0.00     0.003 A 
ATOM     12  C   LIG d   1       7.385   0.905  -4.157  0.00  0.00     0.252 A 
ATOM     13  O   LIG d   1       7.539   2.113  -4.229  0.00  0.00    -0.268 OA
ATOM     14  N   LIG d   1       6.339   0.402  -3.455  0.00  0.00    -0.311 N 
ATOM     15  C   LIG d   1       5.542   1.356  -2.685  0.00  0.00     0.034 C 
ATOM     16  H   LIG d   1       3.174   1.766  -3.895  0.00  0.00     0.082 H 
ATOM     17  H   LIG d   1       2.239   0.499  -3.073  0.00  0.00     0.082 H 
ATOM     18  H   LIG d   1       3.449  -0.986  -1.291  0.00  0.00     0.028 H 
ATOM     19  H   LIG d   1       5.147  -0.594  -0.912  0.00  0.00     0.028 H 
ATOM     20  H   LIG d   1       2.803  -1.838  -3.452  0.00  0.00     0.082 H 
ATOM     21  H   LIG d   1       4.012  -2.254  -4.696  0.00  0.00     0.082 H 
ATOM     22  H   LIG d   1       6.762  -2.845  -4.065  0.00  0.00     0.064 H 
ATOM     23  H   LIG d   1       8.774  -1.976  -5.233  0.00  0.00     0.062 H 
ATOM     24  H   LIG d   1       9.145   0.455  -5.326  0.00  0.00     0.067 H 
ATOM     25  H   LIG d   1       5.377   2.248  -3.290  0.00  0.00     0.050 H 
ATOM     26  H   LIG d   1       6.095   1.635  -1.789  0.00  0.00     0.050 H 
ATOM     27  N   LIG d   1       3.661  -0.185  -4.482  0.00  0.00     0.238 N 
ATOM     28  H   LIG d   1       4.589   0.092  -4.823  0.00  0.00     0.203 HD
ENDROOT
BRANCH  27  29
ATOM     29  C   LIG d   1       2.711  -0.175  -5.614  0.00  0.00    -0.004 C 
ATOM     30  H   LIG d   1       1.925   0.562  -5.447  0.00  0.00     0.084 H 
ATOM     31  H   LIG d   1       2.267  -1.165  -5.710  0.00  0.00     0.084 H 
BRANCH  29  32
ATOM     32  C   LIG d   1       3.470   0.170  -6.898  0.00  0.00     0.104 C 
ATOM     33  H   LIG d   1       3.127   1.134  -7.274  0.00  0.00     0.066 H 
BRANCH  32  34
ATOM     34  C   LIG d   1       3.210  -0.910  -7.949  0.00  0.00     0.025 C 
ATOM     35  H   LIG d   1       4.160  -1.284  -8.329  0.00  0.00     0.040 H 
ATOM     36  H   LIG d   1       2.652  -1.731  -7.497  0.00  0.00     0.040 H 
BRANCH  34  37
ATOM     37  S   LIG d   1       2.246  -0.205  -9.315  0.00  0.00    -0.158 SA
BRANCH  37  38
ATOM     38  C   LIG d   1       3.348  -0.348 -10.749  0.00  0.00    -0.006 C 
ATOM     39  H   LIG d   1       4.040  -1.177 -10.595  0.00  0.00     0.038 H 
ATOM     40  H   LIG d   1       2.756  -0.531 -11.646  0.00  0.00     0.038 H 
BRANCH  38  41
ATOM     41  C   LIG d   1       4.139   0.951 -10.917  0.00  0.00    -0.044 C 
ATOM     42  H   LIG d   1       5.159   0.804 -10.563  0.00  0.00     0.027 H 
ATOM     43  H   LIG d   1       4.158   1.231 -11.971  0.00  0.00     0.027 H 
BRANCH  41  44
ATOM     44  C   LIG d   1       3.471   2.062 -10.106  0.00  0.00    -0.055 C 
ATOM     45  H   LIG d   1       3.018   2.785 -10.785  0.00  0.00     0.026 H 
ATOM     46  H   LIG d   1       2.702   1.633  -9.465  0.00  0.00     0.026 H 
BRANCH  44  47
ATOM     47  C   LIG d   1       4.522   2.764  -9.243  0.00  0.00    -0.065 C 
ATOM     48  H   LIG d   1       4.031   3.274  -8.415  0.00  0.00     0.023 H 
ATOM     49  H   LIG d   1       5.224   2.026  -8.852  0.00  0.00     0.023 H 
ATOM     50  H   LIG d   1       5.062   3.492  -9.849  0.00  0.00     0.023 H 
ENDBRANCH  44  47
ENDBRANCH  41  44
ENDBRANCH  38  41
ENDBRANCH  37  38
ENDBRANCH  34  37
ENDBRANCH  32  34
BRANCH  32  51
ATOM     51  O   LIG d   1       4.870   0.237  -6.620  0.00  0.00    -0.386 OA
ATOM     52  H   LIG d   1       5.086   0.214  -5.678  0.00  0.00     0.210 HD
ENDBRANCH  32  51
ENDBRANCH  29  32
ENDBRANCH  27  29
TORSDOF 9
ENDMDL
MODEL 2
REMARK VINA RESULT:      -6.1      1.231      1.525
REMARK  9 active torsions:
REMARK  status: ('A' for Active; 'I' for Inactive)
REMARK    1  A    between atoms: C_1  and  C_2 
REMARK    2  A    between atoms: C_2  and  C_3 
REMARK    3  A    between atoms: C_3  and  C_4 
REMARK    4  A    between atoms: C_4  and  S_5 
REMARK    5  A    between atoms: S_5  and  C_6 
REMARK    6  A    between atoms: C_6  and  C_7 
REMARK    7  A    between atoms: C_7  and  C_9 
REMARK    8  A    between atoms: C_7  and  O_25 
REMARK    9  A    between atoms: C_9  and  N_51 
ROOT
ATOM      1  C   LIG d   1       3.528   1.207  -3.392  0.00  0.00    -0.027 C 
ATOM      2  C   LIG d   1       4.652   1.065  -2.373  0.00  0.00     0.018 C 
ATOM      3  H   LIG d   1       4.628   1.931  -1.712  0.00  0.00     0.037 H 
ATOM      4  C   LIG d   1       4.475  -0.196  -1.523  0.00  0.00    -0.031 C 
ATOM      5  C   LIG d   1       4.384  -1.389  -2.480  0.00  0.00     0.040 C 
ATOM      6  H   LIG d   1       4.302  -2.322  -1.922  0.00  0.00     0.042 H 
ATOM      7  C   LIG d   1       3.151  -1.186  -3.377  0.00  0.00    -0.023 C 
ATOM      8  C   LIG d   1       5.599  -1.415  -3.380  0.00  0.00     0.030 A 
ATOM      9  C   LIG d   1       5.995  -2.601  -3.881  0.00  0.00    -0.042 A 
ATOM     10  C   LIG d   1       7.073  -2.681  -4.769  0.00  0.00    -0.055 A 
ATOM     11  C   LIG d   1       7.708  -1.531  -5.138  0.00  0.00     0.003 A 
ATOM     12  C   LIG d   1       7.279  -0.311  -4.599  0.00  0.00     0.252 A 
ATOM     13  O   LIG d   1       7.809   0.727  -4.959  0.00  0.00    -0.268 OA
ATOM     14  N   LIG d   1       6.279  -0.270  -3.683  0.00  0.00    -0.311 N 
ATOM     15  C   LIG d   1       6.007   1.024  -3.059  0.00  0.00     0.034 C 
ATOM     16  H   LIG d   1       3.727   2.060  -4.041  0.00  0.00     0.082 H 
ATOM     17  H   LIG d   1       2.598   1.380  -2.851  0.00  0.00     0.082 H 
ATOM     18  H   LIG d   1       3.559  -0.121  -0.937  0.00  0.00     0.028 H 
ATOM     19  H   LIG d   1       5.330  -0.319  -0.859  0.00  0.00     0.028 H 
ATOM     20  H   LIG d   1       2.267  -1.030  -2.758  0.00  0.00     0.082 H 
ATOM     21  H   LIG d   1       3.008  -2.061  -4.010  0.00  0.00     0.082 H 
ATOM     22  H   LIG d   1       5.471  -3.500  -3.592  0.00  0.00     0.064 H 
ATOM     23  H   LIG d   1       7.397  -3.636  -5.156  0.00  0.00     0.062 H 
ATOM     24  H   LIG d   1       8.532  -1.562  -5.836  0.00  0.00     0.067 H 
ATOM     25  H   LIG d   1       6.038   1.799  -3.825  0.00  0.00     0.050 H 
ATOM     26  H   LIG d   1       6.782   1.229  -2.321  0.00  0.00     0.050 H 
ATOM     27  N   LIG d   1       3.415  -0.003  -4.228  0.00  0.00     0.238 N 
ATOM     28  H   LIG d   1       4.299  -0.146  -4.730  0.00  0.00     0.203 HD
ENDROOT
BRANCH  27  29
ATOM     29  C   LIG d   1       2.325   0.162  -5.213  0.00  0.00    -0.004 C 
ATOM     30  H   LIG d   1       1.767   1.078  -5.015  0.00  0.00     0.084 H 
ATOM     31  H   LIG d   1       1.655  -0.694  -5.144  0.00  0.00     0.084 H 
BRANCH  29  32
ATOM     32  C   LIG d   1       2.929   0.226  -6.617  0.00  0.00     0.104 C 
ATOM     33  H   LIG d   1       2.301  -0.335  -7.309  0.00  0.00     0.066 H 
BRANCH  32  34
ATOM     34  C   LIG d   1       4.333  -0.381  -6.596  0.00  0.00     0.025 C 
ATOM     35  H   LIG d   1       5.023   0.279  -7.121  0.00  0.00     0.040 H 
ATOM     36  H   LIG d   1       4.661  -0.501  -5.563  0.00  0.00     0.040 H 
BRANCH  34  37
ATOM     37  S   LIG d   1       4.304  -2.001  -7.412  0.00  0.00    -0.158 SA
BRANCH  37  38
ATOM     38  C   LIG d   1       3.234  -1.746  -8.854  0.00  0.00    -0.006 C 
ATOM     39  H   LIG d   1       2.970  -2.713  -9.286  0.00  0.00     0.038 H 
ATOM     40  H   LIG d   1       2.326  -1.226  -8.547  0.00  0.00     0.038 H 
BRANCH  38  41
ATOM     41  C   LIG d   1       3.974  -0.907  -9.898  0.00  0.00    -0.044 C 
ATOM     42  H   LIG d   1       4.868  -0.474  -9.449  0.00  0.00     0.027 H 
ATOM     43  H   LIG d   1       4.260  -1.541 -10.737  0.00  0.00     0.027 H 
BRANCH  41  44
ATOM     44  C   LIG d   1       3.058   0.214 -10.393  0.00  0.00    -0.055 C 
ATOM     45  H   LIG d   1       2.632  -0.065 -11.357  0.00  0.00     0.026 H 
ATOM     46  H   LIG d   1       2.257   0.373  -9.673  0.00  0.00     0.026 H 
BRANCH  44  47
ATOM     47  C   LIG d   1       3.869   1.502 -10.548  0.00  0.00    -0.065 C 
ATOM     48  H   LIG d   1       4.821   1.398 -10.029  0.00  0.00     0.023 H 
ATOM     49  H   LIG d   1       4.050   1.693 -11.607  0.00  0.00     0.023 H 
ATOM     50  H   LIG d   1       3.311   2.336 -10.120  0.00  0.00     0.023 H 
ENDBRANCH  44  47
ENDBRANCH  41  44
ENDBRANCH  38  41
ENDBRANCH  37  38
ENDBRANCH  34  37
ENDBRANCH  32  34
BRANCH  32  51
ATOM     51  O   LIG d   1       3.006   1.589  -7.041  0.00  0.00    -0.386 OA
ATOM     52  H   LIG d   1       2.199   2.097  -6.883  0.00  0.00     0.210 HD
ENDBRANCH  32  51
ENDBRANCH  29  32
ENDBRANCH  27  29
TORSDOF 9
ENDMDL
MODEL 3
REMARK VINA RESULT:      -5.7      3.567      6.397
REMARK  9 active torsions:
REMARK  status: ('A' for Active; 'I' for Inactive)
REMARK    1  A    between atoms: C_1  and  C_2 
REMARK    2  A    between atoms: C_2  and  C_3 
REMARK    3  A    between atoms: C_3  and  C_4 
REMARK    4  A    between atoms: C_4  and  S_5 
REMARK    5  A    between atoms: S_5  and  C_6 
REMARK    6  A    between atoms: C_6  and  C_7 
REMARK    7  A    between atoms: C_7  and  C_9 
REMARK    8  A    between atoms: C_7  and  O_25 
REMARK    9  A    between atoms: C_9  and  N_51 
ROOT
ATOM      1  C   LIG d   1       6.296  -1.229  -6.245  0.00  0.00    -0.027 C 
ATOM      2  C   LIG d   1       4.972  -1.882  -5.874  0.00  0.00     0.018 C 
ATOM      3  H   LIG d   1       4.612  -2.444  -6.736  0.00  0.00     0.037 H 
ATOM      4  C   LIG d   1       5.140  -2.853  -4.701  0.00  0.00    -0.031 C 
ATOM      5  C   LIG d   1       5.764  -2.071  -3.541  0.00  0.00     0.040 C 
ATOM      6  H   LIG d   1       5.865  -2.708  -2.661  0.00  0.00     0.042 H 
ATOM      7  C   LIG d   1       7.141  -1.560  -3.998  0.00  0.00    -0.023 C 
ATOM      8  C   LIG d   1       4.914  -0.861  -3.225  0.00  0.00     0.030 A 
ATOM      9  C   LIG d   1       4.946  -0.371  -1.971  0.00  0.00    -0.042 A 
ATOM     10  C   LIG d   1       4.231   0.784  -1.634  0.00  0.00    -0.055 A 
ATOM     11  C   LIG d   1       3.513   1.420  -2.604  0.00  0.00     0.003 A 
ATOM     12  C   LIG d   1       3.494   0.887  -3.900  0.00  0.00     0.252 A 
ATOM     13  O   LIG d   1       2.894   1.475  -4.785  0.00  0.00    -0.268 OA
ATOM     14  N   LIG d   1       4.137  -0.274  -4.181  0.00  0.00    -0.311 N 
ATOM     15  C   LIG d   1       3.929  -0.836  -5.516  0.00  0.00     0.034 C 
ATOM     16  H   LIG d   1       6.132  -0.478  -7.019  0.00  0.00     0.082 H 
ATOM     17  H   LIG d   1       6.960  -2.001  -6.633  0.00  0.00     0.082 H 
ATOM     18  H   LIG d   1       5.797  -3.673  -4.991  0.00  0.00     0.028 H 
ATOM     19  H   LIG d   1       4.169  -3.246  -4.403  0.00  0.00     0.028 H 
ATOM     20  H   LIG d   1       7.742  -2.394  -4.361  0.00  0.00     0.082 H 
ATOM     21  H   LIG d   1       7.649  -1.074  -3.165  0.00  0.00     0.082 H 
ATOM     22  H   LIG d   1       5.532  -0.876  -1.218  0.00  0.00     0.064 H 
ATOM     23  H   LIG d   1       4.247   1.164  -0.623  0.00  0.00     0.062 H 
ATOM     24  H   LIG d   1       2.967   2.323  -2.375  0.00  0.00     0.067 H 
ATOM     25  H   LIG d   1       3.973  -0.031  -6.249  0.00  0.00     0.050 H 
ATOM     26  H   LIG d   1       2.942  -1.295  -5.555  0.00  0.00     0.050 H 
ATOM     27  N   LIG d   1       6.908  -0.570  -5.075  0.00  0.00     0.238 N 
ATOM     28  H   LIG d   1       6.269   0.154  -4.727  0.00  0.00     0.203 HD
ENDROOT
BRANCH  27  29
ATOM     29  C   LIG d   1       8.187   0.063  -5.462  0.00  0.00    -0.004 C 
ATOM     30  H   LIG d   1       8.358  -0.045  -6.533  0.00  0.00     0.084 H 
ATOM     31  H   LIG d   1       8.997  -0.415  -4.913  0.00  0.00     0.084 H 
BRANCH  29  32
ATOM     32  C   LIG d   1       8.134   1.550  -5.102  0.00  0.00     0.104 C 
ATOM     33  H   LIG d   1       8.131   2.145  -6.015  0.00  0.00     0.066 H 
BRANCH  32  34
ATOM     34  C   LIG d   1       9.359   1.914  -4.261  0.00  0.00     0.025 C 
ATOM     35  H   LIG d   1       9.154   1.707  -3.211  0.00  0.00     0.040 H 
ATOM     36  H   LIG d   1      10.214   1.320  -4.587  0.00  0.00     0.040 H 
BRANCH  34  37
ATOM     37  S   LIG d   1       9.734   3.677  -4.468  0.00  0.00    -0.158 SA
BRANCH  37  38
ATOM     38  C   LIG d   1      10.060   4.258  -2.781  0.00  0.00    -0.006 C 
ATOM     39  H   LIG d   1       9.371   3.772  -2.090  0.00  0.00     0.038 H 
ATOM     40  H   LIG d   1      11.086   4.013  -2.505  0.00  0.00     0.038 H 
BRANCH  38  41
ATOM     41  C   LIG d   1       9.863   5.774  -2.717  0.00  0.00    -0.044 C 
ATOM     42  H   LIG d   1      10.577   6.262  -3.381  0.00  0.00     0.027 H 
ATOM     43  H   LIG d   1       8.849   6.022  -3.029  0.00  0.00     0.027 H 
BRANCH  41  44
ATOM     44  C   LIG d   1      10.088   6.256  -1.283  0.00  0.00    -0.055 C 
ATOM     45  H   LIG d   1       9.502   5.643  -0.597  0.00  0.00     0.026 H 
ATOM     46  H   LIG d   1      11.145   6.172  -1.033  0.00  0.00     0.026 H 
BRANCH  44  47
ATOM     47  C   LIG d   1       9.649   7.717  -1.162  0.00  0.00    -0.065 C 
ATOM     48  H   LIG d   1       9.712   8.031  -0.121  0.00  0.00     0.023 H 
ATOM     49  H   LIG d   1      10.300   8.344  -1.772  0.00  0.00     0.023 H 
ATOM     50  H   LIG d   1       8.620   7.817  -1.510  0.00  0.00     0.023 H 
ENDBRANCH  44  47
ENDBRANCH  41  44
ENDBRANCH  38  41
ENDBRANCH  37  38
ENDBRANCH  34  37
ENDBRANCH  32  34
BRANCH  32  51
ATOM     51  O   LIG d   1       6.947   1.817  -4.353  0.00  0.00    -0.386 OA
ATOM     52  H   LIG d   1       6.788   1.195  -3.631  0.00  0.00     0.210 HD
ENDBRANCH  32  51
ENDBRANCH  29  32
ENDBRANCH  27  29
TORSDOF 9
ENDMDL
MODEL 4
REMARK VINA RESULT:      -5.7      2.137      3.846
REMARK  9 active torsions:
REMARK  status: ('A' for Active; 'I' for Inactive)
REMARK    1  A    between atoms: C_1  and  C_2 
REMARK    2  A    between atoms: C_2  and  C_3 
REMARK    3  A    between atoms: C_3  and  C_4 
REMARK    4  A    between atoms: C_4  and  S_5 
REMARK    5  A    between atoms: S_5  and  C_6 
REMARK    6  A    between atoms: C_6  and  C_7 
REMARK    7  A    between atoms: C_7  and  C_9 
REMARK    8  A    between atoms: C_7  and  O_25 
REMARK    9  A    between atoms: C_9  and  N_51 
ROOT
ATOM      1  C   LIG d   1       5.726  -2.427  -5.879  0.00  0.00    -0.027 C 
ATOM      2  C   LIG d   1       5.801  -2.895  -4.431  0.00  0.00     0.018 C 
ATOM      3  H   LIG d   1       5.838  -3.984  -4.424  0.00  0.00     0.037 H 
ATOM      4  C   LIG d   1       7.062  -2.365  -3.741  0.00  0.00    -0.031 C 
ATOM      5  C   LIG d   1       7.053  -0.838  -3.874  0.00  0.00     0.040 C 
ATOM      6  H   LIG d   1       7.911  -0.405  -3.358  0.00  0.00     0.042 H 
ATOM      7  C   LIG d   1       7.093  -0.491  -5.372  0.00  0.00    -0.023 C 
ATOM      8  C   LIG d   1       5.762  -0.285  -3.315  0.00  0.00     0.030 A 
ATOM      9  C   LIG d   1       5.765   0.975  -2.837  0.00  0.00    -0.042 A 
ATOM     10  C   LIG d   1       4.587   1.565  -2.365  0.00  0.00    -0.055 A 
ATOM     11  C   LIG d   1       3.426   0.849  -2.415  0.00  0.00     0.003 A 
ATOM     12  C   LIG d   1       3.452  -0.460  -2.914  0.00  0.00     0.252 A 
ATOM     13  O   LIG d   1       2.412  -1.091  -3.007  0.00  0.00    -0.268 OA
ATOM     14  N   LIG d   1       4.621  -1.033  -3.296  0.00  0.00    -0.311 N 
ATOM     15  C   LIG d   1       4.576  -2.452  -3.651  0.00  0.00     0.034 C 
ATOM     16  H   LIG d   1       4.779  -2.741  -6.318  0.00  0.00     0.082 H 
ATOM     17  H   LIG d   1       6.545  -2.890  -6.430  0.00  0.00     0.082 H 
ATOM     18  H   LIG d   1       7.948  -2.774  -4.225  0.00  0.00     0.028 H 
ATOM     19  H   LIG d   1       7.053  -2.645  -2.688  0.00  0.00     0.028 H 
ATOM     20  H   LIG d   1       7.944  -0.986  -5.842  0.00  0.00     0.082 H 
ATOM     21  H   LIG d   1       7.177   0.588  -5.498  0.00  0.00     0.082 H 
ATOM     22  H   LIG d   1       6.688   1.534  -2.820  0.00  0.00     0.064 H 
ATOM     23  H   LIG d   1       4.597   2.569  -1.968  0.00  0.00     0.062 H 
ATOM     24  H   LIG d   1       2.500   1.287  -2.075  0.00  0.00     0.067 H 
ATOM     25  H   LIG d   1       3.688  -2.636  -4.256  0.00  0.00     0.050 H 
ATOM     26  H   LIG d   1       4.508  -3.041  -2.737  0.00  0.00     0.050 H 
ATOM     27  N   LIG d   1       5.819  -0.957  -5.966  0.00  0.00     0.238 N 
ATOM     28  H   LIG d   1       5.038  -0.542  -5.444  0.00  0.00     0.203 HD
ENDROOT
BRANCH  27  29
ATOM     29  C   LIG d   1       5.735  -0.527  -7.378  0.00  0.00    -0.004 C 
ATOM     30  H   LIG d   1       4.897   0.156  -7.520  0.00  0.00     0.084 H 
ATOM     31  H   LIG d   1       5.599  -1.406  -8.007  0.00  0.00     0.084 H 
BRANCH  29  32
ATOM     32  C   LIG d   1       7.038   0.178  -7.762  0.00  0.00     0.104 C 
ATOM     33  H   LIG d   1       7.636   0.350  -6.867  0.00  0.00     0.066 H 
BRANCH  32  34
ATOM     34  C   LIG d   1       6.715   1.519  -8.425  0.00  0.00     0.025 C 
ATOM     35  H   LIG d   1       6.375   2.226  -7.669  0.00  0.00     0.040 H 
ATOM     36  H   LIG d   1       7.610   1.909  -8.910  0.00  0.00     0.040 H 
BRANCH  34  37
ATOM     37  S   LIG d   1       5.410   1.282  -9.664  0.00  0.00    -0.158 SA
BRANCH  37  38
ATOM     38  C   LIG d   1       4.107   2.436  -9.154  0.00  0.00    -0.006 C 
ATOM     39  H   LIG d   1       4.363   2.869  -8.186  0.00  0.00     0.038 H 
ATOM     40  H   LIG d   1       4.015   3.231  -9.895  0.00  0.00     0.038 H 
BRANCH  38  41
ATOM     41  C   LIG d   1       2.777   1.688  -9.043  0.00  0.00    -0.044 C 
ATOM     42  H   LIG d   1       2.600   1.414  -8.003  0.00  0.00     0.027 H 
ATOM     43  H   LIG d   1       1.968   2.330  -9.392  0.00  0.00     0.027 H 
BRANCH  41  44
ATOM     44  C   LIG d   1       2.831   0.423  -9.901  0.00  0.00    -0.055 C 
ATOM     45  H   LIG d   1       2.672   0.686 -10.947  0.00  0.00     0.026 H 
ATOM     46  H   LIG d   1       3.806  -0.050  -9.790  0.00  0.00     0.026 H 
BRANCH  44  47
ATOM     47  C   LIG d   1       1.738  -0.547  -9.448  0.00  0.00    -0.065 C 
ATOM     48  H   LIG d   1       2.153  -1.255  -8.731  0.00  0.00     0.023 H 
ATOM     49  H   LIG d   1       0.927   0.012  -8.980  0.00  0.00     0.023 H 
ATOM     50  H   LIG d   1       1.352  -1.089 -10.312  0.00  0.00     0.023 H 
ENDBRANCH  44  47
ENDBRANCH  41  44
ENDBRANCH  38  41
ENDBRANCH  37  38
ENDBRANCH  34  37
ENDBRANCH  32  34
BRANCH  32  51
ATOM     51  O   LIG d   1       7.770  -0.640  -8.677  0.00  0.00    -0.386 OA
ATOM     52  H   LIG d   1       8.728  -0.512  -8.640  0.00  0.00     0.210 HD
ENDBRANCH  32  51
ENDBRANCH  29  32
ENDBRANCH  27  29
TORSDOF 9
ENDMDL
MODEL 5
REMARK VINA RESULT:      -5.5      1.764      4.081
REMARK  9 active torsions:
REMARK  status: ('A' for Active; 'I' for Inactive)
REMARK    1  A    between atoms: C_1  and  C_2 
REMARK    2  A    between atoms: C_2  and  C_3 
REMARK    3  A    between atoms: C_3  and  C_4 
REMARK    4  A    between atoms: C_4  and  S_5 
REMARK    5  A    between atoms: S_5  and  C_6 
REMARK    6  A    between atoms: C_6  and  C_7 
REMARK    7  A    between atoms: C_7  and  C_9 
REMARK    8  A    between atoms: C_7  and  O_25 
REMARK    9  A    between atoms: C_9  and  N_51 
ROOT
ATOM      1  C   LIG d   1       6.880  -1.197  -3.290  0.00  0.00    -0.027 C 
ATOM      2  C   LIG d   1       5.695  -2.152  -3.221  0.00  0.00     0.018 C 
ATOM      3  H   LIG d   1       6.041  -3.099  -2.808  0.00  0.00     0.037 H 
ATOM      4  C   LIG d   1       4.591  -1.603  -2.313  0.00  0.00    -0.031 C 
ATOM      5  C   LIG d   1       4.208  -0.215  -2.840  0.00  0.00     0.040 C 
ATOM      6  H   LIG d   1       3.390   0.204  -2.253  0.00  0.00     0.042 H 
ATOM      7  C   LIG d   1       5.452   0.685  -2.753  0.00  0.00    -0.023 C 
ATOM      8  C   LIG d   1       3.820  -0.312  -4.298  0.00  0.00     0.030 A 
ATOM      9  C   LIG d   1       2.965   0.605  -4.790  0.00  0.00    -0.042 A 
ATOM     10  C   LIG d   1       2.617   0.606  -6.146  0.00  0.00    -0.055 A 
ATOM     11  C   LIG d   1       3.175  -0.328  -6.969  0.00  0.00     0.003 A 
ATOM     12  C   LIG d   1       4.059  -1.273  -6.430  0.00  0.00     0.252 A 
ATOM     13  O   LIG d   1       4.598  -2.082  -7.166  0.00  0.00    -0.268 OA
ATOM     14  N   LIG d   1       4.321  -1.297  -5.099  0.00  0.00    -0.311 N 
ATOM     15  C   LIG d   1       5.125  -2.414  -4.605  0.00  0.00     0.034 C 
ATOM     16  H   LIG d   1       7.609  -1.568  -4.011  0.00  0.00     0.082 H 
ATOM     17  H   LIG d   1       7.342  -1.157  -2.303  0.00  0.00     0.082 H 
ATOM     18  H   LIG d   1       4.958  -1.523  -1.291  0.00  0.00     0.028 H 
ATOM     19  H   LIG d   1       3.724  -2.262  -2.344  0.00  0.00     0.028 H 
ATOM     20  H   LIG d   1       5.843   0.675  -1.736  0.00  0.00     0.082 H 
ATOM     21  H   LIG d   1       5.190   1.704  -3.038  0.00  0.00     0.082 H 
ATOM     22  H   LIG d   1       2.545   1.348  -4.129  0.00  0.00     0.064 H 
ATOM     23  H   LIG d   1       1.920   1.334  -6.533  0.00  0.00     0.062 H 
ATOM     24  H   LIG d   1       2.938  -0.338  -8.023  0.00  0.00     0.067 H 
ATOM     25  H   LIG d   1       5.949  -2.589  -5.298  0.00  0.00     0.050 H 
ATOM     26  H   LIG d   1       4.503  -3.307  -4.567  0.00  0.00     0.050 H 
ATOM     27  N   LIG d   1       6.450   0.151  -3.707  0.00  0.00     0.238 N 
ATOM     28  H   LIG d   1       6.021   0.091  -4.638  0.00  0.00     0.203 HD
ENDROOT
BRANCH  27  29
ATOM     29  C   LIG d   1       7.617   1.056  -3.775  0.00  0.00    -0.004 C 
ATOM     30  H   LIG d   1       8.529   0.525  -3.502  0.00  0.00     0.084 H 
ATOM     31  H   LIG d   1       7.460   1.886  -3.087  0.00  0.00     0.084 H 
BRANCH  29  32
ATOM     32  C   LIG d   1       7.749   1.593  -5.202  0.00  0.00     0.104 C 
ATOM     33  H   LIG d   1       7.124   2.479  -5.316  0.00  0.00     0.066 H 
BRANCH  32  34
ATOM     34  C   LIG d   1       7.298   0.519  -6.194  0.00  0.00     0.025 C 
ATOM     35  H   LIG d   1       7.845  -0.404  -6.004  0.00  0.00     0.040 H 
ATOM     36  H   LIG d   1       6.229   0.339  -6.073  0.00  0.00     0.040 H 
BRANCH  34  37
ATOM     37  S   LIG d   1       7.629   1.083  -7.886  0.00  0.00    -0.158 SA
BRANCH  37  38
ATOM     38  C   LIG d   1       6.016   0.970  -8.709  0.00  0.00    -0.006 C 
ATOM     39  H   LIG d   1       6.106   0.351  -9.602  0.00  0.00     0.038 H 
ATOM     40  H   LIG d   1       5.291   0.523  -8.029  0.00  0.00     0.038 H 
BRANCH  38  41
ATOM     41  C   LIG d   1       5.546   2.372  -9.105  0.00  0.00    -0.044 C 
ATOM     42  H   LIG d   1       5.659   3.046  -8.257  0.00  0.00     0.027 H 
ATOM     43  H   LIG d   1       6.148   2.734  -9.939  0.00  0.00     0.027 H 
BRANCH  41  44
ATOM     44  C   LIG d   1       4.076   2.318  -9.522  0.00  0.00    -0.055 C 
ATOM     45  H   LIG d   1       3.472   1.978  -8.680  0.00  0.00     0.026 H 
ATOM     46  H   LIG d   1       3.747   3.311  -9.826  0.00  0.00     0.026 H 
BRANCH  44  47
ATOM     47  C   LIG d   1       3.913   1.345 -10.691  0.00  0.00    -0.065 C 
ATOM     48  H   LIG d   1       3.081   1.664 -11.317  0.00  0.00     0.023 H 
ATOM     49  H   LIG d   1       4.829   1.331 -11.283  0.00  0.00     0.023 H 
ATOM     50  H   LIG d   1       3.714   0.344 -10.306  0.00  0.00     0.023 H 
ENDBRANCH  44  47
ENDBRANCH  41  44
ENDBRANCH  38  41
ENDBRANCH  37  38
ENDBRANCH  34  37
ENDBRANCH  32  34
BRANCH  32  51
ATOM     51  O   LIG d   1       9.112   1.935  -5.458  0.00  0.00    -0.386 OA
ATOM     52  H   LIG d   1       9.243   2.455  -6.263  0.00  0.00     0.210 HD
ENDBRANCH  32  51
ENDBRANCH  29  32
ENDBRANCH  27  29
TORSDOF 9
ENDMDL
MODEL 6
REMARK VINA RESULT:      -5.5      1.919      2.307
REMARK  9 active torsions:
REMARK  status: ('A' for Active; 'I' for Inactive)
REMARK    1  A    between atoms: C_1  and  C_2 
REMARK    2  A    between atoms: C_2  and  C_3 
REMARK    3  A    between atoms: C_3  and  C_4 
REMARK    4  A    between atoms: C_4  and  S_5 
REMARK    5  A    between atoms: S_5  and  C_6 
REMARK    6  A    between atoms: C_6  and  C_7 
REMARK    7  A    between atoms: C_7  and  C_9 
REMARK    8  A    between atoms: C_7  and  O_25 
REMARK    9  A    between atoms: C_9  and  N_51 
ROOT
ATOM      1  C   LIG d   1       3.756   1.332  -3.350  0.00  0.00    -0.027 C 
ATOM      2  C   LIG d   1       4.811   0.924  -2.330  0.00  0.00     0.018 C 
ATOM      3  H   LIG d   1       4.980   1.763  -1.656  0.00  0.00     0.037 H 
ATOM      4  C   LIG d   1       4.344  -0.275  -1.499  0.00  0.00    -0.031 C 
ATOM      5  C   LIG d   1       3.991  -1.403  -2.475  0.00  0.00     0.040 C 
ATOM      6  H   LIG d   1       3.694  -2.301  -1.930  0.00  0.00     0.042 H 
ATOM      7  C   LIG d   1       2.843  -0.912  -3.373  0.00  0.00    -0.023 C 
ATOM      8  C   LIG d   1       5.175  -1.693  -3.370  0.00  0.00     0.030 A 
ATOM      9  C   LIG d   1       5.293  -2.931  -3.887  0.00  0.00    -0.042 A 
ATOM     10  C   LIG d   1       6.331  -3.243  -4.772  0.00  0.00    -0.055 A 
ATOM     11  C   LIG d   1       7.214  -2.263  -5.121  0.00  0.00     0.003 A 
ATOM     12  C   LIG d   1       7.070  -0.984  -4.566  0.00  0.00     0.252 A 
ATOM     13  O   LIG d   1       7.826  -0.090  -4.908  0.00  0.00    -0.268 OA
ATOM     14  N   LIG d   1       6.099  -0.730  -3.654  0.00  0.00    -0.311 N 
ATOM     15  C   LIG d   1       6.126   0.584  -3.011  0.00  0.00     0.034 C 
ATOM     16  H   LIG d   1       4.149   2.126  -3.986  0.00  0.00     0.082 H 
ATOM     17  H   LIG d   1       2.886   1.705  -2.810  0.00  0.00     0.082 H 
ATOM     18  H   LIG d   1       3.466  -0.002  -0.915  0.00  0.00     0.028 H 
ATOM     19  H   LIG d   1       5.145  -0.599  -0.833  0.00  0.00     0.028 H 
ATOM     20  H   LIG d   1       2.014  -0.567  -2.755  0.00  0.00     0.082 H 
ATOM     21  H   LIG d   1       2.509  -1.723  -4.020  0.00  0.00     0.082 H 
ATOM     22  H   LIG d   1       4.576  -3.691  -3.614  0.00  0.00     0.064 H 
ATOM     23  H   LIG d   1       6.431  -4.241  -5.172  0.00  0.00     0.062 H 
ATOM     24  H   LIG d   1       8.014  -2.471  -5.817  0.00  0.00     0.067 H 
ATOM     25  H   LIG d   1       6.337   1.342  -3.765  0.00  0.00     0.050 H 
ATOM     26  H   LIG d   1       6.921   0.596  -2.267  0.00  0.00     0.050 H 
ATOM     27  N   LIG d   1       3.376   0.191  -4.205  0.00  0.00     0.238 N 
ATOM     28  H   LIG d   1       4.208  -0.142  -4.706  0.00  0.00     0.203 HD
ENDROOT
BRANCH  27  29
ATOM     29  C   LIG d   1       2.359   0.614  -5.191  0.00  0.00    -0.004 C 
ATOM     30  H   LIG d   1       2.152   1.680  -5.093  0.00  0.00     0.084 H 
ATOM     31  H   LIG d   1       1.444   0.048  -5.019  0.00  0.00     0.084 H 
BRANCH  29  32
ATOM     32  C   LIG d   1       2.882   0.324  -6.600  0.00  0.00     0.104 C 
ATOM     33  H   LIG d   1       2.161  -0.294  -7.135  0.00  0.00     0.066 H 
BRANCH  32  34
ATOM     34  C   LIG d   1       4.217  -0.417  -6.505  0.00  0.00     0.025 C 
ATOM     35  H   LIG d   1       4.847   0.063  -5.758  0.00  0.00     0.040 H 
ATOM     36  H   LIG d   1       4.038  -1.454  -6.217  0.00  0.00     0.040 H 
BRANCH  34  37
ATOM     37  S   LIG d   1       5.048  -0.374  -8.117  0.00  0.00    -0.158 SA
BRANCH  37  38
ATOM     38  C   LIG d   1       6.493   0.687  -7.837  0.00  0.00    -0.006 C 
ATOM     39  H   LIG d   1       6.376   1.218  -6.892  0.00  0.00     0.038 H 
ATOM     40  H   LIG d   1       7.393   0.073  -7.800  0.00  0.00     0.038 H 
BRANCH  38  41
ATOM     41  C   LIG d   1       6.613   1.698  -8.979  0.00  0.00    -0.044 C 
ATOM     42  H   LIG d   1       6.050   1.341  -9.841  0.00  0.00     0.027 H 
ATOM     43  H   LIG d   1       6.212   2.659  -8.657  0.00  0.00     0.027 H 
BRANCH  41  44
ATOM     44  C   LIG d   1       8.084   1.862  -9.363  0.00  0.00    -0.055 C 
ATOM     45  H   LIG d   1       8.680   1.110  -8.846  0.00  0.00     0.026 H 
ATOM     46  H   LIG d   1       8.195   1.736 -10.439  0.00  0.00     0.026 H 
BRANCH  44  47
ATOM     47  C   LIG d   1       8.564   3.258  -8.959  0.00  0.00    -0.065 C 
ATOM     48  H   LIG d   1       9.605   3.208  -8.645  0.00  0.00     0.023 H 
ATOM     49  H   LIG d   1       8.471   3.934  -9.810  0.00  0.00     0.023 H 
ATOM     50  H   LIG d   1       7.953   3.627  -8.135  0.00  0.00     0.023 H 
ENDBRANCH  44  47
ENDBRANCH  41  44
ENDBRANCH  38  41
ENDBRANCH  37  38
ENDBRANCH  34  37
ENDBRANCH  32  34
BRANCH  32  51
ATOM     51  O   LIG d   1       3.070   1.555  -7.301  0.00  0.00    -0.386 OA
ATOM     52  H   LIG d   1       3.708   2.151  -6.886  0.00  0.00     0.210 HD
ENDBRANCH  32  51
ENDBRANCH  29  32
ENDBRANCH  27  29
TORSDOF 9
ENDMDL
MODEL 7
REMARK VINA RESULT:      -5.4      3.176      6.839
REMARK  9 active torsions:
REMARK  status: ('A' for Active; 'I' for Inactive)
REMARK    1  A    between atoms: C_1  and  C_2 
REMARK    2  A    between atoms: C_2  and  C_3 
REMARK    3  A    between atoms: C_3  and  C_4 
REMARK    4  A    between atoms: C_4  and  S_5 
REMARK    5  A    between atoms: S_5  and  C_6 
REMARK    6  A    between atoms: C_6  and  C_7 
REMARK    7  A    between atoms: C_7  and  C_9 
REMARK    8  A    between atoms: C_7  and  O_25 
REMARK    9  A    between atoms: C_9  and  N_51 
ROOT
ATOM      1  C   LIG d   1       5.766  -2.549  -9.824  0.00  0.00    -0.027 C 
ATOM      2  C   LIG d   1       5.370  -1.807 -11.094  0.00  0.00     0.018 C 
ATOM      3  H   LIG d   1       5.986  -2.177 -11.914  0.00  0.00     0.037 H 
ATOM      4  C   LIG d   1       3.900  -2.054 -11.446  0.00  0.00    -0.031 C 
ATOM      5  C   LIG d   1       3.061  -1.645 -10.231  0.00  0.00     0.040 C 
ATOM      6  H   LIG d   1       1.997  -1.758 -10.446  0.00  0.00     0.042 H 
ATOM      7  C   LIG d   1       3.471  -2.537  -9.047  0.00  0.00    -0.023 C 
ATOM      8  C   LIG d   1       3.375  -0.215  -9.851  0.00  0.00     0.030 A 
ATOM      9  C   LIG d   1       2.424   0.499  -9.219  0.00  0.00    -0.042 A 
ATOM     10  C   LIG d   1       2.677   1.805  -8.786  0.00  0.00    -0.055 A 
ATOM     11  C   LIG d   1       3.914   2.340  -8.996  0.00  0.00     0.003 A 
ATOM     12  C   LIG d   1       4.884   1.577  -9.659  0.00  0.00     0.252 A 
ATOM     13  O   LIG d   1       6.007   2.029  -9.811  0.00  0.00    -0.268 OA
ATOM     14  N   LIG d   1       4.589   0.341 -10.134  0.00  0.00    -0.311 N 
ATOM     15  C   LIG d   1       5.611  -0.314 -10.951  0.00  0.00     0.034 C 
ATOM     16  H   LIG d   1       6.787  -2.285  -9.547  0.00  0.00     0.082 H 
ATOM     17  H   LIG d   1       5.717  -3.619 -10.025  0.00  0.00     0.082 H 
ATOM     18  H   LIG d   1       3.744  -3.109 -11.666  0.00  0.00     0.028 H 
ATOM     19  H   LIG d   1       3.620  -1.451 -12.310  0.00  0.00     0.028 H 
ATOM     20  H   LIG d   1       3.384  -3.586  -9.330  0.00  0.00     0.082 H 
ATOM     21  H   LIG d   1       2.829  -2.331  -8.191  0.00  0.00     0.082 H 
ATOM     22  H   LIG d   1       1.455   0.055  -9.045  0.00  0.00     0.064 H 
ATOM     23  H   LIG d   1       1.906   2.379  -8.293  0.00  0.00     0.062 H 
ATOM     24  H   LIG d   1       4.142   3.339  -8.656  0.00  0.00     0.067 H 
ATOM     25  H   LIG d   1       6.586  -0.157 -10.489  0.00  0.00     0.050 H 
ATOM     26  H   LIG d   1       5.614   0.139 -11.941  0.00  0.00     0.050 H 
ATOM     27  N   LIG d   1       4.871  -2.198  -8.705  0.00  0.00     0.238 N 
ATOM     28  H   LIG d   1       4.935  -1.188  -8.530  0.00  0.00     0.203 HD
ENDROOT
BRANCH  27  29
ATOM     29  C   LIG d   1       5.280  -2.923  -7.483  0.00  0.00    -0.004 C 
ATOM     30  H   LIG d   1       6.258  -2.579  -7.144  0.00  0.00     0.084 H 
ATOM     31  H   LIG d   1       5.325  -3.989  -7.703  0.00  0.00     0.084 H 
BRANCH  29  32
ATOM     32  C   LIG d   1       4.244  -2.672  -6.385  0.00  0.00     0.104 C 
ATOM     33  H   LIG d   1       3.348  -2.232  -6.824  0.00  0.00     0.066 H 
BRANCH  32  34
ATOM     34  C   LIG d   1       4.826  -1.713  -5.344  0.00  0.00     0.025 C 
ATOM     35  H   LIG d   1       5.861  -1.488  -5.597  0.00  0.00     0.040 H 
ATOM     36  H   LIG d   1       4.245  -0.790  -5.335  0.00  0.00     0.040 H 
BRANCH  34  37
ATOM     37  S   LIG d   1       4.757  -2.487  -3.705  0.00  0.00    -0.158 SA
BRANCH  37  38
ATOM     38  C   LIG d   1       3.470  -1.552  -2.832  0.00  0.00    -0.006 C 
ATOM     39  H   LIG d   1       2.543  -2.125  -2.830  0.00  0.00     0.038 H 
ATOM     40  H   LIG d   1       3.787  -1.369  -1.805  0.00  0.00     0.038 H 
BRANCH  38  41
ATOM     41  C   LIG d   1       3.242  -0.215  -3.541  0.00  0.00    -0.044 C 
ATOM     42  H   LIG d   1       3.978  -0.094  -4.335  0.00  0.00     0.027 H 
ATOM     43  H   LIG d   1       2.239  -0.198  -3.969  0.00  0.00     0.027 H 
BRANCH  41  44
ATOM     44  C   LIG d   1       3.386   0.927  -2.534  0.00  0.00    -0.055 C 
ATOM     45  H   LIG d   1       3.463   1.875  -3.068  0.00  0.00     0.026 H 
ATOM     46  H   LIG d   1       2.514   0.948  -1.881  0.00  0.00     0.026 H 
BRANCH  44  47
ATOM     47  C   LIG d   1       4.648   0.710  -1.695  0.00  0.00    -0.065 C 
ATOM     48  H   LIG d   1       4.380   0.236  -0.752  0.00  0.00     0.023 H 
ATOM     49  H   LIG d   1       5.342   0.071  -2.241  0.00  0.00     0.023 H 
ATOM     50  H   LIG d   1       5.121   1.672  -1.497  0.00  0.00     0.023 H 
ENDBRANCH  44  47
ENDBRANCH  41  44
ENDBRANCH  38  41
ENDBRANCH  37  38
ENDBRANCH  34  37
ENDBRANCH  32  34
BRANCH  32  51
ATOM     51  O   LIG d   1       3.907  -3.910  -5.756  0.00  0.00    -0.386 OA
ATOM     52  H   LIG d   1       3.542  -4.572  -6.358  0.00  0.00     0.210 HD
ENDBRANCH  32  51
ENDBRANCH  29  32
ENDBRANCH  27  29
TORSDOF 9
ENDMDL
MODEL 8
REMARK VINA RESULT:      -5.4      3.043      7.136
REMARK  9 active torsions:
REMARK  status: ('A' for Active; 'I' for Inactive)
REMARK    1  A    between atoms: C_1  and  C_2 
REMARK    2  A    between atoms: C_2  and  C_3 
REMARK    3  A    between atoms: C_3  and  C_4 
REMARK    4  A    between atoms: C_4  and  S_5 
REMARK    5  A    between atoms: S_5  and  C_6 
REMARK    6  A    between atoms: C_6  and  C_7 
REMARK    7  A    between atoms: C_7  and  C_9 
REMARK    8  A    between atoms: C_7  and  O_25 
REMARK    9  A    between atoms: C_9  and  N_51 
ROOT
ATOM      1  C   LIG d   1       3.638   0.263  -7.517  0.00  0.00    -0.027 C 
ATOM      2  C   LIG d   1       2.861   1.259  -8.368  0.00  0.00     0.018 C 
ATOM      3  H   LIG d   1       2.209   1.836  -7.711  0.00  0.00     0.037 H 
ATOM      4  C   LIG d   1       3.802   2.229  -9.087  0.00  0.00    -0.031 C 
ATOM      5  C   LIG d   1       4.790   1.391  -9.906  0.00  0.00     0.040 C 
ATOM      6  H   LIG d   1       5.459   2.037 -10.476  0.00  0.00     0.042 H 
ATOM      7  C   LIG d   1       5.591   0.513  -8.930  0.00  0.00    -0.023 C 
ATOM      8  C   LIG d   1       4.031   0.466 -10.830  0.00  0.00     0.030 A 
ATOM      9  C   LIG d   1       4.633   0.068 -11.967  0.00  0.00    -0.042 A 
ATOM     10  C   LIG d   1       4.007  -0.837 -12.831  0.00  0.00    -0.055 A 
ATOM     11  C   LIG d   1       2.781  -1.330 -12.492  0.00  0.00     0.003 A 
ATOM     12  C   LIG d   1       2.175  -0.898 -11.305  0.00  0.00     0.252 A 
ATOM     13  O   LIG d   1       1.101  -1.368 -10.970  0.00  0.00    -0.268 OA
ATOM     14  N   LIG d   1       2.772   0.037 -10.523  0.00  0.00    -0.311 N 
ATOM     15  C   LIG d   1       1.995   0.544  -9.391  0.00  0.00     0.034 C 
ATOM     16  H   LIG d   1       2.953  -0.470  -7.090  0.00  0.00     0.082 H 
ATOM     17  H   LIG d   1       4.124   0.810  -6.710  0.00  0.00     0.082 H 
ATOM     18  H   LIG d   1       4.343   2.830  -8.357  0.00  0.00     0.028 H 
ATOM     19  H   LIG d   1       3.230   2.879  -9.749  0.00  0.00     0.028 H 
ATOM     20  H   LIG d   1       6.049   1.138  -8.163  0.00  0.00     0.082 H 
ATOM     21  H   LIG d   1       6.364  -0.031  -9.473  0.00  0.00     0.082 H 
ATOM     22  H   LIG d   1       5.611   0.454 -12.213  0.00  0.00     0.064 H 
ATOM     23  H   LIG d   1       4.487  -1.141 -13.750  0.00  0.00     0.062 H 
ATOM     24  H   LIG d   1       2.283  -2.044 -13.132  0.00  0.00     0.067 H 
ATOM     25  H   LIG d   1       1.493  -0.293  -8.905  0.00  0.00     0.050 H 
ATOM     26  H   LIG d   1       1.243   1.238  -9.763  0.00  0.00     0.050 H 
ATOM     27  N   LIG d   1       4.644  -0.452  -8.327  0.00  0.00     0.238 N 
ATOM     28  H   LIG d   1       4.166  -0.963  -9.078  0.00  0.00     0.203 HD
ENDROOT
BRANCH  27  29
ATOM     29  C   LIG d   1       5.379  -1.418  -7.483  0.00  0.00    -0.004 C 
ATOM     30  H   LIG d   1       6.081  -0.899  -6.831  0.00  0.00     0.084 H 
ATOM     31  H   LIG d   1       5.922  -2.108  -8.128  0.00  0.00     0.084 H 
BRANCH  29  32
ATOM     32  C   LIG d   1       4.375  -2.200  -6.632  0.00  0.00     0.104 C 
ATOM     33  H   LIG d   1       3.552  -1.544  -6.347  0.00  0.00     0.066 H 
BRANCH  32  34
ATOM     34  C   LIG d   1       5.071  -2.721  -5.373  0.00  0.00     0.025 C 
ATOM     35  H   LIG d   1       4.333  -3.164  -4.706  0.00  0.00     0.040 H 
ATOM     36  H   LIG d   1       5.808  -3.475  -5.651  0.00  0.00     0.040 H 
BRANCH  34  37
ATOM     37  S   LIG d   1       5.903  -1.347  -4.529  0.00  0.00    -0.158 SA
BRANCH  37  38
ATOM     38  C   LIG d   1       5.314  -1.462  -2.817  0.00  0.00    -0.006 C 
ATOM     39  H   LIG d   1       5.957  -2.140  -2.257  0.00  0.00     0.038 H 
ATOM     40  H   LIG d   1       5.338  -0.474  -2.357  0.00  0.00     0.038 H 
BRANCH  38  41
ATOM     41  C   LIG d   1       3.879  -1.995  -2.806  0.00  0.00    -0.044 C 
ATOM     42  H   LIG d   1       3.753  -2.717  -3.613  0.00  0.00     0.027 H 
ATOM     43  H   LIG d   1       3.679  -2.479  -1.850  0.00  0.00     0.027 H 
BRANCH  41  44
ATOM     44  C   LIG d   1       2.903  -0.834  -3.004  0.00  0.00    -0.055 C 
ATOM     45  H   LIG d   1       2.740  -0.674  -4.071  0.00  0.00     0.026 H 
ATOM     46  H   LIG d   1       1.955  -1.071  -2.524  0.00  0.00     0.026 H 
BRANCH  44  47
ATOM     47  C   LIG d   1       3.488   0.436  -2.383  0.00  0.00    -0.065 C 
ATOM     48  H   LIG d   1       4.565   0.457  -2.544  0.00  0.00     0.023 H 
ATOM     49  H   LIG d   1       3.032   1.311  -2.847  0.00  0.00     0.023 H 
ATOM     50  H   LIG d   1       3.281   0.444  -1.312  0.00  0.00     0.023 H 
ENDBRANCH  44  47
ENDBRANCH  41  44
ENDBRANCH  38  41
ENDBRANCH  37  38
ENDBRANCH  34  37
ENDBRANCH  32  34
BRANCH  32  51
ATOM     51  O   LIG d   1       3.868  -3.302  -7.386  0.00  0.00    -0.386 OA
ATOM     52  H   LIG d   1       2.916  -3.264  -7.548  0.00  0.00     0.210 HD
ENDBRANCH  32  51
ENDBRANCH  29  32
ENDBRANCH  27  29
TORSDOF 9
ENDMDL
MODEL 9
REMARK VINA RESULT:      -5.4      1.664      2.869
REMARK  9 active torsions:
REMARK  status: ('A' for Active; 'I' for Inactive)
REMARK    1  A    between atoms: C_1  and  C_2 
REMARK    2  A    between atoms: C_2  and  C_3 
REMARK    3  A    between atoms: C_3  and  C_4 
REMARK    4  A    between atoms: C_4  and  S_5 
REMARK    5  A    between atoms: S_5  and  C_6 
REMARK    6  A    between atoms: C_6  and  C_7 
REMARK    7  A    between atoms: C_7  and  C_9 
REMARK    8  A    between atoms: C_7  and  O_25 
REMARK    9  A    between atoms: C_9  and  N_51 
ROOT
ATOM      1  C   LIG d   1       3.416   1.018  -3.320  0.00  0.00    -0.027 C 
ATOM      2  C   LIG d   1       4.460   0.862  -2.222  0.00  0.00     0.018 C 
ATOM      3  H   LIG d   1       4.234   1.575  -1.429  0.00  0.00     0.037 H 
ATOM      4  C   LIG d   1       4.431  -0.548  -1.624  0.00  0.00    -0.031 C 
ATOM      5  C   LIG d   1       4.624  -1.541  -2.776  0.00  0.00     0.040 C 
ATOM      6  H   LIG d   1       4.657  -2.564  -2.398  0.00  0.00     0.042 H 
ATOM      7  C   LIG d   1       3.452  -1.365  -3.757  0.00  0.00    -0.023 C 
ATOM      8  C   LIG d   1       5.896  -1.212  -3.525  0.00  0.00     0.030 A 
ATOM      9  C   LIG d   1       6.527  -2.209  -4.174  0.00  0.00    -0.042 A 
ATOM     10  C   LIG d   1       7.673  -1.955  -4.937  0.00  0.00    -0.055 A 
ATOM     11  C   LIG d   1       8.130  -0.673  -5.030  0.00  0.00     0.003 A 
ATOM     12  C   LIG d   1       7.456   0.344  -4.343  0.00  0.00     0.252 A 
ATOM     13  O   LIG d   1       7.830   1.500  -4.458  0.00  0.00    -0.268 OA
ATOM     14  N   LIG d   1       6.392   0.059  -3.551  0.00  0.00    -0.311 N 
ATOM     15  C   LIG d   1       5.854   1.157  -2.748  0.00  0.00     0.034 C 
ATOM     16  H   LIG d   1       3.519   1.998  -3.788  0.00  0.00     0.082 H 
ATOM     17  H   LIG d   1       2.428   0.942  -2.864  0.00  0.00     0.082 H 
ATOM     18  H   LIG d   1       3.471  -0.725  -1.140  0.00  0.00     0.028 H 
ATOM     19  H   LIG d   1       5.237  -0.661  -0.900  0.00  0.00     0.028 H 
ATOM     20  H   LIG d   1       2.507  -1.464  -3.223  0.00  0.00     0.082 H 
ATOM     21  H   LIG d   1       3.513  -2.118  -4.542  0.00  0.00     0.082 H 
ATOM     22  H   LIG d   1       6.143  -3.215  -4.104  0.00  0.00     0.064 H 
ATOM     23  H   LIG d   1       8.185  -2.761  -5.443  0.00  0.00     0.062 H 
ATOM     24  H   LIG d   1       9.002  -0.447  -5.627  0.00  0.00     0.067 H 
ATOM     25  H   LIG d   1       5.814   2.057  -3.363  0.00  0.00     0.050 H 
ATOM     26  H   LIG d   1       6.519   1.336  -1.905  0.00  0.00     0.050 H 
ATOM     27  N   LIG d   1       3.580  -0.018  -4.358  0.00  0.00     0.238 N 
ATOM     28  H   LIG d   1       4.513   0.073  -4.775  0.00  0.00     0.203 HD
ENDROOT
BRANCH  27  29
ATOM     29  C   LIG d   1       2.562   0.160  -5.415  0.00  0.00    -0.004 C 
ATOM     30  H   LIG d   1       1.911   1.003  -5.181  0.00  0.00     0.084 H 
ATOM     31  H   LIG d   1       1.968  -0.750  -5.489  0.00  0.00     0.084 H 
BRANCH  29  32
ATOM     32  C   LIG d   1       3.269   0.418  -6.748  0.00  0.00     0.104 C 
ATOM     33  H   LIG d   1       3.160   1.467  -7.021  0.00  0.00     0.066 H 
BRANCH  32  34
ATOM     34  C   LIG d   1       2.644  -0.460  -7.834  0.00  0.00     0.025 C 
ATOM     35  H   LIG d   1       1.992  -1.201  -7.372  0.00  0.00     0.040 H 
ATOM     36  H   LIG d   1       2.062   0.163  -8.514  0.00  0.00     0.040 H 
BRANCH  34  37
ATOM     37  S   LIG d   1       3.957  -1.302  -8.761  0.00  0.00    -0.158 SA
BRANCH  37  38
ATOM     38  C   LIG d   1       3.962  -2.985  -8.084  0.00  0.00    -0.006 C 
ATOM     39  H   LIG d   1       3.191  -3.071  -7.319  0.00  0.00     0.038 H 
ATOM     40  H   LIG d   1       3.762  -3.699  -8.884  0.00  0.00     0.038 H 
BRANCH  38  41
ATOM     41  C   LIG d   1       5.330  -3.282  -7.466  0.00  0.00    -0.044 C 
ATOM     42  H   LIG d   1       6.095  -2.702  -7.980  0.00  0.00     0.027 H 
ATOM     43  H   LIG d   1       5.317  -3.011  -6.410  0.00  0.00     0.027 H 
BRANCH  41  44
ATOM     44  C   LIG d   1       5.639  -4.773  -7.607  0.00  0.00    -0.055 C 
ATOM     45  H   LIG d   1       4.829  -5.263  -8.148  0.00  0.00     0.026 H 
ATOM     46  H   LIG d   1       6.572  -4.901  -8.155  0.00  0.00     0.026 H 
BRANCH  44  47
ATOM     47  C   LIG d   1       5.775  -5.399  -6.217  0.00  0.00    -0.065 C 
ATOM     48  H   LIG d   1       5.391  -6.419  -6.238  0.00  0.00     0.023 H 
ATOM     49  H   LIG d   1       6.825  -5.411  -5.924  0.00  0.00     0.023 H 
ATOM     50  H   LIG d   1       5.204  -4.811  -5.497  0.00  0.00     0.023 H 
ENDBRANCH  44  47
ENDBRANCH  41  44
ENDBRANCH  38  41
ENDBRANCH  37  38
ENDBRANCH  34  37
ENDBRANCH  32  34
BRANCH  32  51
ATOM     51  O   LIG d   1       4.657   0.100  -6.620  0.00  0.00    -0.386 OA
ATOM     52  H   LIG d   1       4.830  -0.823  -6.387  0.00  0.00     0.210 HD
ENDBRANCH  32  51
ENDBRANCH  29  32
ENDBRANCH  27  29
TORSDOF 9
ENDMDL
MODEL 10
REMARK VINA RESULT:      -5.2      1.799      2.309
REMARK  9 active torsions:
REMARK  status: ('A' for Active; 'I' for Inactive)
REMARK    1  A    between atoms: C_1  and  C_2 
REMARK    2  A    between atoms: C_2  and  C_3 
REMARK    3  A    between atoms: C_3  and  C_4 
REMARK    4  A    between atoms: C_4  and  S_5 
REMARK    5  A    between atoms: S_5  and  C_6 
REMARK    6  A    between atoms: C_6  and  C_7 
REMARK    7  A    between atoms: C_7  and  C_9 
REMARK    8  A    between atoms: C_7  and  O_25 
REMARK    9  A    between atoms: C_9  and  N_51 
ROOT
ATOM      1  C   LIG d   1       3.227   0.681  -3.591  0.00  0.00    -0.027 C 
ATOM      2  C   LIG d   1       4.088   0.535  -2.343  0.00  0.00     0.018 C 
ATOM      3  H   LIG d   1       3.569   1.008  -1.510  0.00  0.00     0.037 H 
ATOM      4  C   LIG d   1       4.316  -0.939  -1.995  0.00  0.00    -0.031 C 
ATOM      5  C   LIG d   1       4.931  -1.614  -3.226  0.00  0.00     0.040 C 
ATOM      6  H   LIG d   1       5.156  -2.661  -3.016  0.00  0.00     0.042 H 
ATOM      7  C   LIG d   1       3.924  -1.500  -4.383  0.00  0.00    -0.023 C 
ATOM      8  C   LIG d   1       6.183  -0.875  -3.641  0.00  0.00     0.030 A 
ATOM      9  C   LIG d   1       7.138  -1.561  -4.298  0.00  0.00    -0.042 A 
ATOM     10  C   LIG d   1       8.291  -0.919  -4.764  0.00  0.00    -0.055 A 
ATOM     11  C   LIG d   1       8.424   0.423  -4.558  0.00  0.00     0.003 A 
ATOM     12  C   LIG d   1       7.418   1.112  -3.869  0.00  0.00     0.252 A 
ATOM     13  O   LIG d   1       7.506   2.320  -3.721  0.00  0.00    -0.268 OA
ATOM     14  N   LIG d   1       6.346   0.451  -3.364  0.00  0.00    -0.311 N 
ATOM     15  C   LIG d   1       5.431   1.223  -2.523  0.00  0.00     0.034 C 
ATOM     16  H   LIG d   1       3.156   1.734  -3.867  0.00  0.00     0.082 H 
ATOM     17  H   LIG d   1       2.229   0.305  -3.362  0.00  0.00     0.082 H 
ATOM     18  H   LIG d   1       3.366  -1.413  -1.749  0.00  0.00     0.028 H 
ATOM     19  H   LIG d   1       4.999  -1.020  -1.150  0.00  0.00     0.028 H 
ATOM     20  H   LIG d   1       2.960  -1.905  -4.074  0.00  0.00     0.082 H 
ATOM     21  H   LIG d   1       4.294  -2.048  -5.249  0.00  0.00     0.082 H 
ATOM     22  H   LIG d   1       7.009  -2.620  -4.468  0.00  0.00     0.064 H 
ATOM     23  H   LIG d   1       9.061  -1.476  -5.276  0.00  0.00     0.062 H 
ATOM     24  H   LIG d   1       9.296   0.947  -4.923  0.00  0.00     0.067 H 
ATOM     25  H   LIG d   1       5.267   2.198  -2.982  0.00  0.00     0.050 H 
ATOM     26  H   LIG d   1       5.887   1.367  -1.545  0.00  0.00     0.050 H 
ATOM     27  N   LIG d   1       3.806  -0.064  -4.725  0.00  0.00     0.238 N 
ATOM     28  H   LIG d   1       4.742   0.308  -4.925  0.00  0.00     0.203 HD
ENDROOT
BRANCH  27  29
ATOM     29  C   LIG d   1       2.958   0.101  -5.924  0.00  0.00    -0.004 C 
ATOM     30  H   LIG d   1       2.642   1.139  -6.029  0.00  0.00     0.084 H 
ATOM     31  H   LIG d   1       2.081  -0.539  -5.827  0.00  0.00     0.084 H 
BRANCH  29  32
ATOM     32  C   LIG d   1       3.758  -0.316  -7.161  0.00  0.00     0.104 C 
ATOM     33  H   LIG d   1       4.800  -0.476  -6.883  0.00  0.00     0.066 H 
BRANCH  32  34
ATOM     34  C   LIG d   1       3.676   0.788  -8.216  0.00  0.00     0.025 C 
ATOM     35  H   LIG d   1       3.165   0.408  -9.101  0.00  0.00     0.040 H 
ATOM     36  H   LIG d   1       3.122   1.636  -7.813  0.00  0.00     0.040 H 
BRANCH  34  37
ATOM     37  S   LIG d   1       5.351   1.320  -8.666  0.00  0.00    -0.158 SA
BRANCH  37  38
ATOM     38  C   LIG d   1       6.431   0.288  -7.637  0.00  0.00    -0.006 C 
ATOM     39  H   LIG d   1       7.140   0.922  -7.105  0.00  0.00     0.038 H 
ATOM     40  H   LIG d   1       5.827  -0.266  -6.918  0.00  0.00     0.038 H 
BRANCH  38  41
ATOM     41  C   LIG d   1       7.194  -0.696  -8.526  0.00  0.00    -0.044 C 
ATOM     42  H   LIG d   1       7.140  -0.366  -9.564  0.00  0.00     0.027 H 
ATOM     43  H   LIG d   1       8.238  -0.736  -8.212  0.00  0.00     0.027 H 
BRANCH  41  44
ATOM     44  C   LIG d   1       6.571  -2.087  -8.400  0.00  0.00    -0.055 C 
ATOM     45  H   LIG d   1       7.330  -2.797  -8.072  0.00  0.00     0.026 H 
ATOM     46  H   LIG d   1       5.762  -2.058  -7.671  0.00  0.00     0.026 H 
BRANCH  44  47
ATOM     47  C   LIG d   1       6.019  -2.523  -9.759  0.00  0.00    -0.065 C 
ATOM     48  H   LIG d   1       5.832  -1.645 -10.375  0.00  0.00     0.023 H 
ATOM     49  H   LIG d   1       6.743  -3.169 -10.255  0.00  0.00     0.023 H 
ATOM     50  H   LIG d   1       5.086  -3.070  -9.613  0.00  0.00     0.023 H 
ENDBRANCH  44  47
ENDBRANCH  41  44
ENDBRANCH  38  41
ENDBRANCH  37  38
ENDBRANCH  34  37
ENDBRANCH  32  34
BRANCH  32  51
ATOM     51  O   LIG d   1       3.215  -1.526  -7.694  0.00  0.00    -0.386 OA
ATOM     52  H   LIG d   1       2.878  -2.135  -7.023  0.00  0.00     0.210 HD
ENDBRANCH  32  51
ENDBRANCH  29  32
ENDBRANCH  27  29
TORSDOF 9
ENDMDL
