MODEL 1
REMARK VINA RESULT:      -5.5      0.000      0.000
REMARK  9 active torsions:
REMARK  status: ('A' for Active; 'I' for Inactive)
REMARK    1  A    between atoms: C_1  and  N_2 
REMARK    2  A    between atoms: C_5  and  N_8 
REMARK    3  A    between atoms: N_8  and  C_9 
REMARK    4  A    between atoms: C_9  and  C_10 
REMARK    5  A    between atoms: C_12  and  N_22 
REMARK    6  A    between atoms: C_14  and  O_21 
REMARK    7  A    between atoms: C_16  and  C_19 
REMARK    8  A    between atoms: C_19  and  O_20 
REMARK    9  A    between atoms: N_25  and  C_28 
ROOT
ATOM      1  C   LIG d   1       6.872   0.318  -3.279  0.00  0.00     0.090 C 
ATOM      2  H   LIG d   1       7.592   0.465  -2.460  0.00  0.00     0.062 H 
ATOM      3  C   LIG d   1       6.132  -1.037  -3.230  0.00  0.00     0.067 C 
ATOM      4  H   LIG d   1       6.712  -1.848  -2.765  0.00  0.00     0.051 H 
ATOM      5  C   LIG d   1       4.807  -0.714  -2.503  0.00  0.00     0.101 C 
ATOM      6  H   LIG d   1       4.598  -1.345  -1.626  0.00  0.00     0.064 H 
ATOM      7  C   LIG d   1       4.905   0.797  -2.198  0.00  0.00     0.109 C 
ATOM      8  H   LIG d   1       5.283   1.029  -1.192  0.00  0.00     0.065 H 
ATOM      9  O   LIG d   1       5.830   1.312  -3.180  0.00  0.00    -0.366 OA
ENDROOT
BRANCH   1  10
ATOM     10  C   LIG d   1       7.625   0.464  -4.603  0.00  0.00     0.024 C 
ATOM     11  H   LIG d   1       7.133   1.229  -5.222  0.00  0.00     0.045 H 
ATOM     12  H   LIG d   1       7.621  -0.498  -5.136  0.00  0.00     0.045 H 
BRANCH  10  13
ATOM     13  N   LIG d   1       9.012   0.869  -4.335  0.00  0.00    -0.310 N 
ATOM     14  H   LIG d   1       9.607   0.722  -5.248  0.00  0.00     0.122 HD
BRANCH  13  15
ATOM     15  C   LIG d   1       9.078   2.280  -3.930  0.00  0.00     0.017 C 
ATOM     16  C   LIG d   1       9.154   3.167  -5.176  0.00  0.00     0.003 C 
ATOM     17  C   LIG d   1       9.284   4.630  -4.749  0.00  0.00    -0.031 C 
ATOM     18  H   LIG d   1       8.240   3.040  -5.775  0.00  0.00     0.033 H 
ATOM     19  H   LIG d   1      10.030   2.882  -5.778  0.00  0.00     0.033 H 
ATOM     20  N   LIG d   1      10.494   4.797  -3.931  0.00  0.00     0.233 N 
ATOM     21  H   LIG d   1       8.401   4.920  -4.159  0.00  0.00     0.082 H 
ATOM     22  H   LIG d   1       9.353   5.269  -5.642  0.00  0.00     0.082 H 
ATOM     23  C   LIG d   1      10.423   3.991  -2.706  0.00  0.00    -0.031 C 
ATOM     24  H   LIG d   1      11.349   4.435  -4.522  0.00  0.00     0.203 HD
ATOM     25  C   LIG d   1      10.327   2.509  -3.074  0.00  0.00     0.003 C 
ATOM     26  H   LIG d   1      11.327   4.161  -2.103  0.00  0.00     0.082 H 
ATOM     27  H   LIG d   1       9.535   4.283  -2.126  0.00  0.00     0.082 H 
ATOM     28  H   LIG d   1      10.258   1.905  -2.156  0.00  0.00     0.033 H 
ATOM     29  H   LIG d   1      11.221   2.211  -3.642  0.00  0.00     0.033 H 
ATOM     30  H   LIG d   1       8.166   2.495  -3.354  0.00  0.00     0.046 H 
BRANCH  20  31
ATOM     31  C   LIG d   1      10.726   6.213  -3.618  0.00  0.00    -0.043 C 
ATOM     32  H   LIG d   1       9.770   6.693  -3.358  0.00  0.00     0.078 H 
ATOM     33  H   LIG d   1      11.162   6.716  -4.493  0.00  0.00     0.078 H 
ATOM     34  H   LIG d   1      11.418   6.291  -2.766  0.00  0.00     0.078 H 
ENDBRANCH  20  31
ENDBRANCH  13  15
ENDBRANCH  10  13
ENDBRANCH   1  10
BRANCH   3  35
ATOM     35  N   LIG d   1       5.866  -1.529  -4.589  0.00  0.00    -0.284 N 
ATOM     36  C   LIG d   1       5.611  -2.975  -4.585  0.00  0.00     0.040 C 
ATOM     37  C   LIG d   1       5.417  -3.461  -6.024  0.00  0.00    -0.019 C 
ATOM     38  H   LIG d   1       6.468  -3.498  -4.133  0.00  0.00     0.048 H 
ATOM     39  H   LIG d   1       4.703  -3.186  -4.001  0.00  0.00     0.048 H 
ATOM     40  N   LIG d   1       4.297  -2.733  -6.636  0.00  0.00     0.235 N 
ATOM     41  H   LIG d   1       5.198  -4.538  -6.022  0.00  0.00     0.083 H 
ATOM     42  H   LIG d   1       6.335  -3.274  -6.601  0.00  0.00     0.083 H 
ATOM     43  C   LIG d   1       4.552  -1.286  -6.640  0.00  0.00    -0.019 C 
ATOM     44  H   LIG d   1       3.399  -2.918  -6.030  0.00  0.00     0.203 HD
ATOM     45  C   LIG d   1       4.745  -0.801  -5.202  0.00  0.00     0.040 C 
ATOM     46  H   LIG d   1       3.697  -0.763  -7.092  0.00  0.00     0.083 H 
ATOM     47  H   LIG d   1       5.461  -1.074  -7.224  0.00  0.00     0.083 H 
ATOM     48  H   LIG d   1       3.827  -0.987  -4.625  0.00  0.00     0.048 H 
ATOM     49  H   LIG d   1       4.965   0.277  -5.203  0.00  0.00     0.048 H 
BRANCH  40  50
ATOM     50  C   LIG d   1       4.031  -3.223  -7.996  0.00  0.00    -0.043 C 
ATOM     51  H   LIG d   1       3.374  -4.105  -7.945  0.00  0.00     0.078 H 
ATOM     52  H   LIG d   1       4.980  -3.502  -8.478  0.00  0.00     0.078 H 
ATOM     53  H   LIG d   1       3.540  -2.433  -8.582  0.00  0.00     0.078 H 
ENDBRANCH  40  50
ENDBRANCH   3  35
BRANCH   7  54
ATOM     54  C   LIG d   1       3.536   1.462  -2.354  0.00  0.00     0.073 C 
ATOM     55  H   LIG d   1       2.747   0.701  -2.264  0.00  0.00     0.058 H 
ATOM     56  H   LIG d   1       3.405   2.221  -1.567  0.00  0.00     0.058 H 
BRANCH  54  57
ATOM     57  O   LIG d   1       3.453   2.086  -3.636  0.00  0.00    -0.392 OA
ATOM     58  H   LIG d   1       3.381   3.181  -3.712  0.00  0.00     0.209 HD
ENDBRANCH  54  57
ENDBRANCH   7  54
BRANCH   5  59
ATOM     59  O   LIG d   1       3.691  -0.986  -3.351  0.00  0.00    -0.388 OA
ATOM     60  H   LIG d   1       3.271  -0.187  -3.981  0.00  0.00     0.210 HD
ENDBRANCH   5  59
TORSDOF 9
ENDMDL
MODEL 2
REMARK VINA RESULT:      -5.4      1.989      2.698
REMARK  9 active torsions:
REMARK  status: ('A' for Active; 'I' for Inactive)
REMARK    1  A    between atoms: C_1  and  N_2 
REMARK    2  A    between atoms: C_5  and  N_8 
REMARK    3  A    between atoms: N_8  and  C_9 
REMARK    4  A    between atoms: C_9  and  C_10 
REMARK    5  A    between atoms: C_12  and  N_22 
REMARK    6  A    between atoms: C_14  and  O_21 
REMARK    7  A    between atoms: C_16  and  C_19 
REMARK    8  A    between atoms: C_19  and  O_20 
REMARK    9  A    between atoms: N_25  and  C_28 
ROOT
ATOM      1  C   LIG d   1       5.585   0.301  -2.966  0.00  0.00     0.090 C 
ATOM      2  H   LIG d   1       5.544   0.798  -1.986  0.00  0.00     0.062 H 
ATOM      3  C   LIG d   1       5.111  -1.169  -2.947  0.00  0.00     0.067 C 
ATOM      4  H   LIG d   1       5.278  -1.681  -1.988  0.00  0.00     0.051 H 
ATOM      5  C   LIG d   1       3.625  -1.089  -3.366  0.00  0.00     0.101 C 
ATOM      6  H   LIG d   1       2.924  -1.570  -2.668  0.00  0.00     0.064 H 
ATOM      7  C   LIG d   1       3.379   0.420  -3.588  0.00  0.00     0.109 C 
ATOM      8  H   LIG d   1       2.955   0.939  -2.717  0.00  0.00     0.065 H 
ATOM      9  O   LIG d   1       4.684   0.968  -3.875  0.00  0.00    -0.366 OA
ENDROOT
BRANCH   1  10
ATOM     10  C   LIG d   1       7.024   0.388  -3.481  0.00  0.00     0.024 C 
ATOM     11  H   LIG d   1       7.244  -0.491  -4.105  0.00  0.00     0.045 H 
ATOM     12  H   LIG d   1       7.718   0.416  -2.629  0.00  0.00     0.045 H 
BRANCH  10  13
ATOM     13  N   LIG d   1       7.182   1.610  -4.282  0.00  0.00    -0.310 N 
ATOM     14  H   LIG d   1       6.774   2.460  -3.716  0.00  0.00     0.122 HD
BRANCH  13  15
ATOM     15  C   LIG d   1       8.598   1.858  -4.587  0.00  0.00     0.017 C 
ATOM     16  C   LIG d   1       9.279   0.540  -4.967  0.00  0.00     0.003 C 
ATOM     17  C   LIG d   1      10.765   0.794  -5.224  0.00  0.00    -0.031 C 
ATOM     18  H   LIG d   1       8.813   0.134  -5.877  0.00  0.00     0.033 H 
ATOM     19  H   LIG d   1       9.167  -0.183  -4.145  0.00  0.00     0.033 H 
ATOM     20  N   LIG d   1      11.383   1.355  -4.015  0.00  0.00     0.233 N 
ATOM     21  H   LIG d   1      10.878   1.505  -6.056  0.00  0.00     0.082 H 
ATOM     22  H   LIG d   1      11.260  -0.154  -5.483  0.00  0.00     0.082 H 
ATOM     23  C   LIG d   1      10.778   2.644  -3.658  0.00  0.00    -0.031 C 
ATOM     24  H   LIG d   1      11.195   0.655  -3.187  0.00  0.00     0.203 HD
ATOM     25  C   LIG d   1       9.291   2.444  -3.354  0.00  0.00     0.003 C 
ATOM     26  H   LIG d   1      11.282   3.051  -2.769  0.00  0.00     0.082 H 
ATOM     27  H   LIG d   1      10.890   3.346  -4.497  0.00  0.00     0.082 H 
ATOM     28  H   LIG d   1       8.834   3.412  -3.102  0.00  0.00     0.033 H 
ATOM     29  H   LIG d   1       9.178   1.753  -2.505  0.00  0.00     0.033 H 
ATOM     30  H   LIG d   1       8.629   2.568  -5.426  0.00  0.00     0.046 H 
BRANCH  20  31
ATOM     31  C   LIG d   1      12.838   1.483  -4.178  0.00  0.00    -0.043 C 
ATOM     32  H   LIG d   1      13.069   1.724  -5.227  0.00  0.00     0.078 H 
ATOM     33  H   LIG d   1      13.323   0.535  -3.905  0.00  0.00     0.078 H 
ATOM     34  H   LIG d   1      13.210   2.288  -3.527  0.00  0.00     0.078 H 
ENDBRANCH  20  31
ENDBRANCH  13  15
ENDBRANCH  10  13
ENDBRANCH   1  10
BRANCH   3  35
ATOM     35  N   LIG d   1       5.875  -1.970  -3.912  0.00  0.00    -0.284 N 
ATOM     36  C   LIG d   1       7.220  -2.268  -3.401  0.00  0.00     0.040 C 
ATOM     37  C   LIG d   1       8.010  -3.034  -4.466  0.00  0.00    -0.019 C 
ATOM     38  H   LIG d   1       7.740  -1.326  -3.165  0.00  0.00     0.048 H 
ATOM     39  H   LIG d   1       7.140  -2.881  -2.491  0.00  0.00     0.048 H 
ATOM     40  N   LIG d   1       7.294  -4.271  -4.806  0.00  0.00     0.235 N 
ATOM     41  H   LIG d   1       9.008  -3.283  -4.075  0.00  0.00     0.083 H 
ATOM     42  H   LIG d   1       8.113  -2.410  -5.366  0.00  0.00     0.083 H 
ATOM     43  C   LIG d   1       5.948  -3.974  -5.317  0.00  0.00    -0.019 C 
ATOM     44  H   LIG d   1       7.185  -4.865  -3.887  0.00  0.00     0.203 HD
ATOM     45  C   LIG d   1       5.159  -3.208  -4.253  0.00  0.00     0.040 C 
ATOM     46  H   LIG d   1       5.429  -4.914  -5.554  0.00  0.00     0.083 H 
ATOM     47  H   LIG d   1       6.028  -3.360  -6.227  0.00  0.00     0.083 H 
ATOM     48  H   LIG d   1       5.055  -3.832  -3.353  0.00  0.00     0.048 H 
ATOM     49  H   LIG d   1       4.161  -2.958  -4.643  0.00  0.00     0.048 H 
BRANCH  40  50
ATOM     50  C   LIG d   1       8.058  -5.073  -5.772  0.00  0.00    -0.043 C 
ATOM     51  H   LIG d   1       8.002  -4.600  -6.765  0.00  0.00     0.078 H 
ATOM     52  H   LIG d   1       7.634  -6.086  -5.825  0.00  0.00     0.078 H 
ATOM     53  H   LIG d   1       9.108  -5.130  -5.452  0.00  0.00     0.078 H 
ENDBRANCH  40  50
ENDBRANCH   3  35
BRANCH   7  54
ATOM     54  C   LIG d   1       2.436   0.636  -4.773  0.00  0.00     0.073 C 
ATOM     55  H   LIG d   1       1.732  -0.206  -4.841  0.00  0.00     0.058 H 
ATOM     56  H   LIG d   1       1.875   1.572  -4.629  0.00  0.00     0.058 H 
BRANCH  54  57
ATOM     57  O   LIG d   1       3.198   0.719  -5.979  0.00  0.00    -0.392 OA
ATOM     58  H   LIG d   1       2.757   1.176  -6.878  0.00  0.00     0.209 HD
ENDBRANCH  54  57
ENDBRANCH   7  54
BRANCH   5  59
ATOM     59  O   LIG d   1       3.406  -1.819  -4.574  0.00  0.00    -0.388 OA
ATOM     60  H   LIG d   1       3.962  -2.749  -4.764  0.00  0.00     0.210 HD
ENDBRANCH   5  59
TORSDOF 9
ENDMDL
MODEL 3
REMARK VINA RESULT:      -5.4      0.779      1.260
REMARK  9 active torsions:
REMARK  status: ('A' for Active; 'I' for Inactive)
REMARK    1  A    between atoms: C_1  and  N_2 
REMARK    2  A    between atoms: C_5  and  N_8 
REMARK    3  A    between atoms: N_8  and  C_9 
REMARK    4  A    between atoms: C_9  and  C_10 
REMARK    5  A    between atoms: C_12  and  N_22 
REMARK    6  A    between atoms: C_14  and  O_21 
REMARK    7  A    between atoms: C_16  and  C_19 
REMARK    8  A    between atoms: C_19  and  O_20 
REMARK    9  A    between atoms: N_25  and  C_28 
ROOT
ATOM      1  C   LIG d   1       6.816   0.084  -3.419  0.00  0.00     0.090 C 
ATOM      2  H   LIG d   1       7.548   0.076  -2.597  0.00  0.00     0.062 H 
ATOM      3  C   LIG d   1       5.960  -1.198  -3.513  0.00  0.00     0.067 C 
ATOM      4  H   LIG d   1       6.467  -2.102  -3.147  0.00  0.00     0.051 H 
ATOM      5  C   LIG d   1       4.670  -0.844  -2.738  0.00  0.00     0.101 C 
ATOM      6  H   LIG d   1       4.407  -1.548  -1.935  0.00  0.00     0.064 H 
ATOM      7  C   LIG d   1       4.901   0.610  -2.268  0.00  0.00     0.109 C 
ATOM      8  H   LIG d   1       5.300   0.693  -1.247  0.00  0.00     0.065 H 
ATOM      9  O   LIG d   1       5.866   1.148  -3.197  0.00  0.00    -0.366 OA
ENDROOT
BRANCH   1  10
ATOM     10  C   LIG d   1       7.577   0.312  -4.727  0.00  0.00     0.024 C 
ATOM     11  H   LIG d   1       7.289   1.284  -5.154  0.00  0.00     0.045 H 
ATOM     12  H   LIG d   1       7.330  -0.489  -5.439  0.00  0.00     0.045 H 
BRANCH  10  13
ATOM     13  N   LIG d   1       9.022   0.303  -4.461  0.00  0.00    -0.310 N 
ATOM     14  H   LIG d   1       9.500  -0.430  -5.127  0.00  0.00     0.122 HD
BRANCH  13  15
ATOM     15  C   LIG d   1       9.607   1.631  -4.692  0.00  0.00     0.017 C 
ATOM     16  C   LIG d   1       9.427   2.495  -3.440  0.00  0.00     0.003 C 
ATOM     17  C   LIG d   1       9.983   3.894  -3.706  0.00  0.00    -0.031 C 
ATOM     18  H   LIG d   1       9.967   2.039  -2.597  0.00  0.00     0.033 H 
ATOM     19  H   LIG d   1       8.357   2.567  -3.194  0.00  0.00     0.033 H 
ATOM     20  N   LIG d   1       9.275   4.495  -4.846  0.00  0.00     0.233 N 
ATOM     21  H   LIG d   1      11.057   3.824  -3.938  0.00  0.00     0.082 H 
ATOM     22  H   LIG d   1       9.842   4.522  -2.814  0.00  0.00     0.082 H 
ATOM     23  C   LIG d   1       9.474   3.708  -6.069  0.00  0.00    -0.031 C 
ATOM     24  H   LIG d   1       8.200   4.488  -4.613  0.00  0.00     0.203 HD
ATOM     25  C   LIG d   1       8.901   2.303  -5.873  0.00  0.00     0.003 C 
ATOM     26  H   LIG d   1       8.959   4.200  -6.908  0.00  0.00     0.082 H 
ATOM     27  H   LIG d   1      10.549   3.639  -6.290  0.00  0.00     0.082 H 
ATOM     28  H   LIG d   1       9.064   1.708  -6.784  0.00  0.00     0.033 H 
ATOM     29  H   LIG d   1       7.823   2.370  -5.666  0.00  0.00     0.033 H 
ATOM     30  H   LIG d   1      10.675   1.480  -4.910  0.00  0.00     0.046 H 
BRANCH  20  31
ATOM     31  C   LIG d   1       9.687   5.891  -5.045  0.00  0.00    -0.043 C 
ATOM     32  H   LIG d   1       9.499   6.184  -6.089  0.00  0.00     0.078 H 
ATOM     33  H   LIG d   1      10.760   5.992  -4.824  0.00  0.00     0.078 H 
ATOM     34  H   LIG d   1       9.110   6.543  -4.372  0.00  0.00     0.078 H 
ENDBRANCH  20  31
ENDBRANCH  13  15
ENDBRANCH  10  13
ENDBRANCH   1  10
BRANCH   3  35
ATOM     35  N   LIG d   1       5.649  -1.509  -4.914  0.00  0.00    -0.284 N 
ATOM     36  C   LIG d   1       5.272  -2.920  -5.069  0.00  0.00     0.040 C 
ATOM     37  C   LIG d   1       5.033  -3.222  -6.551  0.00  0.00    -0.019 C 
ATOM     38  H   LIG d   1       6.082  -3.561  -4.689  0.00  0.00     0.048 H 
ATOM     39  H   LIG d   1       4.351  -3.118  -4.501  0.00  0.00     0.048 H 
ATOM     40  N   LIG d   1       3.978  -2.338  -7.064  0.00  0.00     0.235 N 
ATOM     41  H   LIG d   1       4.723  -4.271  -6.667  0.00  0.00     0.083 H 
ATOM     42  H   LIG d   1       5.962  -3.050  -7.115  0.00  0.00     0.083 H 
ATOM     43  C   LIG d   1       4.355  -0.926  -6.909  0.00  0.00    -0.019 C 
ATOM     44  H   LIG d   1       3.069  -2.514  -6.471  0.00  0.00     0.203 HD
ATOM     45  C   LIG d   1       4.593  -0.625  -5.428  0.00  0.00     0.040 C 
ATOM     46  H   LIG d   1       3.546  -0.286  -7.289  0.00  0.00     0.083 H 
ATOM     47  H   LIG d   1       5.277  -0.727  -7.476  0.00  0.00     0.083 H 
ATOM     48  H   LIG d   1       3.664  -0.797  -4.864  0.00  0.00     0.048 H 
ATOM     49  H   LIG d   1       4.904   0.424  -5.311  0.00  0.00     0.048 H 
BRANCH  40  50
ATOM     50  C   LIG d   1       3.667  -2.648  -8.467  0.00  0.00    -0.043 C 
ATOM     51  H   LIG d   1       4.569  -2.508  -9.081  0.00  0.00     0.078 H 
ATOM     52  H   LIG d   1       2.873  -1.977  -8.824  0.00  0.00     0.078 H 
ATOM     53  H   LIG d   1       3.329  -3.691  -8.545  0.00  0.00     0.078 H 
ENDBRANCH  40  50
ENDBRANCH   3  35
BRANCH   7  54
ATOM     54  C   LIG d   1       3.595   1.404  -2.333  0.00  0.00     0.073 C 
ATOM     55  H   LIG d   1       2.742   0.710  -2.310  0.00  0.00     0.058 H 
ATOM     56  H   LIG d   1       3.537   2.085  -1.470  0.00  0.00     0.058 H 
BRANCH  54  57
ATOM     57  O   LIG d   1       3.559   2.163  -3.543  0.00  0.00    -0.392 OA
ATOM     58  H   LIG d   1       3.998   1.751  -4.464  0.00  0.00     0.209 HD
ENDBRANCH  54  57
ENDBRANCH   7  54
BRANCH   5  59
ATOM     59  O   LIG d   1       3.532  -0.920  -3.598  0.00  0.00    -0.388 OA
ATOM     60  H   LIG d   1       3.247  -0.053  -4.212  0.00  0.00     0.210 HD
ENDBRANCH   5  59
TORSDOF 9
ENDMDL
MODEL 4
REMARK VINA RESULT:      -5.4      4.261      6.523
REMARK  9 active torsions:
REMARK  status: ('A' for Active; 'I' for Inactive)
REMARK    1  A    between atoms: C_1  and  N_2 
REMARK    2  A    between atoms: C_5  and  N_8 
REMARK    3  A    between atoms: N_8  and  C_9 
REMARK    4  A    between atoms: C_9  and  C_10 
REMARK    5  A    between atoms: C_12  and  N_22 
REMARK    6  A    between atoms: C_14  and  O_21 
REMARK    7  A    between atoms: C_16  and  C_19 
REMARK    8  A    between atoms: C_19  and  O_20 
REMARK    9  A    between atoms: N_25  and  C_28 
ROOT
ATOM      1  C   LIG d   1       5.413  -0.365  -6.076  0.00  0.00     0.090 C 
ATOM      2  H   LIG d   1       6.312   0.228  -5.849  0.00  0.00     0.062 H 
ATOM      3  C   LIG d   1       5.530  -1.857  -5.693  0.00  0.00     0.067 C 
ATOM      4  H   LIG d   1       6.556  -2.250  -5.735  0.00  0.00     0.051 H 
ATOM      5  C   LIG d   1       4.885  -1.935  -4.290  0.00  0.00     0.101 C 
ATOM      6  H   LIG d   1       5.519  -2.392  -3.517  0.00  0.00     0.064 H 
ATOM      7  C   LIG d   1       4.455  -0.481  -3.993  0.00  0.00     0.109 C 
ATOM      8  H   LIG d   1       5.187   0.092  -3.406  0.00  0.00     0.065 H 
ATOM      9  O   LIG d   1       4.307   0.132  -5.292  0.00  0.00    -0.366 OA
ENDROOT
BRANCH   1  10
ATOM     10  C   LIG d   1       5.115  -0.222  -7.570  0.00  0.00     0.024 C 
ATOM     11  H   LIG d   1       4.621  -1.135  -7.934  0.00  0.00     0.045 H 
ATOM     12  H   LIG d   1       6.055  -0.069  -8.119  0.00  0.00     0.045 H 
BRANCH  10  13
ATOM     13  N   LIG d   1       4.231   0.932  -7.783  0.00  0.00    -0.310 N 
ATOM     14  H   LIG d   1       4.849   1.820  -7.982  0.00  0.00     0.122 HD
BRANCH  13  15
ATOM     15  C   LIG d   1       3.328   0.700  -8.919  0.00  0.00     0.017 C 
ATOM     16  C   LIG d   1       2.396  -0.474  -8.600  0.00  0.00     0.003 C 
ATOM     17  C   LIG d   1       1.500  -0.751  -9.809  0.00  0.00    -0.031 C 
ATOM     18  H   LIG d   1       1.772  -0.222  -7.730  0.00  0.00     0.033 H 
ATOM     19  H   LIG d   1       2.995  -1.369  -8.376  0.00  0.00     0.033 H 
ATOM     20  N   LIG d   1       2.335  -1.066 -10.977  0.00  0.00     0.233 N 
ATOM     21  H   LIG d   1       0.890   0.139 -10.025  0.00  0.00     0.082 H 
ATOM     22  H   LIG d   1       0.839  -1.603  -9.589  0.00  0.00     0.082 H 
ATOM     23  C   LIG d   1       3.203   0.063 -11.330  0.00  0.00    -0.031 C 
ATOM     24  H   LIG d   1       2.981  -1.915 -10.707  0.00  0.00     0.203 HD
ATOM     25  C   LIG d   1       4.151   0.364 -10.166  0.00  0.00     0.003 C 
ATOM     26  H   LIG d   1       3.791  -0.192 -12.224  0.00  0.00     0.082 H 
ATOM     27  H   LIG d   1       2.586   0.949 -11.539  0.00  0.00     0.082 H 
ATOM     28  H   LIG d   1       4.791   1.220 -10.424  0.00  0.00     0.033 H 
ATOM     29  H   LIG d   1       4.779  -0.517  -9.965  0.00  0.00     0.033 H 
ATOM     30  H   LIG d   1       2.752   1.624  -9.069  0.00  0.00     0.046 H 
BRANCH  20  31
ATOM     31  C   LIG d   1       1.507  -1.472 -12.121  0.00  0.00    -0.043 C 
ATOM     32  H   LIG d   1       0.854  -0.637 -12.416  0.00  0.00     0.078 H 
ATOM     33  H   LIG d   1       0.890  -2.338 -11.838  0.00  0.00     0.078 H 
ATOM     34  H   LIG d   1       2.158  -1.744 -12.965  0.00  0.00     0.078 H 
ENDBRANCH  20  31
ENDBRANCH  13  15
ENDBRANCH  10  13
ENDBRANCH   1  10
BRANCH   3  35
ATOM     35  N   LIG d   1       4.791  -2.693  -6.647  0.00  0.00    -0.284 N 
ATOM     36  C   LIG d   1       5.432  -2.677  -7.968  0.00  0.00     0.040 C 
ATOM     37  C   LIG d   1       4.591  -3.495  -8.951  0.00  0.00    -0.019 C 
ATOM     38  H   LIG d   1       5.510  -1.639  -8.326  0.00  0.00     0.048 H 
ATOM     39  H   LIG d   1       6.439  -3.116  -7.893  0.00  0.00     0.048 H 
ATOM     40  N   LIG d   1       4.457  -4.870  -8.451  0.00  0.00     0.235 N 
ATOM     41  H   LIG d   1       5.083  -3.508  -9.935  0.00  0.00     0.083 H 
ATOM     42  H   LIG d   1       3.593  -3.041  -9.047  0.00  0.00     0.083 H 
ATOM     43  C   LIG d   1       3.816  -4.887  -7.129  0.00  0.00    -0.019 C 
ATOM     44  H   LIG d   1       5.466  -5.293  -8.345  0.00  0.00     0.203 HD
ATOM     45  C   LIG d   1       4.657  -4.070  -6.147  0.00  0.00     0.040 C 
ATOM     46  H   LIG d   1       3.737  -5.923  -6.771  0.00  0.00     0.083 H 
ATOM     47  H   LIG d   1       2.809  -4.447  -7.203  0.00  0.00     0.083 H 
ATOM     48  H   LIG d   1       5.654  -4.524  -6.051  0.00  0.00     0.048 H 
ATOM     49  H   LIG d   1       4.165  -4.055  -5.163  0.00  0.00     0.048 H 
BRANCH  40  50
ATOM     50  C   LIG d   1       3.716  -5.708  -9.405  0.00  0.00    -0.043 C 
ATOM     51  H   LIG d   1       3.239  -5.066 -10.161  0.00  0.00     0.078 H 
ATOM     52  H   LIG d   1       2.945  -6.279  -8.870  0.00  0.00     0.078 H 
ATOM     53  H   LIG d   1       4.411  -6.402  -9.899  0.00  0.00     0.078 H 
ENDBRANCH  40  50
ENDBRANCH   3  35
BRANCH   7  54
ATOM     54  C   LIG d   1       3.124  -0.463  -3.239  0.00  0.00     0.073 C 
ATOM     55  H   LIG d   1       3.088  -1.310  -2.538  0.00  0.00     0.058 H 
ATOM     56  H   LIG d   1       3.032   0.480  -2.680  0.00  0.00     0.058 H 
BRANCH  54  57
ATOM     57  O   LIG d   1       2.047  -0.571  -4.172  0.00  0.00    -0.392 OA
ATOM     58  H   LIG d   1       2.179  -0.222  -5.207  0.00  0.00     0.209 HD
ENDBRANCH  54  57
ENDBRANCH   7  54
BRANCH   5  59
ATOM     59  O   LIG d   1       3.750  -2.802  -4.310  0.00  0.00    -0.388 OA
ATOM     60  H   LIG d   1       3.197  -3.007  -3.380  0.00  0.00     0.210 HD
ENDBRANCH   5  59
TORSDOF 9
ENDMDL
MODEL 5
REMARK VINA RESULT:      -5.3      3.540      5.473
REMARK  9 active torsions:
REMARK  status: ('A' for Active; 'I' for Inactive)
REMARK    1  A    between atoms: C_1  and  N_2 
REMARK    2  A    between atoms: C_5  and  N_8 
REMARK    3  A    between atoms: N_8  and  C_9 
REMARK    4  A    between atoms: C_9  and  C_10 
REMARK    5  A    between atoms: C_12  and  N_22 
REMARK    6  A    between atoms: C_14  and  O_21 
REMARK    7  A    between atoms: C_16  and  C_19 
REMARK    8  A    between atoms: C_19  and  O_20 
REMARK    9  A    between atoms: N_25  and  C_28 
ROOT
ATOM      1  C   LIG d   1       6.391  -1.573  -3.263  0.00  0.00     0.090 C 
ATOM      2  H   LIG d   1       6.880  -2.000  -2.374  0.00  0.00     0.062 H 
ATOM      3  C   LIG d   1       5.176  -2.384  -3.765  0.00  0.00     0.067 C 
ATOM      4  H   LIG d   1       5.239  -3.462  -3.553  0.00  0.00     0.051 H 
ATOM      5  C   LIG d   1       3.963  -1.685  -3.110  0.00  0.00     0.101 C 
ATOM      6  H   LIG d   1       3.304  -2.351  -2.534  0.00  0.00     0.064 H 
ATOM      7  C   LIG d   1       4.590  -0.535  -2.291  0.00  0.00     0.109 C 
ATOM      8  H   LIG d   1       4.766  -0.781  -1.233  0.00  0.00     0.065 H 
ATOM      9  O   LIG d   1       5.857  -0.273  -2.932  0.00  0.00    -0.366 OA
ENDROOT
BRANCH   1  10
ATOM     10  C   LIG d   1       7.442  -1.451  -4.369  0.00  0.00     0.024 C 
ATOM     11  H   LIG d   1       7.630  -0.389  -4.581  0.00  0.00     0.045 H 
ATOM     12  H   LIG d   1       7.076  -1.948  -5.280  0.00  0.00     0.045 H 
BRANCH  10  13
ATOM     13  N   LIG d   1       8.690  -2.092  -3.930  0.00  0.00    -0.310 N 
ATOM     14  H   LIG d   1       9.006  -1.637  -2.981  0.00  0.00     0.122 HD
BRANCH  13  15
ATOM     15  C   LIG d   1       8.501  -3.537  -3.742  0.00  0.00     0.017 C 
ATOM     16  C   LIG d   1       9.742  -4.132  -3.069  0.00  0.00     0.003 C 
ATOM     17  C   LIG d   1       9.566  -5.645  -2.930  0.00  0.00    -0.031 C 
ATOM     18  H   LIG d   1       9.871  -3.684  -2.073  0.00  0.00     0.033 H 
ATOM     19  H   LIG d   1      10.630  -3.921  -3.684  0.00  0.00     0.033 H 
ATOM     20  N   LIG d   1       9.373  -6.241  -4.260  0.00  0.00     0.233 N 
ATOM     21  H   LIG d   1       8.686  -5.856  -2.304  0.00  0.00     0.082 H 
ATOM     22  H   LIG d   1      10.462  -6.078  -2.461  0.00  0.00     0.082 H 
ATOM     23  C   LIG d   1       8.161  -5.719  -4.905  0.00  0.00    -0.031 C 
ATOM     24  H   LIG d   1      10.234  -5.955  -4.883  0.00  0.00     0.203 HD
ATOM     25  C   LIG d   1       8.297  -4.208  -5.103  0.00  0.00     0.003 C 
ATOM     26  H   LIG d   1       8.029  -6.206  -5.882  0.00  0.00     0.082 H 
ATOM     27  H   LIG d   1       7.288  -5.930  -4.270  0.00  0.00     0.082 H 
ATOM     28  H   LIG d   1       7.382  -3.815  -5.572  0.00  0.00     0.033 H 
ATOM     29  H   LIG d   1       9.161  -3.997  -5.750  0.00  0.00     0.033 H 
ATOM     30  H   LIG d   1       7.613  -3.667  -3.106  0.00  0.00     0.046 H 
BRANCH  20  31
ATOM     31  C   LIG d   1       9.338  -7.707  -4.180  0.00  0.00    -0.043 C 
ATOM     32  H   LIG d   1       9.817  -8.135  -5.074  0.00  0.00     0.078 H 
ATOM     33  H   LIG d   1       8.294  -8.047  -4.127  0.00  0.00     0.078 H 
ATOM     34  H   LIG d   1       9.879  -8.038  -3.281  0.00  0.00     0.078 H 
ENDBRANCH  20  31
ENDBRANCH  13  15
ENDBRANCH  10  13
ENDBRANCH   1  10
BRANCH   3  35
ATOM     35  N   LIG d   1       5.080  -2.317  -5.229  0.00  0.00    -0.284 N 
ATOM     36  C   LIG d   1       4.496  -3.549  -5.775  0.00  0.00     0.040 C 
ATOM     37  C   LIG d   1       4.487  -3.471  -7.305  0.00  0.00    -0.019 C 
ATOM     38  H   LIG d   1       5.097  -4.414  -5.455  0.00  0.00     0.048 H 
ATOM     39  H   LIG d   1       3.466  -3.662  -5.407  0.00  0.00     0.048 H 
ATOM     40  N   LIG d   1       3.716  -2.294  -7.728  0.00  0.00     0.235 N 
ATOM     41  H   LIG d   1       4.024  -4.381  -7.716  0.00  0.00     0.083 H 
ATOM     42  H   LIG d   1       5.519  -3.386  -7.675  0.00  0.00     0.083 H 
ATOM     43  C   LIG d   1       4.299  -1.061  -7.180  0.00  0.00    -0.019 C 
ATOM     44  H   LIG d   1       2.696  -2.394  -7.328  0.00  0.00     0.203 HD
ATOM     45  C   LIG d   1       4.309  -1.139  -5.653  0.00  0.00     0.040 C 
ATOM     46  H   LIG d   1       3.700  -0.197  -7.501  0.00  0.00     0.083 H 
ATOM     47  H   LIG d   1       5.331  -0.948  -7.548  0.00  0.00     0.083 H 
ATOM     48  H   LIG d   1       3.276  -1.224  -5.283  0.00  0.00     0.048 H 
ATOM     49  H   LIG d   1       4.772  -0.230  -5.240  0.00  0.00     0.048 H 
BRANCH  40  50
ATOM     50  C   LIG d   1       3.620  -2.226  -9.192  0.00  0.00    -0.043 C 
ATOM     51  H   LIG d   1       4.557  -1.818  -9.602  0.00  0.00     0.078 H 
ATOM     52  H   LIG d   1       2.782  -1.572  -9.475  0.00  0.00     0.078 H 
ATOM     53  H   LIG d   1       3.452  -3.234  -9.596  0.00  0.00     0.078 H 
ENDBRANCH  40  50
ENDBRANCH   3  35
BRANCH   7  54
ATOM     54  C   LIG d   1       3.697   0.706  -2.345  0.00  0.00     0.073 C 
ATOM     55  H   LIG d   1       2.661   0.404  -2.558  0.00  0.00     0.058 H 
ATOM     56  H   LIG d   1       3.735   1.228  -1.377  0.00  0.00     0.058 H 
BRANCH  54  57
ATOM     57  O   LIG d   1       4.159   1.580  -3.377  0.00  0.00    -0.392 OA
ATOM     58  H   LIG d   1       4.170   1.239  -4.423  0.00  0.00     0.209 HD
ENDBRANCH  54  57
ENDBRANCH   7  54
BRANCH   5  59
ATOM     59  O   LIG d   1       3.083  -1.169  -4.110  0.00  0.00    -0.388 OA
ATOM     60  H   LIG d   1       2.884  -1.752  -5.022  0.00  0.00     0.210 HD
ENDBRANCH   5  59
TORSDOF 9
ENDMDL
MODEL 6
REMARK VINA RESULT:      -5.3      1.953      2.474
REMARK  9 active torsions:
REMARK  status: ('A' for Active; 'I' for Inactive)
REMARK    1  A    between atoms: C_1  and  N_2 
REMARK    2  A    between atoms: C_5  and  N_8 
REMARK    3  A    between atoms: N_8  and  C_9 
REMARK    4  A    between atoms: C_9  and  C_10 
REMARK    5  A    between atoms: C_12  and  N_22 
REMARK    6  A    between atoms: C_14  and  O_21 
REMARK    7  A    between atoms: C_16  and  C_19 
REMARK    8  A    between atoms: C_19  and  O_20 
REMARK    9  A    between atoms: N_25  and  C_28 
ROOT
ATOM      1  C   LIG d   1       6.418  -1.074  -3.147  0.00  0.00     0.090 C 
ATOM      2  H   LIG d   1       6.968  -1.388  -2.247  0.00  0.00     0.062 H 
ATOM      3  C   LIG d   1       5.307  -2.056  -3.581  0.00  0.00     0.067 C 
ATOM      4  H   LIG d   1       5.507  -3.104  -3.315  0.00  0.00     0.051 H 
ATOM      5  C   LIG d   1       4.025  -1.479  -2.940  0.00  0.00     0.101 C 
ATOM      6  H   LIG d   1       3.462  -2.189  -2.316  0.00  0.00     0.064 H 
ATOM      7  C   LIG d   1       4.513  -0.217  -2.194  0.00  0.00     0.109 C 
ATOM      8  H   LIG d   1       4.734  -0.381  -1.129  0.00  0.00     0.065 H 
ATOM      9  O   LIG d   1       5.729   0.165  -2.874  0.00  0.00    -0.366 OA
ENDROOT
BRANCH   1  10
ATOM     10  C   LIG d   1       7.430  -0.883  -4.279  0.00  0.00     0.024 C 
ATOM     11  H   LIG d   1       6.896  -0.786  -5.236  0.00  0.00     0.045 H 
ATOM     12  H   LIG d   1       8.102  -1.753  -4.321  0.00  0.00     0.045 H 
BRANCH  10  13
ATOM     13  N   LIG d   1       8.216   0.333  -4.031  0.00  0.00    -0.310 N 
ATOM     14  H   LIG d   1       9.273   0.053  -3.912  0.00  0.00     0.122 HD
BRANCH  13  15
ATOM     15  C   LIG d   1       8.083   1.281  -5.145  0.00  0.00     0.017 C 
ATOM     16  C   LIG d   1       7.648   0.530  -6.407  0.00  0.00     0.003 C 
ATOM     17  C   LIG d   1       7.569   1.511  -7.578  0.00  0.00    -0.031 C 
ATOM     18  H   LIG d   1       6.660   0.075  -6.242  0.00  0.00     0.033 H 
ATOM     19  H   LIG d   1       8.380  -0.258  -6.638  0.00  0.00     0.033 H 
ATOM     20  N   LIG d   1       8.884   2.134  -7.785  0.00  0.00     0.233 N 
ATOM     21  H   LIG d   1       6.826   2.291  -7.355  0.00  0.00     0.082 H 
ATOM     22  H   LIG d   1       7.271   0.972  -8.490  0.00  0.00     0.082 H 
ATOM     23  C   LIG d   1       9.302   2.899  -6.604  0.00  0.00    -0.031 C 
ATOM     24  H   LIG d   1       9.617   1.327  -7.938  0.00  0.00     0.203 HD
ATOM     25  C   LIG d   1       9.432   1.959  -5.404  0.00  0.00     0.003 C 
ATOM     26  H   LIG d   1      10.272   3.377  -6.802  0.00  0.00     0.082 H 
ATOM     27  H   LIG d   1       8.551   3.673  -6.385  0.00  0.00     0.082 H 
ATOM     28  H   LIG d   1       9.729   2.535  -4.515  0.00  0.00     0.033 H 
ATOM     29  H   LIG d   1      10.193   1.193  -5.617  0.00  0.00     0.033 H 
ATOM     30  H   LIG d   1       7.325   2.021  -4.852  0.00  0.00     0.046 H 
BRANCH  20  31
ATOM     31  C   LIG d   1       8.884   2.978  -8.988  0.00  0.00    -0.043 C 
ATOM     32  H   LIG d   1       8.225   3.846  -8.826  0.00  0.00     0.078 H 
ATOM     33  H   LIG d   1       8.517   2.396  -9.845  0.00  0.00     0.078 H 
ATOM     34  H   LIG d   1       9.906   3.329  -9.190  0.00  0.00     0.078 H 
ENDBRANCH  20  31
ENDBRANCH  13  15
ENDBRANCH  10  13
ENDBRANCH   1  10
BRANCH   3  35
ATOM     35  N   LIG d   1       5.184  -2.081  -5.044  0.00  0.00    -0.284 N 
ATOM     36  C   LIG d   1       4.679  -3.380  -5.508  0.00  0.00     0.040 C 
ATOM     37  C   LIG d   1       4.640  -3.393  -7.039  0.00  0.00    -0.019 C 
ATOM     38  H   LIG d   1       5.343  -4.181  -5.151  0.00  0.00     0.048 H 
ATOM     39  H   LIG d   1       3.665  -3.542  -5.114  0.00  0.00     0.048 H 
ATOM     40  N   LIG d   1       3.782  -2.298  -7.513  0.00  0.00     0.235 N 
ATOM     41  H   LIG d   1       4.235  -4.354  -7.389  0.00  0.00     0.083 H 
ATOM     42  H   LIG d   1       5.658  -3.258  -7.433  0.00  0.00     0.083 H 
ATOM     43  C   LIG d   1       4.286  -0.998  -7.048  0.00  0.00    -0.019 C 
ATOM     44  H   LIG d   1       2.778  -2.444  -7.088  0.00  0.00     0.203 HD
ATOM     45  C   LIG d   1       4.325  -0.986  -5.519  0.00  0.00     0.040 C 
ATOM     46  H   LIG d   1       3.623  -0.197  -7.406  0.00  0.00     0.083 H 
ATOM     47  H   LIG d   1       5.302  -0.836  -7.442  0.00  0.00     0.083 H 
ATOM     48  H   LIG d   1       3.307  -1.120  -5.125  0.00  0.00     0.048 H 
ATOM     49  H   LIG d   1       4.730  -0.025  -5.169  0.00  0.00     0.048 H 
BRANCH  40  50
ATOM     50  C   LIG d   1       3.659  -2.322  -8.977  0.00  0.00    -0.043 C 
ATOM     51  H   LIG d   1       3.279  -3.304  -9.297  0.00  0.00     0.078 H 
ATOM     52  H   LIG d   1       4.645  -2.145  -9.431  0.00  0.00     0.078 H 
ATOM     53  H   LIG d   1       2.960  -1.536  -9.299  0.00  0.00     0.078 H 
ENDBRANCH  40  50
ENDBRANCH   3  35
BRANCH   7  54
ATOM     54  C   LIG d   1       3.471   0.898  -2.295  0.00  0.00     0.073 C 
ATOM     55  H   LIG d   1       2.482   0.460  -2.490  0.00  0.00     0.058 H 
ATOM     56  H   LIG d   1       3.444   1.461  -1.350  0.00  0.00     0.058 H 
BRANCH  54  57
ATOM     57  O   LIG d   1       3.821   1.780  -3.364  0.00  0.00    -0.392 OA
ATOM     58  H   LIG d   1       3.170   2.633  -3.609  0.00  0.00     0.209 HD
ENDBRANCH  54  57
ENDBRANCH   7  54
BRANCH   5  59
ATOM     59  O   LIG d   1       3.073  -1.132  -3.947  0.00  0.00    -0.388 OA
ATOM     60  H   LIG d   1       3.272  -1.379  -5.000  0.00  0.00     0.210 HD
ENDBRANCH   5  59
TORSDOF 9
ENDMDL
MODEL 7
REMARK VINA RESULT:      -5.2      5.621      8.988
REMARK  9 active torsions:
REMARK  status: ('A' for Active; 'I' for Inactive)
REMARK    1  A    between atoms: C_1  and  N_2 
REMARK    2  A    between atoms: C_5  and  N_8 
REMARK    3  A    between atoms: N_8  and  C_9 
REMARK    4  A    between atoms: C_9  and  C_10 
REMARK    5  A    between atoms: C_12  and  N_22 
REMARK    6  A    between atoms: C_14  and  O_21 
REMARK    7  A    between atoms: C_16  and  C_19 
REMARK    8  A    between atoms: C_19  and  O_20 
REMARK    9  A    between atoms: N_25  and  C_28 
ROOT
ATOM      1  C   LIG d   1      10.683   7.555  -1.080  0.00  0.00     0.090 C 
ATOM      2  H   LIG d   1      11.286   8.474  -1.020  0.00  0.00     0.062 H 
ATOM      3  C   LIG d   1      11.453   6.332  -1.627  0.00  0.00     0.067 C 
ATOM      4  H   LIG d   1      12.258   6.589  -2.331  0.00  0.00     0.051 H 
ATOM      5  C   LIG d   1      11.939   5.596  -0.358  0.00  0.00     0.101 C 
ATOM      6  H   LIG d   1      13.021   5.401  -0.325  0.00  0.00     0.064 H 
ATOM      7  C   LIG d   1      11.406   6.461   0.806  0.00  0.00     0.109 C 
ATOM      8  H   LIG d   1      12.132   7.191   1.192  0.00  0.00     0.065 H 
ATOM      9  O   LIG d   1      10.276   7.169   0.250  0.00  0.00    -0.366 OA
ENDROOT
BRANCH   1  10
ATOM     10  C   LIG d   1       9.459   7.845  -1.950  0.00  0.00     0.024 C 
ATOM     11  H   LIG d   1       8.791   6.971  -1.947  0.00  0.00     0.045 H 
ATOM     12  H   LIG d   1       9.782   8.057  -2.980  0.00  0.00     0.045 H 
BRANCH  10  13
ATOM     13  N   LIG d   1       8.743   9.011  -1.412  0.00  0.00    -0.310 N 
ATOM     14  H   LIG d   1       8.332   8.750  -0.427  0.00  0.00     0.122 HD
BRANCH  13  15
ATOM     15  C   LIG d   1       9.643  10.164  -1.278  0.00  0.00     0.017 C 
ATOM     16  C   LIG d   1       9.554  10.720   0.147  0.00  0.00     0.003 C 
ATOM     17  C   LIG d   1      10.446  11.956   0.265  0.00  0.00    -0.031 C 
ATOM     18  H   LIG d   1       9.891   9.954   0.862  0.00  0.00     0.033 H 
ATOM     19  H   LIG d   1       8.513  10.997   0.370  0.00  0.00     0.033 H 
ATOM     20  N   LIG d   1      10.009  12.971  -0.705  0.00  0.00     0.233 N 
ATOM     21  H   LIG d   1      11.490  11.677   0.057  0.00  0.00     0.082 H 
ATOM     22  H   LIG d   1      10.373  12.367   1.283  0.00  0.00     0.082 H 
ATOM     23  C   LIG d   1      10.131  12.477  -2.082  0.00  0.00    -0.031 C 
ATOM     24  H   LIG d   1       8.946  13.179  -0.515  0.00  0.00     0.203 HD
ATOM     25  C   LIG d   1       9.228  11.256  -2.269  0.00  0.00     0.003 C 
ATOM     26  H   LIG d   1       9.827  13.268  -2.783  0.00  0.00     0.082 H 
ATOM     27  H   LIG d   1      11.176  12.195  -2.279  0.00  0.00     0.082 H 
ATOM     28  H   LIG d   1       9.331  10.875  -3.296  0.00  0.00     0.033 H 
ATOM     29  H   LIG d   1       8.181  11.539  -2.086  0.00  0.00     0.033 H 
ATOM     30  H   LIG d   1      10.661   9.808  -1.494  0.00  0.00     0.046 H 
BRANCH  20  31
ATOM     31  C   LIG d   1      10.754  14.224  -0.527  0.00  0.00    -0.043 C 
ATOM     32  H   LIG d   1      10.293  15.015  -1.138  0.00  0.00     0.078 H 
ATOM     33  H   LIG d   1      11.798  14.080  -0.843  0.00  0.00     0.078 H 
ATOM     34  H   LIG d   1      10.729  14.519   0.533  0.00  0.00     0.078 H 
ENDBRANCH  20  31
ENDBRANCH  13  15
ENDBRANCH  10  13
ENDBRANCH   1  10
BRANCH   3  35
ATOM     35  N   LIG d   1      10.559   5.470  -2.412  0.00  0.00    -0.284 N 
ATOM     36  C   LIG d   1      10.388   5.991  -3.775  0.00  0.00     0.040 C 
ATOM     37  C   LIG d   1       9.391   5.111  -4.533  0.00  0.00    -0.019 C 
ATOM     38  H   LIG d   1      10.007   7.023  -3.729  0.00  0.00     0.048 H 
ATOM     39  H   LIG d   1      11.357   5.981  -4.296  0.00  0.00     0.048 H 
ATOM     40  N   LIG d   1       9.885   3.727  -4.560  0.00  0.00     0.235 N 
ATOM     41  H   LIG d   1       9.282   5.482  -5.563  0.00  0.00     0.083 H 
ATOM     42  H   LIG d   1       8.415   5.143  -4.028  0.00  0.00     0.083 H 
ATOM     43  C   LIG d   1      10.056   3.206  -3.196  0.00  0.00    -0.019 C 
ATOM     44  H   LIG d   1      10.869   3.727  -5.050  0.00  0.00     0.203 HD
ATOM     45  C   LIG d   1      11.053   4.086  -2.439  0.00  0.00     0.040 C 
ATOM     46  H   LIG d   1      10.437   2.176  -3.242  0.00  0.00     0.083 H 
ATOM     47  H   LIG d   1       9.087   3.217  -2.674  0.00  0.00     0.083 H 
ATOM     48  H   LIG d   1      12.029   4.054  -2.944  0.00  0.00     0.048 H 
ATOM     49  H   LIG d   1      11.162   3.716  -1.408  0.00  0.00     0.048 H 
BRANCH  40  50
ATOM     50  C   LIG d   1       8.991   2.864  -5.344  0.00  0.00    -0.043 C 
ATOM     51  H   LIG d   1       9.197   1.810  -5.105  0.00  0.00     0.078 H 
ATOM     52  H   LIG d   1       9.162   3.036  -6.416  0.00  0.00     0.078 H 
ATOM     53  H   LIG d   1       7.945   3.099  -5.097  0.00  0.00     0.078 H 
ENDBRANCH  40  50
ENDBRANCH   3  35
BRANCH   7  54
ATOM     54  C   LIG d   1      10.961   5.573   1.969  0.00  0.00     0.073 C 
ATOM     55  H   LIG d   1       9.911   5.280   1.827  0.00  0.00     0.058 H 
ATOM     56  H   LIG d   1      11.593   4.673   2.005  0.00  0.00     0.058 H 
BRANCH  54  57
ATOM     57  O   LIG d   1      11.092   6.295   3.196  0.00  0.00    -0.392 OA
ATOM     58  H   LIG d   1      10.688   5.873   4.128  0.00  0.00     0.209 HD
ENDBRANCH  54  57
ENDBRANCH   7  54
BRANCH   5  59
ATOM     59  O   LIG d   1      11.387   4.280  -0.301  0.00  0.00    -0.388 OA
ATOM     60  H   LIG d   1      11.563   3.647   0.581  0.00  0.00     0.210 HD
ENDBRANCH   5  59
TORSDOF 9
ENDMDL
MODEL 8
REMARK VINA RESULT:      -5.1      3.796      4.499
REMARK  9 active torsions:
REMARK  status: ('A' for Active; 'I' for Inactive)
REMARK    1  A    between atoms: C_1  and  N_2 
REMARK    2  A    between atoms: C_5  and  N_8 
REMARK    3  A    between atoms: N_8  and  C_9 
REMARK    4  A    between atoms: C_9  and  C_10 
REMARK    5  A    between atoms: C_12  and  N_22 
REMARK    6  A    between atoms: C_14  and  O_21 
REMARK    7  A    between atoms: C_16  and  C_19 
REMARK    8  A    between atoms: C_19  and  O_20 
REMARK    9  A    between atoms: N_25  and  C_28 
ROOT
ATOM      1  C   LIG d   1       5.251  -2.077  -3.781  0.00  0.00     0.090 C 
ATOM      2  H   LIG d   1       5.084  -2.997  -3.201  0.00  0.00     0.062 H 
ATOM      3  C   LIG d   1       3.990  -1.550  -4.502  0.00  0.00     0.067 C 
ATOM      4  H   LIG d   1       3.275  -2.337  -4.784  0.00  0.00     0.051 H 
ATOM      5  C   LIG d   1       3.414  -0.497  -3.529  0.00  0.00     0.101 C 
ATOM      6  H   LIG d   1       2.359  -0.650  -3.256  0.00  0.00     0.064 H 
ATOM      7  C   LIG d   1       4.395  -0.512  -2.335  0.00  0.00     0.109 C 
ATOM      8  H   LIG d   1       4.081  -1.161  -1.504  0.00  0.00     0.065 H 
ATOM      9  O   LIG d   1       5.634  -1.013  -2.883  0.00  0.00    -0.366 OA
ENDROOT
BRANCH   1  10
ATOM     10  C   LIG d   1       6.367  -2.349  -4.792  0.00  0.00     0.024 C 
ATOM     11  H   LIG d   1       7.122  -1.552  -4.728  0.00  0.00     0.045 H 
ATOM     12  H   LIG d   1       5.944  -2.374  -5.807  0.00  0.00     0.045 H 
BRANCH  10  13
ATOM     13  N   LIG d   1       6.994  -3.643  -4.491  0.00  0.00    -0.310 N 
ATOM     14  H   LIG d   1       6.569  -4.406  -5.159  0.00  0.00     0.122 HD
BRANCH  13  15
ATOM     15  C   LIG d   1       8.449  -3.579  -4.683  0.00  0.00     0.017 C 
ATOM     16  C   LIG d   1       9.154  -3.906  -3.363  0.00  0.00     0.003 C 
ATOM     17  C   LIG d   1      10.667  -3.779  -3.552  0.00  0.00    -0.031 C 
ATOM     18  H   LIG d   1       8.907  -4.933  -3.058  0.00  0.00     0.033 H 
ATOM     19  H   LIG d   1       8.822  -3.203  -2.584  0.00  0.00     0.033 H 
ATOM     20  N   LIG d   1      10.995  -2.411  -3.979  0.00  0.00     0.233 N 
ATOM     21  H   LIG d   1      11.002  -4.492  -4.320  0.00  0.00     0.082 H 
ATOM     22  H   LIG d   1      11.176  -3.998  -2.602  0.00  0.00     0.082 H 
ATOM     23  C   LIG d   1      10.367  -2.093  -5.268  0.00  0.00    -0.031 C 
ATOM     24  H   LIG d   1      10.588  -1.719  -3.227  0.00  0.00     0.203 HD
ATOM     25  C   LIG d   1       8.845  -2.169  -5.129  0.00  0.00     0.003 C 
ATOM     26  H   LIG d   1      10.656  -1.076  -5.574  0.00  0.00     0.082 H 
ATOM     27  H   LIG d   1      10.703  -2.813  -6.028  0.00  0.00     0.082 H 
ATOM     28  H   LIG d   1       8.375  -1.946  -6.098  0.00  0.00     0.033 H 
ATOM     29  H   LIG d   1       8.506  -1.438  -4.379  0.00  0.00     0.033 H 
ATOM     30  H   LIG d   1       8.707  -4.319  -5.455  0.00  0.00     0.046 H 
BRANCH  20  31
ATOM     31  C   LIG d   1      12.449  -2.213  -4.038  0.00  0.00    -0.043 C 
ATOM     32  H   LIG d   1      12.845  -2.096  -3.017  0.00  0.00     0.078 H 
ATOM     33  H   LIG d   1      12.673  -1.309  -4.623  0.00  0.00     0.078 H 
ATOM     34  H   LIG d   1      12.919  -3.085  -4.515  0.00  0.00     0.078 H 
ENDBRANCH  20  31
ENDBRANCH  13  15
ENDBRANCH  10  13
ENDBRANCH   1  10
BRANCH   3  35
ATOM     35  N   LIG d   1       4.351  -0.926  -5.781  0.00  0.00    -0.284 N 
ATOM     36  C   LIG d   1       4.778  -1.936  -6.758  0.00  0.00     0.040 C 
ATOM     37  C   LIG d   1       5.220  -1.240  -8.049  0.00  0.00    -0.019 C 
ATOM     38  H   LIG d   1       5.619  -2.514  -6.346  0.00  0.00     0.048 H 
ATOM     39  H   LIG d   1       3.939  -2.614  -6.976  0.00  0.00     0.048 H 
ATOM     40  N   LIG d   1       4.106  -0.439  -8.576  0.00  0.00     0.235 N 
ATOM     41  H   LIG d   1       5.513  -1.996  -8.792  0.00  0.00     0.083 H 
ATOM     42  H   LIG d   1       6.076  -0.583  -7.837  0.00  0.00     0.083 H 
ATOM     43  C   LIG d   1       3.679   0.571  -7.598  0.00  0.00    -0.019 C 
ATOM     44  H   LIG d   1       3.258  -1.115  -8.759  0.00  0.00     0.203 HD
ATOM     45  C   LIG d   1       3.237  -0.124  -6.309  0.00  0.00     0.040 C 
ATOM     46  H   LIG d   1       2.839   1.149  -8.010  0.00  0.00     0.083 H 
ATOM     47  H   LIG d   1       4.518   1.250  -7.380  0.00  0.00     0.083 H 
ATOM     48  H   LIG d   1       2.381  -0.782  -6.521  0.00  0.00     0.048 H 
ATOM     49  H   LIG d   1       2.944   0.631  -5.564  0.00  0.00     0.048 H 
BRANCH  40  50
ATOM     50  C   LIG d   1       4.467   0.187  -9.855  0.00  0.00    -0.043 C 
ATOM     51  H   LIG d   1       5.328   0.856  -9.706  0.00  0.00     0.078 H 
ATOM     52  H   LIG d   1       3.614   0.768 -10.233  0.00  0.00     0.078 H 
ATOM     53  H   LIG d   1       4.731  -0.594 -10.583  0.00  0.00     0.078 H 
ENDBRANCH  40  50
ENDBRANCH   3  35
BRANCH   7  54
ATOM     54  C   LIG d   1       4.587   0.902  -1.785  0.00  0.00     0.073 C 
ATOM     55  H   LIG d   1       3.661   1.478  -1.923  0.00  0.00     0.058 H 
ATOM     56  H   LIG d   1       4.829   0.848  -0.713  0.00  0.00     0.058 H 
BRANCH  54  57
ATOM     57  O   LIG d   1       5.656   1.543  -2.484  0.00  0.00    -0.392 OA
ATOM     58  H   LIG d   1       6.294   2.274  -1.963  0.00  0.00     0.209 HD
ENDBRANCH  54  57
ENDBRANCH   7  54
BRANCH   5  59
ATOM     59  O   LIG d   1       3.390   0.792  -4.144  0.00  0.00    -0.388 OA
ATOM     60  H   LIG d   1       3.785   1.666  -3.605  0.00  0.00     0.210 HD
ENDBRANCH   5  59
TORSDOF 9
ENDMDL
MODEL 9
REMARK VINA RESULT:      -5.1      4.004      6.868
REMARK  9 active torsions:
REMARK  status: ('A' for Active; 'I' for Inactive)
REMARK    1  A    between atoms: C_1  and  N_2 
REMARK    2  A    between atoms: C_5  and  N_8 
REMARK    3  A    between atoms: N_8  and  C_9 
REMARK    4  A    between atoms: C_9  and  C_10 
REMARK    5  A    between atoms: C_12  and  N_22 
REMARK    6  A    between atoms: C_14  and  O_21 
REMARK    7  A    between atoms: C_16  and  C_19 
REMARK    8  A    between atoms: C_19  and  O_20 
REMARK    9  A    between atoms: N_25  and  C_28 
ROOT
ATOM      1  C   LIG d   1       7.230  -3.354  -5.294  0.00  0.00     0.090 C 
ATOM      2  H   LIG d   1       8.156  -3.525  -5.862  0.00  0.00     0.062 H 
ATOM      3  C   LIG d   1       6.270  -2.333  -5.945  0.00  0.00     0.067 C 
ATOM      4  H   LIG d   1       6.777  -1.563  -6.545  0.00  0.00     0.051 H 
ATOM      5  C   LIG d   1       5.282  -3.208  -6.749  0.00  0.00     0.101 C 
ATOM      6  H   LIG d   1       5.191  -2.940  -7.812  0.00  0.00     0.064 H 
ATOM      7  C   LIG d   1       5.761  -4.653  -6.489  0.00  0.00     0.109 C 
ATOM      8  H   LIG d   1       6.434  -5.050  -7.264  0.00  0.00     0.065 H 
ATOM      9  O   LIG d   1       6.476  -4.584  -5.235  0.00  0.00    -0.366 OA
ENDROOT
BRANCH   1  10
ATOM     10  C   LIG d   1       7.615  -2.898  -3.885  0.00  0.00     0.024 C 
ATOM     11  H   LIG d   1       7.112  -3.534  -3.143  0.00  0.00     0.045 H 
ATOM     12  H   LIG d   1       7.307  -1.852  -3.741  0.00  0.00     0.045 H 
BRANCH  10  13
ATOM     13  N   LIG d   1       9.071  -3.007  -3.718  0.00  0.00    -0.310 N 
ATOM     14  H   LIG d   1       9.379  -2.372  -2.874  0.00  0.00     0.122 HD
BRANCH  13  15
ATOM     15  C   LIG d   1       9.467  -4.397  -3.454  0.00  0.00     0.017 C 
ATOM     16  C   LIG d   1       9.526  -4.634  -1.942  0.00  0.00     0.003 C 
ATOM     17  C   LIG d   1       9.997  -6.064  -1.672  0.00  0.00    -0.031 C 
ATOM     18  H   LIG d   1       8.526  -4.489  -1.507  0.00  0.00     0.033 H 
ATOM     19  H   LIG d   1      10.231  -3.924  -1.485  0.00  0.00     0.033 H 
ATOM     20  N   LIG d   1      11.325  -6.264  -2.270  0.00  0.00     0.233 N 
ATOM     21  H   LIG d   1       9.285  -6.775  -2.116  0.00  0.00     0.082 H 
ATOM     22  H   LIG d   1      10.055  -6.233  -0.586  0.00  0.00     0.082 H 
ATOM     23  C   LIG d   1      11.283  -6.088  -3.727  0.00  0.00    -0.031 C 
ATOM     24  H   LIG d   1      11.997  -5.496  -1.859  0.00  0.00     0.203 HD
ATOM     25  C   LIG d   1      10.850  -4.658  -4.058  0.00  0.00     0.003 C 
ATOM     26  H   LIG d   1      12.282  -6.274  -4.147  0.00  0.00     0.082 H 
ATOM     27  H   LIG d   1      10.565  -6.799  -4.162  0.00  0.00     0.082 H 
ATOM     28  H   LIG d   1      10.803  -4.530  -5.149  0.00  0.00     0.033 H 
ATOM     29  H   LIG d   1      11.576  -3.946  -3.636  0.00  0.00     0.033 H 
ATOM     30  H   LIG d   1       8.710  -5.043  -3.920  0.00  0.00     0.046 H 
BRANCH  20  31
ATOM     31  C   LIG d   1      11.870  -7.581  -1.914  0.00  0.00    -0.043 C 
ATOM     32  H   LIG d   1      11.380  -8.357  -2.522  0.00  0.00     0.078 H 
ATOM     33  H   LIG d   1      11.684  -7.780  -0.849  0.00  0.00     0.078 H 
ATOM     34  H   LIG d   1      12.952  -7.594  -2.107  0.00  0.00     0.078 H 
ENDBRANCH  20  31
ENDBRANCH  13  15
ENDBRANCH  10  13
ENDBRANCH   1  10
BRANCH   3  35
ATOM     35  N   LIG d   1       5.558  -1.566  -4.915  0.00  0.00    -0.284 N 
ATOM     36  C   LIG d   1       6.440  -0.564  -4.301  0.00  0.00     0.040 C 
ATOM     37  C   LIG d   1       5.685   0.158  -3.182  0.00  0.00    -0.019 C 
ATOM     38  H   LIG d   1       7.327  -1.063  -3.883  0.00  0.00     0.048 H 
ATOM     39  H   LIG d   1       6.754   0.165  -5.063  0.00  0.00     0.048 H 
ATOM     40  N   LIG d   1       4.480   0.791  -3.737  0.00  0.00     0.235 N 
ATOM     41  H   LIG d   1       6.334   0.929  -2.739  0.00  0.00     0.083 H 
ATOM     42  H   LIG d   1       5.395  -0.566  -2.407  0.00  0.00     0.083 H 
ATOM     43  C   LIG d   1       3.599  -0.211  -4.352  0.00  0.00    -0.019 C 
ATOM     44  H   LIG d   1       4.796   1.493  -4.521  0.00  0.00     0.203 HD
ATOM     45  C   LIG d   1       4.353  -0.933  -5.470  0.00  0.00     0.040 C 
ATOM     46  H   LIG d   1       2.711   0.287  -4.769  0.00  0.00     0.083 H 
ATOM     47  H   LIG d   1       3.285  -0.941  -3.590  0.00  0.00     0.083 H 
ATOM     48  H   LIG d   1       4.643  -0.208  -6.245  0.00  0.00     0.048 H 
ATOM     49  H   LIG d   1       3.705  -1.704  -5.913  0.00  0.00     0.048 H 
BRANCH  40  50
ATOM     50  C   LIG d   1       3.767   1.558  -2.706  0.00  0.00    -0.043 C 
ATOM     51  H   LIG d   1       3.468   0.884  -1.889  0.00  0.00     0.078 H 
ATOM     52  H   LIG d   1       2.871   2.019  -3.147  0.00  0.00     0.078 H 
ATOM     53  H   LIG d   1       4.427   2.343  -2.311  0.00  0.00     0.078 H 
ENDBRANCH  40  50
ENDBRANCH   3  35
BRANCH   7  54
ATOM     54  C   LIG d   1       4.565  -5.598  -6.371  0.00  0.00     0.073 C 
ATOM     55  H   LIG d   1       3.766  -5.266  -7.050  0.00  0.00     0.058 H 
ATOM     56  H   LIG d   1       4.875  -6.619  -6.642  0.00  0.00     0.058 H 
BRANCH  54  57
ATOM     57  O   LIG d   1       4.081  -5.588  -5.026  0.00  0.00    -0.392 OA
ATOM     58  H   LIG d   1       3.795  -4.638  -4.551  0.00  0.00     0.209 HD
ENDBRANCH  54  57
ENDBRANCH   7  54
BRANCH   5  59
ATOM     59  O   LIG d   1       3.949  -3.025  -6.271  0.00  0.00    -0.388 OA
ATOM     60  H   LIG d   1       3.287  -2.290  -6.751  0.00  0.00     0.210 HD
ENDBRANCH   5  59
TORSDOF 9
ENDMDL
