MODEL 1
REMARK VINA RESULT:      -6.0      0.000      0.000
REMARK  7 active torsions:
REMARK  status: ('A' for Active; 'I' for Inactive)
REMARK    1  A    between atoms: C_1  and  C_2 
REMARK    2  A    between atoms: C_2  and  C_3 
REMARK    3  A    between atoms: C_2  and  C_4 
REMARK    4  A    between atoms: C_4  and  C_5 
REMARK    5  A    between atoms: C_5  and  O_6 
REMARK    6  A    between atoms: O_6  and  C_7 
REMARK    7  A    between atoms: C_7  and  C_9 
ROOT
ATOM      1  C   LIG d   1       3.243   0.133  -7.176  0.00  0.00     0.093 C 
ATOM      2  H   LIG d   1       3.672   1.135  -7.230  0.00  0.00     0.070 H 
ATOM      3  H   LIG d   1       4.046  -0.600  -7.088  0.00  0.00     0.070 H 
ENDROOT
BRANCH   1   4
ATOM      4  C   LIG d   1       2.434  -0.145  -8.444  0.00  0.00    -0.016 C 
ATOM      5  H   LIG d   1       2.827  -1.034  -8.937  0.00  0.00     0.030 H 
ATOM      6  H   LIG d   1       1.390  -0.307  -8.180  0.00  0.00     0.030 H 
BRANCH   4   7
ATOM      7  C   LIG d   1       2.541   1.053  -9.391  0.00  0.00    -0.044 C 
ATOM      8  H   LIG d   1       1.557   1.272  -9.810  0.00  0.00     0.030 H 
BRANCH   7   9
ATOM      9  C   LIG d   1       3.047   2.272  -8.617  0.00  0.00    -0.063 C 
ATOM     10  H   LIG d   1       3.191   3.105  -9.304  0.00  0.00     0.023 H 
ATOM     11  H   LIG d   1       2.316   2.549  -7.857  0.00  0.00     0.023 H 
ATOM     12  H   LIG d   1       3.995   2.028  -8.136  0.00  0.00     0.023 H 
ENDBRANCH   7   9
BRANCH   7  13
ATOM     13  C   LIG d   1       3.516   0.725 -10.522  0.00  0.00    -0.063 C 
ATOM     14  H   LIG d   1       3.204  -0.195 -11.016  0.00  0.00     0.023 H 
ATOM     15  H   LIG d   1       3.523   1.541 -11.243  0.00  0.00     0.023 H 
ATOM     16  H   LIG d   1       4.517   0.594 -10.112  0.00  0.00     0.023 H 
ENDBRANCH   7  13
ENDBRANCH   4   7
ENDBRANCH   1   4
BRANCH   1  17
ATOM     17  O   LIG d   1       2.374   0.041  -6.016  0.00  0.00    -0.461 OA
BRANCH  17  18
ATOM     18  C   LIG d   1       2.684   0.813  -4.957  0.00  0.00     0.339 C 
ATOM     19  O   LIG d   1       2.438   2.003  -4.980  0.00  0.00    -0.245 OA
BRANCH  18  20
ATOM     20  C   LIG d   1       3.321   0.214  -3.768  0.00  0.00     0.059 A 
ATOM     21  C   LIG d   1       3.275  -1.168  -3.567  0.00  0.00    -0.048 A 
ATOM     22  C   LIG d   1       3.873  -1.721  -2.455  0.00  0.00    -0.061 A 
ATOM     23  H   LIG d   1       2.773  -1.801  -4.284  0.00  0.00     0.063 H 
ATOM     24  C   LIG d   1       4.517  -0.910  -1.537  0.00  0.00    -0.062 A 
ATOM     25  H   LIG d   1       3.837  -2.788  -2.299  0.00  0.00     0.062 H 
ATOM     26  C   LIG d   1       4.567   0.459  -1.728  0.00  0.00    -0.061 A 
ATOM     27  H   LIG d   1       4.984  -1.349  -0.667  0.00  0.00     0.062 H 
ATOM     28  C   LIG d   1       3.978   1.025  -2.840  0.00  0.00    -0.048 A 
ATOM     29  H   LIG d   1       5.071   1.086  -1.008  0.00  0.00     0.062 H 
ATOM     30  H   LIG d   1       4.022   2.094  -2.991  0.00  0.00     0.063 H 
ENDBRANCH  18  20
ENDBRANCH  17  18
ENDBRANCH   1  17
TORSDOF 7
ENDMDL
MODEL 2
REMARK VINA RESULT:      -5.9      0.588      1.688
REMARK  7 active torsions:
REMARK  status: ('A' for Active; 'I' for Inactive)
REMARK    1  A    between atoms: C_1  and  C_2 
REMARK    2  A    between atoms: C_2  and  C_3 
REMARK    3  A    between atoms: C_2  and  C_4 
REMARK    4  A    between atoms: C_4  and  C_5 
REMARK    5  A    between atoms: C_5  and  O_6 
REMARK    6  A    between atoms: O_6  and  C_7 
REMARK    7  A    between atoms: C_7  and  C_9 
ROOT
ATOM      1  C   LIG d   1       3.492   0.192  -7.181  0.00  0.00     0.093 C 
ATOM      2  H   LIG d   1       4.300   0.847  -6.855  0.00  0.00     0.070 H 
ATOM      3  H   LIG d   1       3.889  -0.807  -7.366  0.00  0.00     0.070 H 
ENDROOT
BRANCH   1   4
ATOM      4  C   LIG d   1       2.875   0.743  -8.467  0.00  0.00    -0.016 C 
ATOM      5  H   LIG d   1       2.355  -0.059  -8.992  0.00  0.00     0.030 H 
ATOM      6  H   LIG d   1       2.168   1.535  -8.221  0.00  0.00     0.030 H 
BRANCH   4   7
ATOM      7  C   LIG d   1       3.979   1.307  -9.364  0.00  0.00    -0.044 C 
ATOM      8  H   LIG d   1       4.941   0.889  -9.061  0.00  0.00     0.030 H 
BRANCH   7   9
ATOM      9  C   LIG d   1       3.696   0.932 -10.819  0.00  0.00    -0.063 C 
ATOM     10  H   LIG d   1       2.878   0.214 -10.858  0.00  0.00     0.023 H 
ATOM     11  H   LIG d   1       3.422   1.826 -11.379  0.00  0.00     0.023 H 
ATOM     12  H   LIG d   1       4.590   0.488 -11.260  0.00  0.00     0.023 H 
ENDBRANCH   7   9
BRANCH   7  13
ATOM     13  C   LIG d   1       4.020   2.830  -9.227  0.00  0.00    -0.063 C 
ATOM     14  H   LIG d   1       3.939   3.103  -8.175  0.00  0.00     0.023 H 
ATOM     15  H   LIG d   1       4.960   3.205  -9.630  0.00  0.00     0.023 H 
ATOM     16  H   LIG d   1       3.188   3.266  -9.780  0.00  0.00     0.023 H 
ENDBRANCH   7  13
ENDBRANCH   4   7
ENDBRANCH   1   4
BRANCH   1  17
ATOM     17  O   LIG d   1       2.477   0.126  -6.145  0.00  0.00    -0.461 OA
BRANCH  17  18
ATOM     18  C   LIG d   1       2.680   0.869  -5.041  0.00  0.00     0.339 C 
ATOM     19  O   LIG d   1       2.357   2.040  -5.029  0.00  0.00    -0.245 OA
BRANCH  18  20
ATOM     20  C   LIG d   1       3.296   0.260  -3.844  0.00  0.00     0.059 A 
ATOM     21  C   LIG d   1       3.958   1.062  -2.911  0.00  0.00    -0.048 A 
ATOM     22  C   LIG d   1       4.530   0.487  -1.796  0.00  0.00    -0.061 A 
ATOM     23  H   LIG d   1       4.019   2.129  -3.062  0.00  0.00     0.063 H 
ATOM     24  C   LIG d   1       4.450  -0.881  -1.600  0.00  0.00    -0.062 A 
ATOM     25  H   LIG d   1       5.042   1.105  -1.074  0.00  0.00     0.062 H 
ATOM     26  C   LIG d   1       3.797  -1.681  -2.521  0.00  0.00    -0.061 A 
ATOM     27  H   LIG d   1       4.901  -1.326  -0.725  0.00  0.00     0.062 H 
ATOM     28  C   LIG d   1       3.215  -1.119  -3.638  0.00  0.00    -0.048 A 
ATOM     29  H   LIG d   1       3.739  -2.748  -2.363  0.00  0.00     0.062 H 
ATOM     30  H   LIG d   1       2.701  -1.744  -4.353  0.00  0.00     0.063 H 
ENDBRANCH  18  20
ENDBRANCH  17  18
ENDBRANCH   1  17
TORSDOF 7
ENDMDL
MODEL 3
REMARK VINA RESULT:      -5.6      3.509      5.263
REMARK  7 active torsions:
REMARK  status: ('A' for Active; 'I' for Inactive)
REMARK    1  A    between atoms: C_1  and  C_2 
REMARK    2  A    between atoms: C_2  and  C_3 
REMARK    3  A    between atoms: C_2  and  C_4 
REMARK    4  A    between atoms: C_4  and  C_5 
REMARK    5  A    between atoms: C_5  and  O_6 
REMARK    6  A    between atoms: O_6  and  C_7 
REMARK    7  A    between atoms: C_7  and  C_9 
ROOT
ATOM      1  C   LIG d   1       4.580   1.393  -2.858  0.00  0.00     0.093 C 
ATOM      2  H   LIG d   1       4.107   2.348  -2.630  0.00  0.00     0.070 H 
ATOM      3  H   LIG d   1       4.315   1.090  -3.872  0.00  0.00     0.070 H 
ENDROOT
BRANCH   1   4
ATOM      4  C   LIG d   1       4.097   0.333  -1.866  0.00  0.00    -0.016 C 
ATOM      5  H   LIG d   1       4.953  -0.222  -1.483  0.00  0.00     0.030 H 
ATOM      6  H   LIG d   1       3.579   0.819  -1.040  0.00  0.00     0.030 H 
BRANCH   4   7
ATOM      7  C   LIG d   1       3.140  -0.629  -2.572  0.00  0.00    -0.044 C 
ATOM      8  H   LIG d   1       2.185  -0.643  -2.045  0.00  0.00     0.030 H 
BRANCH   7   9
ATOM      9  C   LIG d   1       2.919  -0.163  -4.013  0.00  0.00    -0.063 C 
ATOM     10  H   LIG d   1       2.058   0.504  -4.051  0.00  0.00     0.023 H 
ATOM     11  H   LIG d   1       3.805   0.365  -4.365  0.00  0.00     0.023 H 
ATOM     12  H   LIG d   1       2.736  -1.029  -4.650  0.00  0.00     0.023 H 
ENDBRANCH   7   9
BRANCH   7  13
ATOM     13  C   LIG d   1       3.741  -2.036  -2.577  0.00  0.00    -0.063 C 
ATOM     14  H   LIG d   1       4.740  -2.005  -2.144  0.00  0.00     0.023 H 
ATOM     15  H   LIG d   1       3.110  -2.702  -1.990  0.00  0.00     0.023 H 
ATOM     16  H   LIG d   1       3.801  -2.402  -3.602  0.00  0.00     0.023 H 
ENDBRANCH   7  13
ENDBRANCH   4   7
ENDBRANCH   1   4
BRANCH   1  17
ATOM     17  O   LIG d   1       6.022   1.532  -2.755  0.00  0.00    -0.461 OA
BRANCH  17  18
ATOM     18  C   LIG d   1       6.752   1.136  -3.816  0.00  0.00     0.339 C 
ATOM     19  O   LIG d   1       7.440   1.940  -4.413  0.00  0.00    -0.245 OA
BRANCH  18  20
ATOM     20  C   LIG d   1       6.716  -0.274  -4.253  0.00  0.00     0.059 A 
ATOM     21  C   LIG d   1       7.199  -1.281  -3.414  0.00  0.00    -0.048 A 
ATOM     22  C   LIG d   1       7.162  -2.596  -3.828  0.00  0.00    -0.061 A 
ATOM     23  H   LIG d   1       7.599  -1.030  -2.443  0.00  0.00     0.063 H 
ATOM     24  C   LIG d   1       6.649  -2.919  -5.072  0.00  0.00    -0.062 A 
ATOM     25  H   LIG d   1       7.536  -3.375  -3.181  0.00  0.00     0.062 H 
ATOM     26  C   LIG d   1       6.170  -1.926  -5.908  0.00  0.00    -0.061 A 
ATOM     27  H   LIG d   1       6.623  -3.950  -5.391  0.00  0.00     0.062 H 
ATOM     28  C   LIG d   1       6.195  -0.608  -5.505  0.00  0.00    -0.048 A 
ATOM     29  H   LIG d   1       5.771  -2.185  -6.878  0.00  0.00     0.062 H 
ATOM     30  H   LIG d   1       5.816   0.165  -6.157  0.00  0.00     0.063 H 
ENDBRANCH  18  20
ENDBRANCH  17  18
ENDBRANCH   1  17
TORSDOF 7
ENDMDL
MODEL 4
REMARK VINA RESULT:      -5.4      1.133      6.085
REMARK  7 active torsions:
REMARK  status: ('A' for Active; 'I' for Inactive)
REMARK    1  A    between atoms: C_1  and  C_2 
REMARK    2  A    between atoms: C_2  and  C_3 
REMARK    3  A    between atoms: C_2  and  C_4 
REMARK    4  A    between atoms: C_4  and  C_5 
REMARK    5  A    between atoms: C_5  and  O_6 
REMARK    6  A    between atoms: O_6  and  C_7 
REMARK    7  A    between atoms: C_7  and  C_9 
ROOT
ATOM      1  C   LIG d   1       2.856   0.252  -3.598  0.00  0.00     0.093 C 
ATOM      2  H   LIG d   1       1.797   0.161  -3.353  0.00  0.00     0.070 H 
ATOM      3  H   LIG d   1       3.330  -0.727  -3.523  0.00  0.00     0.070 H 
ENDROOT
BRANCH   1   4
ATOM      4  C   LIG d   1       3.525   1.219  -2.620  0.00  0.00    -0.016 C 
ATOM      5  H   LIG d   1       3.840   2.115  -3.155  0.00  0.00     0.030 H 
ATOM      6  H   LIG d   1       2.818   1.492  -1.837  0.00  0.00     0.030 H 
BRANCH   4   7
ATOM      7  C   LIG d   1       4.747   0.545  -1.991  0.00  0.00    -0.044 C 
ATOM      8  H   LIG d   1       4.955   1.003  -1.023  0.00  0.00     0.030 H 
BRANCH   7   9
ATOM      9  C   LIG d   1       4.465  -0.946  -1.799  0.00  0.00    -0.063 C 
ATOM     10  H   LIG d   1       3.506  -1.074  -1.298  0.00  0.00     0.023 H 
ATOM     11  H   LIG d   1       4.435  -1.439  -2.771  0.00  0.00     0.023 H 
ATOM     12  H   LIG d   1       5.255  -1.390  -1.193  0.00  0.00     0.023 H 
ENDBRANCH   7   9
BRANCH   7  13
ATOM     13  C   LIG d   1       5.957   0.723  -2.909  0.00  0.00    -0.063 C 
ATOM     14  H   LIG d   1       6.549  -0.192  -2.910  0.00  0.00     0.023 H 
ATOM     15  H   LIG d   1       5.617   0.937  -3.922  0.00  0.00     0.023 H 
ATOM     16  H   LIG d   1       6.568   1.550  -2.549  0.00  0.00     0.023 H 
ENDBRANCH   7  13
ENDBRANCH   4   7
ENDBRANCH   1   4
BRANCH   1  17
ATOM     17  O   LIG d   1       2.997   0.757  -4.952  0.00  0.00    -0.461 OA
BRANCH  17  18
ATOM     18  C   LIG d   1       3.508  -0.087  -5.869  0.00  0.00     0.339 C 
ATOM     19  O   LIG d   1       4.226  -1.002  -5.519  0.00  0.00    -0.245 OA
BRANCH  18  20
ATOM     20  C   LIG d   1       3.196   0.102  -7.301  0.00  0.00     0.059 A 
ATOM     21  C   LIG d   1       3.013   1.387  -7.816  0.00  0.00    -0.048 A 
ATOM     22  C   LIG d   1       2.722   1.555  -9.154  0.00  0.00    -0.061 A 
ATOM     23  H   LIG d   1       3.102   2.246  -7.168  0.00  0.00     0.063 H 
ATOM     24  C   LIG d   1       2.610   0.454  -9.984  0.00  0.00    -0.062 A 
ATOM     25  H   LIG d   1       2.581   2.548  -9.553  0.00  0.00     0.062 H 
ATOM     26  C   LIG d   1       2.789  -0.822  -9.480  0.00  0.00    -0.061 A 
ATOM     27  H   LIG d   1       2.382   0.592 -11.031  0.00  0.00     0.062 H 
ATOM     28  C   LIG d   1       3.086  -1.005  -8.146  0.00  0.00    -0.048 A 
ATOM     29  H   LIG d   1       2.700  -1.677 -10.134  0.00  0.00     0.062 H 
ATOM     30  H   LIG d   1       3.230  -2.001  -7.755  0.00  0.00     0.063 H 
ENDBRANCH  18  20
ENDBRANCH  17  18
ENDBRANCH   1  17
TORSDOF 7
ENDMDL
MODEL 5
REMARK VINA RESULT:      -5.3      2.439      4.781
REMARK  7 active torsions:
REMARK  status: ('A' for Active; 'I' for Inactive)
REMARK    1  A    between atoms: C_1  and  C_2 
REMARK    2  A    between atoms: C_2  and  C_3 
REMARK    3  A    between atoms: C_2  and  C_4 
REMARK    4  A    between atoms: C_4  and  C_5 
REMARK    5  A    between atoms: C_5  and  O_6 
REMARK    6  A    between atoms: O_6  and  C_7 
REMARK    7  A    between atoms: C_7  and  C_9 
ROOT
ATOM      1  C   LIG d   1       2.806   0.500  -4.689  0.00  0.00     0.093 C 
ATOM      2  H   LIG d   1       3.624   1.174  -4.433  0.00  0.00     0.070 H 
ATOM      3  H   LIG d   1       1.898   1.079  -4.855  0.00  0.00     0.070 H 
ENDROOT
BRANCH   1   4
ATOM      4  C   LIG d   1       2.580  -0.485  -3.541  0.00  0.00    -0.016 C 
ATOM      5  H   LIG d   1       1.518  -0.521  -3.298  0.00  0.00     0.030 H 
ATOM      6  H   LIG d   1       2.918  -1.477  -3.841  0.00  0.00     0.030 H 
BRANCH   4   7
ATOM      7  C   LIG d   1       3.369  -0.028  -2.312  0.00  0.00    -0.044 C 
ATOM      8  H   LIG d   1       2.679   0.165  -1.489  0.00  0.00     0.030 H 
BRANCH   7   9
ATOM      9  C   LIG d   1       4.356  -1.123  -1.903  0.00  0.00    -0.063 C 
ATOM     10  H   LIG d   1       4.772  -0.891  -0.923  0.00  0.00     0.023 H 
ATOM     11  H   LIG d   1       3.838  -2.082  -1.860  0.00  0.00     0.023 H 
ATOM     12  H   LIG d   1       5.161  -1.179  -2.637  0.00  0.00     0.023 H 
ENDBRANCH   7   9
BRANCH   7  13
ATOM     13  C   LIG d   1       4.137   1.252  -2.645  0.00  0.00    -0.063 C 
ATOM     14  H   LIG d   1       3.803   2.057  -1.990  0.00  0.00     0.023 H 
ATOM     15  H   LIG d   1       5.203   1.084  -2.500  0.00  0.00     0.023 H 
ATOM     16  H   LIG d   1       3.950   1.528  -3.683  0.00  0.00     0.023 H 
ENDBRANCH   7  13
ENDBRANCH   4   7
ENDBRANCH   1   4
BRANCH   1  17
ATOM     17  O   LIG d   1       3.143  -0.232  -5.897  0.00  0.00    -0.461 OA
BRANCH  17  18
ATOM     18  C   LIG d   1       4.441  -0.261  -6.253  0.00  0.00     0.339 C 
ATOM     19  O   LIG d   1       4.819   0.368  -7.221  0.00  0.00    -0.245 OA
BRANCH  18  20
ATOM     20  C   LIG d   1       5.406  -1.056  -5.466  0.00  0.00     0.059 A 
ATOM     21  C   LIG d   1       6.512  -0.438  -4.880  0.00  0.00    -0.048 A 
ATOM     22  C   LIG d   1       7.409  -1.186  -4.146  0.00  0.00    -0.061 A 
ATOM     23  H   LIG d   1       6.664   0.625  -5.000  0.00  0.00     0.063 H 
ATOM     24  C   LIG d   1       7.214  -2.548  -3.992  0.00  0.00    -0.062 A 
ATOM     25  H   LIG d   1       8.264  -0.710  -3.693  0.00  0.00     0.062 H 
ATOM     26  C   LIG d   1       6.121  -3.167  -4.571  0.00  0.00    -0.061 A 
ATOM     27  H   LIG d   1       7.919  -3.129  -3.416  0.00  0.00     0.062 H 
ATOM     28  C   LIG d   1       5.213  -2.429  -5.302  0.00  0.00    -0.048 A 
ATOM     29  H   LIG d   1       5.975  -4.230  -4.446  0.00  0.00     0.062 H 
ATOM     30  H   LIG d   1       4.357  -2.913  -5.749  0.00  0.00     0.063 H 
ENDBRANCH  18  20
ENDBRANCH  17  18
ENDBRANCH   1  17
TORSDOF 7
ENDMDL
MODEL 6
REMARK VINA RESULT:      -5.3      1.143      5.962
REMARK  7 active torsions:
REMARK  status: ('A' for Active; 'I' for Inactive)
REMARK    1  A    between atoms: C_1  and  C_2 
REMARK    2  A    between atoms: C_2  and  C_3 
REMARK    3  A    between atoms: C_2  and  C_4 
REMARK    4  A    between atoms: C_4  and  C_5 
REMARK    5  A    between atoms: C_5  and  O_6 
REMARK    6  A    between atoms: O_6  and  C_7 
REMARK    7  A    between atoms: C_7  and  C_9 
ROOT
ATOM      1  C   LIG d   1       3.137   0.479  -3.694  0.00  0.00     0.093 C 
ATOM      2  H   LIG d   1       4.222   0.430  -3.598  0.00  0.00     0.070 H 
ATOM      3  H   LIG d   1       2.757   1.306  -3.093  0.00  0.00     0.070 H 
ENDROOT
BRANCH   1   4
ATOM      4  C   LIG d   1       2.521  -0.832  -3.205  0.00  0.00    -0.016 C 
ATOM      5  H   LIG d   1       1.676  -0.615  -2.552  0.00  0.00     0.030 H 
ATOM      6  H   LIG d   1       2.180  -1.415  -4.060  0.00  0.00     0.030 H 
BRANCH   4   7
ATOM      7  C   LIG d   1       3.571  -1.632  -2.430  0.00  0.00    -0.044 C 
ATOM      8  H   LIG d   1       3.076  -2.239  -1.670  0.00  0.00     0.030 H 
BRANCH   7   9
ATOM      9  C   LIG d   1       4.332  -2.544  -3.394  0.00  0.00    -0.063 C 
ATOM     10  H   LIG d   1       3.677  -3.348  -3.728  0.00  0.00     0.023 H 
ATOM     11  H   LIG d   1       4.665  -1.965  -4.256  0.00  0.00     0.023 H 
ATOM     12  H   LIG d   1       5.199  -2.967  -2.886  0.00  0.00     0.023 H 
ENDBRANCH   7   9
BRANCH   7  13
ATOM     13  C   LIG d   1       4.551  -0.670  -1.756  0.00  0.00    -0.063 C 
ATOM     14  H   LIG d   1       4.196  -0.433  -0.753  0.00  0.00     0.023 H 
ATOM     15  H   LIG d   1       5.533  -1.137  -1.694  0.00  0.00     0.023 H 
ATOM     16  H   LIG d   1       4.621   0.246  -2.342  0.00  0.00     0.023 H 
ENDBRANCH   7  13
ENDBRANCH   4   7
ENDBRANCH   1   4
BRANCH   1  17
ATOM     17  O   LIG d   1       2.785   0.690  -5.087  0.00  0.00    -0.461 OA
BRANCH  17  18
ATOM     18  C   LIG d   1       3.668   0.270  -6.012  0.00  0.00     0.339 C 
ATOM     19  O   LIG d   1       4.799  -0.027  -5.681  0.00  0.00    -0.245 OA
BRANCH  18  20
ATOM     20  C   LIG d   1       3.264   0.172  -7.429  0.00  0.00     0.059 A 
ATOM     21  C   LIG d   1       3.159  -1.078  -8.044  0.00  0.00    -0.048 A 
ATOM     22  C   LIG d   1       2.780  -1.163  -9.368  0.00  0.00    -0.061 A 
ATOM     23  H   LIG d   1       3.373  -1.975  -7.483  0.00  0.00     0.063 H 
ATOM     24  C   LIG d   1       2.504  -0.012 -10.086  0.00  0.00    -0.062 A 
ATOM     25  H   LIG d   1       2.699  -2.128  -9.844  0.00  0.00     0.062 H 
ATOM     26  C   LIG d   1       2.607   1.229  -9.484  0.00  0.00    -0.061 A 
ATOM     27  H   LIG d   1       2.208  -0.085 -11.123  0.00  0.00     0.062 H 
ATOM     28  C   LIG d   1       2.979   1.328  -8.160  0.00  0.00    -0.048 A 
ATOM     29  H   LIG d   1       2.390   2.123 -10.051  0.00  0.00     0.062 H 
ATOM     30  H   LIG d   1       3.053   2.297  -7.689  0.00  0.00     0.063 H 
ENDBRANCH  18  20
ENDBRANCH  17  18
ENDBRANCH   1  17
TORSDOF 7
ENDMDL
MODEL 7
REMARK VINA RESULT:      -5.2      1.245      6.065
REMARK  7 active torsions:
REMARK  status: ('A' for Active; 'I' for Inactive)
REMARK    1  A    between atoms: C_1  and  C_2 
REMARK    2  A    between atoms: C_2  and  C_3 
REMARK    3  A    between atoms: C_2  and  C_4 
REMARK    4  A    between atoms: C_4  and  C_5 
REMARK    5  A    between atoms: C_5  and  O_6 
REMARK    6  A    between atoms: O_6  and  C_7 
REMARK    7  A    between atoms: C_7  and  C_9 
ROOT
ATOM      1  C   LIG d   1       5.172  -0.197  -4.434  0.00  0.00     0.093 C 
ATOM      2  H   LIG d   1       6.013   0.167  -5.026  0.00  0.00     0.070 H 
ATOM      3  H   LIG d   1       4.761   0.624  -3.846  0.00  0.00     0.070 H 
ENDROOT
BRANCH   1   4
ATOM      4  C   LIG d   1       5.649  -1.308  -3.498  0.00  0.00    -0.016 C 
ATOM      5  H   LIG d   1       5.487  -2.276  -3.972  0.00  0.00     0.030 H 
ATOM      6  H   LIG d   1       6.710  -1.177  -3.290  0.00  0.00     0.030 H 
BRANCH   4   7
ATOM      7  C   LIG d   1       4.862  -1.244  -2.187  0.00  0.00    -0.044 C 
ATOM      8  H   LIG d   1       5.500  -1.569  -1.364  0.00  0.00     0.030 H 
BRANCH   7   9
ATOM      9  C   LIG d   1       4.402   0.194  -1.937  0.00  0.00    -0.063 C 
ATOM     10  H   LIG d   1       5.254   0.867  -2.018  0.00  0.00     0.023 H 
ATOM     11  H   LIG d   1       3.650   0.469  -2.676  0.00  0.00     0.023 H 
ATOM     12  H   LIG d   1       3.972   0.269  -0.937  0.00  0.00     0.023 H 
ENDBRANCH   7   9
BRANCH   7  13
ATOM     13  C   LIG d   1       3.641  -2.162  -2.279  0.00  0.00    -0.063 C 
ATOM     14  H   LIG d   1       3.332  -2.457  -1.276  0.00  0.00     0.023 H 
ATOM     15  H   LIG d   1       2.825  -1.633  -2.770  0.00  0.00     0.023 H 
ATOM     16  H   LIG d   1       3.897  -3.050  -2.856  0.00  0.00     0.023 H 
ENDBRANCH   7  13
ENDBRANCH   4   7
ENDBRANCH   1   4
BRANCH   1  17
ATOM     17  O   LIG d   1       4.147  -0.717  -5.321  0.00  0.00    -0.461 OA
BRANCH  17  18
ATOM     18  C   LIG d   1       3.280   0.172  -5.843  0.00  0.00     0.339 C 
ATOM     19  O   LIG d   1       2.652   0.910  -5.111  0.00  0.00    -0.245 OA
BRANCH  18  20
ATOM     20  C   LIG d   1       3.093   0.250  -7.306  0.00  0.00     0.059 A 
ATOM     21  C   LIG d   1       2.945   1.491  -7.930  0.00  0.00    -0.048 A 
ATOM     22  C   LIG d   1       2.772   1.557  -9.296  0.00  0.00    -0.061 A 
ATOM     23  H   LIG d   1       2.969   2.397  -7.343  0.00  0.00     0.063 H 
ATOM     24  C   LIG d   1       2.743   0.396 -10.050  0.00  0.00    -0.062 A 
ATOM     25  H   LIG d   1       2.657   2.515  -9.779  0.00  0.00     0.062 H 
ATOM     26  C   LIG d   1       2.888  -0.837  -9.438  0.00  0.00    -0.061 A 
ATOM     27  H   LIG d   1       2.606   0.453 -11.119  0.00  0.00     0.062 H 
ATOM     28  C   LIG d   1       3.068  -0.917  -8.073  0.00  0.00    -0.048 A 
ATOM     29  H   LIG d   1       2.864  -1.739 -10.032  0.00  0.00     0.062 H 
ATOM     30  H   LIG d   1       3.186  -1.879  -7.598  0.00  0.00     0.063 H 
ENDBRANCH  18  20
ENDBRANCH  17  18
ENDBRANCH   1  17
TORSDOF 7
ENDMDL
MODEL 8
REMARK VINA RESULT:      -5.1      2.044      5.788
REMARK  7 active torsions:
REMARK  status: ('A' for Active; 'I' for Inactive)
REMARK    1  A    between atoms: C_1  and  C_2 
REMARK    2  A    between atoms: C_2  and  C_3 
REMARK    3  A    between atoms: C_2  and  C_4 
REMARK    4  A    between atoms: C_4  and  C_5 
REMARK    5  A    between atoms: C_5  and  O_6 
REMARK    6  A    between atoms: O_6  and  C_7 
REMARK    7  A    between atoms: C_7  and  C_9 
ROOT
ATOM      1  C   LIG d   1       5.657  -1.914  -3.513  0.00  0.00     0.093 C 
ATOM      2  H   LIG d   1       6.428  -2.565  -3.099  0.00  0.00     0.070 H 
ATOM      3  H   LIG d   1       5.798  -0.901  -3.134  0.00  0.00     0.070 H 
ENDROOT
BRANCH   1   4
ATOM      4  C   LIG d   1       4.278  -2.427  -3.097  0.00  0.00    -0.016 C 
ATOM      5  H   LIG d   1       3.714  -2.713  -3.985  0.00  0.00     0.030 H 
ATOM      6  H   LIG d   1       4.394  -3.292  -2.444  0.00  0.00     0.030 H 
BRANCH   4   7
ATOM      7  C   LIG d   1       3.526  -1.323  -2.350  0.00  0.00    -0.044 C 
ATOM      8  H   LIG d   1       3.016  -1.752  -1.486  0.00  0.00     0.030 H 
BRANCH   7   9
ATOM      9  C   LIG d   1       4.519  -0.259  -1.878  0.00  0.00    -0.063 C 
ATOM     10  H   LIG d   1       3.996   0.684  -1.723  0.00  0.00     0.023 H 
ATOM     11  H   LIG d   1       4.977  -0.578  -0.942  0.00  0.00     0.023 H 
ATOM     12  H   LIG d   1       5.294  -0.125  -2.633  0.00  0.00     0.023 H 
ENDBRANCH   7   9
BRANCH   7  13
ATOM     13  C   LIG d   1       2.498  -0.683  -3.284  0.00  0.00    -0.063 C 
ATOM     14  H   LIG d   1       2.457   0.390  -3.099  0.00  0.00     0.023 H 
ATOM     15  H   LIG d   1       2.786  -0.864  -4.319  0.00  0.00     0.023 H 
ATOM     16  H   LIG d   1       1.517  -1.121  -3.098  0.00  0.00     0.023 H 
ENDBRANCH   7  13
ENDBRANCH   4   7
ENDBRANCH   1   4
BRANCH   1  17
ATOM     17  O   LIG d   1       5.756  -1.908  -4.962  0.00  0.00    -0.461 OA
BRANCH  17  18
ATOM     18  C   LIG d   1       5.329  -0.802  -5.600  0.00  0.00     0.339 C 
ATOM     19  O   LIG d   1       5.731   0.291  -5.255  0.00  0.00    -0.245 OA
BRANCH  18  20
ATOM     20  C   LIG d   1       4.371  -0.918  -6.718  0.00  0.00     0.059 A 
ATOM     21  C   LIG d   1       3.371   0.043  -6.889  0.00  0.00    -0.048 A 
ATOM     22  C   LIG d   1       2.481  -0.071  -7.936  0.00  0.00    -0.061 A 
ATOM     23  H   LIG d   1       3.298   0.874  -6.203  0.00  0.00     0.063 H 
ATOM     24  C   LIG d   1       2.576  -1.136  -8.816  0.00  0.00    -0.062 A 
ATOM     25  H   LIG d   1       1.708   0.670  -8.068  0.00  0.00     0.062 H 
ATOM     26  C   LIG d   1       3.562  -2.091  -8.652  0.00  0.00    -0.061 A 
ATOM     27  H   LIG d   1       1.875  -1.220  -9.633  0.00  0.00     0.062 H 
ATOM     28  C   LIG d   1       4.463  -1.986  -7.613  0.00  0.00    -0.048 A 
ATOM     29  H   LIG d   1       3.630  -2.919  -9.342  0.00  0.00     0.062 H 
ATOM     30  H   LIG d   1       5.236  -2.730  -7.489  0.00  0.00     0.063 H 
ENDBRANCH  18  20
ENDBRANCH  17  18
ENDBRANCH   1  17
TORSDOF 7
ENDMDL
MODEL 9
REMARK VINA RESULT:      -5.1      1.646      2.148
REMARK  7 active torsions:
REMARK  status: ('A' for Active; 'I' for Inactive)
REMARK    1  A    between atoms: C_1  and  C_2 
REMARK    2  A    between atoms: C_2  and  C_3 
REMARK    3  A    between atoms: C_2  and  C_4 
REMARK    4  A    between atoms: C_4  and  C_5 
REMARK    5  A    between atoms: C_5  and  O_6 
REMARK    6  A    between atoms: O_6  and  C_7 
REMARK    7  A    between atoms: C_7  and  C_9 
ROOT
ATOM      1  C   LIG d   1       3.905  -0.949  -8.107  0.00  0.00     0.093 C 
ATOM      2  H   LIG d   1       4.671  -0.276  -8.495  0.00  0.00     0.070 H 
ATOM      3  H   LIG d   1       3.742  -1.760  -8.817  0.00  0.00     0.070 H 
ENDROOT
BRANCH   1   4
ATOM      4  C   LIG d   1       2.601  -0.175  -7.907  0.00  0.00    -0.016 C 
ATOM      5  H   LIG d   1       1.762  -0.871  -7.915  0.00  0.00     0.030 H 
ATOM      6  H   LIG d   1       2.631   0.347  -6.951  0.00  0.00     0.030 H 
BRANCH   4   7
ATOM      7  C   LIG d   1       2.430   0.841  -9.038  0.00  0.00    -0.044 C 
ATOM      8  H   LIG d   1       1.370   1.058  -9.174  0.00  0.00     0.030 H 
BRANCH   7   9
ATOM      9  C   LIG d   1       3.172   2.130  -8.682  0.00  0.00    -0.063 C 
ATOM     10  H   LIG d   1       2.719   2.579  -7.799  0.00  0.00     0.023 H 
ATOM     11  H   LIG d   1       4.219   1.903  -8.477  0.00  0.00     0.023 H 
ATOM     12  H   LIG d   1       3.110   2.828  -9.518  0.00  0.00     0.023 H 
ENDBRANCH   7   9
BRANCH   7  13
ATOM     13  C   LIG d   1       3.003   0.264 -10.334  0.00  0.00    -0.063 C 
ATOM     14  H   LIG d   1       4.083   0.150 -10.235  0.00  0.00     0.023 H 
ATOM     15  H   LIG d   1       2.552  -0.709 -10.529  0.00  0.00     0.023 H 
ATOM     16  H   LIG d   1       2.783   0.938 -11.161  0.00  0.00     0.023 H 
ENDBRANCH   7  13
ENDBRANCH   4   7
ENDBRANCH   1   4
BRANCH   1  17
ATOM     17  O   LIG d   1       4.343  -1.498  -6.836  0.00  0.00    -0.461 OA
BRANCH  17  18
ATOM     18  C   LIG d   1       4.895  -0.640  -5.957  0.00  0.00     0.339 C 
ATOM     19  O   LIG d   1       5.569   0.288  -6.355  0.00  0.00    -0.245 OA
BRANCH  18  20
ATOM     20  C   LIG d   1       4.682  -0.829  -4.507  0.00  0.00     0.059 A 
ATOM     21  C   LIG d   1       4.934   0.218  -3.619  0.00  0.00    -0.048 A 
ATOM     22  C   LIG d   1       4.732   0.035  -2.267  0.00  0.00    -0.061 A 
ATOM     23  H   LIG d   1       5.284   1.170  -3.990  0.00  0.00     0.063 H 
ATOM     24  C   LIG d   1       4.282  -1.184  -1.790  0.00  0.00    -0.062 A 
ATOM     25  H   LIG d   1       4.927   0.844  -1.579  0.00  0.00     0.062 H 
ATOM     26  C   LIG d   1       4.031  -2.226  -2.665  0.00  0.00    -0.061 A 
ATOM     27  H   LIG d   1       4.126  -1.322  -0.730  0.00  0.00     0.062 H 
ATOM     28  C   LIG d   1       4.223  -2.055  -4.020  0.00  0.00    -0.048 A 
ATOM     29  H   LIG d   1       3.680  -3.175  -2.286  0.00  0.00     0.062 H 
ATOM     30  H   LIG d   1       4.022  -2.868  -4.702  0.00  0.00     0.063 H 
ENDBRANCH  18  20
ENDBRANCH  17  18
ENDBRANCH   1  17
TORSDOF 7
ENDMDL
MODEL 10
REMARK VINA RESULT:      -5.0      4.788      6.482
REMARK  7 active torsions:
REMARK  status: ('A' for Active; 'I' for Inactive)
REMARK    1  A    between atoms: C_1  and  C_2 
REMARK    2  A    between atoms: C_2  and  C_3 
REMARK    3  A    between atoms: C_2  and  C_4 
REMARK    4  A    between atoms: C_4  and  C_5 
REMARK    5  A    between atoms: C_5  and  O_6 
REMARK    6  A    between atoms: O_6  and  C_7 
REMARK    7  A    between atoms: C_7  and  C_9 
ROOT
ATOM      1  C   LIG d   1       9.244   2.617  -4.052  0.00  0.00     0.093 C 
ATOM      2  H   LIG d   1       9.782   1.817  -4.561  0.00  0.00     0.070 H 
ATOM      3  H   LIG d   1       8.863   3.325  -4.789  0.00  0.00     0.070 H 
ENDROOT
BRANCH   1   4
ATOM      4  C   LIG d   1      10.191   3.340  -3.093  0.00  0.00    -0.016 C 
ATOM      5  H   LIG d   1       9.792   3.286  -2.080  0.00  0.00     0.030 H 
ATOM      6  H   LIG d   1      11.171   2.864  -3.124  0.00  0.00     0.030 H 
BRANCH   4   7
ATOM      7  C   LIG d   1      10.322   4.806  -3.512  0.00  0.00    -0.044 C 
ATOM      8  H   LIG d   1      11.353   5.007  -3.809  0.00  0.00     0.030 H 
BRANCH   7   9
ATOM      9  C   LIG d   1       9.389   5.085  -4.692  0.00  0.00    -0.063 C 
ATOM     10  H   LIG d   1       9.886   4.811  -5.622  0.00  0.00     0.023 H 
ATOM     11  H   LIG d   1       8.477   4.498  -4.581  0.00  0.00     0.023 H 
ATOM     12  H   LIG d   1       9.137   6.145  -4.712  0.00  0.00     0.023 H 
ENDBRANCH   7   9
BRANCH   7  13
ATOM     13  C   LIG d   1       9.944   5.709  -2.337  0.00  0.00    -0.063 C 
ATOM     14  H   LIG d   1       9.767   5.098  -1.452  0.00  0.00     0.023 H 
ATOM     15  H   LIG d   1      10.755   6.408  -2.140  0.00  0.00     0.023 H 
ATOM     16  H   LIG d   1       9.038   6.263  -2.582  0.00  0.00     0.023 H 
ENDBRANCH   7  13
ENDBRANCH   4   7
ENDBRANCH   1   4
BRANCH   1  17
ATOM     17  O   LIG d   1       8.134   2.053  -3.304  0.00  0.00    -0.461 OA
BRANCH  17  18
ATOM     18  C   LIG d   1       7.239   1.322  -3.995  0.00  0.00     0.339 C 
ATOM     19  O   LIG d   1       7.283   1.297  -5.209  0.00  0.00    -0.245 OA
BRANCH  18  20
ATOM     20  C   LIG d   1       6.204   0.550  -3.278  0.00  0.00     0.059 A 
ATOM     21  C   LIG d   1       5.220   1.212  -2.541  0.00  0.00    -0.048 A 
ATOM     22  C   LIG d   1       4.256   0.485  -1.874  0.00  0.00    -0.061 A 
ATOM     23  H   LIG d   1       5.212   2.291  -2.496  0.00  0.00     0.063 H 
ATOM     24  C   LIG d   1       4.264  -0.898  -1.933  0.00  0.00    -0.062 A 
ATOM     25  H   LIG d   1       3.495   0.995  -1.304  0.00  0.00     0.062 H 
ATOM     26  C   LIG d   1       5.237  -1.560  -2.660  0.00  0.00    -0.061 A 
ATOM     27  H   LIG d   1       3.507  -1.462  -1.408  0.00  0.00     0.062 H 
ATOM     28  C   LIG d   1       6.203  -0.846  -3.337  0.00  0.00    -0.048 A 
ATOM     29  H   LIG d   1       5.238  -2.640  -2.701  0.00  0.00     0.062 H 
ATOM     30  H   LIG d   1       6.959  -1.364  -3.908  0.00  0.00     0.063 H 
ENDBRANCH  18  20
ENDBRANCH  17  18
ENDBRANCH   1  17
TORSDOF 7
ENDMDL
