MODEL 1
REMARK VINA RESULT:      -4.9      0.000      0.000
REMARK  7 active torsions:
REMARK  status: ('A' for Active; 'I' for Inactive)
REMARK    1  A    between atoms: C_1  and  C_2 
REMARK    2  A    between atoms: C_2  and  C_3 
REMARK    3  A    between atoms: C_5  and  C_18 
REMARK    4  A    between atoms: N_7  and  S_8 
REMARK    5  A    between atoms: S_8  and  C_11 
REMARK    6  A    between atoms: C_14  and  C_17 
REMARK    7  A    between atoms: C_18  and  C_19 
ROOT
ATOM      1  C   LIG d   1       5.735  -0.652  -2.895  0.00  0.00     0.049 A 
ATOM      2  H   LIG d   1       6.534  -1.175  -2.369  0.00  0.00     0.050 H 
ATOM      3  C   LIG d   1       6.102   0.612  -3.675  0.00  0.00     0.049 A 
ATOM      4  H   LIG d   1       5.364   1.412  -3.711  0.00  0.00     0.050 H 
ATOM      5  N   LIG d   1       5.778  -0.643  -4.359  0.00  0.00    -0.167 N 
ENDROOT
BRANCH   5   6
ATOM      6  S   LIG d   1       5.588  -1.467  -5.783  0.00  0.00     0.061 S 
ATOM      7  O   LIG d   1       4.553  -2.417  -5.567  0.00  0.00    -0.153 OA
ATOM      8  O   LIG d   1       6.890  -1.844  -6.211  0.00  0.00    -0.153 OA
BRANCH   6   9
ATOM      9  C   LIG d   1       4.980  -0.320  -6.972  0.00  0.00     0.105 A 
ATOM     10  C   LIG d   1       3.628  -0.037  -7.032  0.00  0.00    -0.035 A 
ATOM     11  C   LIG d   1       3.151   0.864  -7.964  0.00  0.00    -0.057 A 
ATOM     12  H   LIG d   1       2.945  -0.519  -6.348  0.00  0.00     0.064 H 
ATOM     13  C   LIG d   1       4.025   1.482  -8.840  0.00  0.00    -0.050 A 
ATOM     14  H   LIG d   1       2.094   1.087  -8.010  0.00  0.00     0.062 H 
ATOM     15  C   LIG d   1       5.376   1.198  -8.781  0.00  0.00    -0.057 A 
ATOM     16  C   LIG d   1       5.854   0.298  -7.848  0.00  0.00    -0.035 A 
ATOM     17  H   LIG d   1       6.059   1.681  -9.465  0.00  0.00     0.062 H 
ATOM     18  H   LIG d   1       6.909   0.073  -7.805  0.00  0.00     0.064 H 
BRANCH  13  19
ATOM     19  C   LIG d   1       3.504   2.464  -9.858  0.00  0.00    -0.040 C 
ATOM     20  H   LIG d   1       3.347   3.432  -9.382  0.00  0.00     0.028 H 
ATOM     21  H   LIG d   1       4.229   2.569 -10.665  0.00  0.00     0.028 H 
ATOM     22  H   LIG d   1       2.559   2.100 -10.262  0.00  0.00     0.028 H 
ENDBRANCH  13  19
ENDBRANCH   6   9
ENDBRANCH   5   6
BRANCH   1  23
ATOM     23  C   LIG d   1       4.361  -0.693  -2.225  0.00  0.00    -0.037 C 
ATOM     24  H   LIG d   1       4.455  -0.385  -1.183  0.00  0.00     0.028 H 
ATOM     25  H   LIG d   1       3.684  -0.014  -2.744  0.00  0.00     0.028 H 
BRANCH  23  26
ATOM     26  C   LIG d   1       3.805  -2.117  -2.289  0.00  0.00    -0.064 C 
ATOM     27  H   LIG d   1       4.415  -2.715  -2.966  0.00  0.00     0.023 H 
ATOM     28  H   LIG d   1       3.826  -2.560  -1.293  0.00  0.00     0.023 H 
ATOM     29  H   LIG d   1       2.778  -2.090  -2.653  0.00  0.00     0.023 H 
ENDBRANCH  23  26
ENDBRANCH   1  23
BRANCH   3  30
ATOM     30  C   LIG d   1       7.565   1.060  -3.671  0.00  0.00    -0.037 C 
ATOM     31  H   LIG d   1       7.692   1.880  -2.962  0.00  0.00     0.028 H 
ATOM     32  H   LIG d   1       8.201   0.225  -3.376  0.00  0.00     0.028 H 
BRANCH  30  33
ATOM     33  C   LIG d   1       7.959   1.532  -5.072  0.00  0.00    -0.064 C 
ATOM     34  H   LIG d   1       8.992   1.247  -5.273  0.00  0.00     0.023 H 
ATOM     35  H   LIG d   1       7.304   1.068  -5.809  0.00  0.00     0.023 H 
ATOM     36  H   LIG d   1       7.863   2.616  -5.130  0.00  0.00     0.023 H 
ENDBRANCH  30  33
ENDBRANCH   3  30
TORSDOF 7
ENDMDL
MODEL 2
REMARK VINA RESULT:      -4.9      2.738      5.510
REMARK  7 active torsions:
REMARK  status: ('A' for Active; 'I' for Inactive)
REMARK    1  A    between atoms: C_1  and  C_2 
REMARK    2  A    between atoms: C_2  and  C_3 
REMARK    3  A    between atoms: C_5  and  C_18 
REMARK    4  A    between atoms: N_7  and  S_8 
REMARK    5  A    between atoms: S_8  and  C_11 
REMARK    6  A    between atoms: C_14  and  C_17 
REMARK    7  A    between atoms: C_18  and  C_19 
ROOT
ATOM      1  C   LIG d   1       6.073   0.230  -8.370  0.00  0.00     0.049 A 
ATOM      2  H   LIG d   1       6.325  -0.824  -8.495  0.00  0.00     0.050 H 
ATOM      3  C   LIG d   1       5.481   0.969  -9.572  0.00  0.00     0.049 A 
ATOM      4  H   LIG d   1       5.741   2.021  -9.692  0.00  0.00     0.050 H 
ATOM      5  N   LIG d   1       4.657   0.600  -8.418  0.00  0.00    -0.167 N 
ENDROOT
BRANCH   5   6
ATOM      6  S   LIG d   1       3.172   0.605  -7.684  0.00  0.00     0.061 S 
ATOM      7  O   LIG d   1       2.340  -0.261  -8.444  0.00  0.00    -0.153 OA
ATOM      8  O   LIG d   1       2.840   1.967  -7.448  0.00  0.00    -0.153 OA
BRANCH   6   9
ATOM      9  C   LIG d   1       3.370  -0.146  -6.103  0.00  0.00     0.105 A 
ATOM     10  C   LIG d   1       2.633   0.307  -5.025  0.00  0.00    -0.035 A 
ATOM     11  C   LIG d   1       2.788  -0.283  -3.785  0.00  0.00    -0.057 A 
ATOM     12  H   LIG d   1       1.934   1.120  -5.152  0.00  0.00     0.064 H 
ATOM     13  C   LIG d   1       3.683  -1.324  -3.621  0.00  0.00    -0.050 A 
ATOM     14  H   LIG d   1       2.209   0.069  -2.943  0.00  0.00     0.062 H 
ATOM     15  C   LIG d   1       4.422  -1.776  -4.699  0.00  0.00    -0.057 A 
ATOM     16  C   LIG d   1       4.265  -1.187  -5.940  0.00  0.00    -0.035 A 
ATOM     17  H   LIG d   1       5.121  -2.589  -4.571  0.00  0.00     0.062 H 
ATOM     18  H   LIG d   1       4.846  -1.536  -6.780  0.00  0.00     0.064 H 
BRANCH  13  19
ATOM     19  C   LIG d   1       3.852  -1.967  -2.268  0.00  0.00    -0.040 C 
ATOM     20  H   LIG d   1       2.873  -2.157  -1.831  0.00  0.00     0.028 H 
ATOM     21  H   LIG d   1       4.391  -2.908  -2.379  0.00  0.00     0.028 H 
ATOM     22  H   LIG d   1       4.418  -1.298  -1.619  0.00  0.00     0.028 H 
ENDBRANCH  13  19
ENDBRANCH   6   9
ENDBRANCH   5   6
BRANCH   1  23
ATOM     23  C   LIG d   1       6.983   1.024  -7.432  0.00  0.00    -0.037 C 
ATOM     24  H   LIG d   1       7.670   1.633  -8.021  0.00  0.00     0.028 H 
ATOM     25  H   LIG d   1       6.377   1.672  -6.799  0.00  0.00     0.028 H 
BRANCH  23  26
ATOM     26  C   LIG d   1       7.782   0.056  -6.556  0.00  0.00    -0.064 C 
ATOM     27  H   LIG d   1       7.810   0.432  -5.533  0.00  0.00     0.023 H 
ATOM     28  H   LIG d   1       7.305  -0.925  -6.570  0.00  0.00     0.023 H 
ATOM     29  H   LIG d   1       8.798  -0.028  -6.941  0.00  0.00     0.023 H 
ENDBRANCH  23  26
ENDBRANCH   1  23
BRANCH   3  30
ATOM     30  C   LIG d   1       5.277   0.185 -10.870  0.00  0.00    -0.037 C 
ATOM     31  H   LIG d   1       6.087   0.414 -11.564  0.00  0.00     0.028 H 
ATOM     32  H   LIG d   1       5.277  -0.884 -10.652  0.00  0.00     0.028 H 
BRANCH  30  33
ATOM     33  C   LIG d   1       3.939   0.577 -11.499  0.00  0.00    -0.064 C 
ATOM     34  H   LIG d   1       3.159   0.554 -10.737  0.00  0.00     0.023 H 
ATOM     35  H   LIG d   1       4.013   1.583 -11.912  0.00  0.00     0.023 H 
ATOM     36  H   LIG d   1       3.692  -0.126 -12.295  0.00  0.00     0.023 H 
ENDBRANCH  30  33
ENDBRANCH   3  30
TORSDOF 7
ENDMDL
MODEL 3
REMARK VINA RESULT:      -4.9      3.137      6.066
REMARK  7 active torsions:
REMARK  status: ('A' for Active; 'I' for Inactive)
REMARK    1  A    between atoms: C_1  and  C_2 
REMARK    2  A    between atoms: C_2  and  C_3 
REMARK    3  A    between atoms: C_5  and  C_18 
REMARK    4  A    between atoms: N_7  and  S_8 
REMARK    5  A    between atoms: S_8  and  C_11 
REMARK    6  A    between atoms: C_14  and  C_17 
REMARK    7  A    between atoms: C_18  and  C_19 
ROOT
ATOM      1  C   LIG d   1       3.029  -2.173  -8.910  0.00  0.00     0.049 A 
ATOM      2  H   LIG d   1       2.138  -2.600  -8.448  0.00  0.00     0.050 H 
ATOM      3  C   LIG d   1       2.832  -1.091  -9.973  0.00  0.00     0.049 A 
ATOM      4  H   LIG d   1       3.543  -1.062 -10.798  0.00  0.00     0.050 H 
ATOM      5  N   LIG d   1       3.330  -0.767  -8.634  0.00  0.00    -0.167 N 
ENDROOT
BRANCH   5   6
ATOM      6  S   LIG d   1       3.864   0.381  -7.565  0.00  0.00     0.061 S 
ATOM      7  O   LIG d   1       2.889   1.415  -7.559  0.00  0.00    -0.153 OA
ATOM      8  O   LIG d   1       5.229   0.621  -7.876  0.00  0.00    -0.153 OA
BRANCH   6   9
ATOM      9  C   LIG d   1       3.833  -0.348  -5.962  0.00  0.00     0.105 A 
ATOM     10  C   LIG d   1       2.952   0.121  -5.005  0.00  0.00    -0.035 A 
ATOM     11  C   LIG d   1       2.928  -0.451  -3.748  0.00  0.00    -0.057 A 
ATOM     12  H   LIG d   1       2.281   0.933  -5.242  0.00  0.00     0.064 H 
ATOM     13  C   LIG d   1       3.787  -1.491  -3.444  0.00  0.00    -0.050 A 
ATOM     14  H   LIG d   1       2.237  -0.086  -3.001  0.00  0.00     0.062 H 
ATOM     15  C   LIG d   1       4.670  -1.959  -4.400  0.00  0.00    -0.057 A 
ATOM     16  C   LIG d   1       4.693  -1.388  -5.658  0.00  0.00    -0.035 A 
ATOM     17  H   LIG d   1       5.341  -2.771  -4.163  0.00  0.00     0.062 H 
ATOM     18  H   LIG d   1       5.385  -1.750  -6.403  0.00  0.00     0.064 H 
BRANCH  13  19
ATOM     19  C   LIG d   1       3.761  -2.114  -2.072  0.00  0.00    -0.040 C 
ATOM     20  H   LIG d   1       3.392  -3.136  -2.144  0.00  0.00     0.028 H 
ATOM     21  H   LIG d   1       4.769  -2.119  -1.657  0.00  0.00     0.028 H 
ATOM     22  H   LIG d   1       3.104  -1.534  -1.424  0.00  0.00     0.028 H 
ENDBRANCH  13  19
ENDBRANCH   6   9
ENDBRANCH   5   6
BRANCH   1  23
ATOM     23  C   LIG d   1       4.208  -3.130  -9.088  0.00  0.00    -0.037 C 
ATOM     24  H   LIG d   1       4.156  -3.593 -10.074  0.00  0.00     0.028 H 
ATOM     25  H   LIG d   1       5.142  -2.576  -8.997  0.00  0.00     0.028 H 
BRANCH  23  26
ATOM     26  C   LIG d   1       4.151  -4.216  -8.012  0.00  0.00    -0.064 C 
ATOM     27  H   LIG d   1       4.320  -5.191  -8.470  0.00  0.00     0.023 H 
ATOM     28  H   LIG d   1       4.922  -4.027  -7.264  0.00  0.00     0.023 H 
ATOM     29  H   LIG d   1       3.171  -4.204  -7.535  0.00  0.00     0.023 H 
ENDBRANCH  23  26
ENDBRANCH   1  23
BRANCH   3  30
ATOM     30  C   LIG d   1       1.400  -0.673 -10.318  0.00  0.00    -0.037 C 
ATOM     31  H   LIG d   1       0.708  -1.129  -9.609  0.00  0.00     0.028 H 
ATOM     32  H   LIG d   1       1.315   0.412 -10.263  0.00  0.00     0.028 H 
BRANCH  30  33
ATOM     33  C   LIG d   1       1.059  -1.141 -11.735  0.00  0.00    -0.064 C 
ATOM     34  H   LIG d   1       1.950  -1.564 -12.201  0.00  0.00     0.023 H 
ATOM     35  H   LIG d   1       0.278  -1.899 -11.689  0.00  0.00     0.023 H 
ATOM     36  H   LIG d   1       0.710  -0.292 -12.322  0.00  0.00     0.023 H 
ENDBRANCH  30  33
ENDBRANCH   3  30
TORSDOF 7
ENDMDL
MODEL 4
REMARK VINA RESULT:      -4.9      2.747      5.894
REMARK  7 active torsions:
REMARK  status: ('A' for Active; 'I' for Inactive)
REMARK    1  A    between atoms: C_1  and  C_2 
REMARK    2  A    between atoms: C_2  and  C_3 
REMARK    3  A    between atoms: C_5  and  C_18 
REMARK    4  A    between atoms: N_7  and  S_8 
REMARK    5  A    between atoms: S_8  and  C_11 
REMARK    6  A    between atoms: C_14  and  C_17 
REMARK    7  A    between atoms: C_18  and  C_19 
ROOT
ATOM      1  C   LIG d   1       4.724  -2.471  -7.686  0.00  0.00     0.049 A 
ATOM      2  H   LIG d   1       5.639  -2.384  -8.271  0.00  0.00     0.050 H 
ATOM      3  C   LIG d   1       3.917  -3.765  -7.813  0.00  0.00     0.049 A 
ATOM      4  H   LIG d   1       2.832  -3.690  -7.744  0.00  0.00     0.050 H 
ATOM      5  N   LIG d   1       4.698  -3.465  -6.610  0.00  0.00    -0.167 N 
ENDROOT
BRANCH   5   6
ATOM      6  S   LIG d   1       5.194  -3.923  -5.098  0.00  0.00     0.061 S 
ATOM      7  O   LIG d   1       6.584  -4.204  -5.195  0.00  0.00    -0.153 OA
ATOM      8  O   LIG d   1       4.253  -4.881  -4.634  0.00  0.00    -0.153 OA
BRANCH   6   9
ATOM      9  C   LIG d   1       5.037  -2.516  -4.050  0.00  0.00     0.105 A 
ATOM     10  C   LIG d   1       5.943  -1.476  -4.148  0.00  0.00    -0.035 A 
ATOM     11  C   LIG d   1       5.819  -0.371  -3.327  0.00  0.00    -0.057 A 
ATOM     12  H   LIG d   1       6.746  -1.525  -4.868  0.00  0.00     0.064 H 
ATOM     13  C   LIG d   1       4.791  -0.307  -2.404  0.00  0.00    -0.050 A 
ATOM     14  H   LIG d   1       6.526   0.443  -3.405  0.00  0.00     0.062 H 
ATOM     15  C   LIG d   1       3.887  -1.348  -2.305  0.00  0.00    -0.057 A 
ATOM     16  C   LIG d   1       4.009  -2.452  -3.127  0.00  0.00    -0.035 A 
ATOM     17  H   LIG d   1       3.084  -1.298  -1.584  0.00  0.00     0.062 H 
ATOM     18  H   LIG d   1       3.306  -3.266  -3.046  0.00  0.00     0.064 H 
BRANCH  13  19
ATOM     19  C   LIG d   1       4.657   0.897  -1.508  0.00  0.00    -0.040 C 
ATOM     20  H   LIG d   1       4.457   1.780  -2.113  0.00  0.00     0.028 H 
ATOM     21  H   LIG d   1       3.835   0.740  -0.809  0.00  0.00     0.028 H 
ATOM     22  H   LIG d   1       5.584   1.039  -0.951  0.00  0.00     0.028 H 
ENDBRANCH  13  19
ENDBRANCH   6   9
ENDBRANCH   5   6
BRANCH   1  23
ATOM     23  C   LIG d   1       3.945  -1.173  -7.473  0.00  0.00    -0.037 C 
ATOM     24  H   LIG d   1       3.242  -1.031  -8.295  0.00  0.00     0.028 H 
ATOM     25  H   LIG d   1       3.396  -1.229  -6.533  0.00  0.00     0.028 H 
BRANCH  23  26
ATOM     26  C   LIG d   1       4.920   0.005  -7.426  0.00  0.00    -0.064 C 
ATOM     27  H   LIG d   1       5.045   0.332  -6.393  0.00  0.00     0.023 H 
ATOM     28  H   LIG d   1       5.885  -0.305  -7.828  0.00  0.00     0.023 H 
ATOM     29  H   LIG d   1       4.525   0.828  -8.022  0.00  0.00     0.023 H 
ENDBRANCH  23  26
ENDBRANCH   1  23
BRANCH   3  30
ATOM     30  C   LIG d   1       4.447  -4.854  -8.749  0.00  0.00    -0.037 C 
ATOM     31  H   LIG d   1       3.891  -4.829  -9.687  0.00  0.00     0.028 H 
ATOM     32  H   LIG d   1       5.504  -4.679  -8.949  0.00  0.00     0.028 H 
BRANCH  30  33
ATOM     33  C   LIG d   1       4.272  -6.224  -8.090  0.00  0.00    -0.064 C 
ATOM     34  H   LIG d   1       4.099  -6.977  -8.859  0.00  0.00     0.023 H 
ATOM     35  H   LIG d   1       5.173  -6.476  -7.530  0.00  0.00     0.023 H 
ATOM     36  H   LIG d   1       3.419  -6.194  -7.411  0.00  0.00     0.023 H 
ENDBRANCH  30  33
ENDBRANCH   3  30
TORSDOF 7
ENDMDL
MODEL 5
REMARK VINA RESULT:      -4.8      1.932      2.971
REMARK  7 active torsions:
REMARK  status: ('A' for Active; 'I' for Inactive)
REMARK    1  A    between atoms: C_1  and  C_2 
REMARK    2  A    between atoms: C_2  and  C_3 
REMARK    3  A    between atoms: C_5  and  C_18 
REMARK    4  A    between atoms: N_7  and  S_8 
REMARK    5  A    between atoms: S_8  and  C_11 
REMARK    6  A    between atoms: C_14  and  C_17 
REMARK    7  A    between atoms: C_18  and  C_19 
ROOT
ATOM      1  C   LIG d   1       4.770  -0.334  -3.774  0.00  0.00     0.049 A 
ATOM      2  H   LIG d   1       3.682  -0.299  -3.827  0.00  0.00     0.050 H 
ATOM      3  C   LIG d   1       5.443  -1.707  -3.830  0.00  0.00     0.049 A 
ATOM      4  H   LIG d   1       6.354  -1.844  -3.247  0.00  0.00     0.050 H 
ATOM      5  N   LIG d   1       5.495  -0.783  -4.965  0.00  0.00    -0.167 N 
ENDROOT
BRANCH   5   6
ATOM      6  S   LIG d   1       6.013  -0.466  -6.506  0.00  0.00     0.061 S 
ATOM      7  O   LIG d   1       6.863  -1.543  -6.878  0.00  0.00    -0.153 OA
ATOM      8  O   LIG d   1       6.448   0.887  -6.518  0.00  0.00    -0.153 OA
BRANCH   6   9
ATOM      9  C   LIG d   1       4.603  -0.550  -7.558  0.00  0.00     0.105 A 
ATOM     10  C   LIG d   1       4.223  -1.760  -8.109  0.00  0.00    -0.035 A 
ATOM     11  C   LIG d   1       3.116  -1.827  -8.933  0.00  0.00    -0.057 A 
ATOM     12  H   LIG d   1       4.790  -2.653  -7.893  0.00  0.00     0.064 H 
ATOM     13  C   LIG d   1       2.389  -0.683  -9.209  0.00  0.00    -0.050 A 
ATOM     14  H   LIG d   1       2.817  -2.773  -9.362  0.00  0.00     0.062 H 
ATOM     15  C   LIG d   1       2.770   0.527  -8.660  0.00  0.00    -0.057 A 
ATOM     16  C   LIG d   1       3.876   0.593  -7.834  0.00  0.00    -0.035 A 
ATOM     17  H   LIG d   1       2.203   1.420  -8.876  0.00  0.00     0.062 H 
ATOM     18  H   LIG d   1       4.177   1.539  -7.409  0.00  0.00     0.064 H 
BRANCH  13  19
ATOM     19  C   LIG d   1       1.183  -0.756 -10.110  0.00  0.00    -0.040 C 
ATOM     20  H   LIG d   1       1.209  -1.685 -10.678  0.00  0.00     0.028 H 
ATOM     21  H   LIG d   1       0.276  -0.724  -9.505  0.00  0.00     0.028 H 
ATOM     22  H   LIG d   1       1.192   0.091 -10.796  0.00  0.00     0.028 H 
ENDBRANCH  13  19
ENDBRANCH   6   9
ENDBRANCH   5   6
BRANCH   1  23
ATOM     23  C   LIG d   1       5.427   0.738  -2.904  0.00  0.00    -0.037 C 
ATOM     24  H   LIG d   1       6.412   0.395  -2.585  0.00  0.00     0.028 H 
ATOM     25  H   LIG d   1       5.534   1.658  -3.480  0.00  0.00     0.028 H 
BRANCH  23  26
ATOM     26  C   LIG d   1       4.556   1.003  -1.675  0.00  0.00    -0.064 C 
ATOM     27  H   LIG d   1       4.273   0.054  -1.219  0.00  0.00     0.023 H 
ATOM     28  H   LIG d   1       5.116   1.601  -0.955  0.00  0.00     0.023 H 
ATOM     29  H   LIG d   1       3.658   1.543  -1.976  0.00  0.00     0.023 H 
ENDBRANCH  23  26
ENDBRANCH   1  23
BRANCH   3  30
ATOM     30  C   LIG d   1       4.549  -2.942  -3.960  0.00  0.00    -0.037 C 
ATOM     31  H   LIG d   1       4.478  -3.443  -2.994  0.00  0.00     0.028 H 
ATOM     32  H   LIG d   1       3.553  -2.637  -4.284  0.00  0.00     0.028 H 
BRANCH  30  33
ATOM     33  C   LIG d   1       5.149  -3.901  -4.990  0.00  0.00    -0.064 C 
ATOM     34  H   LIG d   1       5.855  -4.569  -4.495  0.00  0.00     0.023 H 
ATOM     35  H   LIG d   1       4.353  -4.488  -5.447  0.00  0.00     0.023 H 
ATOM     36  H   LIG d   1       5.667  -3.329  -5.760  0.00  0.00     0.023 H 
ENDBRANCH  30  33
ENDBRANCH   3  30
TORSDOF 7
ENDMDL
MODEL 6
REMARK VINA RESULT:      -4.8      2.589      5.534
REMARK  7 active torsions:
REMARK  status: ('A' for Active; 'I' for Inactive)
REMARK    1  A    between atoms: C_1  and  C_2 
REMARK    2  A    between atoms: C_2  and  C_3 
REMARK    3  A    between atoms: C_5  and  C_18 
REMARK    4  A    between atoms: N_7  and  S_8 
REMARK    5  A    between atoms: S_8  and  C_11 
REMARK    6  A    between atoms: C_14  and  C_17 
REMARK    7  A    between atoms: C_18  and  C_19 
ROOT
ATOM      1  C   LIG d   1       5.581  -3.541  -8.115  0.00  0.00     0.049 A 
ATOM      2  H   LIG d   1       4.752  -4.075  -8.580  0.00  0.00     0.050 H 
ATOM      3  C   LIG d   1       5.316  -2.124  -7.600  0.00  0.00     0.049 A 
ATOM      4  H   LIG d   1       6.131  -1.404  -7.671  0.00  0.00     0.050 H 
ATOM      5  N   LIG d   1       5.485  -3.253  -6.682  0.00  0.00    -0.167 N 
ENDROOT
BRANCH   5   6
ATOM      6  S   LIG d   1       5.537  -3.810  -5.123  0.00  0.00     0.061 S 
ATOM      7  O   LIG d   1       6.872  -4.238  -4.889  0.00  0.00    -0.153 OA
ATOM      8  O   LIG d   1       4.420  -4.675  -4.963  0.00  0.00    -0.153 OA
BRANCH   6   9
ATOM      9  C   LIG d   1       5.259  -2.428  -4.066  0.00  0.00     0.105 A 
ATOM     10  C   LIG d   1       4.185  -2.428  -3.196  0.00  0.00    -0.035 A 
ATOM     11  C   LIG d   1       3.967  -1.344  -2.367  0.00  0.00    -0.057 A 
ATOM     12  H   LIG d   1       3.517  -3.276  -3.162  0.00  0.00     0.064 H 
ATOM     13  C   LIG d   1       4.822  -0.258  -2.409  0.00  0.00    -0.050 A 
ATOM     14  H   LIG d   1       3.129  -1.345  -1.685  0.00  0.00     0.062 H 
ATOM     15  C   LIG d   1       5.895  -0.257  -3.281  0.00  0.00    -0.057 A 
ATOM     16  C   LIG d   1       6.114  -1.342  -4.109  0.00  0.00    -0.035 A 
ATOM     17  H   LIG d   1       6.563   0.591  -3.314  0.00  0.00     0.062 H 
ATOM     18  H   LIG d   1       6.949  -1.339  -4.793  0.00  0.00     0.064 H 
BRANCH  13  19
ATOM     19  C   LIG d   1       4.584   0.924  -1.505  0.00  0.00    -0.040 C 
ATOM     20  H   LIG d   1       5.197   1.763  -1.834  0.00  0.00     0.028 H 
ATOM     21  H   LIG d   1       3.531   1.205  -1.546  0.00  0.00     0.028 H 
ATOM     22  H   LIG d   1       4.850   0.657  -0.483  0.00  0.00     0.028 H 
ENDBRANCH  13  19
ENDBRANCH   6   9
ENDBRANCH   5   6
BRANCH   1  23
ATOM     23  C   LIG d   1       6.967  -3.835  -8.689  0.00  0.00    -0.037 C 
ATOM     24  H   LIG d   1       6.959  -3.662  -9.765  0.00  0.00     0.028 H 
ATOM     25  H   LIG d   1       7.701  -3.177  -8.222  0.00  0.00     0.028 H 
BRANCH  23  26
ATOM     26  C   LIG d   1       7.337  -5.293  -8.408  0.00  0.00    -0.064 C 
ATOM     27  H   LIG d   1       8.288  -5.330  -7.877  0.00  0.00     0.023 H 
ATOM     28  H   LIG d   1       6.560  -5.753  -7.796  0.00  0.00     0.023 H 
ATOM     29  H   LIG d   1       7.426  -5.833  -9.350  0.00  0.00     0.023 H 
ENDBRANCH  23  26
ENDBRANCH   1  23
BRANCH   3  30
ATOM     30  C   LIG d   1       3.908  -1.549  -7.768  0.00  0.00    -0.037 C 
ATOM     31  H   LIG d   1       3.780  -1.192  -8.790  0.00  0.00     0.028 H 
ATOM     32  H   LIG d   1       3.171  -2.326  -7.559  0.00  0.00     0.028 H 
BRANCH  30  33
ATOM     33  C   LIG d   1       3.712  -0.386  -6.793  0.00  0.00    -0.064 C 
ATOM     34  H   LIG d   1       4.542   0.314  -6.893  0.00  0.00     0.023 H 
ATOM     35  H   LIG d   1       2.776   0.125  -7.020  0.00  0.00     0.023 H 
ATOM     36  H   LIG d   1       3.680  -0.769  -5.773  0.00  0.00     0.023 H 
ENDBRANCH  30  33
ENDBRANCH   3  30
TORSDOF 7
ENDMDL
MODEL 7
REMARK VINA RESULT:      -4.8      1.662      2.989
REMARK  7 active torsions:
REMARK  status: ('A' for Active; 'I' for Inactive)
REMARK    1  A    between atoms: C_1  and  C_2 
REMARK    2  A    between atoms: C_2  and  C_3 
REMARK    3  A    between atoms: C_5  and  C_18 
REMARK    4  A    between atoms: N_7  and  S_8 
REMARK    5  A    between atoms: S_8  and  C_11 
REMARK    6  A    between atoms: C_14  and  C_17 
REMARK    7  A    between atoms: C_18  and  C_19 
ROOT
ATOM      1  C   LIG d   1       6.135   0.605  -3.875  0.00  0.00     0.049 A 
ATOM      2  H   LIG d   1       5.743   1.455  -4.434  0.00  0.00     0.050 H 
ATOM      3  C   LIG d   1       5.249   0.002  -2.782  0.00  0.00     0.049 A 
ATOM      4  H   LIG d   1       5.745  -0.395  -1.896  0.00  0.00     0.050 H 
ATOM      5  N   LIG d   1       5.473  -0.689  -4.054  0.00  0.00    -0.167 N 
ENDROOT
BRANCH   5   6
ATOM      6  S   LIG d   1       5.186  -2.008  -5.015  0.00  0.00     0.061 S 
ATOM      7  O   LIG d   1       4.324  -2.866  -4.279  0.00  0.00    -0.153 OA
ATOM      8  O   LIG d   1       6.450  -2.435  -5.505  0.00  0.00    -0.153 OA
BRANCH   6   9
ATOM      9  C   LIG d   1       4.269  -1.447  -6.409  0.00  0.00     0.105 A 
ATOM     10  C   LIG d   1       3.541  -0.274  -6.331  0.00  0.00    -0.035 A 
ATOM     11  C   LIG d   1       2.821   0.167  -7.426  0.00  0.00    -0.057 A 
ATOM     12  H   LIG d   1       3.536   0.299  -5.417  0.00  0.00     0.064 H 
ATOM     13  C   LIG d   1       2.827  -0.567  -8.598  0.00  0.00    -0.050 A 
ATOM     14  H   LIG d   1       2.254   1.085  -7.366  0.00  0.00     0.062 H 
ATOM     15  C   LIG d   1       3.553  -1.740  -8.675  0.00  0.00    -0.057 A 
ATOM     16  C   LIG d   1       4.274  -2.181  -7.581  0.00  0.00    -0.035 A 
ATOM     17  H   LIG d   1       3.557  -2.314  -9.591  0.00  0.00     0.062 H 
ATOM     18  H   LIG d   1       4.837  -3.100  -7.640  0.00  0.00     0.064 H 
BRANCH  13  19
ATOM     19  C   LIG d   1       2.041  -0.086  -9.791  0.00  0.00    -0.040 C 
ATOM     20  H   LIG d   1       1.227  -0.782  -9.994  0.00  0.00     0.028 H 
ATOM     21  H   LIG d   1       1.632   0.902  -9.582  0.00  0.00     0.028 H 
ATOM     22  H   LIG d   1       2.698  -0.032 -10.659  0.00  0.00     0.028 H 
ENDBRANCH  13  19
ENDBRANCH   6   9
ENDBRANCH   5   6
BRANCH   1  23
ATOM     23  C   LIG d   1       7.645   0.604  -3.638  0.00  0.00    -0.037 C 
ATOM     24  H   LIG d   1       7.856   0.255  -2.627  0.00  0.00     0.028 H 
ATOM     25  H   LIG d   1       8.125  -0.061  -4.357  0.00  0.00     0.028 H 
BRANCH  23  26
ATOM     26  C   LIG d   1       8.190   2.023  -3.812  0.00  0.00    -0.064 C 
ATOM     27  H   LIG d   1       7.759   2.674  -3.050  0.00  0.00     0.023 H 
ATOM     28  H   LIG d   1       9.275   2.011  -3.708  0.00  0.00     0.023 H 
ATOM     29  H   LIG d   1       7.923   2.396  -4.801  0.00  0.00     0.023 H 
ENDBRANCH  23  26
ENDBRANCH   1  23
BRANCH   3  30
ATOM     30  C   LIG d   1       3.872   0.626  -2.546  0.00  0.00    -0.037 C 
ATOM     31  H   LIG d   1       3.833   1.051  -1.542  0.00  0.00     0.028 H 
ATOM     32  H   LIG d   1       3.699   1.413  -3.281  0.00  0.00     0.028 H 
BRANCH  30  33
ATOM     33  C   LIG d   1       2.793  -0.450  -2.687  0.00  0.00    -0.064 C 
ATOM     34  H   LIG d   1       2.823  -1.110  -1.819  0.00  0.00     0.023 H 
ATOM     35  H   LIG d   1       1.814   0.024  -2.749  0.00  0.00     0.023 H 
ATOM     36  H   LIG d   1       2.975  -1.030  -3.592  0.00  0.00     0.023 H 
ENDBRANCH  30  33
ENDBRANCH   3  30
TORSDOF 7
ENDMDL
MODEL 8
REMARK VINA RESULT:      -4.7      2.347      5.586
REMARK  7 active torsions:
REMARK  status: ('A' for Active; 'I' for Inactive)
REMARK    1  A    between atoms: C_1  and  C_2 
REMARK    2  A    between atoms: C_2  and  C_3 
REMARK    3  A    between atoms: C_5  and  C_18 
REMARK    4  A    between atoms: N_7  and  S_8 
REMARK    5  A    between atoms: S_8  and  C_11 
REMARK    6  A    between atoms: C_14  and  C_17 
REMARK    7  A    between atoms: C_18  and  C_19 
ROOT
ATOM      1  C   LIG d   1       5.519   0.479 -10.049  0.00  0.00     0.049 A 
ATOM      2  H   LIG d   1       5.017   0.460 -11.017  0.00  0.00     0.050 H 
ATOM      3  C   LIG d   1       5.089   1.549  -9.044  0.00  0.00     0.049 A 
ATOM      4  H   LIG d   1       5.857   1.961  -8.389  0.00  0.00     0.050 H 
ATOM      5  N   LIG d   1       4.725   0.142  -8.866  0.00  0.00    -0.167 N 
ENDROOT
BRANCH   5   6
ATOM      6  S   LIG d   1       3.961  -1.016  -7.960  0.00  0.00     0.061 S 
ATOM      7  O   LIG d   1       4.806  -2.159  -7.965  0.00  0.00    -0.153 OA
ATOM      8  O   LIG d   1       2.615  -1.062  -8.412  0.00  0.00    -0.153 OA
BRANCH   6   9
ATOM      9  C   LIG d   1       3.915  -0.432  -6.299  0.00  0.00     0.105 A 
ATOM     10  C   LIG d   1       5.029  -0.557  -5.491  0.00  0.00    -0.035 A 
ATOM     11  C   LIG d   1       4.993  -0.098  -4.188  0.00  0.00    -0.057 A 
ATOM     12  H   LIG d   1       5.928  -1.012  -5.877  0.00  0.00     0.064 H 
ATOM     13  C   LIG d   1       3.841   0.486  -3.691  0.00  0.00    -0.050 A 
ATOM     14  H   LIG d   1       5.865  -0.194  -3.556  0.00  0.00     0.062 H 
ATOM     15  C   LIG d   1       2.727   0.609  -4.499  0.00  0.00    -0.057 A 
ATOM     16  C   LIG d   1       2.763   0.152  -5.803  0.00  0.00    -0.035 A 
ATOM     17  H   LIG d   1       1.827   1.065  -4.112  0.00  0.00     0.062 H 
ATOM     18  H   LIG d   1       1.891   0.244  -6.432  0.00  0.00     0.064 H 
BRANCH  13  19
ATOM     19  C   LIG d   1       3.802   0.985  -2.270  0.00  0.00    -0.040 C 
ATOM     20  H   LIG d   1       2.914   0.597  -1.773  0.00  0.00     0.028 H 
ATOM     21  H   LIG d   1       4.693   0.646  -1.741  0.00  0.00     0.028 H 
ATOM     22  H   LIG d   1       3.772   2.075  -2.270  0.00  0.00     0.028 H 
ENDBRANCH  13  19
ENDBRANCH   6   9
ENDBRANCH   5   6
BRANCH   1  23
ATOM     23  C   LIG d   1       6.993   0.070 -10.057  0.00  0.00    -0.037 C 
ATOM     24  H   LIG d   1       7.555   0.745 -10.702  0.00  0.00     0.028 H 
ATOM     25  H   LIG d   1       7.390   0.124  -9.042  0.00  0.00     0.028 H 
BRANCH  23  26
ATOM     26  C   LIG d   1       7.122  -1.362 -10.579  0.00  0.00    -0.064 C 
ATOM     27  H   LIG d   1       7.940  -1.865 -10.062  0.00  0.00     0.023 H 
ATOM     28  H   LIG d   1       6.191  -1.901 -10.398  0.00  0.00     0.023 H 
ATOM     29  H   LIG d   1       7.328  -1.341 -11.649  0.00  0.00     0.023 H 
ENDBRANCH  23  26
ENDBRANCH   1  23
BRANCH   3  30
ATOM     30  C   LIG d   1       3.982   2.522  -9.458  0.00  0.00    -0.037 C 
ATOM     31  H   LIG d   1       4.376   3.539  -9.465  0.00  0.00     0.028 H 
ATOM     32  H   LIG d   1       3.626   2.263 -10.456  0.00  0.00     0.028 H 
BRANCH  30  33
ATOM     33  C   LIG d   1       2.823   2.430  -8.463  0.00  0.00    -0.064 C 
ATOM     34  H   LIG d   1       2.282   3.376  -8.449  0.00  0.00     0.023 H 
ATOM     35  H   LIG d   1       2.148   1.629  -8.763  0.00  0.00     0.023 H 
ATOM     36  H   LIG d   1       3.216   2.221  -7.468  0.00  0.00     0.023 H 
ENDBRANCH  30  33
ENDBRANCH   3  30
TORSDOF 7
ENDMDL
MODEL 9
REMARK VINA RESULT:      -4.7      2.026      4.508
REMARK  7 active torsions:
REMARK  status: ('A' for Active; 'I' for Inactive)
REMARK    1  A    between atoms: C_1  and  C_2 
REMARK    2  A    between atoms: C_2  and  C_3 
REMARK    3  A    between atoms: C_5  and  C_18 
REMARK    4  A    between atoms: N_7  and  S_8 
REMARK    5  A    between atoms: S_8  and  C_11 
REMARK    6  A    between atoms: C_14  and  C_17 
REMARK    7  A    between atoms: C_18  and  C_19 
ROOT
ATOM      1  C   LIG d   1       3.242  -0.244  -5.052  0.00  0.00     0.049 A 
ATOM      2  H   LIG d   1       2.652  -1.110  -4.752  0.00  0.00     0.050 H 
ATOM      3  C   LIG d   1       3.746   0.692  -3.951  0.00  0.00     0.049 A 
ATOM      4  H   LIG d   1       3.808   1.754  -4.184  0.00  0.00     0.050 H 
ATOM      5  N   LIG d   1       4.653  -0.215  -4.659  0.00  0.00    -0.167 N 
ENDROOT
BRANCH   5   6
ATOM      6  S   LIG d   1       6.191  -0.793  -4.871  0.00  0.00     0.061 S 
ATOM      7  O   LIG d   1       6.214  -1.429  -6.142  0.00  0.00    -0.153 OA
ATOM      8  O   LIG d   1       6.538  -1.472  -3.672  0.00  0.00    -0.153 OA
BRANCH   6   9
ATOM      9  C   LIG d   1       7.260   0.602  -4.987  0.00  0.00     0.105 A 
ATOM     10  C   LIG d   1       7.767   0.984  -6.215  0.00  0.00    -0.035 A 
ATOM     11  C   LIG d   1       8.605   2.079  -6.306  0.00  0.00    -0.057 A 
ATOM     12  H   LIG d   1       7.506   0.430  -7.103  0.00  0.00     0.064 H 
ATOM     13  C   LIG d   1       8.940   2.791  -5.168  0.00  0.00    -0.050 A 
ATOM     14  H   LIG d   1       9.000   2.380  -7.266  0.00  0.00     0.062 H 
ATOM     15  C   LIG d   1       8.435   2.407  -3.940  0.00  0.00    -0.057 A 
ATOM     16  C   LIG d   1       7.595   1.313  -3.849  0.00  0.00    -0.035 A 
ATOM     17  H   LIG d   1       8.697   2.963  -3.051  0.00  0.00     0.062 H 
ATOM     18  H   LIG d   1       7.204   1.011  -2.889  0.00  0.00     0.064 H 
BRANCH  13  19
ATOM     19  C   LIG d   1       9.856   3.984  -5.268  0.00  0.00    -0.040 C 
ATOM     20  H   LIG d   1      10.027   4.395  -4.273  0.00  0.00     0.028 H 
ATOM     21  H   LIG d   1      10.806   3.676  -5.703  0.00  0.00     0.028 H 
ATOM     22  H   LIG d   1       9.394   4.742  -5.901  0.00  0.00     0.028 H 
ENDBRANCH  13  19
ENDBRANCH   6   9
ENDBRANCH   5   6
BRANCH   1  23
ATOM     23  C   LIG d   1       2.865   0.385  -6.393  0.00  0.00    -0.037 C 
ATOM     24  H   LIG d   1       1.794   0.588  -6.412  0.00  0.00     0.028 H 
ATOM     25  H   LIG d   1       3.413   1.319  -6.524  0.00  0.00     0.028 H 
BRANCH  23  26
ATOM     26  C   LIG d   1       3.222  -0.579  -7.527  0.00  0.00    -0.064 C 
ATOM     27  H   LIG d   1       4.246  -0.930  -7.396  0.00  0.00     0.023 H 
ATOM     28  H   LIG d   1       2.541  -1.430  -7.508  0.00  0.00     0.023 H 
ATOM     29  H   LIG d   1       3.134  -0.064  -8.483  0.00  0.00     0.023 H 
ENDBRANCH  23  26
ENDBRANCH   1  23
BRANCH   3  30
ATOM     30  C   LIG d   1       3.392   0.352  -2.501  0.00  0.00    -0.037 C 
ATOM     31  H   LIG d   1       2.478   0.875  -2.218  0.00  0.00     0.028 H 
ATOM     32  H   LIG d   1       3.240  -0.724  -2.406  0.00  0.00     0.028 H 
BRANCH  30  33
ATOM     33  C   LIG d   1       4.535   0.788  -1.581  0.00  0.00    -0.064 C 
ATOM     34  H   LIG d   1       5.423   0.194  -1.799  0.00  0.00     0.023 H 
ATOM     35  H   LIG d   1       4.753   1.843  -1.747  0.00  0.00     0.023 H 
ATOM     36  H   LIG d   1       4.242   0.636  -0.542  0.00  0.00     0.023 H 
ENDBRANCH  30  33
ENDBRANCH   3  30
TORSDOF 7
ENDMDL
MODEL 10
REMARK VINA RESULT:      -4.7      2.257      5.327
REMARK  7 active torsions:
REMARK  status: ('A' for Active; 'I' for Inactive)
REMARK    1  A    between atoms: C_1  and  C_2 
REMARK    2  A    between atoms: C_2  and  C_3 
REMARK    3  A    between atoms: C_5  and  C_18 
REMARK    4  A    between atoms: N_7  and  S_8 
REMARK    5  A    between atoms: S_8  and  C_11 
REMARK    6  A    between atoms: C_14  and  C_17 
REMARK    7  A    between atoms: C_18  and  C_19 
ROOT
ATOM      1  C   LIG d   1       5.159   1.584  -8.952  0.00  0.00     0.049 A 
ATOM      2  H   LIG d   1       5.812   2.117  -8.261  0.00  0.00     0.050 H 
ATOM      3  C   LIG d   1       5.792   0.530  -9.862  0.00  0.00     0.049 A 
ATOM      4  H   LIG d   1       5.374   0.412 -10.862  0.00  0.00     0.050 H 
ATOM      5  N   LIG d   1       4.952   0.152  -8.724  0.00  0.00    -0.167 N 
ENDROOT
BRANCH   5   6
ATOM      6  S   LIG d   1       4.253  -1.047  -7.820  0.00  0.00     0.061 S 
ATOM      7  O   LIG d   1       5.185  -2.120  -7.779  0.00  0.00    -0.153 OA
ATOM      8  O   LIG d   1       2.929  -1.206  -8.310  0.00  0.00    -0.153 OA
BRANCH   6   9
ATOM      9  C   LIG d   1       4.110  -0.442  -6.172  0.00  0.00     0.105 A 
ATOM     10  C   LIG d   1       5.195  -0.499  -5.318  0.00  0.00    -0.035 A 
ATOM     11  C   LIG d   1       5.084  -0.023  -4.025  0.00  0.00    -0.057 A 
ATOM     12  H   LIG d   1       6.132  -0.913  -5.661  0.00  0.00     0.064 H 
ATOM     13  C   LIG d   1       3.885   0.508  -3.585  0.00  0.00    -0.050 A 
ATOM     14  H   LIG d   1       5.933  -0.065  -3.358  0.00  0.00     0.062 H 
ATOM     15  C   LIG d   1       2.799   0.563  -4.438  0.00  0.00    -0.057 A 
ATOM     16  C   LIG d   1       2.911   0.089  -5.732  0.00  0.00    -0.035 A 
ATOM     17  H   LIG d   1       1.863   0.977  -4.094  0.00  0.00     0.062 H 
ATOM     18  H   LIG d   1       2.062   0.127  -6.397  0.00  0.00     0.064 H 
BRANCH  13  19
ATOM     19  C   LIG d   1       3.763   1.026  -2.175  0.00  0.00    -0.040 C 
ATOM     20  H   LIG d   1       3.783   0.189  -1.477  0.00  0.00     0.028 H 
ATOM     21  H   LIG d   1       4.595   1.697  -1.961  0.00  0.00     0.028 H 
ATOM     22  H   LIG d   1       2.823   1.567  -2.068  0.00  0.00     0.028 H 
ENDBRANCH  13  19
ENDBRANCH   6   9
ENDBRANCH   5   6
BRANCH   1  23
ATOM     23  C   LIG d   1       3.988   2.391  -9.516  0.00  0.00    -0.037 C 
ATOM     24  H   LIG d   1       4.294   3.428  -9.654  0.00  0.00     0.028 H 
ATOM     25  H   LIG d   1       3.687   1.971 -10.476  0.00  0.00     0.028 H 
BRANCH  23  26
ATOM     26  C   LIG d   1       2.812   2.331  -8.540  0.00  0.00    -0.064 C 
ATOM     27  H   LIG d   1       3.070   2.868  -7.626  0.00  0.00     0.023 H 
ATOM     28  H   LIG d   1       1.936   2.794  -8.997  0.00  0.00     0.023 H 
ATOM     29  H   LIG d   1       2.590   1.291  -8.300  0.00  0.00     0.023 H 
ENDBRANCH  23  26
ENDBRANCH   1  23
BRANCH   3  30
ATOM     30  C   LIG d   1       7.299   0.288  -9.743  0.00  0.00    -0.037 C 
ATOM     31  H   LIG d   1       7.832   1.003 -10.371  0.00  0.00     0.028 H 
ATOM     32  H   LIG d   1       7.607   0.417  -8.705  0.00  0.00     0.028 H 
BRANCH  30  33
ATOM     33  C   LIG d   1       7.625  -1.135 -10.200  0.00  0.00    -0.064 C 
ATOM     34  H   LIG d   1       7.111  -1.850  -9.556  0.00  0.00     0.023 H 
ATOM     35  H   LIG d   1       7.297  -1.271 -11.230  0.00  0.00     0.023 H 
ATOM     36  H   LIG d   1       8.702  -1.298 -10.137  0.00  0.00     0.023 H 
ENDBRANCH  30  33
ENDBRANCH   3  30
TORSDOF 7
ENDMDL
