MODEL 1
REMARK VINA RESULT:      -5.3      0.000      0.000
REMARK  5 active torsions:
REMARK  status: ('A' for Active; 'I' for Inactive)
REMARK    1  A    between atoms: C_1  and  C_2 
REMARK    2  A    between atoms: C_2  and  C_3 
REMARK    3  A    between atoms: C_3  and  C_5 
REMARK    4  A    between atoms: C_3  and  C_12 
REMARK    5  A    between atoms: C_8  and  C_11 
ROOT
ATOM      1  C   LIG d   1       3.645  -0.105  -4.401  0.00  0.00    -0.039 A 
ATOM      2  C   LIG d   1       4.781  -0.549  -5.052  0.00  0.00    -0.058 A 
ATOM      3  C   LIG d   1       4.808  -0.605  -6.433  0.00  0.00    -0.059 A 
ATOM      4  C   LIG d   1       3.702  -0.208  -7.162  0.00  0.00    -0.050 A 
ATOM      5  C   LIG d   1       2.568   0.241  -6.511  0.00  0.00    -0.059 A 
ATOM      6  C   LIG d   1       2.540   0.292  -5.130  0.00  0.00    -0.058 A 
ATOM      7  H   LIG d   1       5.646  -0.855  -4.482  0.00  0.00     0.062 H 
ATOM      8  H   LIG d   1       5.693  -0.956  -6.942  0.00  0.00     0.062 H 
ATOM      9  H   LIG d   1       1.706   0.551  -7.081  0.00  0.00     0.062 H 
ATOM     10  H   LIG d   1       1.654   0.643  -4.621  0.00  0.00     0.062 H 
ENDROOT
BRANCH   1  11
ATOM     11  C   LIG d   1       3.614  -0.048  -2.895  0.00  0.00     0.023 C 
ATOM     12  H   LIG d   1       2.589  -0.172  -2.548  0.00  0.00     0.041 H 
BRANCH  11  13
ATOM     13  C   LIG d   1       4.484  -1.170  -2.325  0.00  0.00    -0.044 C 
ATOM     14  H   LIG d   1       5.371  -1.295  -2.946  0.00  0.00     0.027 H 
ATOM     15  H   LIG d   1       4.785  -0.915  -1.308  0.00  0.00     0.027 H 
BRANCH  13  16
ATOM     16  C   LIG d   1       3.686  -2.476  -2.308  0.00  0.00    -0.064 C 
ATOM     17  H   LIG d   1       4.370  -3.318  -2.204  0.00  0.00     0.023 H 
ATOM     18  H   LIG d   1       2.991  -2.466  -1.469  0.00  0.00     0.023 H 
ATOM     19  H   LIG d   1       3.130  -2.573  -3.240  0.00  0.00     0.023 H 
ENDBRANCH  13  16
ENDBRANCH  11  13
BRANCH  11  20
ATOM     20  C   LIG d   1       4.144   1.284  -2.431  0.00  0.00     0.049 C 
ATOM     21  O   LIG d   1       3.997   2.265  -3.120  0.00  0.00    -0.549 OA
ATOM     22  O   LIG d   1       4.779   1.380  -1.253  0.00  0.00    -0.549 OA
ENDBRANCH  11  20
ENDBRANCH   1  11
BRANCH   4  23
ATOM     23  C   LIG d   1       3.733  -0.266  -8.668  0.00  0.00    -0.040 C 
ATOM     24  H   LIG d   1       4.454  -1.018  -8.988  0.00  0.00     0.028 H 
ATOM     25  H   LIG d   1       2.743  -0.529  -9.041  0.00  0.00     0.028 H 
ATOM     26  H   LIG d   1       4.024   0.708  -9.064  0.00  0.00     0.028 H 
ENDBRANCH   4  23
TORSDOF 5
ENDMDL
MODEL 2
REMARK VINA RESULT:      -5.2      2.082      2.925
REMARK  5 active torsions:
REMARK  status: ('A' for Active; 'I' for Inactive)
REMARK    1  A    between atoms: C_1  and  C_2 
REMARK    2  A    between atoms: C_2  and  C_3 
REMARK    3  A    between atoms: C_3  and  C_5 
REMARK    4  A    between atoms: C_3  and  C_12 
REMARK    5  A    between atoms: C_8  and  C_11 
ROOT
ATOM      1  C   LIG d   1       4.009  -0.435  -4.748  0.00  0.00    -0.039 A 
ATOM      2  C   LIG d   1       2.771   0.158  -4.920  0.00  0.00    -0.058 A 
ATOM      3  C   LIG d   1       2.370   0.565  -6.178  0.00  0.00    -0.059 A 
ATOM      4  C   LIG d   1       3.202   0.372  -7.265  0.00  0.00    -0.050 A 
ATOM      5  C   LIG d   1       4.437  -0.225  -7.093  0.00  0.00    -0.059 A 
ATOM      6  C   LIG d   1       4.840  -0.628  -5.834  0.00  0.00    -0.058 A 
ATOM      7  H   LIG d   1       2.120   0.305  -4.071  0.00  0.00     0.062 H 
ATOM      8  H   LIG d   1       1.406   1.032  -6.313  0.00  0.00     0.062 H 
ATOM      9  H   LIG d   1       5.086  -0.376  -7.943  0.00  0.00     0.062 H 
ATOM     10  H   LIG d   1       5.805  -1.095  -5.700  0.00  0.00     0.062 H 
ENDROOT
BRANCH   1  11
ATOM     11  C   LIG d   1       4.448  -0.874  -3.374  0.00  0.00     0.023 C 
ATOM     12  H   LIG d   1       5.524  -0.729  -3.274  0.00  0.00     0.041 H 
BRANCH  11  13
ATOM     13  C   LIG d   1       3.721  -0.044  -2.316  0.00  0.00    -0.044 C 
ATOM     14  H   LIG d   1       2.882   0.478  -2.776  0.00  0.00     0.027 H 
ATOM     15  H   LIG d   1       3.353  -0.701  -1.528  0.00  0.00     0.027 H 
BRANCH  13  16
ATOM     16  C   LIG d   1       4.689   0.979  -1.716  0.00  0.00    -0.064 C 
ATOM     17  H   LIG d   1       5.715   0.662  -1.904  0.00  0.00     0.023 H 
ATOM     18  H   LIG d   1       4.519   1.953  -2.175  0.00  0.00     0.023 H 
ATOM     19  H   LIG d   1       4.522   1.049  -0.642  0.00  0.00     0.023 H 
ENDBRANCH  13  16
ENDBRANCH  11  13
BRANCH  11  20
ATOM     20  C   LIG d   1       4.118  -2.331  -3.184  0.00  0.00     0.049 C 
ATOM     21  O   LIG d   1       3.518  -2.692  -2.199  0.00  0.00    -0.549 OA
ATOM     22  O   LIG d   1       4.489  -3.231  -4.109  0.00  0.00    -0.549 OA
ENDBRANCH  11  20
ENDBRANCH   1  11
BRANCH   4  23
ATOM     23  C   LIG d   1       2.763   0.812  -8.638  0.00  0.00    -0.040 C 
ATOM     24  H   LIG d   1       1.708   0.574  -8.776  0.00  0.00     0.028 H 
ATOM     25  H   LIG d   1       2.908   1.888  -8.738  0.00  0.00     0.028 H 
ATOM     26  H   LIG d   1       3.354   0.294  -9.393  0.00  0.00     0.028 H 
ENDBRANCH   4  23
TORSDOF 5
ENDMDL
MODEL 3
REMARK VINA RESULT:      -5.1      1.404      1.889
REMARK  5 active torsions:
REMARK  status: ('A' for Active; 'I' for Inactive)
REMARK    1  A    between atoms: C_1  and  C_2 
REMARK    2  A    between atoms: C_2  and  C_3 
REMARK    3  A    between atoms: C_3  and  C_5 
REMARK    4  A    between atoms: C_3  and  C_12 
REMARK    5  A    between atoms: C_8  and  C_11 
ROOT
ATOM      1  C   LIG d   1       4.118  -0.149  -4.497  0.00  0.00    -0.039 A 
ATOM      2  C   LIG d   1       2.902   0.471  -4.718  0.00  0.00    -0.058 A 
ATOM      3  C   LIG d   1       2.354   0.486  -5.986  0.00  0.00    -0.059 A 
ATOM      4  C   LIG d   1       3.019  -0.125  -7.033  0.00  0.00    -0.050 A 
ATOM      5  C   LIG d   1       4.233  -0.749  -6.811  0.00  0.00    -0.059 A 
ATOM      6  C   LIG d   1       4.782  -0.760  -5.543  0.00  0.00    -0.058 A 
ATOM      7  H   LIG d   1       2.381   0.945  -3.898  0.00  0.00     0.062 H 
ATOM      8  H   LIG d   1       1.406   0.973  -6.159  0.00  0.00     0.062 H 
ATOM      9  H   LIG d   1       4.751  -1.227  -7.629  0.00  0.00     0.062 H 
ATOM     10  H   LIG d   1       5.731  -1.247  -5.370  0.00  0.00     0.062 H 
ENDROOT
BRANCH   1  11
ATOM     11  C   LIG d   1       4.718  -0.161  -3.114  0.00  0.00     0.023 C 
ATOM     12  H   LIG d   1       4.014   0.283  -2.410  0.00  0.00     0.041 H 
BRANCH  11  13
ATOM     13  C   LIG d   1       5.014  -1.603  -2.699  0.00  0.00    -0.044 C 
ATOM     14  H   LIG d   1       5.467  -2.136  -3.534  0.00  0.00     0.027 H 
ATOM     15  H   LIG d   1       5.700  -1.604  -1.852  0.00  0.00     0.027 H 
BRANCH  13  16
ATOM     16  C   LIG d   1       3.709  -2.296  -2.300  0.00  0.00    -0.064 C 
ATOM     17  H   LIG d   1       3.873  -3.372  -2.242  0.00  0.00     0.023 H 
ATOM     18  H   LIG d   1       3.383  -1.925  -1.328  0.00  0.00     0.023 H 
ATOM     19  H   LIG d   1       2.943  -2.085  -3.045  0.00  0.00     0.023 H 
ENDBRANCH  13  16
ENDBRANCH  11  13
BRANCH  11  20
ATOM     20  C   LIG d   1       5.997   0.635  -3.114  0.00  0.00     0.049 C 
ATOM     21  O   LIG d   1       5.958   1.841  -3.064  0.00  0.00    -0.549 OA
ATOM     22  O   LIG d   1       7.180   0.004  -3.170  0.00  0.00    -0.549 OA
ENDBRANCH  11  20
ENDBRANCH   1  11
BRANCH   4  23
ATOM     23  C   LIG d   1       2.420  -0.112  -8.416  0.00  0.00    -0.040 C 
ATOM     24  H   LIG d   1       2.151  -1.129  -8.705  0.00  0.00     0.028 H 
ATOM     25  H   LIG d   1       1.528   0.514  -8.419  0.00  0.00     0.028 H 
ATOM     26  H   LIG d   1       3.147   0.286  -9.124  0.00  0.00     0.028 H 
ENDBRANCH   4  23
TORSDOF 5
ENDMDL
MODEL 4
REMARK VINA RESULT:      -5.0      2.731      4.064
REMARK  5 active torsions:
REMARK  status: ('A' for Active; 'I' for Inactive)
REMARK    1  A    between atoms: C_1  and  C_2 
REMARK    2  A    between atoms: C_2  and  C_3 
REMARK    3  A    between atoms: C_3  and  C_5 
REMARK    4  A    between atoms: C_3  and  C_12 
REMARK    5  A    between atoms: C_8  and  C_11 
ROOT
ATOM      1  C   LIG d   1       5.102  -1.911  -3.483  0.00  0.00    -0.039 A 
ATOM      2  C   LIG d   1       4.783  -2.975  -4.307  0.00  0.00    -0.058 A 
ATOM      3  C   LIG d   1       5.786  -3.765  -4.836  0.00  0.00    -0.059 A 
ATOM      4  C   LIG d   1       7.109  -3.496  -4.535  0.00  0.00    -0.050 A 
ATOM      5  C   LIG d   1       7.427  -2.434  -3.707  0.00  0.00    -0.059 A 
ATOM      6  C   LIG d   1       6.424  -1.642  -3.182  0.00  0.00    -0.058 A 
ATOM      7  H   LIG d   1       3.750  -3.188  -4.539  0.00  0.00     0.062 H 
ATOM      8  H   LIG d   1       5.538  -4.593  -5.482  0.00  0.00     0.062 H 
ATOM      9  H   LIG d   1       8.460  -2.225  -3.472  0.00  0.00     0.062 H 
ATOM     10  H   LIG d   1       6.673  -0.814  -2.536  0.00  0.00     0.062 H 
ENDROOT
BRANCH   1  11
ATOM     11  C   LIG d   1       4.008  -1.047  -2.911  0.00  0.00     0.023 C 
ATOM     12  H   LIG d   1       3.278  -1.676  -2.402  0.00  0.00     0.041 H 
BRANCH  11  13
ATOM     13  C   LIG d   1       4.610  -0.055  -1.914  0.00  0.00    -0.044 C 
ATOM     14  H   LIG d   1       4.503  -0.445  -0.902  0.00  0.00     0.027 H 
ATOM     15  H   LIG d   1       5.667   0.089  -2.139  0.00  0.00     0.027 H 
BRANCH  13  16
ATOM     16  C   LIG d   1       3.878   1.285  -2.024  0.00  0.00    -0.064 C 
ATOM     17  H   LIG d   1       4.078   1.881  -1.134  0.00  0.00     0.023 H 
ATOM     18  H   LIG d   1       4.230   1.819  -2.907  0.00  0.00     0.023 H 
ATOM     19  H   LIG d   1       2.807   1.107  -2.109  0.00  0.00     0.023 H 
ENDBRANCH  13  16
ENDBRANCH  11  13
BRANCH  11  20
ATOM     20  C   LIG d   1       3.330  -0.292  -4.024  0.00  0.00     0.049 C 
ATOM     21  O   LIG d   1       2.124  -0.280  -4.099  0.00  0.00    -0.549 OA
ATOM     22  O   LIG d   1       4.065   0.367  -4.934  0.00  0.00    -0.549 OA
ENDBRANCH  11  20
ENDBRANCH   1  11
BRANCH   4  23
ATOM     23  C   LIG d   1       8.203  -4.359  -5.108  0.00  0.00    -0.040 C 
ATOM     24  H   LIG d   1       7.986  -5.407  -4.899  0.00  0.00     0.028 H 
ATOM     25  H   LIG d   1       8.257  -4.208  -6.186  0.00  0.00     0.028 H 
ATOM     26  H   LIG d   1       9.156  -4.088  -4.654  0.00  0.00     0.028 H 
ENDBRANCH   4  23
TORSDOF 5
ENDMDL
MODEL 5
REMARK VINA RESULT:      -4.9      2.478      3.368
REMARK  5 active torsions:
REMARK  status: ('A' for Active; 'I' for Inactive)
REMARK    1  A    between atoms: C_1  and  C_2 
REMARK    2  A    between atoms: C_2  and  C_3 
REMARK    3  A    between atoms: C_3  and  C_5 
REMARK    4  A    between atoms: C_3  and  C_12 
REMARK    5  A    between atoms: C_8  and  C_11 
ROOT
ATOM      1  C   LIG d   1       5.725   0.200  -4.056  0.00  0.00    -0.039 A 
ATOM      2  C   LIG d   1       6.152  -0.315  -5.266  0.00  0.00    -0.058 A 
ATOM      3  C   LIG d   1       7.385   0.047  -5.775  0.00  0.00    -0.059 A 
ATOM      4  C   LIG d   1       8.195   0.918  -5.069  0.00  0.00    -0.050 A 
ATOM      5  C   LIG d   1       7.770   1.429  -3.857  0.00  0.00    -0.059 A 
ATOM      6  C   LIG d   1       6.535   1.070  -3.351  0.00  0.00    -0.058 A 
ATOM      7  H   LIG d   1       5.521  -0.998  -5.815  0.00  0.00     0.062 H 
ATOM      8  H   LIG d   1       7.717  -0.352  -6.722  0.00  0.00     0.062 H 
ATOM      9  H   LIG d   1       8.403   2.108  -3.306  0.00  0.00     0.062 H 
ATOM     10  H   LIG d   1       6.203   1.470  -2.404  0.00  0.00     0.062 H 
ENDROOT
BRANCH   1  11
ATOM     11  C   LIG d   1       4.378  -0.191  -3.504  0.00  0.00     0.023 C 
ATOM     12  H   LIG d   1       3.858  -0.817  -4.229  0.00  0.00     0.041 H 
BRANCH  11  13
ATOM     13  C   LIG d   1       4.568  -0.968  -2.201  0.00  0.00    -0.044 C 
ATOM     14  H   LIG d   1       5.627  -1.180  -2.053  0.00  0.00     0.027 H 
ATOM     15  H   LIG d   1       4.195  -0.374  -1.366  0.00  0.00     0.027 H 
BRANCH  13  16
ATOM     16  C   LIG d   1       3.791  -2.285  -2.275  0.00  0.00    -0.064 C 
ATOM     17  H   LIG d   1       3.033  -2.216  -3.055  0.00  0.00     0.023 H 
ATOM     18  H   LIG d   1       4.479  -3.099  -2.507  0.00  0.00     0.023 H 
ATOM     19  H   LIG d   1       3.310  -2.477  -1.317  0.00  0.00     0.023 H 
ENDBRANCH  13  16
ENDBRANCH  11  13
BRANCH  11  20
ATOM     20  C   LIG d   1       3.566   1.049  -3.237  0.00  0.00     0.049 C 
ATOM     21  O   LIG d   1       3.102   1.679  -4.158  0.00  0.00    -0.549 OA
ATOM     22  O   LIG d   1       3.357   1.455  -1.974  0.00  0.00    -0.549 OA
ENDBRANCH  11  20
ENDBRANCH   1  11
BRANCH   4  23
ATOM     23  C   LIG d   1       9.542   1.310  -5.622  0.00  0.00    -0.040 C 
ATOM     24  H   LIG d   1       9.778   0.683  -6.482  0.00  0.00     0.028 H 
ATOM     25  H   LIG d   1       9.517   2.355  -5.930  0.00  0.00     0.028 H 
ATOM     26  H   LIG d   1      10.304   1.174  -4.854  0.00  0.00     0.028 H 
ENDBRANCH   4  23
TORSDOF 5
ENDMDL
MODEL 6
REMARK VINA RESULT:      -4.7      2.706      5.254
REMARK  5 active torsions:
REMARK  status: ('A' for Active; 'I' for Inactive)
REMARK    1  A    between atoms: C_1  and  C_2 
REMARK    2  A    between atoms: C_2  and  C_3 
REMARK    3  A    between atoms: C_3  and  C_5 
REMARK    4  A    between atoms: C_3  and  C_12 
REMARK    5  A    between atoms: C_8  and  C_11 
ROOT
ATOM      1  C   LIG d   1       3.485  -0.142  -6.934  0.00  0.00    -0.039 A 
ATOM      2  C   LIG d   1       2.546   0.564  -6.203  0.00  0.00    -0.058 A 
ATOM      3  C   LIG d   1       2.471   0.400  -4.833  0.00  0.00    -0.059 A 
ATOM      4  C   LIG d   1       3.341  -0.463  -4.192  0.00  0.00    -0.050 A 
ATOM      5  C   LIG d   1       4.283  -1.165  -4.921  0.00  0.00    -0.059 A 
ATOM      6  C   LIG d   1       4.354  -1.004  -6.292  0.00  0.00    -0.058 A 
ATOM      7  H   LIG d   1       1.870   1.241  -6.704  0.00  0.00     0.062 H 
ATOM      8  H   LIG d   1       1.736   0.948  -4.263  0.00  0.00     0.062 H 
ATOM      9  H   LIG d   1       4.961  -1.837  -4.420  0.00  0.00     0.062 H 
ATOM     10  H   LIG d   1       5.090  -1.552  -6.862  0.00  0.00     0.062 H 
ENDROOT
BRANCH   1  11
ATOM     11  C   LIG d   1       3.563   0.033  -8.428  0.00  0.00     0.023 C 
ATOM     12  H   LIG d   1       4.263  -0.692  -8.842  0.00  0.00     0.041 H 
BRANCH  11  13
ATOM     13  C   LIG d   1       2.179  -0.186  -9.041  0.00  0.00    -0.044 C 
ATOM     14  H   LIG d   1       1.415  -0.029  -8.280  0.00  0.00     0.027 H 
ATOM     15  H   LIG d   1       2.028   0.518  -9.859  0.00  0.00     0.027 H 
BRANCH  13  16
ATOM     16  C   LIG d   1       2.078  -1.617  -9.574  0.00  0.00    -0.064 C 
ATOM     17  H   LIG d   1       1.093  -2.022  -9.345  0.00  0.00     0.023 H 
ATOM     18  H   LIG d   1       2.228  -1.614 -10.654  0.00  0.00     0.023 H 
ATOM     19  H   LIG d   1       2.843  -2.235  -9.104  0.00  0.00     0.023 H 
ENDBRANCH  13  16
ENDBRANCH  11  13
BRANCH  11  20
ATOM     20  C   LIG d   1       4.038   1.427  -8.746  0.00  0.00     0.049 C 
ATOM     21  O   LIG d   1       5.167   1.759  -8.469  0.00  0.00    -0.549 OA
ATOM     22  O   LIG d   1       3.209   2.300  -9.338  0.00  0.00    -0.549 OA
ENDBRANCH  11  20
ENDBRANCH   1  11
BRANCH   4  23
ATOM     23  C   LIG d   1       3.262  -0.638  -2.697  0.00  0.00    -0.040 C 
ATOM     24  H   LIG d   1       2.342  -1.165  -2.441  0.00  0.00     0.028 H 
ATOM     25  H   LIG d   1       4.119  -1.218  -2.354  0.00  0.00     0.028 H 
ATOM     26  H   LIG d   1       3.266   0.339  -2.214  0.00  0.00     0.028 H 
ENDBRANCH   4  23
TORSDOF 5
ENDMDL
MODEL 7
REMARK VINA RESULT:      -4.6      3.051      4.089
REMARK  5 active torsions:
REMARK  status: ('A' for Active; 'I' for Inactive)
REMARK    1  A    between atoms: C_1  and  C_2 
REMARK    2  A    between atoms: C_2  and  C_3 
REMARK    3  A    between atoms: C_3  and  C_5 
REMARK    4  A    between atoms: C_3  and  C_12 
REMARK    5  A    between atoms: C_8  and  C_11 
ROOT
ATOM      1  C   LIG d   1       6.047  -1.767  -4.014  0.00  0.00    -0.039 A 
ATOM      2  C   LIG d   1       5.764  -2.498  -5.153  0.00  0.00    -0.058 A 
ATOM      3  C   LIG d   1       6.623  -3.501  -5.562  0.00  0.00    -0.059 A 
ATOM      4  C   LIG d   1       7.761  -3.777  -4.828  0.00  0.00    -0.050 A 
ATOM      5  C   LIG d   1       8.042  -3.049  -3.686  0.00  0.00    -0.059 A 
ATOM      6  C   LIG d   1       7.185  -2.044  -3.280  0.00  0.00    -0.058 A 
ATOM      7  H   LIG d   1       4.872  -2.284  -5.724  0.00  0.00     0.062 H 
ATOM      8  H   LIG d   1       6.404  -4.069  -6.454  0.00  0.00     0.062 H 
ATOM      9  H   LIG d   1       8.930  -3.267  -3.113  0.00  0.00     0.062 H 
ATOM     10  H   LIG d   1       7.404  -1.476  -2.388  0.00  0.00     0.062 H 
ENDROOT
BRANCH   1  11
ATOM     11  C   LIG d   1       5.113  -0.671  -3.571  0.00  0.00     0.023 C 
ATOM     12  H   LIG d   1       4.280  -0.600  -4.269  0.00  0.00     0.041 H 
BRANCH  11  13
ATOM     13  C   LIG d   1       4.580  -0.989  -2.173  0.00  0.00    -0.044 C 
ATOM     14  H   LIG d   1       5.416  -1.191  -1.502  0.00  0.00     0.027 H 
ATOM     15  H   LIG d   1       4.011  -0.137  -1.798  0.00  0.00     0.027 H 
BRANCH  13  16
ATOM     16  C   LIG d   1       3.672  -2.218  -2.240  0.00  0.00    -0.064 C 
ATOM     17  H   LIG d   1       3.356  -2.381  -3.271  0.00  0.00     0.023 H 
ATOM     18  H   LIG d   1       4.218  -3.093  -1.885  0.00  0.00     0.023 H 
ATOM     19  H   LIG d   1       2.796  -2.057  -1.613  0.00  0.00     0.023 H 
ENDBRANCH  13  16
ENDBRANCH  11  13
BRANCH  11  20
ATOM     20  C   LIG d   1       5.855   0.640  -3.540  0.00  0.00     0.049 C 
ATOM     21  O   LIG d   1       6.524   0.978  -4.488  0.00  0.00    -0.549 OA
ATOM     22  O   LIG d   1       5.774   1.432  -2.460  0.00  0.00    -0.549 OA
ENDBRANCH  11  20
ENDBRANCH   1  11
BRANCH   4  23
ATOM     23  C   LIG d   1       8.696  -4.873  -5.271  0.00  0.00    -0.040 C 
ATOM     24  H   LIG d   1       9.654  -4.761  -4.762  0.00  0.00     0.028 H 
ATOM     25  H   LIG d   1       8.264  -5.842  -5.022  0.00  0.00     0.028 H 
ATOM     26  H   LIG d   1       8.848  -4.808  -6.349  0.00  0.00     0.028 H 
ENDBRANCH   4  23
TORSDOF 5
ENDMDL
MODEL 8
REMARK VINA RESULT:      -4.6      3.299      5.432
REMARK  5 active torsions:
REMARK  status: ('A' for Active; 'I' for Inactive)
REMARK    1  A    between atoms: C_1  and  C_2 
REMARK    2  A    between atoms: C_2  and  C_3 
REMARK    3  A    between atoms: C_3  and  C_5 
REMARK    4  A    between atoms: C_3  and  C_12 
REMARK    5  A    between atoms: C_8  and  C_11 
ROOT
ATOM      1  C   LIG d   1       3.221   0.128  -6.599  0.00  0.00    -0.039 A 
ATOM      2  C   LIG d   1       4.165  -0.858  -6.374  0.00  0.00    -0.058 A 
ATOM      3  C   LIG d   1       4.330  -1.381  -5.106  0.00  0.00    -0.059 A 
ATOM      4  C   LIG d   1       3.546  -0.924  -4.063  0.00  0.00    -0.050 A 
ATOM      5  C   LIG d   1       2.600   0.059  -4.288  0.00  0.00    -0.059 A 
ATOM      6  C   LIG d   1       2.438   0.585  -5.556  0.00  0.00    -0.058 A 
ATOM      7  H   LIG d   1       4.774  -1.219  -7.191  0.00  0.00     0.062 H 
ATOM      8  H   LIG d   1       5.069  -2.148  -4.930  0.00  0.00     0.062 H 
ATOM      9  H   LIG d   1       1.988   0.415  -3.473  0.00  0.00     0.062 H 
ATOM     10  H   LIG d   1       1.699   1.352  -5.732  0.00  0.00     0.062 H 
ENDROOT
BRANCH   1  11
ATOM     11  C   LIG d   1       3.045   0.701  -7.981  0.00  0.00     0.023 C 
ATOM     12  H   LIG d   1       2.225   1.418  -7.975  0.00  0.00     0.041 H 
BRANCH  11  13
ATOM     13  C   LIG d   1       4.334   1.403  -8.411  0.00  0.00    -0.044 C 
ATOM     14  H   LIG d   1       4.882   1.730  -7.527  0.00  0.00     0.027 H 
ATOM     15  H   LIG d   1       4.950   0.712  -8.987  0.00  0.00     0.027 H 
BRANCH  13  16
ATOM     16  C   LIG d   1       3.989   2.619  -9.274  0.00  0.00    -0.064 C 
ATOM     17  H   LIG d   1       4.207   2.396 -10.319  0.00  0.00     0.023 H 
ATOM     18  H   LIG d   1       2.930   2.853  -9.165  0.00  0.00     0.023 H 
ATOM     19  H   LIG d   1       4.584   3.473  -8.953  0.00  0.00     0.023 H 
ENDBRANCH  13  16
ENDBRANCH  11  13
BRANCH  11  20
ATOM     20  C   LIG d   1       2.732  -0.411  -8.949  0.00  0.00     0.049 C 
ATOM     21  O   LIG d   1       1.612  -0.859  -9.013  0.00  0.00    -0.549 OA
ATOM     22  O   LIG d   1       3.698  -0.903  -9.741  0.00  0.00    -0.549 OA
ENDBRANCH  11  20
ENDBRANCH   1  11
BRANCH   4  23
ATOM     23  C   LIG d   1       3.723  -1.496  -2.680  0.00  0.00    -0.040 C 
ATOM     24  H   LIG d   1       3.855  -2.576  -2.748  0.00  0.00     0.028 H 
ATOM     25  H   LIG d   1       4.603  -1.052  -2.213  0.00  0.00     0.028 H 
ATOM     26  H   LIG d   1       2.842  -1.274  -2.078  0.00  0.00     0.028 H 
ENDBRANCH   4  23
TORSDOF 5
ENDMDL
MODEL 9
REMARK VINA RESULT:      -4.3      3.325      4.521
REMARK  5 active torsions:
REMARK  status: ('A' for Active; 'I' for Inactive)
REMARK    1  A    between atoms: C_1  and  C_2 
REMARK    2  A    between atoms: C_2  and  C_3 
REMARK    3  A    between atoms: C_3  and  C_5 
REMARK    4  A    between atoms: C_3  and  C_12 
REMARK    5  A    between atoms: C_8  and  C_11 
ROOT
ATOM      1  C   LIG d   1       6.727  -1.190  -3.561  0.00  0.00    -0.039 A 
ATOM      2  C   LIG d   1       7.189  -2.494  -3.571  0.00  0.00    -0.058 A 
ATOM      3  C   LIG d   1       8.313  -2.823  -4.305  0.00  0.00    -0.059 A 
ATOM      4  C   LIG d   1       8.980  -1.847  -5.022  0.00  0.00    -0.050 A 
ATOM      5  C   LIG d   1       8.521  -0.543  -5.008  0.00  0.00    -0.059 A 
ATOM      6  C   LIG d   1       7.394  -0.215  -4.278  0.00  0.00    -0.058 A 
ATOM      7  H   LIG d   1       6.670  -3.255  -3.007  0.00  0.00     0.062 H 
ATOM      8  H   LIG d   1       8.671  -3.841  -4.316  0.00  0.00     0.062 H 
ATOM      9  H   LIG d   1       9.043   0.218  -5.568  0.00  0.00     0.062 H 
ATOM     10  H   LIG d   1       7.036   0.804  -4.267  0.00  0.00     0.062 H 
ENDROOT
BRANCH   1  11
ATOM     11  C   LIG d   1       5.499  -0.832  -2.765  0.00  0.00     0.023 C 
ATOM     12  H   LIG d   1       5.603  -1.210  -1.748  0.00  0.00     0.041 H 
BRANCH  11  13
ATOM     13  C   LIG d   1       5.338   0.688  -2.731  0.00  0.00    -0.044 C 
ATOM     14  H   LIG d   1       6.236   1.140  -2.312  0.00  0.00     0.027 H 
ATOM     15  H   LIG d   1       5.182   1.060  -3.744  0.00  0.00     0.027 H 
BRANCH  13  16
ATOM     16  C   LIG d   1       4.131   1.054  -1.863  0.00  0.00    -0.064 C 
ATOM     17  H   LIG d   1       4.191   2.106  -1.583  0.00  0.00     0.023 H 
ATOM     18  H   LIG d   1       3.213   0.879  -2.425  0.00  0.00     0.023 H 
ATOM     19  H   LIG d   1       4.131   0.438  -0.965  0.00  0.00     0.023 H 
ENDBRANCH  13  16
ENDBRANCH  11  13
BRANCH  11  20
ATOM     20  C   LIG d   1       4.286  -1.452  -3.408  0.00  0.00     0.049 C 
ATOM     21  O   LIG d   1       3.665  -2.311  -2.827  0.00  0.00    -0.549 OA
ATOM     22  O   LIG d   1       3.893  -1.050  -4.627  0.00  0.00    -0.549 OA
ENDBRANCH  11  20
ENDBRANCH   1  11
BRANCH   4  23
ATOM     23  C   LIG d   1      10.208  -2.205  -5.819  0.00  0.00    -0.040 C 
ATOM     24  H   LIG d   1      10.787  -1.303  -6.019  0.00  0.00     0.028 H 
ATOM     25  H   LIG d   1      10.817  -2.908  -5.251  0.00  0.00     0.028 H 
ATOM     26  H   LIG d   1       9.910  -2.662  -6.763  0.00  0.00     0.028 H 
ENDBRANCH   4  23
TORSDOF 5
ENDMDL
MODEL 10
REMARK VINA RESULT:      -4.3      3.835      6.095
REMARK  5 active torsions:
REMARK  status: ('A' for Active; 'I' for Inactive)
REMARK    1  A    between atoms: C_1  and  C_2 
REMARK    2  A    between atoms: C_2  and  C_3 
REMARK    3  A    between atoms: C_3  and  C_5 
REMARK    4  A    between atoms: C_3  and  C_12 
REMARK    5  A    between atoms: C_8  and  C_11 
ROOT
ATOM      1  C   LIG d   1       2.999  -0.140  -9.894  0.00  0.00    -0.039 A 
ATOM      2  C   LIG d   1       1.663  -0.496  -9.866  0.00  0.00    -0.058 A 
ATOM      3  C   LIG d   1       1.090  -1.116 -10.960  0.00  0.00    -0.059 A 
ATOM      4  C   LIG d   1       1.855  -1.387 -12.079  0.00  0.00    -0.050 A 
ATOM      5  C   LIG d   1       3.192  -1.036 -12.105  0.00  0.00    -0.059 A 
ATOM      6  C   LIG d   1       3.763  -0.411 -11.012  0.00  0.00    -0.058 A 
ATOM      7  H   LIG d   1       1.066  -0.287  -8.989  0.00  0.00     0.062 H 
ATOM      8  H   LIG d   1       0.046  -1.390 -10.940  0.00  0.00     0.062 H 
ATOM      9  H   LIG d   1       3.789  -1.249 -12.979  0.00  0.00     0.062 H 
ATOM     10  H   LIG d   1       4.808  -0.137 -11.033  0.00  0.00     0.062 H 
ENDROOT
BRANCH   1  11
ATOM     11  C   LIG d   1       3.622   0.541  -8.702  0.00  0.00     0.023 C 
ATOM     12  H   LIG d   1       4.695   0.640  -8.861  0.00  0.00     0.041 H 
BRANCH  11  13
ATOM     13  C   LIG d   1       3.002   1.928  -8.525  0.00  0.00    -0.044 C 
ATOM     14  H   LIG d   1       1.989   1.929  -8.927  0.00  0.00     0.027 H 
ATOM     15  H   LIG d   1       2.974   2.182  -7.465  0.00  0.00     0.027 H 
BRANCH  13  16
ATOM     16  C   LIG d   1       3.847   2.963  -9.274  0.00  0.00    -0.064 C 
ATOM     17  H   LIG d   1       4.687   3.267  -8.649  0.00  0.00     0.023 H 
ATOM     18  H   LIG d   1       4.221   2.525 -10.199  0.00  0.00     0.023 H 
ATOM     19  H   LIG d   1       3.233   3.833  -9.506  0.00  0.00     0.023 H 
ENDBRANCH  13  16
ENDBRANCH  11  13
BRANCH  11  20
ATOM     20  C   LIG d   1       3.370  -0.282  -7.466  0.00  0.00     0.049 C 
ATOM     21  O   LIG d   1       2.695   0.165  -6.569  0.00  0.00    -0.549 OA
ATOM     22  O   LIG d   1       3.896  -1.513  -7.360  0.00  0.00    -0.549 OA
ENDBRANCH  11  20
ENDBRANCH   1  11
BRANCH   4  23
ATOM     23  C   LIG d   1       1.231  -2.067 -13.271  0.00  0.00    -0.040 C 
ATOM     24  H   LIG d   1       0.923  -1.315 -13.998  0.00  0.00     0.028 H 
ATOM     25  H   LIG d   1       1.959  -2.737 -13.729  0.00  0.00     0.028 H 
ATOM     26  H   LIG d   1       0.361  -2.640 -12.950  0.00  0.00     0.028 H 
ENDBRANCH   4  23
TORSDOF 5
ENDMDL
