MODEL 1
REMARK VINA RESULT:      -5.2      0.000      0.000
REMARK  9 active torsions:
REMARK  status: ('A' for Active; 'I' for Inactive)
REMARK    1  A    between atoms: C_1  and  C_2 
REMARK    2  A    between atoms: C_3  and  C_4 
REMARK    3  A    between atoms: C_11  and  C_32 
REMARK    4  A    between atoms: C_17  and  C_18 
REMARK    5  A    between atoms: C_17  and  C_19 
REMARK    6  A    between atoms: C_19  and  C_20 
REMARK    7  A    between atoms: C_23  and  C_29 
REMARK    8  A    between atoms: N_25  and  C_28 
REMARK    9  A    between atoms: C_29  and  O_30 
ROOT
ATOM      1  C   LIG d   1       4.755  -1.019  -4.251  0.00  0.00     0.007 C 
ATOM      2  H   LIG d   1       4.182  -1.812  -3.770  0.00  0.00     0.040 H 
ATOM      3  C   LIG d   1       4.639   0.235  -3.437  0.00  0.00    -0.080 C 
ATOM      4  C   LIG d   1       5.633   1.011  -3.132  0.00  0.00    -0.084 C 
ATOM      5  C   LIG d   1       7.043   0.732  -3.550  0.00  0.00    -0.019 C 
ATOM      6  H   LIG d   1       7.571   0.265  -2.717  0.00  0.00     0.035 H 
ATOM      7  C   LIG d   1       7.782   2.005  -3.950  0.00  0.00    -0.044 C 
ATOM      8  C   LIG d   1       9.234   1.647  -4.288  0.00  0.00    -0.043 C 
ATOM      9  H   LIG d   1       9.714   1.217  -3.408  0.00  0.00     0.030 H 
ATOM     10  C   LIG d   1       9.271   0.633  -5.431  0.00  0.00    -0.050 C 
ATOM     11  C   LIG d   1       8.497  -0.630  -5.040  0.00  0.00    -0.049 C 
ATOM     12  C   LIG d   1       7.053  -0.230  -4.740  0.00  0.00    -0.022 C 
ATOM     13  H   LIG d   1       6.611   0.262  -5.607  0.00  0.00     0.032 H 
ATOM     14  C   LIG d   1       6.218  -1.456  -4.373  0.00  0.00     0.040 C 
ATOM     15  H   LIG d   1       3.658   0.512  -3.079  0.00  0.00     0.058 H 
ATOM     16  H   LIG d   1       5.435   1.899  -2.550  0.00  0.00     0.057 H 
ATOM     17  H   LIG d   1       7.302   2.448  -4.822  0.00  0.00     0.027 H 
ATOM     18  H   LIG d   1       7.764   2.714  -3.122  0.00  0.00     0.027 H 
ATOM     19  H   LIG d   1       8.818   1.073  -6.320  0.00  0.00     0.027 H 
ATOM     20  H   LIG d   1      10.306   0.371  -5.648  0.00  0.00     0.027 H 
ATOM     21  H   LIG d   1       8.515  -1.341  -5.867  0.00  0.00     0.027 H 
ATOM     22  H   LIG d   1       8.954  -1.081  -4.160  0.00  0.00     0.027 H 
ENDROOT
BRANCH  14  23
ATOM     23  C   LIG d   1       6.699  -2.027  -3.038  0.00  0.00    -0.052 C 
ATOM     24  H   LIG d   1       6.106  -1.603  -2.226  0.00  0.00     0.024 H 
ATOM     25  H   LIG d   1       6.582  -3.111  -3.044  0.00  0.00     0.024 H 
ATOM     26  H   LIG d   1       7.748  -1.774  -2.890  0.00  0.00     0.024 H 
ENDBRANCH  14  23
BRANCH  14  27
ATOM     27  C   LIG d   1       6.348  -2.500  -5.451  0.00  0.00     0.159 C 
ATOM     28  O   LIG d   1       6.526  -2.166  -6.597  0.00  0.00    -0.295 OA
BRANCH  27  29
ATOM     29  C   LIG d   1       6.257  -3.963  -5.099  0.00  0.00     0.154 A 
ATOM     30  C   LIG d   1       7.537  -4.667  -5.466  0.00  0.00     0.234 A 
ATOM     31  N   LIG d   1       7.296  -5.626  -6.370  0.00  0.00    -0.291 N 
ATOM     32  O   LIG d   1       8.631  -4.402  -5.011  0.00  0.00    -0.274 OA
ATOM     33  C   LIG d   1       5.877  -5.692  -6.715  0.00  0.00     0.108 A 
ATOM     34  C   LIG d   1       5.164  -4.627  -5.911  0.00  0.00     0.175 A 
ATOM     35  H   LIG d   1       5.746  -5.501  -7.779  0.00  0.00     0.060 H 
ATOM     36  O   LIG d   1       3.986  -4.364  -5.915  0.00  0.00    -0.294 OA
ATOM     37  H   LIG d   1       6.057  -4.079  -4.033  0.00  0.00     0.055 H 
BRANCH  31  38
ATOM     38  C   LIG d   1       8.324  -6.500  -6.940  0.00  0.00     0.004 C 
ATOM     39  H   LIG d   1       7.861  -7.416  -7.306  0.00  0.00     0.043 H 
ATOM     40  H   LIG d   1       8.819  -5.989  -7.767  0.00  0.00     0.043 H 
ATOM     41  H   LIG d   1       9.059  -6.745  -6.173  0.00  0.00     0.043 H 
ENDBRANCH  31  38
BRANCH  33  42
ATOM     42  C   LIG d   1       5.317  -7.071  -6.361  0.00  0.00     0.070 C 
ATOM     43  H   LIG d   1       4.712  -7.440  -7.188  0.00  0.00     0.058 H 
ATOM     44  H   LIG d   1       6.141  -7.761  -6.177  0.00  0.00     0.058 H 
BRANCH  42  45
ATOM     45  O   LIG d   1       4.509  -6.970  -5.186  0.00  0.00    -0.393 OA
ATOM     46  H   LIG d   1       3.558  -7.011  -5.358  0.00  0.00     0.209 HD
ENDBRANCH  42  45
ENDBRANCH  33  42
ENDBRANCH  27  29
ENDBRANCH  14  27
BRANCH   1  47
ATOM     47  C   LIG d   1       4.195  -0.769  -5.628  0.00  0.00    -0.080 C 
ATOM     48  C   LIG d   1       3.228   0.098  -5.795  0.00  0.00    -0.090 C 
ATOM     49  H   LIG d   1       2.832   0.636  -4.945  0.00  0.00     0.057 H 
ATOM     50  H   LIG d   1       4.591  -1.306  -6.477  0.00  0.00     0.058 H 
BRANCH  48  51
ATOM     51  C   LIG d   1       2.669   0.348  -7.171  0.00  0.00    -0.047 C 
ATOM     52  H   LIG d   1       3.482   0.598  -7.854  0.00  0.00     0.027 H 
ATOM     53  H   LIG d   1       2.160  -0.548  -7.526  0.00  0.00     0.027 H 
ATOM     54  H   LIG d   1       1.961   1.176  -7.132  0.00  0.00     0.027 H 
ENDBRANCH  48  51
ENDBRANCH   1  47
BRANCH   8  55
ATOM     55  C   LIG d   1       9.984   2.912  -4.710  0.00  0.00    -0.062 C 
ATOM     56  H   LIG d   1       9.603   3.764  -4.148  0.00  0.00     0.023 H 
ATOM     57  H   LIG d   1      11.048   2.788  -4.506  0.00  0.00     0.023 H 
ATOM     58  H   LIG d   1       9.835   3.084  -5.776  0.00  0.00     0.023 H 
ENDBRANCH   8  55
TORSDOF 9
ENDMDL
MODEL 2
REMARK VINA RESULT:      -5.2     10.361     13.552
REMARK  9 active torsions:
REMARK  status: ('A' for Active; 'I' for Inactive)
REMARK    1  A    between atoms: C_1  and  C_2 
REMARK    2  A    between atoms: C_3  and  C_4 
REMARK    3  A    between atoms: C_11  and  C_32 
REMARK    4  A    between atoms: C_17  and  C_18 
REMARK    5  A    between atoms: C_17  and  C_19 
REMARK    6  A    between atoms: C_19  and  C_20 
REMARK    7  A    between atoms: C_23  and  C_29 
REMARK    8  A    between atoms: N_25  and  C_28 
REMARK    9  A    between atoms: C_29  and  O_30 
ROOT
ATOM      1  C   LIG d   1      10.992   6.188  -1.422  0.00  0.00     0.007 C 
ATOM      2  H   LIG d   1      10.778   5.974  -0.375  0.00  0.00     0.040 H 
ATOM      3  C   LIG d   1      10.343   5.144  -2.281  0.00  0.00    -0.080 C 
ATOM      4  C   LIG d   1       9.666   5.393  -3.359  0.00  0.00    -0.084 C 
ATOM      5  C   LIG d   1       9.434   6.778  -3.874  0.00  0.00    -0.019 C 
ATOM      6  H   LIG d   1       8.442   7.108  -3.563  0.00  0.00     0.035 H 
ATOM      7  C   LIG d   1       9.518   6.843  -5.396  0.00  0.00    -0.044 C 
ATOM      8  C   LIG d   1       9.192   8.272  -5.848  0.00  0.00    -0.043 C 
ATOM      9  H   LIG d   1       8.179   8.527  -5.536  0.00  0.00     0.030 H 
ATOM     10  C   LIG d   1      10.179   9.256  -5.223  0.00  0.00    -0.050 C 
ATOM     11  C   LIG d   1      10.118   9.164  -3.694  0.00  0.00    -0.049 C 
ATOM     12  C   LIG d   1      10.476   7.734  -3.290  0.00  0.00    -0.022 C 
ATOM     13  H   LIG d   1      11.463   7.471  -3.671  0.00  0.00     0.032 H 
ATOM     14  C   LIG d   1      10.464   7.584  -1.769  0.00  0.00     0.040 C 
ATOM     15  H   LIG d   1      10.447   4.112  -1.980  0.00  0.00     0.058 H 
ATOM     16  H   LIG d   1       9.252   4.562  -3.911  0.00  0.00     0.057 H 
ATOM     17  H   LIG d   1      10.525   6.578  -5.718  0.00  0.00     0.027 H 
ATOM     18  H   LIG d   1       8.798   6.149  -5.833  0.00  0.00     0.027 H 
ATOM     19  H   LIG d   1      11.189   9.020  -5.558  0.00  0.00     0.027 H 
ATOM     20  H   LIG d   1       9.925  10.270  -5.534  0.00  0.00     0.027 H 
ATOM     21  H   LIG d   1      10.836   9.858  -3.257  0.00  0.00     0.027 H 
ATOM     22  H   LIG d   1       9.113   9.412  -3.353  0.00  0.00     0.027 H 
ENDROOT
BRANCH  14  23
ATOM     23  C   LIG d   1       9.034   7.740  -1.246  0.00  0.00    -0.052 C 
ATOM     24  H   LIG d   1       8.482   8.421  -1.895  0.00  0.00     0.024 H 
ATOM     25  H   LIG d   1       8.543   6.767  -1.239  0.00  0.00     0.024 H 
ATOM     26  H   LIG d   1       9.059   8.143  -0.234  0.00  0.00     0.024 H 
ENDBRANCH  14  23
BRANCH  14  27
ATOM     27  C   LIG d   1      11.351   8.632  -1.149  0.00  0.00     0.159 C 
ATOM     28  O   LIG d   1      12.368   8.968  -1.705  0.00  0.00    -0.295 OA
BRANCH  27  29
ATOM     29  C   LIG d   1      10.968   9.261   0.166  0.00  0.00     0.154 A 
ATOM     30  C   LIG d   1      11.297  10.731   0.155  0.00  0.00     0.234 A 
ATOM     31  N   LIG d   1      12.184  11.016   1.118  0.00  0.00    -0.291 N 
ATOM     32  O   LIG d   1      10.827  11.541  -0.618  0.00  0.00    -0.274 OA
ATOM     33  C   LIG d   1      12.552   9.822   1.876  0.00  0.00     0.108 A 
ATOM     34  C   LIG d   1      11.785   8.657   1.290  0.00  0.00     0.175 A 
ATOM     35  H   LIG d   1      13.623   9.642   1.784  0.00  0.00     0.060 H 
ATOM     36  O   LIG d   1      11.817   7.502   1.640  0.00  0.00    -0.294 OA
ATOM     37  H   LIG d   1       9.904   9.116   0.355  0.00  0.00     0.055 H 
BRANCH  31  38
ATOM     38  C   LIG d   1      12.715  12.356   1.380  0.00  0.00     0.004 C 
ATOM     39  H   LIG d   1      11.988  13.103   1.066  0.00  0.00     0.043 H 
ATOM     40  H   LIG d   1      12.911  12.467   2.447  0.00  0.00     0.043 H 
ATOM     41  H   LIG d   1      13.643  12.494   0.824  0.00  0.00     0.043 H 
ENDBRANCH  31  38
BRANCH  33  42
ATOM     42  C   LIG d   1      12.179  10.001   3.349  0.00  0.00     0.070 C 
ATOM     43  H   LIG d   1      12.882  10.685   3.821  0.00  0.00     0.058 H 
ATOM     44  H   LIG d   1      11.170  10.411   3.419  0.00  0.00     0.058 H 
BRANCH  42  45
ATOM     45  O   LIG d   1      12.226   8.736   4.010  0.00  0.00    -0.393 OA
ATOM     46  H   LIG d   1      11.441   8.540   4.541  0.00  0.00     0.209 HD
ENDBRANCH  42  45
ENDBRANCH  33  42
ENDBRANCH  27  29
ENDBRANCH  14  27
BRANCH   1  47
ATOM     47  C   LIG d   1      12.483   6.154  -1.640  0.00  0.00    -0.080 C 
ATOM     48  C   LIG d   1      13.256   5.534  -0.784  0.00  0.00    -0.090 C 
ATOM     49  H   LIG d   1      12.825   5.045   0.078  0.00  0.00     0.057 H 
ATOM     50  H   LIG d   1      12.913   6.642  -2.502  0.00  0.00     0.058 H 
BRANCH  48  51
ATOM     51  C   LIG d   1      14.746   5.499  -1.002  0.00  0.00    -0.047 C 
ATOM     52  H   LIG d   1      15.248   5.313  -0.052  0.00  0.00     0.027 H 
ATOM     53  H   LIG d   1      14.993   4.704  -1.705  0.00  0.00     0.027 H 
ATOM     54  H   LIG d   1      15.077   6.456  -1.406  0.00  0.00     0.027 H 
ENDBRANCH  48  51
ENDBRANCH   1  47
BRANCH   8  55
ATOM     55  C   LIG d   1       9.291   8.357  -7.373  0.00  0.00    -0.062 C 
ATOM     56  H   LIG d   1       9.631   9.351  -7.659  0.00  0.00     0.023 H 
ATOM     57  H   LIG d   1      10.000   7.611  -7.733  0.00  0.00     0.023 H 
ATOM     58  H   LIG d   1       8.310   8.168  -7.811  0.00  0.00     0.023 H 
ENDBRANCH   8  55
TORSDOF 9
ENDMDL
MODEL 3
REMARK VINA RESULT:      -5.1      9.681     14.080
REMARK  9 active torsions:
REMARK  status: ('A' for Active; 'I' for Inactive)
REMARK    1  A    between atoms: C_1  and  C_2 
REMARK    2  A    between atoms: C_3  and  C_4 
REMARK    3  A    between atoms: C_11  and  C_32 
REMARK    4  A    between atoms: C_17  and  C_18 
REMARK    5  A    between atoms: C_17  and  C_19 
REMARK    6  A    between atoms: C_19  and  C_20 
REMARK    7  A    between atoms: C_23  and  C_29 
REMARK    8  A    between atoms: N_25  and  C_28 
REMARK    9  A    between atoms: C_29  and  O_30 
ROOT
ATOM      1  C   LIG d   1      11.302   9.333  -0.165  0.00  0.00     0.007 C 
ATOM      2  H   LIG d   1      10.886  10.229   0.295  0.00  0.00     0.040 H 
ATOM      3  C   LIG d   1      11.357   8.236   0.856  0.00  0.00    -0.080 C 
ATOM      4  C   LIG d   1      10.982   7.012   0.644  0.00  0.00    -0.084 C 
ATOM      5  C   LIG d   1      10.423   6.546  -0.663  0.00  0.00    -0.019 C 
ATOM      6  H   LIG d   1       9.335   6.526  -0.594  0.00  0.00     0.035 H 
ATOM      7  C   LIG d   1      10.919   5.149  -1.029  0.00  0.00    -0.044 C 
ATOM      8  C   LIG d   1      10.243   4.714  -2.336  0.00  0.00    -0.043 C 
ATOM      9  H   LIG d   1       9.163   4.683  -2.191  0.00  0.00     0.030 H 
ATOM     10  C   LIG d   1      10.577   5.702  -3.452  0.00  0.00    -0.050 C 
ATOM     11  C   LIG d   1      10.111   7.110  -3.066  0.00  0.00    -0.049 C 
ATOM     12  C   LIG d   1      10.829   7.512  -1.778  0.00  0.00    -0.022 C 
ATOM     13  H   LIG d   1      11.909   7.469  -1.920  0.00  0.00     0.032 H 
ATOM     14  C   LIG d   1      10.430   8.925  -1.356  0.00  0.00     0.040 C 
ATOM     15  H   LIG d   1      11.736   8.483   1.837  0.00  0.00     0.058 H 
ATOM     16  H   LIG d   1      11.078   6.297   1.447  0.00  0.00     0.057 H 
ATOM     17  H   LIG d   1      11.999   5.168  -1.166  0.00  0.00     0.027 H 
ATOM     18  H   LIG d   1      10.660   4.449  -0.234  0.00  0.00     0.027 H 
ATOM     19  H   LIG d   1      11.654   5.711  -3.618  0.00  0.00     0.027 H 
ATOM     20  H   LIG d   1      10.075   5.393  -4.369  0.00  0.00     0.027 H 
ATOM     21  H   LIG d   1      10.367   7.811  -3.861  0.00  0.00     0.027 H 
ATOM     22  H   LIG d   1       9.032   7.108  -2.913  0.00  0.00     0.027 H 
ENDROOT
BRANCH  14  23
ATOM     23  C   LIG d   1       8.956   8.944  -0.946  0.00  0.00    -0.052 C 
ATOM     24  H   LIG d   1       8.839   8.444   0.016  0.00  0.00     0.024 H 
ATOM     25  H   LIG d   1       8.616   9.977  -0.861  0.00  0.00     0.024 H 
ATOM     26  H   LIG d   1       8.362   8.426  -1.699  0.00  0.00     0.024 H 
ENDBRANCH  14  23
BRANCH  14  27
ATOM     27  C   LIG d   1      10.654   9.879  -2.501  0.00  0.00     0.159 C 
ATOM     28  O   LIG d   1      11.695   9.857  -3.110  0.00  0.00    -0.295 OA
BRANCH  27  29
ATOM     29  C   LIG d   1       9.576  10.860  -2.886  0.00  0.00     0.154 A 
ATOM     30  C   LIG d   1       9.439  10.920  -4.385  0.00  0.00     0.234 A 
ATOM     31  N   LIG d   1       9.698  12.158  -4.825  0.00  0.00    -0.291 N 
ATOM     32  O   LIG d   1       9.140   9.980  -5.093  0.00  0.00    -0.274 OA
ATOM     33  C   LIG d   1      10.027  13.061  -3.723  0.00  0.00     0.108 A 
ATOM     34  C   LIG d   1       9.961  12.257  -2.443  0.00  0.00     0.175 A 
ATOM     35  H   LIG d   1      11.034  13.456  -3.859  0.00  0.00     0.060 H 
ATOM     36  O   LIG d   1      10.168  12.642  -1.318  0.00  0.00    -0.294 OA
ATOM     37  H   LIG d   1       8.627  10.570  -2.434  0.00  0.00     0.055 H 
BRANCH  31  38
ATOM     38  C   LIG d   1       9.653  12.560  -6.234  0.00  0.00     0.004 C 
ATOM     39  H   LIG d   1       8.794  12.095  -6.717  0.00  0.00     0.043 H 
ATOM     40  H   LIG d   1       9.563  13.644  -6.300  0.00  0.00     0.043 H 
ATOM     41  H   LIG d   1      10.568  12.240  -6.732  0.00  0.00     0.043 H 
ENDBRANCH  31  38
BRANCH  33  42
ATOM     42  C   LIG d   1       9.019  14.209  -3.668  0.00  0.00     0.070 C 
ATOM     43  H   LIG d   1       9.502  15.097  -3.263  0.00  0.00     0.058 H 
ATOM     44  H   LIG d   1       8.654  14.420  -4.674  0.00  0.00     0.058 H 
BRANCH  42  45
ATOM     45  O   LIG d   1       7.921  13.839  -2.832  0.00  0.00    -0.393 OA
ATOM     46  H   LIG d   1       7.088  13.713  -3.308  0.00  0.00     0.209 HD
ENDBRANCH  42  45
ENDBRANCH  33  42
ENDBRANCH  27  29
ENDBRANCH  14  27
BRANCH   1  47
ATOM     47  C   LIG d   1      12.698   9.629  -0.651  0.00  0.00    -0.080 C 
ATOM     48  C   LIG d   1      13.732   9.241   0.053  0.00  0.00    -0.090 C 
ATOM     49  H   LIG d   1      13.585   8.707   0.981  0.00  0.00     0.057 H 
ATOM     50  H   LIG d   1      12.844  10.162  -1.578  0.00  0.00     0.058 H 
BRANCH  48  51
ATOM     51  C   LIG d   1      15.127   9.536  -0.433  0.00  0.00    -0.047 C 
ATOM     52  H   LIG d   1      15.843   9.310   0.358  0.00  0.00     0.027 H 
ATOM     53  H   LIG d   1      15.346   8.923  -1.307  0.00  0.00     0.027 H 
ATOM     54  H   LIG d   1      15.204  10.590  -0.700  0.00  0.00     0.027 H 
ENDBRANCH  48  51
ENDBRANCH   1  47
BRANCH   8  55
ATOM     55  C   LIG d   1      10.744   3.322  -2.726  0.00  0.00    -0.062 C 
ATOM     56  H   LIG d   1      11.575   3.417  -3.424  0.00  0.00     0.023 H 
ATOM     57  H   LIG d   1      11.077   2.792  -1.833  0.00  0.00     0.023 H 
ATOM     58  H   LIG d   1       9.935   2.764  -3.199  0.00  0.00     0.023 H 
ENDBRANCH   8  55
TORSDOF 9
ENDMDL
MODEL 4
REMARK VINA RESULT:      -5.1     10.396     13.977
REMARK  9 active torsions:
REMARK  status: ('A' for Active; 'I' for Inactive)
REMARK    1  A    between atoms: C_1  and  C_2 
REMARK    2  A    between atoms: C_3  and  C_4 
REMARK    3  A    between atoms: C_11  and  C_32 
REMARK    4  A    between atoms: C_17  and  C_18 
REMARK    5  A    between atoms: C_17  and  C_19 
REMARK    6  A    between atoms: C_19  and  C_20 
REMARK    7  A    between atoms: C_23  and  C_29 
REMARK    8  A    between atoms: N_25  and  C_28 
REMARK    9  A    between atoms: C_29  and  O_30 
ROOT
ATOM      1  C   LIG d   1      11.055   7.202  -0.446  0.00  0.00     0.007 C 
ATOM      2  H   LIG d   1      10.722   7.523   0.541  0.00  0.00     0.040 H 
ATOM      3  C   LIG d   1      10.818   5.729  -0.591  0.00  0.00    -0.080 C 
ATOM      4  C   LIG d   1      10.294   5.165  -1.636  0.00  0.00    -0.084 C 
ATOM      5  C   LIG d   1       9.840   5.935  -2.835  0.00  0.00    -0.019 C 
ATOM      6  H   LIG d   1       8.761   6.080  -2.773  0.00  0.00     0.035 H 
ATOM      7  C   LIG d   1      10.164   5.207  -4.137  0.00  0.00    -0.044 C 
ATOM      8  C   LIG d   1       9.600   6.018  -5.309  0.00  0.00    -0.043 C 
ATOM      9  H   LIG d   1       8.518   6.099  -5.205  0.00  0.00     0.030 H 
ATOM     10  C   LIG d   1      10.214   7.417  -5.321  0.00  0.00    -0.050 C 
ATOM     11  C   LIG d   1       9.918   8.133  -3.999  0.00  0.00    -0.049 C 
ATOM     12  C   LIG d   1      10.521   7.305  -2.864  0.00  0.00    -0.022 C 
ATOM     13  H   LIG d   1      11.592   7.175  -3.022  0.00  0.00     0.032 H 
ATOM     14  C   LIG d   1      10.287   7.985  -1.516  0.00  0.00     0.040 C 
ATOM     15  H   LIG d   1      11.104   5.092   0.233  0.00  0.00     0.058 H 
ATOM     16  H   LIG d   1      10.182   4.091  -1.640  0.00  0.00     0.057 H 
ATOM     17  H   LIG d   1      11.244   5.112  -4.244  0.00  0.00     0.027 H 
ATOM     18  H   LIG d   1       9.707   4.216  -4.125  0.00  0.00     0.027 H 
ATOM     19  H   LIG d   1      11.293   7.339  -5.455  0.00  0.00     0.027 H 
ATOM     20  H   LIG d   1       9.790   7.991  -6.145  0.00  0.00     0.027 H 
ATOM     21  H   LIG d   1      10.373   9.124  -4.009  0.00  0.00     0.027 H 
ATOM     22  H   LIG d   1       8.840   8.226  -3.866  0.00  0.00     0.027 H 
ENDROOT
BRANCH  14  23
ATOM     23  C   LIG d   1       8.793   7.978  -1.187  0.00  0.00    -0.052 C 
ATOM     24  H   LIG d   1       8.658   7.855  -0.112  0.00  0.00     0.024 H 
ATOM     25  H   LIG d   1       8.348   8.922  -1.503  0.00  0.00     0.024 H 
ATOM     26  H   LIG d   1       8.309   7.154  -1.710  0.00  0.00     0.024 H 
ENDBRANCH  14  23
BRANCH  14  27
ATOM     27  C   LIG d   1      10.792   9.403  -1.568  0.00  0.00     0.159 C 
ATOM     28  O   LIG d   1      11.837   9.653  -2.118  0.00  0.00    -0.295 OA
BRANCH  27  29
ATOM     29  C   LIG d   1       9.991  10.512  -0.935  0.00  0.00     0.154 A 
ATOM     30  C   LIG d   1       9.652  11.561  -1.962  0.00  0.00     0.234 A 
ATOM     31  N   LIG d   1      10.181  12.741  -1.612  0.00  0.00    -0.291 N 
ATOM     32  O   LIG d   1       8.996  11.365  -2.964  0.00  0.00    -0.274 OA
ATOM     33  C   LIG d   1      10.915  12.646  -0.351  0.00  0.00     0.108 A 
ATOM     34  C   LIG d   1      10.817  11.212   0.124  0.00  0.00     0.175 A 
ATOM     35  H   LIG d   1      11.960  12.911  -0.511  0.00  0.00     0.060 H 
ATOM     36  O   LIG d   1      11.292  10.733   1.125  0.00  0.00    -0.294 OA
ATOM     37  H   LIG d   1       9.078  10.110  -0.494  0.00  0.00     0.055 H 
BRANCH  31  38
ATOM     38  C   LIG d   1      10.040  13.973  -2.392  0.00  0.00     0.004 C 
ATOM     39  H   LIG d   1      10.787  14.697  -2.067  0.00  0.00     0.043 H 
ATOM     40  H   LIG d   1      10.186  13.752  -3.450  0.00  0.00     0.043 H 
ATOM     41  H   LIG d   1       9.043  14.386  -2.242  0.00  0.00     0.043 H 
ENDBRANCH  31  38
BRANCH  33  42
ATOM     42  C   LIG d   1      10.293  13.580   0.688  0.00  0.00     0.070 C 
ATOM     43  H   LIG d   1      11.069  13.943   1.360  0.00  0.00     0.058 H 
ATOM     44  H   LIG d   1       9.826  14.426   0.182  0.00  0.00     0.058 H 
BRANCH  42  45
ATOM     45  O   LIG d   1       9.306  12.870   1.438  0.00  0.00    -0.393 OA
ATOM     46  H   LIG d   1       8.662  12.397   0.892  0.00  0.00     0.209 HD
ENDBRANCH  42  45
ENDBRANCH  33  42
ENDBRANCH  27  29
ENDBRANCH  14  27
BRANCH   1  47
ATOM     47  C   LIG d   1      12.529   7.484  -0.588  0.00  0.00    -0.080 C 
ATOM     48  C   LIG d   1      13.398   6.514  -0.446  0.00  0.00    -0.090 C 
ATOM     49  H   LIG d   1      13.058   5.511  -0.229  0.00  0.00     0.057 H 
ATOM     50  H   LIG d   1      12.868   8.486  -0.804  0.00  0.00     0.058 H 
BRANCH  48  51
ATOM     51  C   LIG d   1      14.871   6.796  -0.588  0.00  0.00    -0.047 C 
ATOM     52  H   LIG d   1      15.440   5.928  -0.254  0.00  0.00     0.027 H 
ATOM     53  H   LIG d   1      15.103   7.003  -1.632  0.00  0.00     0.027 H 
ATOM     54  H   LIG d   1      15.136   7.660   0.022  0.00  0.00     0.027 H 
ENDBRANCH  48  51
ENDBRANCH   1  47
BRANCH   8  55
ATOM     55  C   LIG d   1       9.933   5.309  -6.624  0.00  0.00    -0.062 C 
ATOM     56  H   LIG d   1      10.990   5.046  -6.636  0.00  0.00     0.023 H 
ATOM     57  H   LIG d   1       9.331   4.405  -6.711  0.00  0.00     0.023 H 
ATOM     58  H   LIG d   1       9.714   5.974  -7.460  0.00  0.00     0.023 H 
ENDBRANCH   8  55
TORSDOF 9
ENDMDL
MODEL 5
REMARK VINA RESULT:      -4.9      2.783      5.753
REMARK  9 active torsions:
REMARK  status: ('A' for Active; 'I' for Inactive)
REMARK    1  A    between atoms: C_1  and  C_2 
REMARK    2  A    between atoms: C_3  and  C_4 
REMARK    3  A    between atoms: C_11  and  C_32 
REMARK    4  A    between atoms: C_17  and  C_18 
REMARK    5  A    between atoms: C_17  and  C_19 
REMARK    6  A    between atoms: C_19  and  C_20 
REMARK    7  A    between atoms: C_23  and  C_29 
REMARK    8  A    between atoms: N_25  and  C_28 
REMARK    9  A    between atoms: C_29  and  O_30 
ROOT
ATOM      1  C   LIG d   1       3.924   0.137  -7.032  0.00  0.00     0.007 C 
ATOM      2  H   LIG d   1       4.804   0.645  -6.637  0.00  0.00     0.040 H 
ATOM      3  C   LIG d   1       3.091   1.120  -7.799  0.00  0.00    -0.080 C 
ATOM      4  C   LIG d   1       2.566   0.892  -8.964  0.00  0.00    -0.084 C 
ATOM      5  C   LIG d   1       2.747  -0.398  -9.700  0.00  0.00    -0.019 C 
ATOM      6  H   LIG d   1       3.538  -0.272 -10.440  0.00  0.00     0.035 H 
ATOM      7  C   LIG d   1       1.470  -0.832 -10.414  0.00  0.00    -0.044 C 
ATOM      8  C   LIG d   1       1.758  -2.113 -11.205  0.00  0.00    -0.043 C 
ATOM      9  H   LIG d   1       2.531  -1.913 -11.948  0.00  0.00     0.030 H 
ATOM     10  C   LIG d   1       2.236  -3.216 -10.261  0.00  0.00    -0.050 C 
ATOM     11  C   LIG d   1       3.498  -2.763  -9.519  0.00  0.00    -0.049 C 
ATOM     12  C   LIG d   1       3.157  -1.503  -8.724  0.00  0.00    -0.022 C 
ATOM     13  H   LIG d   1       2.334  -1.703  -8.037  0.00  0.00     0.032 H 
ATOM     14  C   LIG d   1       4.371  -1.018  -7.933  0.00  0.00     0.040 C 
ATOM     15  H   LIG d   1       2.916   2.087  -7.350  0.00  0.00     0.058 H 
ATOM     16  H   LIG d   1       1.970   1.667  -9.421  0.00  0.00     0.057 H 
ATOM     17  H   LIG d   1       0.688  -1.024  -9.680  0.00  0.00     0.027 H 
ATOM     18  H   LIG d   1       1.147  -0.046 -11.097  0.00  0.00     0.027 H 
ATOM     19  H   LIG d   1       1.452  -3.437  -9.537  0.00  0.00     0.027 H 
ATOM     20  H   LIG d   1       2.457  -4.114 -10.838  0.00  0.00     0.027 H 
ATOM     21  H   LIG d   1       3.823  -3.549  -8.837  0.00  0.00     0.027 H 
ATOM     22  H   LIG d   1       4.289  -2.553 -10.238  0.00  0.00     0.027 H 
ENDROOT
BRANCH  14  23
ATOM     23  C   LIG d   1       5.454  -0.531  -8.898  0.00  0.00    -0.052 C 
ATOM     24  H   LIG d   1       6.129  -1.355  -9.133  0.00  0.00     0.024 H 
ATOM     25  H   LIG d   1       4.988  -0.171  -9.815  0.00  0.00     0.024 H 
ATOM     26  H   LIG d   1       6.018   0.278  -8.434  0.00  0.00     0.024 H 
ENDBRANCH  14  23
BRANCH  14  27
ATOM     27  C   LIG d   1       4.908  -2.144  -7.088  0.00  0.00     0.159 C 
ATOM     28  O   LIG d   1       4.164  -3.002  -6.682  0.00  0.00    -0.295 OA
BRANCH  27  29
ATOM     29  C   LIG d   1       6.377  -2.198  -6.751  0.00  0.00     0.154 A 
ATOM     30  C   LIG d   1       6.991  -3.458  -7.301  0.00  0.00     0.234 A 
ATOM     31  N   LIG d   1       7.488  -4.205  -6.305  0.00  0.00    -0.291 N 
ATOM     32  O   LIG d   1       7.027  -3.757  -8.477  0.00  0.00    -0.274 OA
ATOM     33  C   LIG d   1       7.284  -3.568  -5.005  0.00  0.00     0.108 A 
ATOM     34  C   LIG d   1       6.563  -2.260  -5.249  0.00  0.00     0.175 A 
ATOM     35  H   LIG d   1       6.676  -4.212  -4.370  0.00  0.00     0.060 H 
ATOM     36  O   LIG d   1       6.215  -1.446  -4.428  0.00  0.00    -0.294 OA
ATOM     37  H   LIG d   1       6.887  -1.323  -7.157  0.00  0.00     0.055 H 
BRANCH  31  38
ATOM     38  C   LIG d   1       8.154  -5.496  -6.495  0.00  0.00     0.004 C 
ATOM     39  H   LIG d   1       9.218  -5.333  -6.670  0.00  0.00     0.043 H 
ATOM     40  H   LIG d   1       8.024  -6.107  -5.602  0.00  0.00     0.043 H 
ATOM     41  H   LIG d   1       7.718  -6.007  -7.353  0.00  0.00     0.043 H 
ENDBRANCH  31  38
BRANCH  33  42
ATOM     42  C   LIG d   1       8.633  -3.301  -4.337  0.00  0.00     0.070 C 
ATOM     43  H   LIG d   1       9.201  -4.229  -4.282  0.00  0.00     0.058 H 
ATOM     44  H   LIG d   1       9.190  -2.568  -4.922  0.00  0.00     0.058 H 
BRANCH  42  45
ATOM     45  O   LIG d   1       8.420  -2.793  -3.018  0.00  0.00    -0.393 OA
ATOM     46  H   LIG d   1       9.152  -2.260  -2.678  0.00  0.00     0.209 HD
ENDBRANCH  42  45
ENDBRANCH  33  42
ENDBRANCH  27  29
ENDBRANCH  14  27
BRANCH   1  47
ATOM     47  C   LIG d   1       3.114  -0.412  -5.886  0.00  0.00    -0.080 C 
ATOM     48  C   LIG d   1       3.211   0.127  -4.697  0.00  0.00    -0.090 C 
ATOM     49  H   LIG d   1       3.871   0.968  -4.537  0.00  0.00     0.057 H 
ATOM     50  H   LIG d   1       2.454  -1.252  -6.046  0.00  0.00     0.058 H 
BRANCH  48  51
ATOM     51  C   LIG d   1       2.400  -0.422  -3.552  0.00  0.00    -0.047 C 
ATOM     52  H   LIG d   1       2.414   0.288  -2.724  0.00  0.00     0.027 H 
ATOM     53  H   LIG d   1       1.373  -0.581  -3.877  0.00  0.00     0.027 H 
ATOM     54  H   LIG d   1       2.829  -1.369  -3.225  0.00  0.00     0.027 H 
ENDBRANCH  48  51
ENDBRANCH   1  47
BRANCH   8  55
ATOM     55  C   LIG d   1       0.481  -2.571 -11.913  0.00  0.00    -0.062 C 
ATOM     56  H   LIG d   1      -0.102  -1.700 -12.209  0.00  0.00     0.023 H 
ATOM     57  H   LIG d   1       0.744  -3.151 -12.797  0.00  0.00     0.023 H 
ATOM     58  H   LIG d   1      -0.108  -3.189 -11.234  0.00  0.00     0.023 H 
ENDBRANCH   8  55
TORSDOF 9
ENDMDL
MODEL 6
REMARK VINA RESULT:      -4.9     11.205     13.546
REMARK  9 active torsions:
REMARK  status: ('A' for Active; 'I' for Inactive)
REMARK    1  A    between atoms: C_1  and  C_2 
REMARK    2  A    between atoms: C_3  and  C_4 
REMARK    3  A    between atoms: C_11  and  C_32 
REMARK    4  A    between atoms: C_17  and  C_18 
REMARK    5  A    between atoms: C_17  and  C_19 
REMARK    6  A    between atoms: C_19  and  C_20 
REMARK    7  A    between atoms: C_23  and  C_29 
REMARK    8  A    between atoms: N_25  and  C_28 
REMARK    9  A    between atoms: C_29  and  O_30 
ROOT
ATOM      1  C   LIG d   1      10.821   7.760  -0.077  0.00  0.00     0.007 C 
ATOM      2  H   LIG d   1       9.747   7.940  -0.078  0.00  0.00     0.040 H 
ATOM      3  C   LIG d   1      11.107   6.487   0.662  0.00  0.00    -0.080 C 
ATOM      4  C   LIG d   1      11.918   5.561   0.250  0.00  0.00    -0.084 C 
ATOM      5  C   LIG d   1      12.665   5.649  -1.043  0.00  0.00    -0.019 C 
ATOM      6  H   LIG d   1      12.134   5.067  -1.796  0.00  0.00     0.035 H 
ATOM      7  C   LIG d   1      14.087   5.110  -0.918  0.00  0.00    -0.044 C 
ATOM      8  C   LIG d   1      14.757   5.161  -2.296  0.00  0.00    -0.043 C 
ATOM      9  H   LIG d   1      14.199   4.535  -2.993  0.00  0.00     0.030 H 
ATOM     10  C   LIG d   1      14.781   6.598  -2.814  0.00  0.00    -0.050 C 
ATOM     11  C   LIG d   1      13.354   7.149  -2.904  0.00  0.00    -0.049 C 
ATOM     12  C   LIG d   1      12.738   7.105  -1.506  0.00  0.00    -0.022 C 
ATOM     13  H   LIG d   1      13.348   7.678  -0.808  0.00  0.00     0.032 H 
ATOM     14  C   LIG d   1      11.320   7.674  -1.523  0.00  0.00     0.040 C 
ATOM     15  H   LIG d   1      10.602   6.330   1.604  0.00  0.00     0.058 H 
ATOM     16  H   LIG d   1      12.061   4.689   0.870  0.00  0.00     0.057 H 
ATOM     17  H   LIG d   1      14.651   5.723  -0.215  0.00  0.00     0.027 H 
ATOM     18  H   LIG d   1      14.058   4.078  -0.565  0.00  0.00     0.027 H 
ATOM     19  H   LIG d   1      15.365   7.218  -2.133  0.00  0.00     0.027 H 
ATOM     20  H   LIG d   1      15.240   6.619  -3.802  0.00  0.00     0.027 H 
ATOM     21  H   LIG d   1      13.382   8.180  -3.259  0.00  0.00     0.027 H 
ATOM     22  H   LIG d   1      12.770   6.540  -3.594  0.00  0.00     0.027 H 
ENDROOT
BRANCH  14  23
ATOM     23  C   LIG d   1      10.403   6.751  -2.330  0.00  0.00    -0.052 C 
ATOM     24  H   LIG d   1      11.009   6.053  -2.909  0.00  0.00     0.024 H 
ATOM     25  H   LIG d   1       9.759   6.195  -1.650  0.00  0.00     0.024 H 
ATOM     26  H   LIG d   1       9.791   7.347  -3.007  0.00  0.00     0.024 H 
ENDBRANCH  14  23
BRANCH  14  27
ATOM     27  C   LIG d   1      11.331   9.048  -2.140  0.00  0.00     0.159 C 
ATOM     28  O   LIG d   1      12.358   9.680  -2.188  0.00  0.00    -0.295 OA
BRANCH  27  29
ATOM     29  C   LIG d   1      10.060   9.635  -2.698  0.00  0.00     0.154 A 
ATOM     30  C   LIG d   1      10.208   9.886  -4.176  0.00  0.00     0.234 A 
ATOM     31  N   LIG d   1      10.056  11.190  -4.442  0.00  0.00    -0.291 N 
ATOM     32  O   LIG d   1      10.435   9.030  -5.006  0.00  0.00    -0.274 OA
ATOM     33  C   LIG d   1       9.794  11.958  -3.226  0.00  0.00     0.108 A 
ATOM     34  C   LIG d   1       9.788  10.985  -2.067  0.00  0.00     0.175 A 
ATOM     35  H   LIG d   1      10.578  12.700  -3.082  0.00  0.00     0.060 H 
ATOM     36  O   LIG d   1       9.607  11.230  -0.899  0.00  0.00    -0.294 OA
ATOM     37  H   LIG d   1       9.223   8.959  -2.515  0.00  0.00     0.055 H 
BRANCH  31  38
ATOM     38  C   LIG d   1      10.140  11.774  -5.784  0.00  0.00     0.004 C 
ATOM     39  H   LIG d   1      10.511  11.025  -6.483  0.00  0.00     0.043 H 
ATOM     40  H   LIG d   1       9.151  12.106  -6.098  0.00  0.00     0.043 H 
ATOM     41  H   LIG d   1      10.821  12.625  -5.767  0.00  0.00     0.043 H 
ENDBRANCH  31  38
BRANCH  33  42
ATOM     42  C   LIG d   1       8.434  12.651  -3.329  0.00  0.00     0.070 C 
ATOM     43  H   LIG d   1       8.396  13.482  -2.626  0.00  0.00     0.058 H 
ATOM     44  H   LIG d   1       8.294  13.026  -4.343  0.00  0.00     0.058 H 
BRANCH  42  45
ATOM     45  O   LIG d   1       7.398  11.716  -3.020  0.00  0.00    -0.393 OA
ATOM     46  H   LIG d   1       7.389  11.431  -2.096  0.00  0.00     0.209 HD
ENDBRANCH  42  45
ENDBRANCH  33  42
ENDBRANCH  27  29
ENDBRANCH  14  27
BRANCH   1  47
ATOM     47  C   LIG d   1      11.514   8.904   0.619  0.00  0.00    -0.080 C 
ATOM     48  C   LIG d   1      11.697   8.868   1.915  0.00  0.00    -0.090 C 
ATOM     49  H   LIG d   1      11.352   8.017   2.486  0.00  0.00     0.057 H 
ATOM     50  H   LIG d   1      11.859   9.753   0.048  0.00  0.00     0.058 H 
BRANCH  48  51
ATOM     51  C   LIG d   1      12.390  10.011   2.610  0.00  0.00    -0.047 C 
ATOM     52  H   LIG d   1      13.294   9.645   3.098  0.00  0.00     0.027 H 
ATOM     53  H   LIG d   1      12.655  10.774   1.880  0.00  0.00     0.027 H 
ATOM     54  H   LIG d   1      11.723  10.439   3.358  0.00  0.00     0.027 H 
ENDBRANCH  48  51
ENDBRANCH   1  47
BRANCH   8  55
ATOM     55  C   LIG d   1      16.191   4.640  -2.184  0.00  0.00    -0.062 C 
ATOM     56  H   LIG d   1      16.791   5.348  -1.612  0.00  0.00     0.023 H 
ATOM     57  H   LIG d   1      16.188   3.674  -1.679  0.00  0.00     0.023 H 
ATOM     58  H   LIG d   1      16.616   4.527  -3.182  0.00  0.00     0.023 H 
ENDBRANCH   8  55
TORSDOF 9
ENDMDL
MODEL 7
REMARK VINA RESULT:      -4.8      2.019      4.281
REMARK  9 active torsions:
REMARK  status: ('A' for Active; 'I' for Inactive)
REMARK    1  A    between atoms: C_1  and  C_2 
REMARK    2  A    between atoms: C_3  and  C_4 
REMARK    3  A    between atoms: C_11  and  C_32 
REMARK    4  A    between atoms: C_17  and  C_18 
REMARK    5  A    between atoms: C_17  and  C_19 
REMARK    6  A    between atoms: C_19  and  C_20 
REMARK    7  A    between atoms: C_23  and  C_29 
REMARK    8  A    between atoms: N_25  and  C_28 
REMARK    9  A    between atoms: C_29  and  O_30 
ROOT
ATOM      1  C   LIG d   1       7.703  -2.203  -6.567  0.00  0.00     0.007 C 
ATOM      2  H   LIG d   1       7.754  -2.580  -7.588  0.00  0.00     0.040 H 
ATOM      3  C   LIG d   1       7.753  -0.704  -6.592  0.00  0.00    -0.080 C 
ATOM      4  C   LIG d   1       6.975   0.071  -5.901  0.00  0.00    -0.084 C 
ATOM      5  C   LIG d   1       5.905  -0.448  -4.992  0.00  0.00    -0.019 C 
ATOM      6  H   LIG d   1       4.948  -0.403  -5.514  0.00  0.00     0.035 H 
ATOM      7  C   LIG d   1       5.803   0.368  -3.707  0.00  0.00    -0.044 C 
ATOM      8  C   LIG d   1       4.638  -0.175  -2.870  0.00  0.00    -0.043 C 
ATOM      9  H   LIG d   1       3.710  -0.072  -3.433  0.00  0.00     0.030 H 
ATOM     10  C   LIG d   1       4.872  -1.649  -2.542  0.00  0.00    -0.050 C 
ATOM     11  C   LIG d   1       5.010  -2.460  -3.835  0.00  0.00    -0.049 C 
ATOM     12  C   LIG d   1       6.197  -1.903  -4.621  0.00  0.00    -0.022 C 
ATOM     13  H   LIG d   1       7.103  -1.949  -4.017  0.00  0.00     0.032 H 
ATOM     14  C   LIG d   1       6.408  -2.694  -5.911  0.00  0.00     0.040 C 
ATOM     15  H   LIG d   1       8.488  -0.238  -7.231  0.00  0.00     0.058 H 
ATOM     16  H   LIG d   1       7.106   1.140  -5.984  0.00  0.00     0.057 H 
ATOM     17  H   LIG d   1       6.730   0.280  -3.143  0.00  0.00     0.027 H 
ATOM     18  H   LIG d   1       5.619   1.415  -3.952  0.00  0.00     0.027 H 
ATOM     19  H   LIG d   1       5.784  -1.749  -1.954  0.00  0.00     0.027 H 
ATOM     20  H   LIG d   1       4.028  -2.028  -1.965  0.00  0.00     0.027 H 
ATOM     21  H   LIG d   1       5.192  -3.507  -3.592  0.00  0.00     0.027 H 
ATOM     22  H   LIG d   1       4.095  -2.374  -4.420  0.00  0.00     0.027 H 
ENDROOT
BRANCH  14  23
ATOM     23  C   LIG d   1       5.230  -2.460  -6.859  0.00  0.00    -0.052 C 
ATOM     24  H   LIG d   1       4.439  -1.926  -6.331  0.00  0.00     0.024 H 
ATOM     25  H   LIG d   1       5.562  -1.866  -7.711  0.00  0.00     0.024 H 
ATOM     26  H   LIG d   1       4.849  -3.419  -7.210  0.00  0.00     0.024 H 
ENDBRANCH  14  23
BRANCH  14  27
ATOM     27  C   LIG d   1       6.524  -4.162  -5.594  0.00  0.00     0.159 C 
ATOM     28  O   LIG d   1       7.142  -4.522  -4.622  0.00  0.00    -0.295 OA
BRANCH  27  29
ATOM     29  C   LIG d   1       5.868  -5.181  -6.490  0.00  0.00     0.154 A 
ATOM     30  C   LIG d   1       5.003  -6.108  -5.677  0.00  0.00     0.234 A 
ATOM     31  N   LIG d   1       5.437  -7.370  -5.794  0.00  0.00    -0.291 N 
ATOM     32  O   LIG d   1       4.051  -5.762  -5.009  0.00  0.00    -0.274 OA
ATOM     33  C   LIG d   1       6.605  -7.455  -6.670  0.00  0.00     0.108 A 
ATOM     34  C   LIG d   1       6.919  -6.053  -7.144  0.00  0.00     0.175 A 
ATOM     35  H   LIG d   1       7.453  -7.857  -6.117  0.00  0.00     0.060 H 
ATOM     36  O   LIG d   1       7.811  -5.706  -7.881  0.00  0.00    -0.294 OA
ATOM     37  H   LIG d   1       5.268  -4.680  -7.251  0.00  0.00     0.055 H 
BRANCH  31  38
ATOM     38  C   LIG d   1       4.819  -8.521  -5.131  0.00  0.00     0.004 C 
ATOM     39  H   LIG d   1       5.051  -9.429  -5.688  0.00  0.00     0.043 H 
ATOM     40  H   LIG d   1       5.209  -8.609  -4.117  0.00  0.00     0.043 H 
ATOM     41  H   LIG d   1       3.739  -8.382  -5.094  0.00  0.00     0.043 H 
ENDBRANCH  31  38
BRANCH  33  42
ATOM     42  C   LIG d   1       6.294  -8.351  -7.870  0.00  0.00     0.070 C 
ATOM     43  H   LIG d   1       5.974  -9.331  -7.518  0.00  0.00     0.058 H 
ATOM     44  H   LIG d   1       5.498  -7.900  -8.464  0.00  0.00     0.058 H 
BRANCH  42  45
ATOM     45  O   LIG d   1       7.466  -8.493  -8.675  0.00  0.00    -0.393 OA
ATOM     46  H   LIG d   1       7.808  -7.658  -9.024  0.00  0.00     0.209 HD
ENDBRANCH  42  45
ENDBRANCH  33  42
ENDBRANCH  27  29
ENDBRANCH  14  27
BRANCH   1  47
ATOM     47  C   LIG d   1       8.882  -2.725  -5.786  0.00  0.00    -0.080 C 
ATOM     48  C   LIG d   1       9.889  -1.933  -5.513  0.00  0.00    -0.090 C 
ATOM     49  H   LIG d   1       9.874  -0.905  -5.846  0.00  0.00     0.057 H 
ATOM     50  H   LIG d   1       8.897  -3.752  -5.454  0.00  0.00     0.058 H 
BRANCH  48  51
ATOM     51  C   LIG d   1      11.068  -2.455  -4.734  0.00  0.00    -0.047 C 
ATOM     52  H   LIG d   1      10.720  -3.158  -3.976  0.00  0.00     0.027 H 
ATOM     53  H   LIG d   1      11.756  -2.961  -5.410  0.00  0.00     0.027 H 
ATOM     54  H   LIG d   1      11.580  -1.624  -4.249  0.00  0.00     0.027 H 
ENDBRANCH  48  51
ENDBRANCH   1  47
BRANCH   8  55
ATOM     55  C   LIG d   1       4.534   0.622  -1.568  0.00  0.00    -0.062 C 
ATOM     56  H   LIG d   1       5.480   1.128  -1.376  0.00  0.00     0.023 H 
ATOM     57  H   LIG d   1       3.737   1.361  -1.658  0.00  0.00     0.023 H 
ATOM     58  H   LIG d   1       4.311  -0.056  -0.744  0.00  0.00     0.023 H 
ENDBRANCH   8  55
TORSDOF 9
ENDMDL
MODEL 8
REMARK VINA RESULT:      -4.8      3.019      5.464
REMARK  9 active torsions:
REMARK  status: ('A' for Active; 'I' for Inactive)
REMARK    1  A    between atoms: C_1  and  C_2 
REMARK    2  A    between atoms: C_3  and  C_4 
REMARK    3  A    between atoms: C_11  and  C_32 
REMARK    4  A    between atoms: C_17  and  C_18 
REMARK    5  A    between atoms: C_17  and  C_19 
REMARK    6  A    between atoms: C_19  and  C_20 
REMARK    7  A    between atoms: C_23  and  C_29 
REMARK    8  A    between atoms: N_25  and  C_28 
REMARK    9  A    between atoms: C_29  and  O_30 
ROOT
ATOM      1  C   LIG d   1       6.664  -4.839  -5.965  0.00  0.00     0.007 C 
ATOM      2  H   LIG d   1       7.178  -5.156  -6.872  0.00  0.00     0.040 H 
ATOM      3  C   LIG d   1       7.679  -4.434  -4.939  0.00  0.00    -0.080 C 
ATOM      4  C   LIG d   1       7.605  -3.362  -4.211  0.00  0.00    -0.084 C 
ATOM      5  C   LIG d   1       6.485  -2.377  -4.323  0.00  0.00    -0.019 C 
ATOM      6  H   LIG d   1       6.811  -1.542  -4.945  0.00  0.00     0.035 H 
ATOM      7  C   LIG d   1       6.060  -1.838  -2.961  0.00  0.00    -0.044 C 
ATOM      8  C   LIG d   1       4.967  -0.782  -3.167  0.00  0.00    -0.043 C 
ATOM      9  H   LIG d   1       5.366   0.038  -3.765  0.00  0.00     0.030 H 
ATOM     10  C   LIG d   1       3.770  -1.400  -3.887  0.00  0.00    -0.050 C 
ATOM     11  C   LIG d   1       4.207  -1.972  -5.240  0.00  0.00    -0.049 C 
ATOM     12  C   LIG d   1       5.273  -3.038  -4.983  0.00  0.00    -0.022 C 
ATOM     13  H   LIG d   1       4.879  -3.813  -4.326  0.00  0.00     0.032 H 
ATOM     14  C   LIG d   1       5.729  -3.672  -6.297  0.00  0.00     0.040 C 
ATOM     15  H   LIG d   1       8.533  -5.080  -4.795  0.00  0.00     0.058 H 
ATOM     16  H   LIG d   1       8.386  -3.174  -3.490  0.00  0.00     0.057 H 
ATOM     17  H   LIG d   1       5.670  -2.652  -2.351  0.00  0.00     0.027 H 
ATOM     18  H   LIG d   1       6.917  -1.384  -2.463  0.00  0.00     0.027 H 
ATOM     19  H   LIG d   1       3.353  -2.200  -3.275  0.00  0.00     0.027 H 
ATOM     20  H   LIG d   1       3.010  -0.635  -4.046  0.00  0.00     0.027 H 
ATOM     21  H   LIG d   1       3.350  -2.425  -5.740  0.00  0.00     0.027 H 
ATOM     22  H   LIG d   1       4.613  -1.174  -5.860  0.00  0.00     0.027 H 
ENDROOT
BRANCH  14  23
ATOM     23  C   LIG d   1       6.477  -2.635  -7.138  0.00  0.00    -0.052 C 
ATOM     24  H   LIG d   1       6.321  -1.643  -6.714  0.00  0.00     0.024 H 
ATOM     25  H   LIG d   1       7.542  -2.868  -7.138  0.00  0.00     0.024 H 
ATOM     26  H   LIG d   1       6.100  -2.656  -8.160  0.00  0.00     0.024 H 
ENDBRANCH  14  23
BRANCH  14  27
ATOM     27  C   LIG d   1       4.532  -4.180  -7.058  0.00  0.00     0.159 C 
ATOM     28  O   LIG d   1       3.597  -4.659  -6.463  0.00  0.00    -0.295 OA
BRANCH  27  29
ATOM     29  C   LIG d   1       4.501  -4.087  -8.562  0.00  0.00     0.154 A 
ATOM     30  C   LIG d   1       3.341  -3.235  -9.007  0.00  0.00     0.234 A 
ATOM     31  N   LIG d   1       2.504  -3.952  -9.769  0.00  0.00    -0.291 N 
ATOM     32  O   LIG d   1       3.185  -2.068  -8.715  0.00  0.00    -0.274 OA
ATOM     33  C   LIG d   1       2.974  -5.327  -9.933  0.00  0.00     0.108 A 
ATOM     34  C   LIG d   1       4.270  -5.459  -9.163  0.00  0.00     0.175 A 
ATOM     35  H   LIG d   1       2.234  -6.020  -9.532  0.00  0.00     0.060 H 
ATOM     36  O   LIG d   1       4.966  -6.439  -9.052  0.00  0.00    -0.294 OA
ATOM     37  H   LIG d   1       5.438  -3.668  -8.931  0.00  0.00     0.055 H 
BRANCH  31  38
ATOM     38  C   LIG d   1       1.274  -3.425 -10.366  0.00  0.00     0.004 C 
ATOM     39  H   LIG d   1       1.519  -2.605 -11.039  0.00  0.00     0.043 H 
ATOM     40  H   LIG d   1       0.773  -4.216 -10.925  0.00  0.00     0.043 H 
ATOM     41  H   LIG d   1       0.614  -3.064  -9.577  0.00  0.00     0.043 H 
ENDBRANCH  31  38
BRANCH  33  42
ATOM     42  C   LIG d   1       3.217  -5.624 -11.413  0.00  0.00     0.070 C 
ATOM     43  H   LIG d   1       2.919  -6.648 -11.632  0.00  0.00     0.058 H 
ATOM     44  H   LIG d   1       2.628  -4.936 -12.022  0.00  0.00     0.058 H 
BRANCH  42  45
ATOM     45  O   LIG d   1       4.604  -5.455 -11.712  0.00  0.00    -0.393 OA
ATOM     46  H   LIG d   1       4.861  -5.780 -12.586  0.00  0.00     0.209 HD
ENDBRANCH  42  45
ENDBRANCH  33  42
ENDBRANCH  27  29
ENDBRANCH  14  27
BRANCH   1  47
ATOM     47  C   LIG d   1       5.850  -5.989  -5.430  0.00  0.00    -0.080 C 
ATOM     48  C   LIG d   1       6.168  -7.220  -5.745  0.00  0.00    -0.090 C 
ATOM     49  H   LIG d   1       7.016  -7.411  -6.388  0.00  0.00     0.057 H 
ATOM     50  H   LIG d   1       5.003  -5.798  -4.788  0.00  0.00     0.058 H 
BRANCH  48  51
ATOM     51  C   LIG d   1       5.355  -8.370  -5.210  0.00  0.00    -0.047 C 
ATOM     52  H   LIG d   1       4.718  -8.017  -4.398  0.00  0.00     0.027 H 
ATOM     53  H   LIG d   1       4.733  -8.778  -6.007  0.00  0.00     0.027 H 
ATOM     54  H   LIG d   1       6.023  -9.145  -4.837  0.00  0.00     0.027 H 
ENDBRANCH  48  51
ENDBRANCH   1  47
BRANCH   8  55
ATOM     55  C   LIG d   1       4.517  -0.245  -1.807  0.00  0.00    -0.062 C 
ATOM     56  H   LIG d   1       5.260  -0.500  -1.052  0.00  0.00     0.023 H 
ATOM     57  H   LIG d   1       4.410   0.839  -1.861  0.00  0.00     0.023 H 
ATOM     58  H   LIG d   1       3.559  -0.692  -1.539  0.00  0.00     0.023 H 
ENDBRANCH   8  55
TORSDOF 9
ENDMDL
MODEL 9
REMARK VINA RESULT:      -4.8     10.082     12.780
REMARK  9 active torsions:
REMARK  status: ('A' for Active; 'I' for Inactive)
REMARK    1  A    between atoms: C_1  and  C_2 
REMARK    2  A    between atoms: C_3  and  C_4 
REMARK    3  A    between atoms: C_11  and  C_32 
REMARK    4  A    between atoms: C_17  and  C_18 
REMARK    5  A    between atoms: C_17  and  C_19 
REMARK    6  A    between atoms: C_19  and  C_20 
REMARK    7  A    between atoms: C_23  and  C_29 
REMARK    8  A    between atoms: N_25  and  C_28 
REMARK    9  A    between atoms: C_29  and  O_30 
ROOT
ATOM      1  C   LIG d   1      10.061   6.287  -2.260  0.00  0.00     0.007 C 
ATOM      2  H   LIG d   1       9.032   6.588  -2.458  0.00  0.00     0.040 H 
ATOM      3  C   LIG d   1      10.150   4.790  -2.292  0.00  0.00    -0.080 C 
ATOM      4  C   LIG d   1      11.080   4.120  -2.900  0.00  0.00    -0.084 C 
ATOM      5  C   LIG d   1      12.184   4.773  -3.671  0.00  0.00    -0.019 C 
ATOM      6  H   LIG d   1      11.929   4.759  -4.731  0.00  0.00     0.035 H 
ATOM      7  C   LIG d   1      13.517   4.056  -3.476  0.00  0.00    -0.044 C 
ATOM      8  C   LIG d   1      14.574   4.735  -4.354  0.00  0.00    -0.043 C 
ATOM      9  H   LIG d   1      14.278   4.658  -5.401  0.00  0.00     0.030 H 
ATOM     10  C   LIG d   1      14.706   6.208  -3.972  0.00  0.00    -0.050 C 
ATOM     11  C   LIG d   1      13.357   6.917  -4.135  0.00  0.00    -0.049 C 
ATOM     12  C   LIG d   1      12.344   6.227  -3.222  0.00  0.00    -0.022 C 
ATOM     13  H   LIG d   1      12.691   6.251  -2.189  0.00  0.00     0.032 H 
ATOM     14  C   LIG d   1      10.981   6.910  -3.314  0.00  0.00     0.040 C 
ATOM     15  H   LIG d   1       9.386   4.232  -1.771  0.00  0.00     0.058 H 
ATOM     16  H   LIG d   1      11.056   3.042  -2.847  0.00  0.00     0.057 H 
ATOM     17  H   LIG d   1      13.816   4.119  -2.430  0.00  0.00     0.027 H 
ATOM     18  H   LIG d   1      13.416   3.010  -3.767  0.00  0.00     0.027 H 
ATOM     19  H   LIG d   1      15.032   6.286  -2.935  0.00  0.00     0.027 H 
ATOM     20  H   LIG d   1      15.445   6.684  -4.617  0.00  0.00     0.027 H 
ATOM     21  H   LIG d   1      13.457   7.964  -3.845  0.00  0.00     0.027 H 
ATOM     22  H   LIG d   1      13.034   6.854  -5.173  0.00  0.00     0.027 H 
ENDROOT
BRANCH  14  23
ATOM     23  C   LIG d   1      10.388   6.694  -4.708  0.00  0.00    -0.052 C 
ATOM     24  H   LIG d   1      10.042   5.664  -4.800  0.00  0.00     0.024 H 
ATOM     25  H   LIG d   1       9.549   7.373  -4.855  0.00  0.00     0.024 H 
ATOM     26  H   LIG d   1      11.151   6.888  -5.462  0.00  0.00     0.024 H 
ENDBRANCH  14  23
BRANCH  14  27
ATOM     27  C   LIG d   1      11.133   8.385  -3.048  0.00  0.00     0.159 C 
ATOM     28  O   LIG d   1      12.060   8.787  -2.388  0.00  0.00    -0.295 OA
BRANCH  27  29
ATOM     29  C   LIG d   1      10.129   9.360  -3.608  0.00  0.00     0.154 A 
ATOM     30  C   LIG d   1      10.795  10.285  -4.593  0.00  0.00     0.234 A 
ATOM     31  N   LIG d   1      10.694  11.555  -4.178  0.00  0.00    -0.291 N 
ATOM     32  O   LIG d   1      11.346   9.931  -5.615  0.00  0.00    -0.274 OA
ATOM     33  C   LIG d   1       9.973  11.648  -2.910  0.00  0.00     0.108 A 
ATOM     34  C   LIG d   1       9.587  10.242  -2.502  0.00  0.00     0.175 A 
ATOM     35  H   LIG d   1      10.618  12.089  -2.150  0.00  0.00     0.060 H 
ATOM     36  O   LIG d   1       8.982   9.900  -1.516  0.00  0.00    -0.294 OA
ATOM     37  H   LIG d   1       9.313   8.821  -4.092  0.00  0.00     0.055 H 
BRANCH  31  38
ATOM     38  C   LIG d   1      11.236  12.706  -4.904  0.00  0.00     0.004 C 
ATOM     39  H   LIG d   1      11.560  13.465  -4.193  0.00  0.00     0.043 H 
ATOM     40  H   LIG d   1      12.087  12.388  -5.507  0.00  0.00     0.043 H 
ATOM     41  H   LIG d   1      10.466  13.121  -5.554  0.00  0.00     0.043 H 
ENDBRANCH  31  38
BRANCH  33  42
ATOM     42  C   LIG d   1       8.716  12.501  -3.085  0.00  0.00     0.070 C 
ATOM     43  H   LIG d   1       8.651  13.222  -2.271  0.00  0.00     0.058 H 
ATOM     44  H   LIG d   1       8.766  13.030  -4.037  0.00  0.00     0.058 H 
BRANCH  42  45
ATOM     45  O   LIG d   1       7.561  11.658  -3.069  0.00  0.00    -0.393 OA
ATOM     46  H   LIG d   1       6.804  12.020  -3.549  0.00  0.00     0.209 HD
ENDBRANCH  42  45
ENDBRANCH  33  42
ENDBRANCH  27  29
ENDBRANCH  14  27
BRANCH   1  47
ATOM     47  C   LIG d   1      10.467   6.779  -0.894  0.00  0.00    -0.080 C 
ATOM     48  C   LIG d   1      10.734   5.921   0.059  0.00  0.00    -0.090 C 
ATOM     49  H   LIG d   1      10.663   4.860  -0.135  0.00  0.00     0.057 H 
ATOM     50  H   LIG d   1      10.537   7.839  -0.702  0.00  0.00     0.058 H 
BRANCH  48  51
ATOM     51  C   LIG d   1      11.140   6.413   1.423  0.00  0.00    -0.047 C 
ATOM     52  H   LIG d   1      11.592   5.594   1.985  0.00  0.00     0.027 H 
ATOM     53  H   LIG d   1      11.861   7.222   1.319  0.00  0.00     0.027 H 
ATOM     54  H   LIG d   1      10.261   6.776   1.956  0.00  0.00     0.027 H 
ENDBRANCH  48  51
ENDBRANCH   1  47
BRANCH   8  55
ATOM     55  C   LIG d   1      15.922   4.038  -4.156  0.00  0.00    -0.062 C 
ATOM     56  H   LIG d   1      15.832   3.291  -3.368  0.00  0.00     0.023 H 
ATOM     57  H   LIG d   1      16.221   3.554  -5.085  0.00  0.00     0.023 H 
ATOM     58  H   LIG d   1      16.674   4.776  -3.872  0.00  0.00     0.023 H 
ENDBRANCH   8  55
TORSDOF 9
ENDMDL
MODEL 10
REMARK VINA RESULT:      -4.7      3.961      7.307
REMARK  9 active torsions:
REMARK  status: ('A' for Active; 'I' for Inactive)
REMARK    1  A    between atoms: C_1  and  C_2 
REMARK    2  A    between atoms: C_3  and  C_4 
REMARK    3  A    between atoms: C_11  and  C_32 
REMARK    4  A    between atoms: C_17  and  C_18 
REMARK    5  A    between atoms: C_17  and  C_19 
REMARK    6  A    between atoms: C_19  and  C_20 
REMARK    7  A    between atoms: C_23  and  C_29 
REMARK    8  A    between atoms: N_25  and  C_28 
REMARK    9  A    between atoms: C_29  and  O_30 
ROOT
ATOM      1  C   LIG d   1       4.028   0.301  -7.683  0.00  0.00     0.007 C 
ATOM      2  H   LIG d   1       4.121   1.069  -6.916  0.00  0.00     0.040 H 
ATOM      3  C   LIG d   1       2.598   0.219  -8.127  0.00  0.00    -0.080 C 
ATOM      4  C   LIG d   1       2.213   0.150  -9.365  0.00  0.00    -0.084 C 
ATOM      5  C   LIG d   1       3.167   0.162 -10.517  0.00  0.00    -0.019 C 
ATOM      6  H   LIG d   1       3.214   1.172 -10.925  0.00  0.00     0.035 H 
ATOM      7  C   LIG d   1       2.737  -0.796 -11.624  0.00  0.00    -0.044 C 
ATOM      8  C   LIG d   1       3.718  -0.668 -12.795  0.00  0.00    -0.043 C 
ATOM      9  H   LIG d   1       3.693   0.353 -13.178  0.00  0.00     0.030 H 
ATOM     10  C   LIG d   1       5.135  -1.001 -12.331  0.00  0.00    -0.050 C 
ATOM     11  C   LIG d   1       5.551  -0.060 -11.195  0.00  0.00    -0.049 C 
ATOM     12  C   LIG d   1       4.564  -0.242 -10.041  0.00  0.00    -0.022 C 
ATOM     13  H   LIG d   1       4.551  -1.283  -9.719  0.00  0.00     0.032 H 
ATOM     14  C   LIG d   1       4.945   0.649  -8.860  0.00  0.00     0.040 C 
ATOM     15  H   LIG d   1       1.835   0.216  -7.363  0.00  0.00     0.058 H 
ATOM     16  H   LIG d   1       1.156   0.080  -9.572  0.00  0.00     0.057 H 
ATOM     17  H   LIG d   1       2.749  -1.818 -11.248  0.00  0.00     0.027 H 
ATOM     18  H   LIG d   1       1.732  -0.539 -11.960  0.00  0.00     0.027 H 
ATOM     19  H   LIG d   1       5.168  -2.031 -11.976  0.00  0.00     0.027 H 
ATOM     20  H   LIG d   1       5.826  -0.886 -13.167  0.00  0.00     0.027 H 
ATOM     21  H   LIG d   1       6.557  -0.314 -10.859  0.00  0.00     0.027 H 
ATOM     22  H   LIG d   1       5.533   0.971 -11.548  0.00  0.00     0.027 H 
ENDROOT
BRANCH  14  23
ATOM     23  C   LIG d   1       4.758   2.119  -9.241  0.00  0.00    -0.052 C 
ATOM     24  H   LIG d   1       5.727   2.622  -9.237  0.00  0.00     0.024 H 
ATOM     25  H   LIG d   1       4.321   2.183 -10.237  0.00  0.00     0.024 H 
ATOM     26  H   LIG d   1       4.097   2.601  -8.521  0.00  0.00     0.024 H 
ENDBRANCH  14  23
BRANCH  14  27
ATOM     27  C   LIG d   1       6.381   0.399  -8.477  0.00  0.00     0.159 C 
ATOM     28  O   LIG d   1       6.856  -0.703  -8.603  0.00  0.00    -0.295 OA
BRANCH  27  29
ATOM     29  C   LIG d   1       7.224   1.527  -7.939  0.00  0.00     0.154 A 
ATOM     30  C   LIG d   1       8.447   1.717  -8.797  0.00  0.00     0.234 A 
ATOM     31  N   LIG d   1       9.557   1.522  -8.073  0.00  0.00    -0.291 N 
ATOM     32  O   LIG d   1       8.430   2.004  -9.976  0.00  0.00    -0.274 OA
ATOM     33  C   LIG d   1       9.239   1.189  -6.685  0.00  0.00     0.108 A 
ATOM     34  C   LIG d   1       7.732   1.181  -6.554  0.00  0.00     0.175 A 
ATOM     35  H   LIG d   1       9.637   0.204  -6.441  0.00  0.00     0.060 H 
ATOM     36  O   LIG d   1       7.079   0.950  -5.565  0.00  0.00    -0.294 OA
ATOM     37  H   LIG d   1       6.641   2.448  -7.906  0.00  0.00     0.055 H 
BRANCH  31  38
ATOM     38  C   LIG d   1      10.919   1.630  -8.603  0.00  0.00     0.004 C 
ATOM     39  H   LIG d   1      11.625   1.233  -7.875  0.00  0.00     0.043 H 
ATOM     40  H   LIG d   1      10.994   1.059  -9.529  0.00  0.00     0.043 H 
ATOM     41  H   LIG d   1      11.149   2.676  -8.801  0.00  0.00     0.043 H 
ENDBRANCH  31  38
BRANCH  33  42
ATOM     42  C   LIG d   1       9.836   2.239  -5.746  0.00  0.00     0.070 C 
ATOM     43  H   LIG d   1      10.348   1.741  -4.924  0.00  0.00     0.058 H 
ATOM     44  H   LIG d   1      10.547   2.856  -6.297  0.00  0.00     0.058 H 
BRANCH  42  45
ATOM     45  O   LIG d   1       8.791   3.065  -5.228  0.00  0.00    -0.393 OA
ATOM     46  H   LIG d   1       8.745   3.081  -4.262  0.00  0.00     0.209 HD
ENDBRANCH  42  45
ENDBRANCH  33  42
ENDBRANCH  27  29
ENDBRANCH  14  27
BRANCH   1  47
ATOM     47  C   LIG d   1       4.445  -1.029  -7.107  0.00  0.00    -0.080 C 
ATOM     48  C   LIG d   1       4.375  -1.234  -5.815  0.00  0.00    -0.090 C 
ATOM     49  H   LIG d   1       4.016  -0.450  -5.162  0.00  0.00     0.057 H 
ATOM     50  H   LIG d   1       4.803  -1.811  -7.759  0.00  0.00     0.058 H 
BRANCH  48  51
ATOM     51  C   LIG d   1       4.791  -2.562  -5.239  0.00  0.00    -0.047 C 
ATOM     52  H   LIG d   1       3.929  -3.229  -5.203  0.00  0.00     0.027 H 
ATOM     53  H   LIG d   1       5.566  -3.003  -5.866  0.00  0.00     0.027 H 
ATOM     54  H   LIG d   1       5.179  -2.415  -4.231  0.00  0.00     0.027 H 
ENDBRANCH  48  51
ENDBRANCH   1  47
BRANCH   8  55
ATOM     55  C   LIG d   1       3.310  -1.637 -13.907  0.00  0.00    -0.062 C 
ATOM     56  H   LIG d   1       3.657  -2.640 -13.660  0.00  0.00     0.023 H 
ATOM     57  H   LIG d   1       2.224  -1.640 -14.005  0.00  0.00     0.023 H 
ATOM     58  H   LIG d   1       3.760  -1.320 -14.849  0.00  0.00     0.023 H 
ENDBRANCH   8  55
TORSDOF 9
ENDMDL
