MODEL 1
REMARK VINA RESULT:      -5.6      0.000      0.000
REMARK  11 active torsions:
REMARK  status: ('A' for Active; 'I' for Inactive)
REMARK    1  A    between atoms: C_3  and  C_7 
REMARK    2  A    between atoms: C_7  and  C_8 
REMARK    3  A    between atoms: C_8  and  C_9 
REMARK    4  A    between atoms: C_9  and  C_10 
REMARK    5  A    between atoms: C_10  and  C_11 
REMARK    6  A    between atoms: C_11  and  C_12 
REMARK    7  A    between atoms: C_12  and  C_13 
REMARK    8  A    between atoms: C_13  and  C_14 
REMARK    9  A    between atoms: C_14  and  C_15 
REMARK   10  A    between atoms: C_15  and  C_16 
REMARK   11  A    between atoms: C_16  and  C_17 
ROOT
ATOM      1  C   LIG d   1       4.335  -2.899  -3.616  0.00  0.00    -0.053 C 
ATOM      2  H   LIG d   1       4.747  -3.828  -3.222  0.00  0.00     0.026 H 
ATOM      3  H   LIG d   1       3.439  -3.117  -4.196  0.00  0.00     0.026 H 
ENDROOT
BRANCH   1   4
ATOM      4  C   LIG d   1       5.371  -2.222  -4.515  0.00  0.00    -0.053 C 
ATOM      5  H   LIG d   1       5.674  -1.274  -4.070  0.00  0.00     0.026 H 
ATOM      6  H   LIG d   1       6.243  -2.870  -4.617  0.00  0.00     0.026 H 
BRANCH   4   7
ATOM      7  C   LIG d   1       4.761  -1.967  -5.895  0.00  0.00    -0.051 C 
ATOM      8  H   LIG d   1       5.458  -2.296  -6.666  0.00  0.00     0.027 H 
ATOM      9  H   LIG d   1       3.827  -2.523  -5.987  0.00  0.00     0.027 H 
BRANCH   7  10
ATOM     10  C   LIG d   1       4.483  -0.472  -6.061  0.00  0.00    -0.027 C 
ATOM     11  H   LIG d   1       3.584  -0.205  -5.505  0.00  0.00     0.029 H 
ATOM     12  H   LIG d   1       5.329   0.100  -5.680  0.00  0.00     0.029 H 
BRANCH  10  13
ATOM     13  C   LIG d   1       4.278  -0.153  -7.543  0.00  0.00     0.059 C 
ATOM     14  C   LIG d   1       2.817   0.271  -7.791  0.00  0.00    -0.025 C 
ATOM     15  C   LIG d   1       2.932   1.691  -8.395  0.00  0.00    -0.027 C 
ATOM     16  H   LIG d   1       2.338  -0.406  -8.498  0.00  0.00     0.029 H 
ATOM     17  H   LIG d   1       2.264   0.299  -6.853  0.00  0.00     0.029 H 
ATOM     18  C   LIG d   1       4.390   1.705  -8.921  0.00  0.00     0.048 C 
ATOM     19  H   LIG d   1       2.222   1.826  -9.211  0.00  0.00     0.029 H 
ATOM     20  H   LIG d   1       2.789   2.453  -7.628  0.00  0.00     0.029 H 
ATOM     21  O   LIG d   1       5.114   0.952  -7.925  0.00  0.00    -0.377 OA
ATOM     22  H   LIG d   1       4.450   1.213  -9.894  0.00  0.00     0.056 H 
ATOM     23  H   LIG d   1       4.766   2.725  -8.985  0.00  0.00     0.056 H 
ATOM     24  H   LIG d   1       4.518  -1.028  -8.147  0.00  0.00     0.060 H 
ENDBRANCH  10  13
ENDBRANCH   7  10
ENDBRANCH   4   7
ENDBRANCH   1   4
BRANCH   1  25
ATOM     25  C   LIG d   1       3.978  -1.967  -2.457  0.00  0.00    -0.053 C 
ATOM     26  H   LIG d   1       4.856  -1.385  -2.176  0.00  0.00     0.026 H 
ATOM     27  H   LIG d   1       3.647  -2.559  -1.603  0.00  0.00     0.026 H 
BRANCH  25  28
ATOM     28  C   LIG d   1       2.855  -1.021  -2.889  0.00  0.00    -0.053 C 
ATOM     29  H   LIG d   1       2.716  -1.093  -3.967  0.00  0.00     0.026 H 
ATOM     30  H   LIG d   1       1.931  -1.300  -2.382  0.00  0.00     0.026 H 
BRANCH  28  31
ATOM     31  C   LIG d   1       3.228   0.415  -2.518  0.00  0.00    -0.053 C 
ATOM     32  H   LIG d   1       3.169   1.047  -3.404  0.00  0.00     0.026 H 
ATOM     33  H   LIG d   1       2.537   0.786  -1.761  0.00  0.00     0.026 H 
BRANCH  31  34
ATOM     34  C   LIG d   1       4.655   0.445  -1.964  0.00  0.00    -0.053 C 
ATOM     35  H   LIG d   1       4.635   0.778  -0.928  0.00  0.00     0.026 H 
ATOM     36  H   LIG d   1       5.085  -0.555  -2.017  0.00  0.00     0.026 H 
BRANCH  34  37
ATOM     37  C   LIG d   1       5.504   1.409  -2.796  0.00  0.00    -0.048 C 
ATOM     38  H   LIG d   1       4.929   1.749  -3.657  0.00  0.00     0.027 H 
ATOM     39  H   LIG d   1       5.784   2.266  -2.183  0.00  0.00     0.027 H 
BRANCH  37  40
ATOM     40  C   LIG d   1       6.767   0.692  -3.275  0.00  0.00    -0.013 C 
ATOM     41  H   LIG d   1       7.320   0.315  -2.414  0.00  0.00     0.033 H 
ATOM     42  H   LIG d   1       6.489  -0.140  -3.921  0.00  0.00     0.033 H 
BRANCH  40  43
ATOM     43  C   LIG d   1       7.632   1.658  -4.044  0.00  0.00     0.042 C 
ATOM     44  O   LIG d   1       7.519   1.745  -5.243  0.00  0.00    -0.550 OA
ATOM     45  O   LIG d   1       8.527   2.419  -3.395  0.00  0.00    -0.550 OA
ENDBRANCH  40  43
ENDBRANCH  37  40
ENDBRANCH  34  37
ENDBRANCH  31  34
ENDBRANCH  28  31
ENDBRANCH  25  28
ENDBRANCH   1  25
TORSDOF 11
ENDMDL
MODEL 2
REMARK VINA RESULT:      -5.4      1.287      2.282
REMARK  11 active torsions:
REMARK  status: ('A' for Active; 'I' for Inactive)
REMARK    1  A    between atoms: C_3  and  C_7 
REMARK    2  A    between atoms: C_7  and  C_8 
REMARK    3  A    between atoms: C_8  and  C_9 
REMARK    4  A    between atoms: C_9  and  C_10 
REMARK    5  A    between atoms: C_10  and  C_11 
REMARK    6  A    between atoms: C_11  and  C_12 
REMARK    7  A    between atoms: C_12  and  C_13 
REMARK    8  A    between atoms: C_13  and  C_14 
REMARK    9  A    between atoms: C_14  and  C_15 
REMARK   10  A    between atoms: C_15  and  C_16 
REMARK   11  A    between atoms: C_16  and  C_17 
ROOT
ATOM      1  C   LIG d   1       2.587  -0.459  -3.605  0.00  0.00    -0.053 C 
ATOM      2  H   LIG d   1       2.894  -1.402  -4.057  0.00  0.00     0.026 H 
ATOM      3  H   LIG d   1       1.527  -0.500  -3.362  0.00  0.00     0.026 H 
ENDROOT
BRANCH   1   4
ATOM      4  C   LIG d   1       2.839   0.684  -4.591  0.00  0.00    -0.053 C 
ATOM      5  H   LIG d   1       2.221   1.540  -4.320  0.00  0.00     0.026 H 
ATOM      6  H   LIG d   1       3.891   0.969  -4.556  0.00  0.00     0.026 H 
BRANCH   4   7
ATOM      7  C   LIG d   1       2.484   0.224  -6.006  0.00  0.00    -0.051 C 
ATOM      8  H   LIG d   1       1.917  -0.706  -5.955  0.00  0.00     0.027 H 
ATOM      9  H   LIG d   1       1.882   0.990  -6.497  0.00  0.00     0.027 H 
BRANCH   7  10
ATOM     10  C   LIG d   1       3.768  -0.004  -6.806  0.00  0.00    -0.027 C 
ATOM     11  H   LIG d   1       4.566   0.617  -6.398  0.00  0.00     0.029 H 
ATOM     12  H   LIG d   1       4.056  -1.054  -6.740  0.00  0.00     0.029 H 
BRANCH  10  13
ATOM     13  C   LIG d   1       3.530   0.369  -8.270  0.00  0.00     0.059 C 
ATOM     14  C   LIG d   1       2.912   1.778  -8.358  0.00  0.00    -0.025 C 
ATOM     15  C   LIG d   1       3.916   2.580  -9.221  0.00  0.00    -0.027 C 
ATOM     16  H   LIG d   1       1.938   1.738  -8.846  0.00  0.00     0.029 H 
ATOM     17  H   LIG d   1       2.826   2.219  -7.365  0.00  0.00     0.029 H 
ATOM     18  C   LIG d   1       4.679   1.452  -9.965  0.00  0.00     0.048 C 
ATOM     19  H   LIG d   1       3.395   3.226  -9.926  0.00  0.00     0.029 H 
ATOM     20  H   LIG d   1       4.594   3.158  -8.594  0.00  0.00     0.029 H 
ATOM     21  O   LIG d   1       4.783   0.407  -8.975  0.00  0.00    -0.377 OA
ATOM     22  H   LIG d   1       4.107   1.108 -10.828  0.00  0.00     0.056 H 
ATOM     23  H   LIG d   1       5.666   1.794 -10.272  0.00  0.00     0.056 H 
ATOM     24  H   LIG d   1       2.864  -0.358  -8.734  0.00  0.00     0.060 H 
ENDBRANCH  10  13
ENDBRANCH   7  10
ENDBRANCH   4   7
ENDBRANCH   1   4
BRANCH   1  25
ATOM     25  C   LIG d   1       3.396  -0.219  -2.329  0.00  0.00    -0.053 C 
ATOM     26  H   LIG d   1       2.715  -0.084  -1.488  0.00  0.00     0.026 H 
ATOM     27  H   LIG d   1       4.007   0.676  -2.448  0.00  0.00     0.026 H 
BRANCH  25  28
ATOM     28  C   LIG d   1       4.302  -1.423  -2.064  0.00  0.00    -0.053 C 
ATOM     29  H   LIG d   1       5.313  -1.077  -1.852  0.00  0.00     0.026 H 
ATOM     30  H   LIG d   1       3.921  -1.983  -1.209  0.00  0.00     0.026 H 
BRANCH  28  31
ATOM     31  C   LIG d   1       4.321  -2.327  -3.297  0.00  0.00    -0.053 C 
ATOM     32  H   LIG d   1       3.994  -3.329  -3.019  0.00  0.00     0.026 H 
ATOM     33  H   LIG d   1       3.648  -1.924  -4.055  0.00  0.00     0.026 H 
BRANCH  31  34
ATOM     34  C   LIG d   1       5.743  -2.392  -3.860  0.00  0.00    -0.053 C 
ATOM     35  H   LIG d   1       6.209  -3.330  -3.558  0.00  0.00     0.026 H 
ATOM     36  H   LIG d   1       5.706  -2.338  -4.948  0.00  0.00     0.026 H 
BRANCH  34  37
ATOM     37  C   LIG d   1       6.560  -1.217  -3.318  0.00  0.00    -0.048 C 
ATOM     38  H   LIG d   1       6.012  -0.737  -2.507  0.00  0.00     0.027 H 
ATOM     39  H   LIG d   1       7.517  -1.582  -2.945  0.00  0.00     0.027 H 
BRANCH  37  40
ATOM     40  C   LIG d   1       6.803  -0.206  -4.439  0.00  0.00    -0.013 C 
ATOM     41  H   LIG d   1       7.749  -0.430  -4.933  0.00  0.00     0.033 H 
ATOM     42  H   LIG d   1       5.992  -0.267  -5.165  0.00  0.00     0.033 H 
BRANCH  40  43
ATOM     43  C   LIG d   1       6.856   1.184  -3.860  0.00  0.00     0.042 C 
ATOM     44  O   LIG d   1       6.253   1.438  -2.844  0.00  0.00    -0.550 OA
ATOM     45  O   LIG d   1       7.571   2.140  -4.473  0.00  0.00    -0.550 OA
ENDBRANCH  40  43
ENDBRANCH  37  40
ENDBRANCH  34  37
ENDBRANCH  31  34
ENDBRANCH  28  31
ENDBRANCH  25  28
ENDBRANCH   1  25
TORSDOF 11
ENDMDL
MODEL 3
REMARK VINA RESULT:      -5.4      2.622      3.577
REMARK  11 active torsions:
REMARK  status: ('A' for Active; 'I' for Inactive)
REMARK    1  A    between atoms: C_3  and  C_7 
REMARK    2  A    between atoms: C_7  and  C_8 
REMARK    3  A    between atoms: C_8  and  C_9 
REMARK    4  A    between atoms: C_9  and  C_10 
REMARK    5  A    between atoms: C_10  and  C_11 
REMARK    6  A    between atoms: C_11  and  C_12 
REMARK    7  A    between atoms: C_12  and  C_13 
REMARK    8  A    between atoms: C_13  and  C_14 
REMARK    9  A    between atoms: C_14  and  C_15 
REMARK   10  A    between atoms: C_15  and  C_16 
REMARK   11  A    between atoms: C_16  and  C_17 
ROOT
ATOM      1  C   LIG d   1       2.538   0.072  -4.276  0.00  0.00    -0.053 C 
ATOM      2  H   LIG d   1       2.513  -0.844  -3.686  0.00  0.00     0.026 H 
ATOM      3  H   LIG d   1       1.523   0.355  -4.551  0.00  0.00     0.026 H 
ENDROOT
BRANCH   1   4
ATOM      4  C   LIG d   1       3.365  -0.159  -5.542  0.00  0.00    -0.053 C 
ATOM      5  H   LIG d   1       4.387   0.183  -5.377  0.00  0.00     0.026 H 
ATOM      6  H   LIG d   1       3.371  -1.222  -5.784  0.00  0.00     0.026 H 
BRANCH   4   7
ATOM      7  C   LIG d   1       2.746   0.622  -6.704  0.00  0.00    -0.051 C 
ATOM      8  H   LIG d   1       1.773   1.010  -6.404  0.00  0.00     0.027 H 
ATOM      9  H   LIG d   1       3.401   1.452  -6.973  0.00  0.00     0.027 H 
BRANCH   7  10
ATOM     10  C   LIG d   1       2.577  -0.305  -7.910  0.00  0.00    -0.027 C 
ATOM     11  H   LIG d   1       3.432  -0.978  -7.974  0.00  0.00     0.029 H 
ATOM     12  H   LIG d   1       1.663  -0.889  -7.793  0.00  0.00     0.029 H 
BRANCH  10  13
ATOM     13  C   LIG d   1       2.489   0.531  -9.187  0.00  0.00     0.059 C 
ATOM     14  C   LIG d   1       2.715   2.019  -8.856  0.00  0.00    -0.025 C 
ATOM     15  C   LIG d   1       3.939   2.418  -9.715  0.00  0.00    -0.027 C 
ATOM     16  H   LIG d   1       1.843   2.610  -9.138  0.00  0.00     0.029 H 
ATOM     17  H   LIG d   1       2.936   2.145  -7.796  0.00  0.00     0.029 H 
ATOM     18  C   LIG d   1       3.937   1.323 -10.812  0.00  0.00     0.048 C 
ATOM     19  H   LIG d   1       3.803   3.407 -10.153  0.00  0.00     0.029 H 
ATOM     20  H   LIG d   1       4.857   2.378  -9.128  0.00  0.00     0.029 H 
ATOM     21  O   LIG d   1       3.525   0.135 -10.102  0.00  0.00    -0.377 OA
ATOM     22  H   LIG d   1       3.221   1.569 -11.598  0.00  0.00     0.056 H 
ATOM     23  H   LIG d   1       4.935   1.197 -11.231  0.00  0.00     0.056 H 
ATOM     24  H   LIG d   1       1.512   0.398  -9.651  0.00  0.00     0.060 H 
ENDBRANCH  10  13
ENDBRANCH   7  10
ENDBRANCH   4   7
ENDBRANCH   1   4
BRANCH   1  25
ATOM     25  C   LIG d   1       3.174   1.192  -3.450  0.00  0.00    -0.053 C 
ATOM     26  H   LIG d   1       2.389   1.802  -3.001  0.00  0.00     0.026 H 
ATOM     27  H   LIG d   1       3.792   1.816  -4.097  0.00  0.00     0.026 H 
BRANCH  25  28
ATOM     28  C   LIG d   1       4.042   0.584  -2.347  0.00  0.00    -0.053 C 
ATOM     29  H   LIG d   1       3.659   0.889  -1.373  0.00  0.00     0.026 H 
ATOM     30  H   LIG d   1       4.019  -0.503  -2.424  0.00  0.00     0.026 H 
BRANCH  28  31
ATOM     31  C   LIG d   1       5.482   1.075  -2.503  0.00  0.00    -0.053 C 
ATOM     32  H   LIG d   1       5.480   2.076  -2.935  0.00  0.00     0.026 H 
ATOM     33  H   LIG d   1       5.966   1.102  -1.526  0.00  0.00     0.026 H 
BRANCH  31  34
ATOM     34  C   LIG d   1       6.248   0.124  -3.425  0.00  0.00    -0.053 C 
ATOM     35  H   LIG d   1       5.834   0.182  -4.431  0.00  0.00     0.026 H 
ATOM     36  H   LIG d   1       7.300   0.409  -3.448  0.00  0.00     0.026 H 
BRANCH  34  37
ATOM     37  C   LIG d   1       6.120  -1.308  -2.901  0.00  0.00    -0.048 C 
ATOM     38  H   LIG d   1       6.992  -1.553  -2.295  0.00  0.00     0.027 H 
ATOM     39  H   LIG d   1       5.219  -1.392  -2.293  0.00  0.00     0.027 H 
BRANCH  37  40
ATOM     40  C   LIG d   1       6.029  -2.277  -4.081  0.00  0.00    -0.013 C 
ATOM     41  H   LIG d   1       6.074  -1.717  -5.015  0.00  0.00     0.033 H 
ATOM     42  H   LIG d   1       6.862  -2.979  -4.039  0.00  0.00     0.033 H 
BRANCH  40  43
ATOM     43  C   LIG d   1       4.729  -3.035  -4.010  0.00  0.00     0.042 C 
ATOM     44  O   LIG d   1       4.407  -3.768  -4.915  0.00  0.00    -0.550 OA
ATOM     45  O   LIG d   1       3.927  -2.894  -2.943  0.00  0.00    -0.550 OA
ENDBRANCH  40  43
ENDBRANCH  37  40
ENDBRANCH  34  37
ENDBRANCH  31  34
ENDBRANCH  28  31
ENDBRANCH  25  28
ENDBRANCH   1  25
TORSDOF 11
ENDMDL
MODEL 4
REMARK VINA RESULT:      -5.3      1.586      3.088
REMARK  11 active torsions:
REMARK  status: ('A' for Active; 'I' for Inactive)
REMARK    1  A    between atoms: C_3  and  C_7 
REMARK    2  A    between atoms: C_7  and  C_8 
REMARK    3  A    between atoms: C_8  and  C_9 
REMARK    4  A    between atoms: C_9  and  C_10 
REMARK    5  A    between atoms: C_10  and  C_11 
REMARK    6  A    between atoms: C_11  and  C_12 
REMARK    7  A    between atoms: C_12  and  C_13 
REMARK    8  A    between atoms: C_13  and  C_14 
REMARK    9  A    between atoms: C_14  and  C_15 
REMARK   10  A    between atoms: C_15  and  C_16 
REMARK   11  A    between atoms: C_16  and  C_17 
ROOT
ATOM      1  C   LIG d   1       4.003  -0.352  -6.654  0.00  0.00    -0.053 C 
ATOM      2  H   LIG d   1       4.771   0.421  -6.680  0.00  0.00     0.026 H 
ATOM      3  H   LIG d   1       4.306  -1.186  -7.285  0.00  0.00     0.026 H 
ENDROOT
BRANCH   1   4
ATOM      4  C   LIG d   1       2.682   0.223  -7.168  0.00  0.00    -0.053 C 
ATOM      5  H   LIG d   1       1.852  -0.239  -6.633  0.00  0.00     0.026 H 
ATOM      6  H   LIG d   1       2.666   1.301  -7.004  0.00  0.00     0.026 H 
BRANCH   4   7
ATOM      7  C   LIG d   1       2.549  -0.065  -8.665  0.00  0.00    -0.051 C 
ATOM      8  H   LIG d   1       3.409  -0.646  -9.001  0.00  0.00     0.027 H 
ATOM      9  H   LIG d   1       1.635  -0.631  -8.846  0.00  0.00     0.027 H 
BRANCH   7  10
ATOM     10  C   LIG d   1       2.492   1.255  -9.436  0.00  0.00    -0.027 C 
ATOM     11  H   LIG d   1       1.715   1.198 -10.198  0.00  0.00     0.029 H 
ATOM     12  H   LIG d   1       2.265   2.069  -8.747  0.00  0.00     0.029 H 
BRANCH  10  13
ATOM     13  C   LIG d   1       3.843   1.515 -10.104  0.00  0.00     0.059 C 
ATOM     14  C   LIG d   1       4.637   2.557  -9.293  0.00  0.00    -0.025 C 
ATOM     15  C   LIG d   1       5.946   1.824  -8.911  0.00  0.00    -0.027 C 
ATOM     16  H   LIG d   1       4.855   3.432  -9.905  0.00  0.00     0.029 H 
ATOM     17  H   LIG d   1       4.086   2.844  -8.398  0.00  0.00     0.029 H 
ATOM     18  C   LIG d   1       6.003   0.689  -9.965  0.00  0.00     0.048 C 
ATOM     19  H   LIG d   1       6.806   2.487  -9.007  0.00  0.00     0.029 H 
ATOM     20  H   LIG d   1       5.883   1.415  -7.903  0.00  0.00     0.029 H 
ATOM     21  O   LIG d   1       4.620   0.305 -10.121  0.00  0.00    -0.377 OA
ATOM     22  H   LIG d   1       6.406   1.062 -10.908  0.00  0.00     0.056 H 
ATOM     23  H   LIG d   1       6.598  -0.146  -9.599  0.00  0.00     0.056 H 
ATOM     24  H   LIG d   1       3.691   1.874 -11.122  0.00  0.00     0.060 H 
ENDBRANCH  10  13
ENDBRANCH   7  10
ENDBRANCH   4   7
ENDBRANCH   1   4
BRANCH   1  25
ATOM     25  C   LIG d   1       3.821  -0.841  -5.215  0.00  0.00    -0.053 C 
ATOM     26  H   LIG d   1       4.729  -0.641  -4.646  0.00  0.00     0.026 H 
ATOM     27  H   LIG d   1       3.622  -1.913  -5.218  0.00  0.00     0.026 H 
BRANCH  25  28
ATOM     28  C   LIG d   1       2.644  -0.105  -4.571  0.00  0.00    -0.053 C 
ATOM     29  H   LIG d   1       2.824   0.969  -4.608  0.00  0.00     0.026 H 
ATOM     30  H   LIG d   1       1.728  -0.340  -5.114  0.00  0.00     0.026 H 
BRANCH  28  31
ATOM     31  C   LIG d   1       2.501  -0.549  -3.114  0.00  0.00    -0.053 C 
ATOM     32  H   LIG d   1       2.690   0.300  -2.456  0.00  0.00     0.026 H 
ATOM     33  H   LIG d   1       1.491  -0.922  -2.945  0.00  0.00     0.026 H 
BRANCH  31  34
ATOM     34  C   LIG d   1       3.512  -1.659  -2.819  0.00  0.00    -0.053 C 
ATOM     35  H   LIG d   1       2.983  -2.554  -2.493  0.00  0.00     0.026 H 
ATOM     36  H   LIG d   1       4.082  -1.880  -3.721  0.00  0.00     0.026 H 
BRANCH  34  37
ATOM     37  C   LIG d   1       4.466  -1.199  -1.714  0.00  0.00    -0.048 C 
ATOM     38  H   LIG d   1       4.056  -1.472  -0.742  0.00  0.00     0.027 H 
ATOM     39  H   LIG d   1       5.435  -1.679  -1.848  0.00  0.00     0.027 H 
BRANCH  37  40
ATOM     40  C   LIG d   1       4.637   0.319  -1.787  0.00  0.00    -0.013 C 
ATOM     41  H   LIG d   1       3.723   0.770  -2.177  0.00  0.00     0.033 H 
ATOM     42  H   LIG d   1       4.837   0.711  -0.790  0.00  0.00     0.033 H 
BRANCH  40  43
ATOM     43  C   LIG d   1       5.789   0.652  -2.699  0.00  0.00     0.042 C 
ATOM     44  O   LIG d   1       5.924   1.778  -3.115  0.00  0.00    -0.550 OA
ATOM     45  O   LIG d   1       6.666  -0.303  -3.049  0.00  0.00    -0.550 OA
ENDBRANCH  40  43
ENDBRANCH  37  40
ENDBRANCH  34  37
ENDBRANCH  31  34
ENDBRANCH  28  31
ENDBRANCH  25  28
ENDBRANCH   1  25
TORSDOF 11
ENDMDL
MODEL 5
REMARK VINA RESULT:      -5.3      1.533      2.737
REMARK  11 active torsions:
REMARK  status: ('A' for Active; 'I' for Inactive)
REMARK    1  A    between atoms: C_3  and  C_7 
REMARK    2  A    between atoms: C_7  and  C_8 
REMARK    3  A    between atoms: C_8  and  C_9 
REMARK    4  A    between atoms: C_9  and  C_10 
REMARK    5  A    between atoms: C_10  and  C_11 
REMARK    6  A    between atoms: C_11  and  C_12 
REMARK    7  A    between atoms: C_12  and  C_13 
REMARK    8  A    between atoms: C_13  and  C_14 
REMARK    9  A    between atoms: C_14  and  C_15 
REMARK   10  A    between atoms: C_15  and  C_16 
REMARK   11  A    between atoms: C_16  and  C_17 
ROOT
ATOM      1  C   LIG d   1       4.919  -0.972  -6.088  0.00  0.00    -0.053 C 
ATOM      2  H   LIG d   1       4.046  -0.464  -5.678  0.00  0.00     0.026 H 
ATOM      3  H   LIG d   1       5.514  -0.264  -6.663  0.00  0.00     0.026 H 
ENDROOT
BRANCH   1   4
ATOM      4  C   LIG d   1       4.464  -2.113  -7.000  0.00  0.00    -0.053 C 
ATOM      5  H   LIG d   1       5.336  -2.647  -7.377  0.00  0.00     0.026 H 
ATOM      6  H   LIG d   1       3.832  -2.800  -6.436  0.00  0.00     0.026 H 
BRANCH   4   7
ATOM      7  C   LIG d   1       3.668  -1.539  -8.175  0.00  0.00    -0.051 C 
ATOM      8  H   LIG d   1       4.356  -1.223  -8.960  0.00  0.00     0.027 H 
ATOM      9  H   LIG d   1       2.996  -2.304  -8.567  0.00  0.00     0.027 H 
BRANCH   7  10
ATOM     10  C   LIG d   1       2.850  -0.337  -7.700  0.00  0.00    -0.027 C 
ATOM     11  H   LIG d   1       1.888  -0.679  -7.319  0.00  0.00     0.029 H 
ATOM     12  H   LIG d   1       3.391   0.180  -6.906  0.00  0.00     0.029 H 
BRANCH  10  13
ATOM     13  C   LIG d   1       2.623   0.621  -8.870  0.00  0.00     0.059 C 
ATOM     14  C   LIG d   1       2.894   2.070  -8.421  0.00  0.00    -0.025 C 
ATOM     15  C   LIG d   1       4.015   2.559  -9.369  0.00  0.00    -0.027 C 
ATOM     16  H   LIG d   1       1.999   2.681  -8.543  0.00  0.00     0.029 H 
ATOM     17  H   LIG d   1       3.233   2.092  -7.386  0.00  0.00     0.029 H 
ATOM     18  C   LIG d   1       3.883   1.578 -10.562  0.00  0.00     0.048 C 
ATOM     19  H   LIG d   1       3.836   3.586  -9.689  0.00  0.00     0.029 H 
ATOM     20  H   LIG d   1       4.993   2.466  -8.897  0.00  0.00     0.029 H 
ATOM     21  O   LIG d   1       3.547   0.323  -9.931  0.00  0.00    -0.377 OA
ATOM     22  H   LIG d   1       3.084   1.896 -11.234  0.00  0.00     0.056 H 
ATOM     23  H   LIG d   1       4.826   1.499 -11.102  0.00  0.00     0.056 H 
ATOM     24  H   LIG d   1       1.599   0.529  -9.231  0.00  0.00     0.060 H 
ENDBRANCH  10  13
ENDBRANCH   7  10
ENDBRANCH   4   7
ENDBRANCH   1   4
BRANCH   1  25
ATOM     25  C   LIG d   1       5.762  -1.539  -4.945  0.00  0.00    -0.053 C 
ATOM     26  H   LIG d   1       6.004  -0.742  -4.242  0.00  0.00     0.026 H 
ATOM     27  H   LIG d   1       6.684  -1.960  -5.347  0.00  0.00     0.026 H 
BRANCH  25  28
ATOM     28  C   LIG d   1       4.974  -2.635  -4.223  0.00  0.00    -0.053 C 
ATOM     29  H   LIG d   1       4.107  -2.911  -4.821  0.00  0.00     0.026 H 
ATOM     30  H   LIG d   1       5.612  -3.507  -4.081  0.00  0.00     0.026 H 
BRANCH  28  31
ATOM     31  C   LIG d   1       4.510  -2.115  -2.862  0.00  0.00    -0.053 C 
ATOM     32  H   LIG d   1       4.467  -2.942  -2.152  0.00  0.00     0.026 H 
ATOM     33  H   LIG d   1       5.212  -1.364  -2.500  0.00  0.00     0.026 H 
BRANCH  31  34
ATOM     34  C   LIG d   1       3.120  -1.490  -3.001  0.00  0.00    -0.053 C 
ATOM     35  H   LIG d   1       2.880  -1.372  -4.057  0.00  0.00     0.026 H 
ATOM     36  H   LIG d   1       2.381  -2.138  -2.530  0.00  0.00     0.026 H 
BRANCH  34  37
ATOM     37  C   LIG d   1       3.106  -0.121  -2.318  0.00  0.00    -0.048 C 
ATOM     38  H   LIG d   1       2.680   0.619  -2.995  0.00  0.00     0.027 H 
ATOM     39  H   LIG d   1       2.503  -0.174  -1.411  0.00  0.00     0.027 H 
BRANCH  37  40
ATOM     40  C   LIG d   1       4.536   0.283  -1.955  0.00  0.00    -0.013 C 
ATOM     41  H   LIG d   1       4.574   0.585  -0.908  0.00  0.00     0.033 H 
ATOM     42  H   LIG d   1       5.203  -0.565  -2.112  0.00  0.00     0.033 H 
BRANCH  40  43
ATOM     43  C   LIG d   1       4.970   1.432  -2.827  0.00  0.00     0.042 C 
ATOM     44  O   LIG d   1       6.141   1.592  -3.076  0.00  0.00    -0.550 OA
ATOM     45  O   LIG d   1       4.056   2.280  -3.325  0.00  0.00    -0.550 OA
ENDBRANCH  40  43
ENDBRANCH  37  40
ENDBRANCH  34  37
ENDBRANCH  31  34
ENDBRANCH  28  31
ENDBRANCH  25  28
ENDBRANCH   1  25
TORSDOF 11
ENDMDL
MODEL 6
REMARK VINA RESULT:      -5.3      2.485      5.474
REMARK  11 active torsions:
REMARK  status: ('A' for Active; 'I' for Inactive)
REMARK    1  A    between atoms: C_3  and  C_7 
REMARK    2  A    between atoms: C_7  and  C_8 
REMARK    3  A    between atoms: C_8  and  C_9 
REMARK    4  A    between atoms: C_9  and  C_10 
REMARK    5  A    between atoms: C_10  and  C_11 
REMARK    6  A    between atoms: C_11  and  C_12 
REMARK    7  A    between atoms: C_12  and  C_13 
REMARK    8  A    between atoms: C_13  and  C_14 
REMARK    9  A    between atoms: C_14  and  C_15 
REMARK   10  A    between atoms: C_15  and  C_16 
REMARK   11  A    between atoms: C_16  and  C_17 
ROOT
ATOM      1  C   LIG d   1       3.682   1.255  -3.255  0.00  0.00    -0.053 C 
ATOM      2  H   LIG d   1       4.664   0.982  -3.642  0.00  0.00     0.026 H 
ATOM      3  H   LIG d   1       3.777   2.121  -2.601  0.00  0.00     0.026 H 
ENDROOT
BRANCH   1   4
ATOM      4  C   LIG d   1       3.099   0.082  -2.466  0.00  0.00    -0.053 C 
ATOM      5  H   LIG d   1       2.553   0.460  -1.602  0.00  0.00     0.026 H 
ATOM      6  H   LIG d   1       2.422  -0.486  -3.105  0.00  0.00     0.026 H 
BRANCH   4   7
ATOM      7  C   LIG d   1       4.235  -0.829  -1.994  0.00  0.00    -0.051 C 
ATOM      8  H   LIG d   1       5.180  -0.476  -2.408  0.00  0.00     0.027 H 
ATOM      9  H   LIG d   1       4.286  -0.810  -0.905  0.00  0.00     0.027 H 
BRANCH   7  10
ATOM     10  C   LIG d   1       3.973  -2.260  -2.468  0.00  0.00    -0.027 C 
ATOM     11  H   LIG d   1       4.499  -2.960  -1.819  0.00  0.00     0.029 H 
ATOM     12  H   LIG d   1       2.902  -2.465  -2.430  0.00  0.00     0.029 H 
BRANCH  10  13
ATOM     13  C   LIG d   1       4.473  -2.421  -3.904  0.00  0.00     0.059 C 
ATOM     14  C   LIG d   1       5.941  -1.962  -4.002  0.00  0.00    -0.025 C 
ATOM     15  C   LIG d   1       6.695  -3.210  -4.521  0.00  0.00    -0.027 C 
ATOM     16  H   LIG d   1       6.036  -1.138  -4.710  0.00  0.00     0.029 H 
ATOM     17  H   LIG d   1       6.316  -1.670  -3.022  0.00  0.00     0.029 H 
ATOM     18  C   LIG d   1       5.553  -4.037  -5.164  0.00  0.00     0.048 C 
ATOM     19  H   LIG d   1       7.442  -2.933  -5.265  0.00  0.00     0.029 H 
ATOM     20  H   LIG d   1       7.154  -3.757  -3.698  0.00  0.00     0.029 H 
ATOM     21  O   LIG d   1       4.433  -3.808  -4.282  0.00  0.00    -0.377 OA
ATOM     22  H   LIG d   1       5.332  -3.669  -6.168  0.00  0.00     0.056 H 
ATOM     23  H   LIG d   1       5.813  -5.094  -5.194  0.00  0.00     0.056 H 
ATOM     24  H   LIG d   1       3.854  -1.833  -4.581  0.00  0.00     0.060 H 
ENDBRANCH  10  13
ENDBRANCH   7  10
ENDBRANCH   4   7
ENDBRANCH   1   4
BRANCH   1  25
ATOM     25  C   LIG d   1       2.752   1.597  -4.421  0.00  0.00    -0.053 C 
ATOM     26  H   LIG d   1       3.254   2.292  -5.095  0.00  0.00     0.026 H 
ATOM     27  H   LIG d   1       1.841   2.058  -4.038  0.00  0.00     0.026 H 
BRANCH  25  28
ATOM     28  C   LIG d   1       2.395   0.318  -5.182  0.00  0.00    -0.053 C 
ATOM     29  H   LIG d   1       2.395  -0.526  -4.492  0.00  0.00     0.026 H 
ATOM     30  H   LIG d   1       1.406   0.425  -5.628  0.00  0.00     0.026 H 
BRANCH  28  31
ATOM     31  C   LIG d   1       3.428   0.076  -6.284  0.00  0.00    -0.053 C 
ATOM     32  H   LIG d   1       4.256   0.775  -6.167  0.00  0.00     0.026 H 
ATOM     33  H   LIG d   1       3.803  -0.945  -6.212  0.00  0.00     0.026 H 
BRANCH  31  34
ATOM     34  C   LIG d   1       2.774   0.284  -7.651  0.00  0.00    -0.053 C 
ATOM     35  H   LIG d   1       3.272  -0.341  -8.391  0.00  0.00     0.026 H 
ATOM     36  H   LIG d   1       1.720   0.012  -7.595  0.00  0.00     0.026 H 
BRANCH  34  37
ATOM     37  C   LIG d   1       2.898   1.755  -8.057  0.00  0.00    -0.048 C 
ATOM     38  H   LIG d   1       1.987   2.286  -7.782  0.00  0.00     0.027 H 
ATOM     39  H   LIG d   1       3.749   2.202  -7.544  0.00  0.00     0.027 H 
BRANCH  37  40
ATOM     40  C   LIG d   1       3.108   1.850  -9.569  0.00  0.00    -0.013 C 
ATOM     41  H   LIG d   1       2.607   1.015 -10.059  0.00  0.00     0.033 H 
ATOM     42  H   LIG d   1       2.691   2.789  -9.935  0.00  0.00     0.033 H 
BRANCH  40  43
ATOM     43  C   LIG d   1       4.582   1.803  -9.875  0.00  0.00     0.042 C 
ATOM     44  O   LIG d   1       5.005   1.014 -10.687  0.00  0.00    -0.550 OA
ATOM     45  O   LIG d   1       5.426   2.635  -9.245  0.00  0.00    -0.550 OA
ENDBRANCH  40  43
ENDBRANCH  37  40
ENDBRANCH  34  37
ENDBRANCH  31  34
ENDBRANCH  28  31
ENDBRANCH  25  28
ENDBRANCH   1  25
TORSDOF 11
ENDMDL
MODEL 7
REMARK VINA RESULT:      -5.2      1.640      5.580
REMARK  11 active torsions:
REMARK  status: ('A' for Active; 'I' for Inactive)
REMARK    1  A    between atoms: C_3  and  C_7 
REMARK    2  A    between atoms: C_7  and  C_8 
REMARK    3  A    between atoms: C_8  and  C_9 
REMARK    4  A    between atoms: C_9  and  C_10 
REMARK    5  A    between atoms: C_10  and  C_11 
REMARK    6  A    between atoms: C_11  and  C_12 
REMARK    7  A    between atoms: C_12  and  C_13 
REMARK    8  A    between atoms: C_13  and  C_14 
REMARK    9  A    between atoms: C_14  and  C_15 
REMARK   10  A    between atoms: C_15  and  C_16 
REMARK   11  A    between atoms: C_16  and  C_17 
ROOT
ATOM      1  C   LIG d   1       2.751  -0.147  -3.309  0.00  0.00    -0.053 C 
ATOM      2  H   LIG d   1       1.838  -0.470  -2.808  0.00  0.00     0.026 H 
ATOM      3  H   LIG d   1       3.429  -0.994  -3.410  0.00  0.00     0.026 H 
ENDROOT
BRANCH   1   4
ATOM      4  C   LIG d   1       3.425   0.950  -2.484  0.00  0.00    -0.053 C 
ATOM      5  H   LIG d   1       3.532   1.849  -3.091  0.00  0.00     0.026 H 
ATOM      6  H   LIG d   1       2.815   1.173  -1.608  0.00  0.00     0.026 H 
BRANCH   4   7
ATOM      7  C   LIG d   1       4.807   0.472  -2.033  0.00  0.00    -0.051 C 
ATOM      8  H   LIG d   1       5.027   0.875  -1.044  0.00  0.00     0.027 H 
ATOM      9  H   LIG d   1       4.819  -0.618  -1.993  0.00  0.00     0.027 H 
BRANCH   7  10
ATOM     10  C   LIG d   1       5.864   0.956  -3.028  0.00  0.00    -0.027 C 
ATOM     11  H   LIG d   1       5.373   1.367  -3.910  0.00  0.00     0.029 H 
ATOM     12  H   LIG d   1       6.476   1.729  -2.561  0.00  0.00     0.029 H 
BRANCH  10  13
ATOM     13  C   LIG d   1       6.752  -0.218  -3.441  0.00  0.00     0.059 C 
ATOM     14  C   LIG d   1       6.115  -1.544  -2.980  0.00  0.00    -0.025 C 
ATOM     15  C   LIG d   1       5.930  -2.351  -4.289  0.00  0.00    -0.027 C 
ATOM     16  H   LIG d   1       6.781  -2.072  -2.299  0.00  0.00     0.029 H 
ATOM     17  H   LIG d   1       5.151  -1.360  -2.507  0.00  0.00     0.029 H 
ATOM     18  C   LIG d   1       6.944  -1.664  -5.240  0.00  0.00     0.048 C 
ATOM     19  H   LIG d   1       6.186  -3.399  -4.139  0.00  0.00     0.029 H 
ATOM     20  H   LIG d   1       4.913  -2.250  -4.668  0.00  0.00     0.029 H 
ATOM     21  O   LIG d   1       6.859  -0.270  -4.873  0.00  0.00    -0.377 OA
ATOM     22  H   LIG d   1       7.951  -2.046  -5.066  0.00  0.00     0.056 H 
ATOM     23  H   LIG d   1       6.655  -1.809  -6.280  0.00  0.00     0.056 H 
ATOM     24  H   LIG d   1       7.742  -0.109  -2.997  0.00  0.00     0.060 H 
ENDBRANCH  10  13
ENDBRANCH   7  10
ENDBRANCH   4   7
ENDBRANCH   1   4
BRANCH   1  25
ATOM     25  C   LIG d   1       2.405   0.398  -4.696  0.00  0.00    -0.053 C 
ATOM     26  H   LIG d   1       2.415   1.488  -4.671  0.00  0.00     0.026 H 
ATOM     27  H   LIG d   1       1.413   0.051  -4.987  0.00  0.00     0.026 H 
BRANCH  25  28
ATOM     28  C   LIG d   1       3.437  -0.098  -5.712  0.00  0.00    -0.053 C 
ATOM     29  H   LIG d   1       4.354   0.482  -5.610  0.00  0.00     0.026 H 
ATOM     30  H   LIG d   1       3.649  -1.152  -5.528  0.00  0.00     0.026 H 
BRANCH  28  31
ATOM     31  C   LIG d   1       2.882   0.071  -7.127  0.00  0.00    -0.053 C 
ATOM     32  H   LIG d   1       3.463  -0.535  -7.821  0.00  0.00     0.026 H 
ATOM     33  H   LIG d   1       1.840  -0.249  -7.150  0.00  0.00     0.026 H 
BRANCH  31  34
ATOM     34  C   LIG d   1       2.972   1.543  -7.537  0.00  0.00    -0.053 C 
ATOM     35  H   LIG d   1       2.321   2.138  -6.898  0.00  0.00     0.026 H 
ATOM     36  H   LIG d   1       4.000   1.887  -7.430  0.00  0.00     0.026 H 
BRANCH  34  37
ATOM     37  C   LIG d   1       2.533   1.694  -8.995  0.00  0.00    -0.048 C 
ATOM     38  H   LIG d   1       2.329   0.711  -9.417  0.00  0.00     0.027 H 
ATOM     39  H   LIG d   1       1.631   2.305  -9.042  0.00  0.00     0.027 H 
BRANCH  37  40
ATOM     40  C   LIG d   1       3.647   2.371  -9.795  0.00  0.00    -0.013 C 
ATOM     41  H   LIG d   1       3.209   3.037 -10.538  0.00  0.00     0.033 H 
ATOM     42  H   LIG d   1       4.280   2.947  -9.120  0.00  0.00     0.033 H 
BRANCH  40  43
ATOM     43  C   LIG d   1       4.477   1.322 -10.488  0.00  0.00     0.042 C 
ATOM     44  O   LIG d   1       5.625   1.142 -10.155  0.00  0.00    -0.550 OA
ATOM     45  O   LIG d   1       3.942   0.587 -11.476  0.00  0.00    -0.550 OA
ENDBRANCH  40  43
ENDBRANCH  37  40
ENDBRANCH  34  37
ENDBRANCH  31  34
ENDBRANCH  28  31
ENDBRANCH  25  28
ENDBRANCH   1  25
TORSDOF 11
ENDMDL
MODEL 8
REMARK VINA RESULT:      -5.1      2.337      3.527
REMARK  11 active torsions:
REMARK  status: ('A' for Active; 'I' for Inactive)
REMARK    1  A    between atoms: C_3  and  C_7 
REMARK    2  A    between atoms: C_7  and  C_8 
REMARK    3  A    between atoms: C_8  and  C_9 
REMARK    4  A    between atoms: C_9  and  C_10 
REMARK    5  A    between atoms: C_10  and  C_11 
REMARK    6  A    between atoms: C_11  and  C_12 
REMARK    7  A    between atoms: C_12  and  C_13 
REMARK    8  A    between atoms: C_13  and  C_14 
REMARK    9  A    between atoms: C_14  and  C_15 
REMARK   10  A    between atoms: C_15  and  C_16 
REMARK   11  A    between atoms: C_16  and  C_17 
ROOT
ATOM      1  C   LIG d   1       3.589   1.123  -3.773  0.00  0.00    -0.053 C 
ATOM      2  H   LIG d   1       3.415   2.199  -3.752  0.00  0.00     0.026 H 
ATOM      3  H   LIG d   1       4.622   0.928  -4.060  0.00  0.00     0.026 H 
ENDROOT
BRANCH   1   4
ATOM      4  C   LIG d   1       2.648   0.472  -4.787  0.00  0.00    -0.053 C 
ATOM      5  H   LIG d   1       2.072  -0.313  -4.298  0.00  0.00     0.026 H 
ATOM      6  H   LIG d   1       1.968   1.225  -5.188  0.00  0.00     0.026 H 
BRANCH   4   7
ATOM      7  C   LIG d   1       3.467  -0.132  -5.930  0.00  0.00    -0.051 C 
ATOM      8  H   LIG d   1       4.436   0.366  -5.985  0.00  0.00     0.027 H 
ATOM      9  H   LIG d   1       3.615  -1.197  -5.747  0.00  0.00     0.027 H 
BRANCH   7  10
ATOM     10  C   LIG d   1       2.719   0.058  -7.251  0.00  0.00    -0.027 C 
ATOM     11  H   LIG d   1       2.161  -0.848  -7.487  0.00  0.00     0.029 H 
ATOM     12  H   LIG d   1       2.028   0.896  -7.159  0.00  0.00     0.029 H 
BRANCH  10  13
ATOM     13  C   LIG d   1       3.723   0.345  -8.369  0.00  0.00     0.059 C 
ATOM     14  C   LIG d   1       2.982   0.858  -9.619  0.00  0.00    -0.025 C 
ATOM     15  C   LIG d   1       3.607   2.249  -9.886  0.00  0.00    -0.027 C 
ATOM     16  H   LIG d   1       3.157   0.193 -10.465  0.00  0.00     0.029 H 
ATOM     17  H   LIG d   1       1.916   0.951  -9.419  0.00  0.00     0.029 H 
ATOM     18  C   LIG d   1       4.959   2.148  -9.133  0.00  0.00     0.048 C 
ATOM     19  H   LIG d   1       3.767   2.406 -10.953  0.00  0.00     0.029 H 
ATOM     20  H   LIG d   1       2.988   3.041  -9.467  0.00  0.00     0.029 H 
ATOM     21  O   LIG d   1       4.632   1.379  -7.956  0.00  0.00    -0.377 OA
ATOM     22  H   LIG d   1       5.698   1.624  -9.741  0.00  0.00     0.056 H 
ATOM     23  H   LIG d   1       5.321   3.138  -8.860  0.00  0.00     0.056 H 
ATOM     24  H   LIG d   1       4.276  -0.563  -8.611  0.00  0.00     0.060 H 
ENDBRANCH  10  13
ENDBRANCH   7  10
ENDBRANCH   4   7
ENDBRANCH   1   4
BRANCH   1  25
ATOM     25  C   LIG d   1       3.327   0.537  -2.384  0.00  0.00    -0.053 C 
ATOM     26  H   LIG d   1       2.350   0.053  -2.373  0.00  0.00     0.026 H 
ATOM     27  H   LIG d   1       3.343   1.337  -1.643  0.00  0.00     0.026 H 
BRANCH  25  28
ATOM     28  C   LIG d   1       4.410  -0.491  -2.050  0.00  0.00    -0.053 C 
ATOM     29  H   LIG d   1       5.250  -0.367  -2.733  0.00  0.00     0.026 H 
ATOM     30  H   LIG d   1       4.749  -0.341  -1.025  0.00  0.00     0.026 H 
BRANCH  28  31
ATOM     31  C   LIG d   1       3.837  -1.901  -2.197  0.00  0.00    -0.053 C 
ATOM     32  H   LIG d   1       4.020  -2.465  -1.282  0.00  0.00     0.026 H 
ATOM     33  H   LIG d   1       2.763  -1.841  -2.377  0.00  0.00     0.026 H 
BRANCH  31  34
ATOM     34  C   LIG d   1       4.513  -2.606  -3.375  0.00  0.00    -0.053 C 
ATOM     35  H   LIG d   1       4.645  -3.661  -3.138  0.00  0.00     0.026 H 
ATOM     36  H   LIG d   1       3.889  -2.508  -4.263  0.00  0.00     0.026 H 
BRANCH  34  37
ATOM     37  C   LIG d   1       5.878  -1.966  -3.637  0.00  0.00    -0.048 C 
ATOM     38  H   LIG d   1       5.777  -0.881  -3.634  0.00  0.00     0.027 H 
ATOM     39  H   LIG d   1       6.577  -2.268  -2.857  0.00  0.00     0.027 H 
BRANCH  37  40
ATOM     40  C   LIG d   1       6.404  -2.426  -4.997  0.00  0.00    -0.013 C 
ATOM     41  H   LIG d   1       5.566  -2.591  -5.675  0.00  0.00     0.033 H 
ATOM     42  H   LIG d   1       7.060  -1.660  -5.411  0.00  0.00     0.033 H 
BRANCH  40  43
ATOM     43  C   LIG d   1       7.174  -3.711  -4.830  0.00  0.00     0.042 C 
ATOM     44  O   LIG d   1       8.047  -3.787  -3.998  0.00  0.00    -0.550 OA
ATOM     45  O   LIG d   1       6.891  -4.769  -5.605  0.00  0.00    -0.550 OA
ENDBRANCH  40  43
ENDBRANCH  37  40
ENDBRANCH  34  37
ENDBRANCH  31  34
ENDBRANCH  28  31
ENDBRANCH  25  28
ENDBRANCH   1  25
TORSDOF 11
ENDMDL
MODEL 9
REMARK VINA RESULT:      -5.1      2.235      6.401
REMARK  11 active torsions:
REMARK  status: ('A' for Active; 'I' for Inactive)
REMARK    1  A    between atoms: C_3  and  C_7 
REMARK    2  A    between atoms: C_7  and  C_8 
REMARK    3  A    between atoms: C_8  and  C_9 
REMARK    4  A    between atoms: C_9  and  C_10 
REMARK    5  A    between atoms: C_10  and  C_11 
REMARK    6  A    between atoms: C_11  and  C_12 
REMARK    7  A    between atoms: C_12  and  C_13 
REMARK    8  A    between atoms: C_13  and  C_14 
REMARK    9  A    between atoms: C_14  and  C_15 
REMARK   10  A    between atoms: C_15  and  C_16 
REMARK   11  A    between atoms: C_16  and  C_17 
ROOT
ATOM      1  C   LIG d   1       2.442   0.485  -5.122  0.00  0.00    -0.053 C 
ATOM      2  H   LIG d   1       1.821   1.240  -5.604  0.00  0.00     0.026 H 
ATOM      3  H   LIG d   1       1.810  -0.323  -4.754  0.00  0.00     0.026 H 
ENDROOT
BRANCH   1   4
ATOM      4  C   LIG d   1       3.196   1.117  -3.951  0.00  0.00    -0.053 C 
ATOM      5  H   LIG d   1       4.254   1.196  -4.200  0.00  0.00     0.026 H 
ATOM      6  H   LIG d   1       2.793   2.111  -3.752  0.00  0.00     0.026 H 
BRANCH   4   7
ATOM      7  C   LIG d   1       3.029   0.242  -2.706  0.00  0.00    -0.051 C 
ATOM      8  H   LIG d   1       2.236   0.651  -2.078  0.00  0.00     0.027 H 
ATOM      9  H   LIG d   1       2.767  -0.773  -3.007  0.00  0.00     0.027 H 
BRANCH   7  10
ATOM     10  C   LIG d   1       4.341   0.218  -1.919  0.00  0.00    -0.027 C 
ATOM     11  H   LIG d   1       4.995   1.012  -2.280  0.00  0.00     0.029 H 
ATOM     12  H   LIG d   1       4.133   0.372  -0.860  0.00  0.00     0.029 H 
BRANCH  10  13
ATOM     13  C   LIG d   1       5.027  -1.134  -2.113  0.00  0.00     0.059 C 
ATOM     14  C   LIG d   1       3.982  -2.201  -2.495  0.00  0.00    -0.025 C 
ATOM     15  C   LIG d   1       4.469  -2.737  -3.863  0.00  0.00    -0.027 C 
ATOM     16  H   LIG d   1       3.968  -3.003  -1.756  0.00  0.00     0.029 H 
ATOM     17  H   LIG d   1       2.995  -1.751  -2.591  0.00  0.00     0.029 H 
ATOM     18  C   LIG d   1       5.967  -2.338  -3.854  0.00  0.00     0.048 C 
ATOM     19  H   LIG d   1       4.355  -3.820  -3.921  0.00  0.00     0.029 H 
ATOM     20  H   LIG d   1       3.942  -2.248  -4.682  0.00  0.00     0.029 H 
ATOM     21  O   LIG d   1       5.970  -1.054  -3.196  0.00  0.00    -0.377 OA
ATOM     22  H   LIG d   1       6.553  -3.063  -3.287  0.00  0.00     0.056 H 
ATOM     23  H   LIG d   1       6.348  -2.253  -4.871  0.00  0.00     0.056 H 
ATOM     24  H   LIG d   1       5.538  -1.426  -1.196  0.00  0.00     0.060 H 
ENDBRANCH  10  13
ENDBRANCH   7  10
ENDBRANCH   4   7
ENDBRANCH   1   4
BRANCH   1  25
ATOM     25  C   LIG d   1       3.445  -0.072  -6.134  0.00  0.00    -0.053 C 
ATOM     26  H   LIG d   1       3.667  -1.111  -5.890  0.00  0.00     0.026 H 
ATOM     27  H   LIG d   1       4.364   0.514  -6.095  0.00  0.00     0.026 H 
BRANCH  25  28
ATOM     28  C   LIG d   1       2.849   0.006  -7.541  0.00  0.00    -0.053 C 
ATOM     29  H   LIG d   1       3.437  -0.612  -8.219  0.00  0.00     0.026 H 
ATOM     30  H   LIG d   1       1.820  -0.353  -7.519  0.00  0.00     0.026 H 
BRANCH  28  31
ATOM     31  C   LIG d   1       2.873   1.457  -8.024  0.00  0.00    -0.053 C 
ATOM     32  H   LIG d   1       1.966   1.667  -8.591  0.00  0.00     0.026 H 
ATOM     33  H   LIG d   1       2.926   2.126  -7.165  0.00  0.00     0.026 H 
BRANCH  31  34
ATOM     34  C   LIG d   1       4.095   1.676  -8.919  0.00  0.00    -0.053 C 
ATOM     35  H   LIG d   1       4.619   2.578  -8.604  0.00  0.00     0.026 H 
ATOM     36  H   LIG d   1       4.764   0.819  -8.836  0.00  0.00     0.026 H 
BRANCH  34  37
ATOM     37  C   LIG d   1       3.643   1.829 -10.373  0.00  0.00    -0.048 C 
ATOM     38  H   LIG d   1       2.556   1.773 -10.422  0.00  0.00     0.027 H 
ATOM     39  H   LIG d   1       3.975   2.794 -10.756  0.00  0.00     0.027 H 
BRANCH  37  40
ATOM     40  C   LIG d   1       4.251   0.709 -11.217  0.00  0.00    -0.013 C 
ATOM     41  H   LIG d   1       4.306   1.026 -12.258  0.00  0.00     0.033 H 
ATOM     42  H   LIG d   1       5.254   0.484 -10.853  0.00  0.00     0.033 H 
BRANCH  40  43
ATOM     43  C   LIG d   1       3.391  -0.524 -11.111  0.00  0.00     0.042 C 
ATOM     44  O   LIG d   1       2.199  -0.446 -11.290  0.00  0.00    -0.550 OA
ATOM     45  O   LIG d   1       3.950  -1.709 -10.817  0.00  0.00    -0.550 OA
ENDBRANCH  40  43
ENDBRANCH  37  40
ENDBRANCH  34  37
ENDBRANCH  31  34
ENDBRANCH  28  31
ENDBRANCH  25  28
ENDBRANCH   1  25
TORSDOF 11
ENDMDL
MODEL 10
REMARK VINA RESULT:      -5.1      1.967      5.437
REMARK  11 active torsions:
REMARK  status: ('A' for Active; 'I' for Inactive)
REMARK    1  A    between atoms: C_3  and  C_7 
REMARK    2  A    between atoms: C_7  and  C_8 
REMARK    3  A    between atoms: C_8  and  C_9 
REMARK    4  A    between atoms: C_9  and  C_10 
REMARK    5  A    between atoms: C_10  and  C_11 
REMARK    6  A    between atoms: C_11  and  C_12 
REMARK    7  A    between atoms: C_12  and  C_13 
REMARK    8  A    between atoms: C_13  and  C_14 
REMARK    9  A    between atoms: C_14  and  C_15 
REMARK   10  A    between atoms: C_15  and  C_16 
REMARK   11  A    between atoms: C_16  and  C_17 
ROOT
ATOM      1  C   LIG d   1       2.636   0.105  -5.354  0.00  0.00    -0.053 C 
ATOM      2  H   LIG d   1       1.865   0.630  -5.918  0.00  0.00     0.026 H 
ATOM      3  H   LIG d   1       2.272  -0.884  -5.075  0.00  0.00     0.026 H 
ENDROOT
BRANCH   1   4
ATOM      4  C   LIG d   1       2.974   0.898  -4.090  0.00  0.00    -0.053 C 
ATOM      5  H   LIG d   1       3.998   1.264  -4.154  0.00  0.00     0.026 H 
ATOM      6  H   LIG d   1       2.291   1.744  -3.998  0.00  0.00     0.026 H 
BRANCH   4   7
ATOM      7  C   LIG d   1       2.829  -0.008  -2.865  0.00  0.00    -0.051 C 
ATOM      8  H   LIG d   1       1.957   0.298  -2.288  0.00  0.00     0.027 H 
ATOM      9  H   LIG d   1       2.707  -1.041  -3.191  0.00  0.00     0.027 H 
BRANCH   7  10
ATOM     10  C   LIG d   1       4.083   0.108  -1.995  0.00  0.00    -0.027 C 
ATOM     11  H   LIG d   1       4.677   0.961  -2.324  0.00  0.00     0.029 H 
ATOM     12  H   LIG d   1       3.791   0.248  -0.954  0.00  0.00     0.029 H 
BRANCH  10  13
ATOM     13  C   LIG d   1       4.913  -1.170  -2.125  0.00  0.00     0.059 C 
ATOM     14  C   LIG d   1       4.025  -2.321  -2.639  0.00  0.00    -0.025 C 
ATOM     15  C   LIG d   1       4.715  -2.777  -3.948  0.00  0.00    -0.027 C 
ATOM     16  H   LIG d   1       4.003  -3.137  -1.916  0.00  0.00     0.029 H 
ATOM     17  H   LIG d   1       3.017  -1.963  -2.843  0.00  0.00     0.029 H 
ATOM     18  C   LIG d   1       6.157  -2.240  -3.760  0.00  0.00     0.048 C 
ATOM     19  H   LIG d   1       4.712  -3.864  -4.032  0.00  0.00     0.029 H 
ATOM     20  H   LIG d   1       4.241  -2.320  -4.816  0.00  0.00     0.029 H 
ATOM     21  O   LIG d   1       5.961  -0.977  -3.089  0.00  0.00    -0.377 OA
ATOM     22  H   LIG d   1       6.740  -2.920  -3.137  0.00  0.00     0.056 H 
ATOM     23  H   LIG d   1       6.642  -2.095  -4.725  0.00  0.00     0.056 H 
ATOM     24  H   LIG d   1       5.341  -1.435  -1.158  0.00  0.00     0.060 H 
ENDBRANCH  10  13
ENDBRANCH   7  10
ENDBRANCH   4   7
ENDBRANCH   1   4
BRANCH   1  25
ATOM     25  C   LIG d   1       3.891  -0.038  -6.217  0.00  0.00    -0.053 C 
ATOM     26  H   LIG d   1       4.620  -0.660  -5.697  0.00  0.00     0.026 H 
ATOM     27  H   LIG d   1       4.320   0.948  -6.401  0.00  0.00     0.026 H 
BRANCH  25  28
ATOM     28  C   LIG d   1       3.522  -0.691  -7.551  0.00  0.00    -0.053 C 
ATOM     29  H   LIG d   1       4.391  -0.687  -8.209  0.00  0.00     0.026 H 
ATOM     30  H   LIG d   1       3.201  -1.717  -7.376  0.00  0.00     0.026 H 
BRANCH  28  31
ATOM     31  C   LIG d   1       2.385   0.095  -8.205  0.00  0.00    -0.053 C 
ATOM     32  H   LIG d   1       2.196  -0.300  -9.204  0.00  0.00     0.026 H 
ATOM     33  H   LIG d   1       1.482   0.000  -7.601  0.00  0.00     0.026 H 
BRANCH  31  34
ATOM     34  C   LIG d   1       2.777   1.571  -8.307  0.00  0.00    -0.053 C 
ATOM     35  H   LIG d   1       1.878   2.185  -8.324  0.00  0.00     0.026 H 
ATOM     36  H   LIG d   1       3.388   1.844  -7.446  0.00  0.00     0.026 H 
BRANCH  34  37
ATOM     37  C   LIG d   1       3.577   1.799  -9.592  0.00  0.00    -0.048 C 
ATOM     38  H   LIG d   1       3.821   0.838 -10.042  0.00  0.00     0.027 H 
ATOM     39  H   LIG d   1       2.982   2.388 -10.290  0.00  0.00     0.027 H 
BRANCH  37  40
ATOM     40  C   LIG d   1       4.867   2.551  -9.262  0.00  0.00    -0.013 C 
ATOM     41  H   LIG d   1       5.143   3.186 -10.105  0.00  0.00     0.033 H 
ATOM     42  H   LIG d   1       4.711   3.170  -8.379  0.00  0.00     0.033 H 
BRANCH  40  43
ATOM     43  C   LIG d   1       5.972   1.562  -8.994  0.00  0.00     0.042 C 
ATOM     44  O   LIG d   1       6.198   0.680  -9.788  0.00  0.00    -0.550 OA
ATOM     45  O   LIG d   1       6.703   1.661  -7.873  0.00  0.00    -0.550 OA
ENDBRANCH  40  43
ENDBRANCH  37  40
ENDBRANCH  34  37
ENDBRANCH  31  34
ENDBRANCH  28  31
ENDBRANCH  25  28
ENDBRANCH   1  25
TORSDOF 11
ENDMDL
