MODEL 1
REMARK VINA RESULT:      -6.7      0.000      0.000
REMARK  7 active torsions:
REMARK  status: ('A' for Active; 'I' for Inactive)
REMARK    1  A    between atoms: C_1  and  C_2 
REMARK    2  A    between atoms: C_2  and  O_3 
REMARK    3  A    between atoms: O_3  and  C_4 
REMARK       I    between atoms: C_4  and  N_6 
REMARK    4  A    between atoms: N_9  and  C_12 
REMARK    5  A    between atoms: C_12  and  C_13 
REMARK    6  A    between atoms: C_19  and  C_32 
REMARK    7  A    between atoms: C_24  and  C_31 
ROOT
ATOM      1  C   LIG d   1       6.621  -2.851  -5.581  0.00  0.00     0.079 C 
ATOM      2  H   LIG d   1       5.833  -3.369  -5.014  0.00  0.00     0.043 H 
ATOM      3  C   LIG d   1       6.532  -1.339  -5.622  0.00  0.00     0.029 C 
ATOM      4  H   LIG d   1       6.838  -0.919  -6.592  0.00  0.00     0.039 H 
ATOM      5  C   LIG d   1       5.075  -0.884  -5.333  0.00  0.00    -0.077 C 
ATOM      6  C   LIG d   1       4.640  -0.447  -4.311  0.00  0.00    -0.064 C 
ATOM      7  C   LIG d   1       3.212   0.129  -4.343  0.00  0.00    -0.022 C 
ATOM      8  H   LIG d   1       2.946   0.198  -5.408  0.00  0.00     0.034 H 
ATOM      9  C   LIG d   1       3.217   1.498  -3.529  0.00  0.00    -0.047 C 
ATOM     10  C   LIG d   1       3.940   1.413  -2.175  0.00  0.00    -0.052 C 
ATOM     11  C   LIG d   1       5.345   0.897  -2.341  0.00  0.00    -0.044 C 
ATOM     12  C   LIG d   1       5.426  -0.420  -2.991  0.00  0.00    -0.007 C 
ATOM     13  C   LIG d   1       6.761  -1.082  -3.148  0.00  0.00    -0.006 C 
ATOM     14  C   LIG d   1       7.434  -0.921  -4.476  0.00  0.00     0.111 C 
ATOM     15  H   LIG d   1       7.748   0.127  -4.590  0.00  0.00     0.074 H 
ATOM     16  O   LIG d   1       8.551  -1.868  -4.491  0.00  0.00    -0.461 OA
ATOM     17  C   LIG d   1       8.086  -2.980  -5.108  0.00  0.00     0.312 C 
ATOM     18  O   LIG d   1       8.756  -4.073  -5.147  0.00  0.00    -0.251 OA
ATOM     19  H   LIG d   1       4.416  -1.001  -6.207  0.00  0.00     0.058 H 
ATOM     20  H   LIG d   1       3.724   2.274  -4.122  0.00  0.00     0.027 H 
ATOM     21  H   LIG d   1       2.181   1.808  -3.327  0.00  0.00     0.027 H 
ATOM     22  H   LIG d   1       3.985   2.414  -1.720  0.00  0.00     0.027 H 
ATOM     23  H   LIG d   1       3.392   0.730  -1.509  0.00  0.00     0.027 H 
ATOM     24  H   LIG d   1       5.923   1.600  -2.958  0.00  0.00     0.027 H 
ATOM     25  H   LIG d   1       5.818   0.801  -1.353  0.00  0.00     0.027 H 
ATOM     26  H   LIG d   1       7.462  -0.676  -2.404  0.00  0.00     0.031 H 
ATOM     27  H   LIG d   1       6.652  -2.166  -2.996  0.00  0.00     0.031 H 
ENDROOT
BRANCH   1  28
ATOM     28  C   LIG d   1       6.591  -3.357  -6.980  0.00  0.00     0.013 C 
ATOM     29  H   LIG d   1       7.616  -3.566  -7.316  0.00  0.00     0.043 H 
ATOM     30  H   LIG d   1       6.137  -2.598  -7.635  0.00  0.00     0.043 H 
BRANCH  28  31
ATOM     31  N   LIG d   1       5.796  -4.591  -7.037  0.00  0.00    -0.299 N 
ATOM     32  C   LIG d   1       6.611  -5.721  -7.504  0.00  0.00     0.015 C 
ATOM     33  C   LIG d   1       5.709  -6.940  -7.723  0.00  0.00     0.031 C 
ATOM     34  H   LIG d   1       7.374  -5.960  -6.750  0.00  0.00     0.044 H 
ATOM     35  H   LIG d   1       7.102  -5.453  -8.451  0.00  0.00     0.044 H 
ATOM     36  N   LIG d   1       4.950  -7.188  -6.488  0.00  0.00    -0.265 N 
ATOM     37  H   LIG d   1       6.321  -7.822  -7.961  0.00  0.00     0.048 H 
ATOM     38  H   LIG d   1       5.010  -6.746  -8.550  0.00  0.00     0.048 H 
ATOM     39  C   LIG d   1       4.927  -8.413  -5.925  0.00  0.00     0.403 C 
ATOM     40  C   LIG d   1       4.217  -6.066  -5.883  0.00  0.00     0.031 C 
ATOM     41  O   LIG d   1       5.538  -9.329  -6.439  0.00  0.00    -0.226 OA
ATOM     42  C   LIG d   1       5.178  -4.880  -5.736  0.00  0.00     0.015 C 
ATOM     43  H   LIG d   1       3.374  -5.787  -6.531  0.00  0.00     0.048 H 
ATOM     44  H   LIG d   1       3.838  -6.365  -4.896  0.00  0.00     0.048 H 
ATOM     45  H   LIG d   1       5.961  -5.131  -5.006  0.00  0.00     0.044 H 
ATOM     46  H   LIG d   1       4.622  -3.997  -5.389  0.00  0.00     0.044 H 
BRANCH  39  47
ATOM     47  O   LIG d   1       4.227  -8.621  -4.794  0.00  0.00    -0.451 OA
BRANCH  47  48
ATOM     48  C   LIG d   1       4.618  -9.754  -3.975  0.00  0.00     0.091 C 
ATOM     49  H   LIG d   1       5.328  -9.421  -3.204  0.00  0.00     0.070 H 
ATOM     50  H   LIG d   1       5.094 -10.517  -4.609  0.00  0.00     0.070 H 
BRANCH  48  51
ATOM     51  C   LIG d   1       3.379 -10.350  -3.303  0.00  0.00    -0.030 C 
ATOM     52  H   LIG d   1       3.655 -11.279  -2.783  0.00  0.00     0.026 H 
ATOM     53  H   LIG d   1       2.618 -10.570  -4.067  0.00  0.00     0.026 H 
ATOM     54  H   LIG d   1       2.973  -9.630  -2.579  0.00  0.00     0.026 H 
ENDBRANCH  48  51
ENDBRANCH  47  48
ENDBRANCH  39  47
ENDBRANCH  28  31
ENDBRANCH   1  28
BRANCH  12  55
ATOM     55  C   LIG d   1       4.667  -1.389  -1.971  0.00  0.00    -0.056 C 
ATOM     56  H   LIG d   1       5.383  -2.108  -1.546  0.00  0.00     0.024 H 
ATOM     57  H   LIG d   1       3.873  -1.934  -2.503  0.00  0.00     0.024 H 
ATOM     58  H   LIG d   1       4.223  -0.794  -1.160  0.00  0.00     0.024 H 
ENDBRANCH  12  55
BRANCH   7  59
ATOM     59  C   LIG d   1       2.126  -0.756  -3.794  0.00  0.00    -0.059 C 
ATOM     60  H   LIG d   1       1.556  -0.206  -3.031  0.00  0.00     0.024 H 
ATOM     61  H   LIG d   1       2.577  -1.651  -3.341  0.00  0.00     0.024 H 
ATOM     62  H   LIG d   1       1.452  -1.058  -4.610  0.00  0.00     0.024 H 
ENDBRANCH   7  59
TORSDOF 7
ENDMDL
MODEL 2
REMARK VINA RESULT:      -6.7      3.259      5.447
REMARK  7 active torsions:
REMARK  status: ('A' for Active; 'I' for Inactive)
REMARK    1  A    between atoms: C_1  and  C_2 
REMARK    2  A    between atoms: C_2  and  O_3 
REMARK    3  A    between atoms: O_3  and  C_4 
REMARK       I    between atoms: C_4  and  N_6 
REMARK    4  A    between atoms: N_9  and  C_12 
REMARK    5  A    between atoms: C_12  and  C_13 
REMARK    6  A    between atoms: C_19  and  C_32 
REMARK    7  A    between atoms: C_24  and  C_31 
ROOT
ATOM      1  C   LIG d   1       6.522  -2.724  -5.691  0.00  0.00     0.079 C 
ATOM      2  H   LIG d   1       5.457  -2.989  -5.775  0.00  0.00     0.043 H 
ATOM      3  C   LIG d   1       6.830  -1.393  -5.036  0.00  0.00     0.029 C 
ATOM      4  H   LIG d   1       7.685  -0.877  -5.498  0.00  0.00     0.039 H 
ATOM      5  C   LIG d   1       5.592  -0.457  -5.125  0.00  0.00    -0.077 C 
ATOM      6  C   LIG d   1       4.807  -0.207  -4.260  0.00  0.00    -0.064 C 
ATOM      7  C   LIG d   1       3.789   0.915  -4.537  0.00  0.00    -0.022 C 
ATOM      8  H   LIG d   1       4.141   1.413  -5.453  0.00  0.00     0.034 H 
ATOM      9  C   LIG d   1       3.696   1.825  -3.233  0.00  0.00    -0.047 C 
ATOM     10  C   LIG d   1       3.565   1.025  -1.927  0.00  0.00    -0.052 C 
ATOM     11  C   LIG d   1       4.680   0.024  -1.788  0.00  0.00    -0.044 C 
ATOM     12  C   LIG d   1       4.772  -0.929  -2.905  0.00  0.00    -0.007 C 
ATOM     13  C   LIG d   1       5.792  -2.026  -2.854  0.00  0.00    -0.006 C 
ATOM     14  C   LIG d   1       7.073  -1.781  -3.590  0.00  0.00     0.111 C 
ATOM     15  H   LIG d   1       7.639  -0.997  -3.066  0.00  0.00     0.074 H 
ATOM     16  O   LIG d   1       7.772  -3.067  -3.642  0.00  0.00    -0.461 OA
ATOM     17  C   LIG d   1       7.447  -3.617  -4.835  0.00  0.00     0.312 C 
ATOM     18  O   LIG d   1       7.757  -4.824  -5.141  0.00  0.00    -0.251 OA
ATOM     19  H   LIG d   1       5.478  -0.003  -6.121  0.00  0.00     0.058 H 
ATOM     20  H   LIG d   1       4.604   2.440  -3.150  0.00  0.00     0.027 H 
ATOM     21  H   LIG d   1       2.815   2.479  -3.306  0.00  0.00     0.027 H 
ATOM     22  H   LIG d   1       3.602   1.715  -1.070  0.00  0.00     0.027 H 
ATOM     23  H   LIG d   1       2.606   0.485  -1.922  0.00  0.00     0.027 H 
ATOM     24  H   LIG d   1       5.642   0.553  -1.732  0.00  0.00     0.027 H 
ATOM     25  H   LIG d   1       4.532  -0.564  -0.870  0.00  0.00     0.027 H 
ATOM     26  H   LIG d   1       6.076  -2.215  -1.809  0.00  0.00     0.031 H 
ATOM     27  H   LIG d   1       5.366  -2.942  -3.290  0.00  0.00     0.031 H 
ENDROOT
BRANCH   1  28
ATOM     28  C   LIG d   1       7.104  -2.714  -7.060  0.00  0.00     0.013 C 
ATOM     29  H   LIG d   1       7.565  -3.690  -7.269  0.00  0.00     0.043 H 
ATOM     30  H   LIG d   1       7.868  -1.925  -7.128  0.00  0.00     0.043 H 
BRANCH  28  31
ATOM     31  N   LIG d   1       6.043  -2.454  -8.042  0.00  0.00    -0.299 N 
ATOM     32  C   LIG d   1       4.717  -2.719  -7.467  0.00  0.00     0.015 C 
ATOM     33  C   LIG d   1       3.656  -2.613  -8.567  0.00  0.00     0.031 C 
ATOM     34  H   LIG d   1       4.504  -1.982  -6.680  0.00  0.00     0.044 H 
ATOM     35  H   LIG d   1       4.699  -3.731  -7.036  0.00  0.00     0.044 H 
ATOM     36  N   LIG d   1       3.798  -1.307  -9.229  0.00  0.00    -0.265 N 
ATOM     37  H   LIG d   1       2.651  -2.695  -8.129  0.00  0.00     0.048 H 
ATOM     38  H   LIG d   1       3.800  -3.416  -9.306  0.00  0.00     0.048 H 
ATOM     39  C   LIG d   1       2.735  -0.494  -9.388  0.00  0.00     0.403 C 
ATOM     40  C   LIG d   1       5.129  -0.911  -9.710  0.00  0.00     0.031 C 
ATOM     41  O   LIG d   1       1.641  -0.838  -8.985  0.00  0.00    -0.226 OA
ATOM     42  C   LIG d   1       6.133  -1.084  -8.564  0.00  0.00     0.015 C 
ATOM     43  H   LIG d   1       5.417  -1.548 -10.559  0.00  0.00     0.048 H 
ATOM     44  H   LIG d   1       5.106   0.140 -10.032  0.00  0.00     0.048 H 
ATOM     45  H   LIG d   1       5.901  -0.370  -7.762  0.00  0.00     0.044 H 
ATOM     46  H   LIG d   1       7.152  -0.900  -8.936  0.00  0.00     0.044 H 
BRANCH  39  47
ATOM     47  O   LIG d   1       2.884   0.698  -9.996  0.00  0.00    -0.451 OA
BRANCH  47  48
ATOM     48  C   LIG d   1       2.791   1.881  -9.160  0.00  0.00     0.091 C 
ATOM     49  H   LIG d   1       2.622   1.580  -8.116  0.00  0.00     0.070 H 
ATOM     50  H   LIG d   1       1.952   2.506  -9.502  0.00  0.00     0.070 H 
BRANCH  48  51
ATOM     51  C   LIG d   1       4.093   2.678  -9.257  0.00  0.00    -0.030 C 
ATOM     52  H   LIG d   1       4.497   2.595 -10.277  0.00  0.00     0.026 H 
ATOM     53  H   LIG d   1       4.823   2.275  -8.540  0.00  0.00     0.026 H 
ATOM     54  H   LIG d   1       3.895   3.734  -9.026  0.00  0.00     0.026 H 
ENDBRANCH  48  51
ENDBRANCH  47  48
ENDBRANCH  39  47
ENDBRANCH  28  31
ENDBRANCH   1  28
BRANCH  12  55
ATOM     55  C   LIG d   1       3.388  -1.727  -2.831  0.00  0.00    -0.056 C 
ATOM     56  H   LIG d   1       3.578  -2.762  -2.511  0.00  0.00     0.024 H 
ATOM     57  H   LIG d   1       2.914  -1.732  -3.824  0.00  0.00     0.024 H 
ATOM     58  H   LIG d   1       2.720  -1.237  -2.108  0.00  0.00     0.024 H 
ENDBRANCH  12  55
BRANCH   7  59
ATOM     59  C   LIG d   1       2.403   0.475  -4.920  0.00  0.00    -0.059 C 
ATOM     60  H   LIG d   1       2.457  -0.176  -5.806  0.00  0.00     0.024 H 
ATOM     61  H   LIG d   1       1.788   1.357  -5.149  0.00  0.00     0.024 H 
ATOM     62  H   LIG d   1       1.950  -0.080  -4.085  0.00  0.00     0.024 H 
ENDBRANCH   7  59
TORSDOF 7
ENDMDL
MODEL 3
REMARK VINA RESULT:      -6.6      5.181      9.237
REMARK  7 active torsions:
REMARK  status: ('A' for Active; 'I' for Inactive)
REMARK    1  A    between atoms: C_1  and  C_2 
REMARK    2  A    between atoms: C_2  and  O_3 
REMARK    3  A    between atoms: O_3  and  C_4 
REMARK       I    between atoms: C_4  and  N_6 
REMARK    4  A    between atoms: N_9  and  C_12 
REMARK    5  A    between atoms: C_12  and  C_13 
REMARK    6  A    between atoms: C_19  and  C_32 
REMARK    7  A    between atoms: C_24  and  C_31 
ROOT
ATOM      1  C   LIG d   1       8.112   1.440  -5.904  0.00  0.00     0.079 C 
ATOM      2  H   LIG d   1       7.102   1.660  -6.281  0.00  0.00     0.043 H 
ATOM      3  C   LIG d   1       8.195   0.904  -4.489  0.00  0.00     0.029 C 
ATOM      4  H   LIG d   1       9.071   1.282  -3.940  0.00  0.00     0.039 H 
ATOM      5  C   LIG d   1       6.917   1.297  -3.696  0.00  0.00    -0.077 C 
ATOM      6  C   LIG d   1       5.980   0.603  -3.439  0.00  0.00    -0.064 C 
ATOM      7  C   LIG d   1       4.935   1.167  -2.459  0.00  0.00    -0.022 C 
ATOM      8  H   LIG d   1       5.394   2.067  -2.023  0.00  0.00     0.034 H 
ATOM      9  C   LIG d   1       4.549   0.009  -1.435  0.00  0.00    -0.047 C 
ATOM     10  C   LIG d   1       4.265  -1.344  -2.107  0.00  0.00    -0.052 C 
ATOM     11  C   LIG d   1       5.419  -1.774  -2.972  0.00  0.00    -0.044 C 
ATOM     12  C   LIG d   1       5.776  -0.805  -4.019  0.00  0.00    -0.007 C 
ATOM     13  C   LIG d   1       6.859  -1.144  -4.998  0.00  0.00    -0.006 C 
ATOM     14  C   LIG d   1       8.221  -0.597  -4.702  0.00  0.00     0.111 C 
ATOM     15  H   LIG d   1       8.625  -1.110  -3.816  0.00  0.00     0.074 H 
ATOM     16  O   LIG d   1       9.022  -0.808  -5.911  0.00  0.00    -0.461 OA
ATOM     17  C   LIG d   1       8.950   0.350  -6.608  0.00  0.00     0.312 C 
ATOM     18  O   LIG d   1       9.405   0.459  -7.803  0.00  0.00    -0.251 OA
ATOM     19  H   LIG d   1       6.936   2.344  -3.359  0.00  0.00     0.058 H 
ATOM     20  H   LIG d   1       5.376  -0.144  -0.727  0.00  0.00     0.027 H 
ATOM     21  H   LIG d   1       3.642   0.297  -0.883  0.00  0.00     0.027 H 
ATOM     22  H   LIG d   1       4.100  -2.109  -1.334  0.00  0.00     0.027 H 
ATOM     23  H   LIG d   1       3.367  -1.259  -2.737  0.00  0.00     0.027 H 
ATOM     24  H   LIG d   1       6.312  -1.919  -2.346  0.00  0.00     0.027 H 
ATOM     25  H   LIG d   1       5.167  -2.719  -3.476  0.00  0.00     0.027 H 
ATOM     26  H   LIG d   1       6.978  -2.236  -5.050  0.00  0.00     0.031 H 
ATOM     27  H   LIG d   1       6.590  -0.757  -5.992  0.00  0.00     0.031 H 
ENDROOT
BRANCH   1  28
ATOM     28  C   LIG d   1       8.914   2.691  -5.975  0.00  0.00     0.013 C 
ATOM     29  H   LIG d   1       8.241   3.553  -6.088  0.00  0.00     0.043 H 
ATOM     30  H   LIG d   1       9.595   2.642  -6.838  0.00  0.00     0.043 H 
BRANCH  28  31
ATOM     31  N   LIG d   1       9.698   2.841  -4.742  0.00  0.00    -0.299 N 
ATOM     32  C   LIG d   1      11.137   2.743  -5.017  0.00  0.00     0.015 C 
ATOM     33  C   LIG d   1      11.907   2.721  -3.692  0.00  0.00     0.031 C 
ATOM     34  H   LIG d   1      11.458   3.609  -5.613  0.00  0.00     0.044 H 
ATOM     35  H   LIG d   1      11.343   1.818  -5.576  0.00  0.00     0.044 H 
ATOM     36  N   LIG d   1      11.504   3.892  -2.898  0.00  0.00    -0.265 N 
ATOM     37  H   LIG d   1      12.989   2.765  -3.886  0.00  0.00     0.048 H 
ATOM     38  H   LIG d   1      11.671   1.802  -3.136  0.00  0.00     0.048 H 
ATOM     39  C   LIG d   1      12.427   4.721  -2.372  0.00  0.00     0.403 C 
ATOM     40  C   LIG d   1      10.068   4.134  -2.695  0.00  0.00     0.031 C 
ATOM     41  O   LIG d   1      13.609   4.506  -2.550  0.00  0.00    -0.226 OA
ATOM     42  C   LIG d   1       9.370   4.100  -4.060  0.00  0.00     0.015 C 
ATOM     43  H   LIG d   1       9.653   3.352  -2.042  0.00  0.00     0.048 H 
ATOM     44  H   LIG d   1       9.925   5.118  -2.225  0.00  0.00     0.048 H 
ATOM     45  H   LIG d   1       9.714   4.948  -4.669  0.00  0.00     0.044 H 
ATOM     46  H   LIG d   1       8.281   4.168  -3.918  0.00  0.00     0.044 H 
BRANCH  39  47
ATOM     47  O   LIG d   1      12.038   5.788  -1.648  0.00  0.00    -0.451 OA
BRANCH  47  48
ATOM     48  C   LIG d   1      12.480   5.844  -0.266  0.00  0.00     0.091 C 
ATOM     49  H   LIG d   1      13.074   6.755  -0.107  0.00  0.00     0.070 H 
ATOM     50  H   LIG d   1      13.096   4.959  -0.043  0.00  0.00     0.070 H 
BRANCH  48  51
ATOM     51  C   LIG d   1      11.260   5.863   0.658  0.00  0.00    -0.030 C 
ATOM     52  H   LIG d   1      10.797   4.865   0.672  0.00  0.00     0.026 H 
ATOM     53  H   LIG d   1      10.532   6.600   0.290  0.00  0.00     0.026 H 
ATOM     54  H   LIG d   1      11.576   6.135   1.675  0.00  0.00     0.026 H 
ENDBRANCH  48  51
ENDBRANCH  47  48
ENDBRANCH  39  47
ENDBRANCH  28  31
ENDBRANCH   1  28
BRANCH  12  55
ATOM     55  C   LIG d   1       4.470  -0.750  -4.940  0.00  0.00    -0.056 C 
ATOM     56  H   LIG d   1       4.198  -1.770  -5.252  0.00  0.00     0.024 H 
ATOM     57  H   LIG d   1       4.674  -0.137  -5.831  0.00  0.00     0.024 H 
ATOM     58  H   LIG d   1       3.639  -0.308  -4.373  0.00  0.00     0.024 H 
ENDBRANCH  12  55
BRANCH   7  59
ATOM     59  C   LIG d   1       3.674   1.711  -3.072  0.00  0.00    -0.059 C 
ATOM     60  H   LIG d   1       2.902   1.811  -2.296  0.00  0.00     0.024 H 
ATOM     61  H   LIG d   1       3.321   1.024  -3.855  0.00  0.00     0.024 H 
ATOM     62  H   LIG d   1       3.878   2.697  -3.516  0.00  0.00     0.024 H 
ENDBRANCH   7  59
TORSDOF 7
ENDMDL
MODEL 4
REMARK VINA RESULT:      -6.6      1.637      1.910
REMARK  7 active torsions:
REMARK  status: ('A' for Active; 'I' for Inactive)
REMARK    1  A    between atoms: C_1  and  C_2 
REMARK    2  A    between atoms: C_2  and  O_3 
REMARK    3  A    between atoms: O_3  and  C_4 
REMARK       I    between atoms: C_4  and  N_6 
REMARK    4  A    between atoms: N_9  and  C_12 
REMARK    5  A    between atoms: C_12  and  C_13 
REMARK    6  A    between atoms: C_19  and  C_32 
REMARK    7  A    between atoms: C_24  and  C_31 
ROOT
ATOM      1  C   LIG d   1       5.906  -2.372  -7.087  0.00  0.00     0.079 C 
ATOM      2  H   LIG d   1       6.160  -3.029  -6.241  0.00  0.00     0.043 H 
ATOM      3  C   LIG d   1       5.075  -1.149  -6.757  0.00  0.00     0.029 C 
ATOM      4  H   LIG d   1       4.342  -0.906  -7.541  0.00  0.00     0.039 H 
ATOM      5  C   LIG d   1       4.305  -1.373  -5.425  0.00  0.00    -0.077 C 
ATOM      6  C   LIG d   1       4.578  -0.940  -4.347  0.00  0.00    -0.064 C 
ATOM      7  C   LIG d   1       3.540  -1.133  -3.227  0.00  0.00    -0.022 C 
ATOM      8  H   LIG d   1       2.624  -1.479  -3.730  0.00  0.00     0.034 H 
ATOM      9  C   LIG d   1       3.424   0.238  -2.424  0.00  0.00    -0.047 C 
ATOM     10  C   LIG d   1       4.782   0.861  -2.061  0.00  0.00    -0.052 C 
ATOM     11  C   LIG d   1       5.641   1.041  -3.284  0.00  0.00    -0.044 C 
ATOM     12  C   LIG d   1       5.889  -0.202  -4.031  0.00  0.00    -0.007 C 
ATOM     13  C   LIG d   1       6.792  -0.175  -5.227  0.00  0.00    -0.006 C 
ATOM     14  C   LIG d   1       6.126  -0.073  -6.564  0.00  0.00     0.111 C 
ATOM     15  H   LIG d   1       5.681   0.929  -6.663  0.00  0.00     0.074 H 
ATOM     16  O   LIG d   1       7.160  -0.351  -7.563  0.00  0.00    -0.461 OA
ATOM     17  C   LIG d   1       7.048  -1.668  -7.853  0.00  0.00     0.312 C 
ATOM     18  O   LIG d   1       7.911  -2.286  -8.575  0.00  0.00    -0.251 OA
ATOM     19  H   LIG d   1       3.417  -2.010  -5.554  0.00  0.00     0.058 H 
ATOM     20  H   LIG d   1       2.879   0.974  -3.033  0.00  0.00     0.027 H 
ATOM     21  H   LIG d   1       2.882   0.066  -1.483  0.00  0.00     0.027 H 
ATOM     22  H   LIG d   1       4.621   1.845  -1.596  0.00  0.00     0.027 H 
ATOM     23  H   LIG d   1       5.311   0.203  -1.355  0.00  0.00     0.027 H 
ATOM     24  H   LIG d   1       5.153   1.743  -3.975  0.00  0.00     0.027 H 
ATOM     25  H   LIG d   1       6.622   1.442  -2.987  0.00  0.00     0.027 H 
ATOM     26  H   LIG d   1       7.465   0.691  -5.158  0.00  0.00     0.031 H 
ATOM     27  H   LIG d   1       7.386  -1.101  -5.257  0.00  0.00     0.031 H 
ENDROOT
BRANCH   1  28
ATOM     28  C   LIG d   1       5.167  -3.180  -8.094  0.00  0.00     0.013 C 
ATOM     29  H   LIG d   1       5.547  -2.949  -9.099  0.00  0.00     0.043 H 
ATOM     30  H   LIG d   1       4.094  -2.937  -8.042  0.00  0.00     0.043 H 
BRANCH  28  31
ATOM     31  N   LIG d   1       5.360  -4.608  -7.812  0.00  0.00    -0.299 N 
ATOM     32  C   LIG d   1       6.482  -4.815  -6.887  0.00  0.00     0.015 C 
ATOM     33  C   LIG d   1       6.766  -6.316  -6.762  0.00  0.00     0.031 C 
ATOM     34  H   LIG d   1       6.224  -4.408  -5.899  0.00  0.00     0.044 H 
ATOM     35  H   LIG d   1       7.376  -4.304  -7.272  0.00  0.00     0.044 H 
ATOM     36  N   LIG d   1       5.518  -6.999  -6.389  0.00  0.00    -0.265 N 
ATOM     37  H   LIG d   1       7.526  -6.491  -5.986  0.00  0.00     0.048 H 
ATOM     38  H   LIG d   1       7.127  -6.711  -7.723  0.00  0.00     0.048 H 
ATOM     39  C   LIG d   1       5.479  -7.845  -5.341  0.00  0.00     0.403 C 
ATOM     40  C   LIG d   1       4.313  -6.733  -7.190  0.00  0.00     0.031 C 
ATOM     41  O   LIG d   1       6.484  -8.054  -4.691  0.00  0.00    -0.226 OA
ATOM     42  C   LIG d   1       4.125  -5.215  -7.298  0.00  0.00     0.015 C 
ATOM     43  H   LIG d   1       4.436  -7.168  -8.192  0.00  0.00     0.048 H 
ATOM     44  H   LIG d   1       3.439  -7.185  -6.699  0.00  0.00     0.048 H 
ATOM     45  H   LIG d   1       3.900  -4.802  -6.305  0.00  0.00     0.044 H 
ATOM     46  H   LIG d   1       3.295  -4.995  -7.984  0.00  0.00     0.044 H 
BRANCH  39  47
ATOM     47  O   LIG d   1       4.327  -8.461  -5.015  0.00  0.00    -0.451 OA
BRANCH  47  48
ATOM     48  C   LIG d   1       4.421  -9.833  -4.549  0.00  0.00     0.091 C 
ATOM     49  H   LIG d   1       5.474 -10.082  -4.353  0.00  0.00     0.070 H 
ATOM     50  H   LIG d   1       4.020 -10.509  -5.319  0.00  0.00     0.070 H 
BRANCH  48  51
ATOM     51  C   LIG d   1       3.612  -9.989  -3.260  0.00  0.00    -0.030 C 
ATOM     52  H   LIG d   1       2.948 -10.862  -3.348  0.00  0.00     0.026 H 
ATOM     53  H   LIG d   1       3.009  -9.085  -3.093  0.00  0.00     0.026 H 
ATOM     54  H   LIG d   1       4.297 -10.135  -2.413  0.00  0.00     0.026 H 
ENDBRANCH  48  51
ENDBRANCH  47  48
ENDBRANCH  39  47
ENDBRANCH  28  31
ENDBRANCH   1  28
BRANCH  12  55
ATOM     55  C   LIG d   1       6.701  -1.107  -2.993  0.00  0.00    -0.056 C 
ATOM     56  H   LIG d   1       6.069  -1.946  -2.665  0.00  0.00     0.024 H 
ATOM     57  H   LIG d   1       6.986  -0.500  -2.120  0.00  0.00     0.024 H 
ATOM     58  H   LIG d   1       7.606  -1.499  -3.478  0.00  0.00     0.024 H 
ENDBRANCH  12  55
BRANCH   7  59
ATOM     59  C   LIG d   1       3.813  -2.244  -2.251  0.00  0.00    -0.059 C 
ATOM     60  H   LIG d   1       2.917  -2.423  -1.638  0.00  0.00     0.024 H 
ATOM     61  H   LIG d   1       4.653  -1.961  -1.599  0.00  0.00     0.024 H 
ATOM     62  H   LIG d   1       4.070  -3.161  -2.802  0.00  0.00     0.024 H 
ENDBRANCH   7  59
TORSDOF 7
ENDMDL
MODEL 5
REMARK VINA RESULT:      -6.3      4.941      9.186
REMARK  7 active torsions:
REMARK  status: ('A' for Active; 'I' for Inactive)
REMARK    1  A    between atoms: C_1  and  C_2 
REMARK    2  A    between atoms: C_2  and  O_3 
REMARK    3  A    between atoms: O_3  and  C_4 
REMARK       I    between atoms: C_4  and  N_6 
REMARK    4  A    between atoms: N_9  and  C_12 
REMARK    5  A    between atoms: C_12  and  C_13 
REMARK    6  A    between atoms: C_19  and  C_32 
REMARK    7  A    between atoms: C_24  and  C_31 
ROOT
ATOM      1  C   LIG d   1       8.429  -0.073  -5.848  0.00  0.00     0.079 C 
ATOM      2  H   LIG d   1       7.664   0.692  -6.051  0.00  0.00     0.043 H 
ATOM      3  C   LIG d   1       8.164  -0.985  -4.667  0.00  0.00     0.029 C 
ATOM      4  H   LIG d   1       9.079  -1.242  -4.112  0.00  0.00     0.039 H 
ATOM      5  C   LIG d   1       7.173  -0.305  -3.682  0.00  0.00    -0.077 C 
ATOM      6  C   LIG d   1       6.007  -0.526  -3.557  0.00  0.00    -0.064 C 
ATOM      7  C   LIG d   1       5.289   0.132  -2.364  0.00  0.00    -0.022 C 
ATOM      8  H   LIG d   1       6.089   0.538  -1.727  0.00  0.00     0.034 H 
ATOM      9  C   LIG d   1       4.344  -0.962  -1.696  0.00  0.00    -0.047 C 
ATOM     10  C   LIG d   1       3.502  -1.756  -2.707  0.00  0.00    -0.052 C 
ATOM     11  C   LIG d   1       4.371  -2.389  -3.761  0.00  0.00    -0.044 C 
ATOM     12  C   LIG d   1       5.203  -1.430  -4.505  0.00  0.00    -0.007 C 
ATOM     13  C   LIG d   1       6.059  -1.920  -5.633  0.00  0.00    -0.006 C 
ATOM     14  C   LIG d   1       7.498  -2.184  -5.314  0.00  0.00     0.111 C 
ATOM     15  H   LIG d   1       7.560  -3.065  -4.658  0.00  0.00     0.074 H 
ATOM     16  O   LIG d   1       8.180  -2.367  -6.598  0.00  0.00    -0.461 OA
ATOM     17  C   LIG d   1       8.700  -1.158  -6.915  0.00  0.00     0.312 C 
ATOM     18  O   LIG d   1       9.226  -0.918  -8.060  0.00  0.00    -0.251 OA
ATOM     19  H   LIG d   1       7.659   0.458  -3.055  0.00  0.00     0.058 H 
ATOM     20  H   LIG d   1       4.959  -1.687  -1.142  0.00  0.00     0.027 H 
ATOM     21  H   LIG d   1       3.645  -0.469  -1.005  0.00  0.00     0.027 H 
ATOM     22  H   LIG d   1       2.951  -2.551  -2.182  0.00  0.00     0.027 H 
ATOM     23  H   LIG d   1       2.788  -1.079  -3.202  0.00  0.00     0.027 H 
ATOM     24  H   LIG d   1       5.052  -3.111  -3.289  0.00  0.00     0.027 H 
ATOM     25  H   LIG d   1       3.738  -2.907  -4.496  0.00  0.00     0.027 H 
ATOM     26  H   LIG d   1       5.656  -2.869  -6.015  0.00  0.00     0.031 H 
ATOM     27  H   LIG d   1       6.064  -1.172  -6.441  0.00  0.00     0.031 H 
ENDROOT
BRANCH   1  28
ATOM     28  C   LIG d   1       9.726   0.619  -5.620  0.00  0.00     0.013 C 
ATOM     29  H   LIG d   1      10.301   0.636  -6.557  0.00  0.00     0.043 H 
ATOM     30  H   LIG d   1      10.298   0.081  -4.849  0.00  0.00     0.043 H 
BRANCH  28  31
ATOM     31  N   LIG d   1       9.474   1.995  -5.174  0.00  0.00    -0.299 N 
ATOM     32  C   LIG d   1      10.009   2.217  -3.824  0.00  0.00     0.015 C 
ATOM     33  C   LIG d   1       9.570   3.597  -3.324  0.00  0.00     0.031 C 
ATOM     34  H   LIG d   1      11.107   2.169  -3.851  0.00  0.00     0.044 H 
ATOM     35  H   LIG d   1       9.626   1.442  -3.144  0.00  0.00     0.044 H 
ATOM     36  N   LIG d   1       9.965   4.603  -4.323  0.00  0.00    -0.265 N 
ATOM     37  H   LIG d   1      10.059   3.822  -2.365  0.00  0.00     0.048 H 
ATOM     38  H   LIG d   1       8.478   3.620  -3.193  0.00  0.00     0.048 H 
ATOM     39  C   LIG d   1      10.660   5.700  -3.963  0.00  0.00     0.403 C 
ATOM     40  C   LIG d   1       9.582   4.379  -5.725  0.00  0.00     0.031 C 
ATOM     41  O   LIG d   1      10.967   5.869  -2.799  0.00  0.00    -0.226 OA
ATOM     42  C   LIG d   1      10.021   2.967  -6.130  0.00  0.00     0.015 C 
ATOM     43  H   LIG d   1       8.491   4.476  -5.827  0.00  0.00     0.048 H 
ATOM     44  H   LIG d   1      10.078   5.123  -6.364  0.00  0.00     0.048 H 
ATOM     45  H   LIG d   1      11.118   2.908  -6.126  0.00  0.00     0.044 H 
ATOM     46  H   LIG d   1       9.645   2.740  -7.139  0.00  0.00     0.044 H 
BRANCH  39  47
ATOM     47  O   LIG d   1      11.012   6.609  -4.891  0.00  0.00    -0.451 OA
BRANCH  47  48
ATOM     48  C   LIG d   1      10.429   7.933  -4.772  0.00  0.00     0.091 C 
ATOM     49  H   LIG d   1      11.195   8.692  -4.989  0.00  0.00     0.070 H 
ATOM     50  H   LIG d   1      10.049   8.076  -3.749  0.00  0.00     0.070 H 
BRANCH  48  51
ATOM     51  C   LIG d   1       9.276   8.074  -5.769  0.00  0.00    -0.030 C 
ATOM     52  H   LIG d   1       9.651   7.902  -6.788  0.00  0.00     0.026 H 
ATOM     53  H   LIG d   1       8.853   9.087  -5.699  0.00  0.00     0.026 H 
ATOM     54  H   LIG d   1       8.497   7.334  -5.535  0.00  0.00     0.026 H 
ENDBRANCH  48  51
ENDBRANCH  47  48
ENDBRANCH  39  47
ENDBRANCH  28  31
ENDBRANCH   1  28
BRANCH  12  55
ATOM     55  C   LIG d   1       4.134  -0.502  -5.247  0.00  0.00    -0.056 C 
ATOM     56  H   LIG d   1       3.159  -1.012  -5.269  0.00  0.00     0.024 H 
ATOM     57  H   LIG d   1       4.469  -0.308  -6.277  0.00  0.00     0.024 H 
ATOM     58  H   LIG d   1       4.036   0.450  -4.707  0.00  0.00     0.024 H 
ENDBRANCH  12  55
BRANCH   7  59
ATOM     59  C   LIG d   1       4.470   1.355  -2.674  0.00  0.00    -0.059 C 
ATOM     60  H   LIG d   1       5.022   1.998  -3.374  0.00  0.00     0.024 H 
ATOM     61  H   LIG d   1       4.271   1.908  -1.745  0.00  0.00     0.024 H 
ATOM     62  H   LIG d   1       3.516   1.051  -3.131  0.00  0.00     0.024 H 
ENDBRANCH   7  59
TORSDOF 7
ENDMDL
MODEL 6
REMARK VINA RESULT:      -6.2      3.901      5.342
REMARK  7 active torsions:
REMARK  status: ('A' for Active; 'I' for Inactive)
REMARK    1  A    between atoms: C_1  and  C_2 
REMARK    2  A    between atoms: C_2  and  O_3 
REMARK    3  A    between atoms: O_3  and  C_4 
REMARK       I    between atoms: C_4  and  N_6 
REMARK    4  A    between atoms: N_9  and  C_12 
REMARK    5  A    between atoms: C_12  and  C_13 
REMARK    6  A    between atoms: C_19  and  C_32 
REMARK    7  A    between atoms: C_24  and  C_31 
ROOT
ATOM      1  C   LIG d   1       5.859  -3.136  -6.001  0.00  0.00     0.079 C 
ATOM      2  H   LIG d   1       4.869  -3.487  -5.671  0.00  0.00     0.043 H 
ATOM      3  C   LIG d   1       6.202  -1.698  -5.671  0.00  0.00     0.029 C 
ATOM      4  H   LIG d   1       6.781  -1.204  -6.466  0.00  0.00     0.039 H 
ATOM      5  C   LIG d   1       4.901  -0.880  -5.439  0.00  0.00    -0.077 C 
ATOM      6  C   LIG d   1       4.428  -0.549  -4.394  0.00  0.00    -0.064 C 
ATOM      7  C   LIG d   1       3.246   0.437  -4.436  0.00  0.00    -0.022 C 
ATOM      8  H   LIG d   1       3.205   0.803  -5.473  0.00  0.00     0.034 H 
ATOM      9  C   LIG d   1       3.485   1.537  -3.311  0.00  0.00    -0.047 C 
ATOM     10  C   LIG d   1       3.900   0.954  -1.951  0.00  0.00    -0.052 C 
ATOM     11  C   LIG d   1       5.112   0.072  -2.085  0.00  0.00    -0.044 C 
ATOM     12  C   LIG d   1       4.940  -1.041  -3.031  0.00  0.00    -0.007 C 
ATOM     13  C   LIG d   1       6.045  -2.040  -3.202  0.00  0.00    -0.006 C 
ATOM     14  C   LIG d   1       6.963  -1.827  -4.366  0.00  0.00     0.111 C 
ATOM     15  H   LIG d   1       7.571  -0.929  -4.178  0.00  0.00     0.074 H 
ATOM     16  O   LIG d   1       7.758  -3.051  -4.494  0.00  0.00    -0.461 OA
ATOM     17  C   LIG d   1       7.121  -3.809  -5.417  0.00  0.00     0.312 C 
ATOM     18  O   LIG d   1       7.457  -5.025  -5.655  0.00  0.00    -0.251 OA
ATOM     19  H   LIG d   1       4.403  -0.604  -6.381  0.00  0.00     0.058 H 
ATOM     20  H   LIG d   1       4.285   2.222  -3.631  0.00  0.00     0.027 H 
ATOM     21  H   LIG d   1       2.557   2.106  -3.152  0.00  0.00     0.027 H 
ATOM     22  H   LIG d   1       4.138   1.775  -1.257  0.00  0.00     0.027 H 
ATOM     23  H   LIG d   1       3.074   0.354  -1.540  0.00  0.00     0.027 H 
ATOM     24  H   LIG d   1       5.964   0.670  -2.439  0.00  0.00     0.027 H 
ATOM     25  H   LIG d   1       5.355  -0.369  -1.107  0.00  0.00     0.027 H 
ATOM     26  H   LIG d   1       6.685  -2.035  -2.308  0.00  0.00     0.031 H 
ATOM     27  H   LIG d   1       5.614  -3.043  -3.339  0.00  0.00     0.031 H 
ENDROOT
BRANCH   1  28
ATOM     28  C   LIG d   1       5.941  -3.308  -7.476  0.00  0.00     0.013 C 
ATOM     29  H   LIG d   1       5.459  -4.254  -7.762  0.00  0.00     0.043 H 
ATOM     30  H   LIG d   1       6.997  -3.327  -7.785  0.00  0.00     0.043 H 
BRANCH  28  31
ATOM     31  N   LIG d   1       5.257  -2.190  -8.138  0.00  0.00    -0.299 N 
ATOM     32  C   LIG d   1       6.003  -1.742  -9.321  0.00  0.00     0.015 C 
ATOM     33  C   LIG d   1       5.359  -0.466  -9.875  0.00  0.00     0.031 C 
ATOM     34  H   LIG d   1       5.980  -2.528 -10.090  0.00  0.00     0.044 H 
ATOM     35  H   LIG d   1       7.046  -1.534  -9.042  0.00  0.00     0.044 H 
ATOM     36  N   LIG d   1       3.929  -0.726 -10.103  0.00  0.00    -0.265 N 
ATOM     37  H   LIG d   1       5.836  -0.187 -10.825  0.00  0.00     0.048 H 
ATOM     38  H   LIG d   1       5.472   0.356  -9.153  0.00  0.00     0.048 H 
ATOM     39  C   LIG d   1       3.355  -0.441 -11.288  0.00  0.00     0.403 C 
ATOM     40  C   LIG d   1       3.143  -1.305  -9.003  0.00  0.00     0.031 C 
ATOM     41  O   LIG d   1       4.019   0.038 -12.186  0.00  0.00    -0.226 OA
ATOM     42  C   LIG d   1       3.875  -2.548  -8.483  0.00  0.00     0.015 C 
ATOM     43  H   LIG d   1       3.041  -0.565  -8.196  0.00  0.00     0.048 H 
ATOM     44  H   LIG d   1       2.146  -1.585  -9.372  0.00  0.00     0.048 H 
ATOM     45  H   LIG d   1       3.881  -3.323  -9.263  0.00  0.00     0.044 H 
ATOM     46  H   LIG d   1       3.361  -2.931  -7.589  0.00  0.00     0.044 H 
BRANCH  39  47
ATOM     47  O   LIG d   1       2.044  -0.686 -11.478  0.00  0.00    -0.451 OA
BRANCH  47  48
ATOM     48  C   LIG d   1       1.697  -1.699 -12.459  0.00  0.00     0.091 C 
ATOM     49  H   LIG d   1       2.591  -1.966 -13.042  0.00  0.00     0.070 H 
ATOM     50  H   LIG d   1       0.923  -1.304 -13.134  0.00  0.00     0.070 H 
BRANCH  48  51
ATOM     51  C   LIG d   1       1.165  -2.941 -11.742  0.00  0.00    -0.030 C 
ATOM     52  H   LIG d   1       1.841  -3.205 -10.916  0.00  0.00     0.026 H 
ATOM     53  H   LIG d   1       1.112  -3.779 -12.453  0.00  0.00     0.026 H 
ATOM     54  H   LIG d   1       0.162  -2.733 -11.344  0.00  0.00     0.026 H 
ENDBRANCH  48  51
ENDBRANCH  47  48
ENDBRANCH  39  47
ENDBRANCH  28  31
ENDBRANCH   1  28
BRANCH  12  55
ATOM     55  C   LIG d   1       3.772  -1.914  -2.375  0.00  0.00    -0.056 C 
ATOM     56  H   LIG d   1       3.377  -1.392  -1.492  0.00  0.00     0.024 H 
ATOM     57  H   LIG d   1       4.171  -2.894  -2.074  0.00  0.00     0.024 H 
ATOM     58  H   LIG d   1       2.965  -2.056  -3.108  0.00  0.00     0.024 H 
ENDBRANCH  12  55
BRANCH   7  59
ATOM     59  C   LIG d   1       1.877  -0.159  -4.249  0.00  0.00    -0.059 C 
ATOM     60  H   LIG d   1       1.129   0.646  -4.215  0.00  0.00     0.024 H 
ATOM     61  H   LIG d   1       1.850  -0.725  -3.307  0.00  0.00     0.024 H 
ATOM     62  H   LIG d   1       1.653  -0.833  -5.089  0.00  0.00     0.024 H 
ENDBRANCH   7  59
TORSDOF 7
ENDMDL
MODEL 7
REMARK VINA RESULT:      -6.2      2.907      4.079
REMARK  7 active torsions:
REMARK  status: ('A' for Active; 'I' for Inactive)
REMARK    1  A    between atoms: C_1  and  C_2 
REMARK    2  A    between atoms: C_2  and  O_3 
REMARK    3  A    between atoms: O_3  and  C_4 
REMARK       I    between atoms: C_4  and  N_6 
REMARK    4  A    between atoms: N_9  and  C_12 
REMARK    5  A    between atoms: C_12  and  C_13 
REMARK    6  A    between atoms: C_19  and  C_32 
REMARK    7  A    between atoms: C_24  and  C_31 
ROOT
ATOM      1  C   LIG d   1       4.835  -2.080  -5.384  0.00  0.00     0.079 C 
ATOM      2  H   LIG d   1       4.298  -2.662  -6.148  0.00  0.00     0.043 H 
ATOM      3  C   LIG d   1       5.301  -0.700  -5.799  0.00  0.00     0.029 C 
ATOM      4  H   LIG d   1       6.278  -0.431  -5.371  0.00  0.00     0.039 H 
ATOM      5  C   LIG d   1       5.410  -0.619  -7.348  0.00  0.00    -0.077 C 
ATOM      6  C   LIG d   1       4.639  -0.110  -8.104  0.00  0.00    -0.064 C 
ATOM      7  C   LIG d   1       5.078   0.023  -9.574  0.00  0.00    -0.022 C 
ATOM      8  H   LIG d   1       6.152  -0.217  -9.583  0.00  0.00     0.034 H 
ATOM      9  C   LIG d   1       4.680   1.481 -10.075  0.00  0.00    -0.047 C 
ATOM     10  C   LIG d   1       3.248   1.897  -9.700  0.00  0.00    -0.052 C 
ATOM     11  C   LIG d   1       3.015   1.771  -8.219  0.00  0.00    -0.044 C 
ATOM     12  C   LIG d   1       3.258   0.421  -7.687  0.00  0.00    -0.007 C 
ATOM     13  C   LIG d   1       2.990   0.140  -6.239  0.00  0.00    -0.006 C 
ATOM     14  C   LIG d   1       4.171   0.191  -5.320  0.00  0.00     0.111 C 
ATOM     15  H   LIG d   1       4.508   1.235  -5.233  0.00  0.00     0.074 H 
ATOM     16  O   LIG d   1       3.729  -0.385  -4.048  0.00  0.00    -0.461 OA
ATOM     17  C   LIG d   1       4.093  -1.688  -4.087  0.00  0.00     0.312 C 
ATOM     18  O   LIG d   1       3.714  -2.532  -3.198  0.00  0.00    -0.251 OA
ATOM     19  H   LIG d   1       6.321  -1.101  -7.732  0.00  0.00     0.058 H 
ATOM     20  H   LIG d   1       5.362   2.221  -9.629  0.00  0.00     0.027 H 
ATOM     21  H   LIG d   1       4.756   1.525 -11.171  0.00  0.00     0.027 H 
ATOM     22  H   LIG d   1       3.081   2.944  -9.995  0.00  0.00     0.027 H 
ATOM     23  H   LIG d   1       2.529   1.249 -10.224  0.00  0.00     0.027 H 
ATOM     24  H   LIG d   1       3.687   2.456  -7.683  0.00  0.00     0.027 H 
ATOM     25  H   LIG d   1       1.971   2.027  -7.989  0.00  0.00     0.027 H 
ATOM     26  H   LIG d   1       2.273   0.877  -5.850  0.00  0.00     0.031 H 
ATOM     27  H   LIG d   1       2.571  -0.871  -6.134  0.00  0.00     0.031 H 
ENDROOT
BRANCH   1  28
ATOM     28  C   LIG d   1       6.026  -2.865  -4.960  0.00  0.00     0.013 C 
ATOM     29  H   LIG d   1       6.044  -2.941  -3.863  0.00  0.00     0.043 H 
ATOM     30  H   LIG d   1       6.941  -2.360  -5.307  0.00  0.00     0.043 H 
BRANCH  28  31
ATOM     31  N   LIG d   1       5.959  -4.211  -5.543  0.00  0.00    -0.299 N 
ATOM     32  C   LIG d   1       7.078  -5.042  -5.080  0.00  0.00     0.015 C 
ATOM     33  C   LIG d   1       7.075  -6.369  -5.846  0.00  0.00     0.031 C 
ATOM     34  H   LIG d   1       6.969  -5.240  -4.004  0.00  0.00     0.044 H 
ATOM     35  H   LIG d   1       8.027  -4.516  -5.262  0.00  0.00     0.044 H 
ATOM     36  N   LIG d   1       5.746  -6.984  -5.711  0.00  0.00    -0.265 N 
ATOM     37  H   LIG d   1       7.836  -7.045  -5.429  0.00  0.00     0.048 H 
ATOM     38  H   LIG d   1       7.289  -6.190  -6.910  0.00  0.00     0.048 H 
ATOM     39  C   LIG d   1       5.614  -8.264  -5.308  0.00  0.00     0.403 C 
ATOM     40  C   LIG d   1       4.565  -6.166  -6.026  0.00  0.00     0.031 C 
ATOM     41  O   LIG d   1       6.600  -8.925  -5.052  0.00  0.00    -0.226 OA
ATOM     42  C   LIG d   1       4.667  -4.846  -5.252  0.00  0.00     0.015 C 
ATOM     43  H   LIG d   1       4.536  -5.966  -7.106  0.00  0.00     0.048 H 
ATOM     44  H   LIG d   1       3.655  -6.706  -5.727  0.00  0.00     0.048 H 
ATOM     45  H   LIG d   1       4.591  -5.046  -4.174  0.00  0.00     0.044 H 
ATOM     46  H   LIG d   1       3.851  -4.176  -5.560  0.00  0.00     0.044 H 
BRANCH  39  47
ATOM     47  O   LIG d   1       4.389  -8.809  -5.189  0.00  0.00    -0.451 OA
BRANCH  47  48
ATOM     48  C   LIG d   1       4.309 -10.130  -4.591  0.00  0.00     0.091 C 
ATOM     49  H   LIG d   1       5.324 -10.525  -4.438  0.00  0.00     0.070 H 
ATOM     50  H   LIG d   1       3.750 -10.802  -5.261  0.00  0.00     0.070 H 
BRANCH  48  51
ATOM     51  C   LIG d   1       3.589 -10.037  -3.244  0.00  0.00    -0.030 C 
ATOM     52  H   LIG d   1       4.332 -10.006  -2.434  0.00  0.00     0.026 H 
ATOM     53  H   LIG d   1       2.941 -10.916  -3.114  0.00  0.00     0.026 H 
ATOM     54  H   LIG d   1       2.979  -9.123  -3.217  0.00  0.00     0.026 H 
ENDBRANCH  48  51
ENDBRANCH  47  48
ENDBRANCH  39  47
ENDBRANCH  28  31
ENDBRANCH   1  28
BRANCH  12  55
ATOM     55  C   LIG d   1       2.164  -0.477  -8.431  0.00  0.00    -0.056 C 
ATOM     56  H   LIG d   1       1.680   0.115  -9.222  0.00  0.00     0.024 H 
ATOM     57  H   LIG d   1       1.406  -0.808  -7.705  0.00  0.00     0.024 H 
ATOM     58  H   LIG d   1       2.651  -1.355  -8.878  0.00  0.00     0.024 H 
ENDBRANCH  12  55
BRANCH   7  59
ATOM     59  C   LIG d   1       4.511  -0.989 -10.531  0.00  0.00    -0.059 C 
ATOM     60  H   LIG d   1       5.333  -1.515 -11.038  0.00  0.00     0.024 H 
ATOM     61  H   LIG d   1       3.885  -0.478 -11.277  0.00  0.00     0.024 H 
ATOM     62  H   LIG d   1       3.898  -1.716  -9.976  0.00  0.00     0.024 H 
ENDBRANCH   7  59
TORSDOF 7
ENDMDL
MODEL 8
REMARK VINA RESULT:      -6.0      4.590      6.544
REMARK  7 active torsions:
REMARK  status: ('A' for Active; 'I' for Inactive)
REMARK    1  A    between atoms: C_1  and  C_2 
REMARK    2  A    between atoms: C_2  and  O_3 
REMARK    3  A    between atoms: O_3  and  C_4 
REMARK       I    between atoms: C_4  and  N_6 
REMARK    4  A    between atoms: N_9  and  C_12 
REMARK    5  A    between atoms: C_12  and  C_13 
REMARK    6  A    between atoms: C_19  and  C_32 
REMARK    7  A    between atoms: C_24  and  C_31 
ROOT
ATOM      1  C   LIG d   1       4.913   0.505  -7.934  0.00  0.00     0.079 C 
ATOM      2  H   LIG d   1       5.575   1.008  -7.213  0.00  0.00     0.043 H 
ATOM      3  C   LIG d   1       4.142  -0.690  -7.412  0.00  0.00     0.029 C 
ATOM      4  H   LIG d   1       4.040  -1.493  -8.158  0.00  0.00     0.039 H 
ATOM      5  C   LIG d   1       4.854  -1.277  -6.161  0.00  0.00    -0.077 C 
ATOM      6  C   LIG d   1       4.549  -1.131  -5.016  0.00  0.00    -0.064 C 
ATOM      7  C   LIG d   1       5.290  -1.989  -3.974  0.00  0.00    -0.022 C 
ATOM      8  H   LIG d   1       5.844  -2.743  -4.554  0.00  0.00     0.034 H 
ATOM      9  C   LIG d   1       4.213  -2.547  -2.943  0.00  0.00    -0.047 C 
ATOM     10  C   LIG d   1       3.224  -1.482  -2.441  0.00  0.00    -0.052 C 
ATOM     11  C   LIG d   1       2.539  -0.792  -3.590  0.00  0.00    -0.044 C 
ATOM     12  C   LIG d   1       3.463  -0.153  -4.541  0.00  0.00    -0.007 C 
ATOM     13  C   LIG d   1       2.909   0.634  -5.690  0.00  0.00    -0.006 C 
ATOM     14  C   LIG d   1       2.815  -0.079  -7.003  0.00  0.00     0.111 C 
ATOM     15  H   LIG d   1       2.035  -0.852  -6.933  0.00  0.00     0.074 H 
ATOM     16  O   LIG d   1       2.529   0.946  -8.010  0.00  0.00    -0.461 OA
ATOM     17  C   LIG d   1       3.728   1.294  -8.534  0.00  0.00     0.312 C 
ATOM     18  O   LIG d   1       3.863   2.289  -9.332  0.00  0.00    -0.251 OA
ATOM     19  H   LIG d   1       5.731  -1.888  -6.423  0.00  0.00     0.058 H 
ATOM     20  H   LIG d   1       3.622  -3.341  -3.424  0.00  0.00     0.027 H 
ATOM     21  H   LIG d   1       4.728  -2.955  -2.061  0.00  0.00     0.027 H 
ATOM     22  H   LIG d   1       2.459  -1.960  -1.812  0.00  0.00     0.027 H 
ATOM     23  H   LIG d   1       3.766  -0.727  -1.851  0.00  0.00     0.027 H 
ATOM     24  H   LIG d   1       1.946  -1.524  -4.157  0.00  0.00     0.027 H 
ATOM     25  H   LIG d   1       1.877  -0.004  -3.202  0.00  0.00     0.027 H 
ATOM     26  H   LIG d   1       1.887   0.961  -5.451  0.00  0.00     0.031 H 
ATOM     27  H   LIG d   1       3.543   1.514  -5.871  0.00  0.00     0.031 H 
ENDROOT
BRANCH   1  28
ATOM     28  C   LIG d   1       5.740   0.057  -9.087  0.00  0.00     0.013 C 
ATOM     29  H   LIG d   1       5.509   0.676  -9.966  0.00  0.00     0.043 H 
ATOM     30  H   LIG d   1       5.516  -0.997  -9.311  0.00  0.00     0.043 H 
BRANCH  28  31
ATOM     31  N   LIG d   1       7.163   0.195  -8.751  0.00  0.00    -0.299 N 
ATOM     32  C   LIG d   1       7.348   1.089  -7.600  0.00  0.00     0.015 C 
ATOM     33  C   LIG d   1       8.844   1.351  -7.396  0.00  0.00     0.031 C 
ATOM     34  H   LIG d   1       6.932   0.619  -6.698  0.00  0.00     0.044 H 
ATOM     35  H   LIG d   1       6.831   2.042  -7.788  0.00  0.00     0.044 H 
ATOM     36  N   LIG d   1       9.535   0.057  -7.296  0.00  0.00    -0.265 N 
ATOM     37  H   LIG d   1       9.002   1.924  -6.471  0.00  0.00     0.048 H 
ATOM     38  H   LIG d   1       9.246   1.917  -8.250  0.00  0.00     0.048 H 
ATOM     39  C   LIG d   1      10.370  -0.204  -6.270  0.00  0.00     0.403 C 
ATOM     40  C   LIG d   1       9.292  -0.946  -8.344  0.00  0.00     0.031 C 
ATOM     41  O   LIG d   1      10.561   0.637  -5.414  0.00  0.00    -0.226 OA
ATOM     42  C   LIG d   1       7.777  -1.117  -8.511  0.00  0.00     0.015 C 
ATOM     43  H   LIG d   1       9.736  -0.604  -9.289  0.00  0.00     0.048 H 
ATOM     44  H   LIG d   1       9.747  -1.903  -8.049  0.00  0.00     0.048 H 
ATOM     45  H   LIG d   1       7.354  -1.558  -7.596  0.00  0.00     0.044 H 
ATOM     46  H   LIG d   1       7.574  -1.780  -9.365  0.00  0.00     0.044 H 
BRANCH  39  47
ATOM     47  O   LIG d   1      10.994  -1.394  -6.196  0.00  0.00    -0.451 OA
BRANCH  47  48
ATOM     48  C   LIG d   1      10.764  -2.186  -5.000  0.00  0.00     0.091 C 
ATOM     49  H   LIG d   1      10.910  -1.557  -4.110  0.00  0.00     0.070 H 
ATOM     50  H   LIG d   1      11.473  -3.027  -4.977  0.00  0.00     0.070 H 
BRANCH  48  51
ATOM     51  C   LIG d   1       9.333  -2.726  -5.014  0.00  0.00    -0.030 C 
ATOM     52  H   LIG d   1       9.334  -3.755  -5.401  0.00  0.00     0.026 H 
ATOM     53  H   LIG d   1       8.708  -2.092  -5.660  0.00  0.00     0.026 H 
ATOM     54  H   LIG d   1       8.929  -2.719  -3.992  0.00  0.00     0.026 H 
ENDBRANCH  48  51
ENDBRANCH  47  48
ENDBRANCH  39  47
ENDBRANCH  28  31
ENDBRANCH   1  28
BRANCH  12  55
ATOM     55  C   LIG d   1       4.190   0.967  -3.661  0.00  0.00    -0.056 C 
ATOM     56  H   LIG d   1       4.981   0.502  -3.055  0.00  0.00     0.024 H 
ATOM     57  H   LIG d   1       3.454   1.448  -2.998  0.00  0.00     0.024 H 
ATOM     58  H   LIG d   1       4.634   1.724  -4.324  0.00  0.00     0.024 H 
ENDBRANCH  12  55
BRANCH   7  59
ATOM     59  C   LIG d   1       6.386  -1.302  -3.206  0.00  0.00    -0.059 C 
ATOM     60  H   LIG d   1       6.930  -2.043  -2.602  0.00  0.00     0.024 H 
ATOM     61  H   LIG d   1       5.948  -0.539  -2.546  0.00  0.00     0.024 H 
ATOM     62  H   LIG d   1       7.081  -0.821  -3.910  0.00  0.00     0.024 H 
ENDBRANCH   7  59
TORSDOF 7
ENDMDL
MODEL 9
REMARK VINA RESULT:      -5.9      2.567      3.455
REMARK  7 active torsions:
REMARK  status: ('A' for Active; 'I' for Inactive)
REMARK    1  A    between atoms: C_1  and  C_2 
REMARK    2  A    between atoms: C_2  and  O_3 
REMARK    3  A    between atoms: O_3  and  C_4 
REMARK       I    between atoms: C_4  and  N_6 
REMARK    4  A    between atoms: N_9  and  C_12 
REMARK    5  A    between atoms: C_12  and  C_13 
REMARK    6  A    between atoms: C_19  and  C_32 
REMARK    7  A    between atoms: C_24  and  C_31 
ROOT
ATOM      1  C   LIG d   1       6.316  -2.928  -5.684  0.00  0.00     0.079 C 
ATOM      2  H   LIG d   1       5.307  -3.319  -5.484  0.00  0.00     0.043 H 
ATOM      3  C   LIG d   1       6.546  -1.469  -5.346  0.00  0.00     0.029 C 
ATOM      4  H   LIG d   1       7.207  -0.963  -6.065  0.00  0.00     0.039 H 
ATOM      5  C   LIG d   1       5.190  -0.711  -5.314  0.00  0.00    -0.077 C 
ATOM      6  C   LIG d   1       4.563  -0.384  -4.351  0.00  0.00    -0.064 C 
ATOM      7  C   LIG d   1       3.355   0.544  -4.580  0.00  0.00    -0.022 C 
ATOM      8  H   LIG d   1       3.442   0.889  -5.621  0.00  0.00     0.034 H 
ATOM      9  C   LIG d   1       3.387   1.675  -3.459  0.00  0.00    -0.047 C 
ATOM     10  C   LIG d   1       3.637   1.136  -2.041  0.00  0.00    -0.052 C 
ATOM     11  C   LIG d   1       4.894   0.310  -1.986  0.00  0.00    -0.044 C 
ATOM     12  C   LIG d   1       4.904  -0.827  -2.920  0.00  0.00    -0.007 C 
ATOM     13  C   LIG d   1       6.065  -1.774  -2.914  0.00  0.00    -0.006 C 
ATOM     14  C   LIG d   1       7.125  -1.539  -3.945  0.00  0.00     0.111 C 
ATOM     15  H   LIG d   1       7.660  -0.610  -3.698  0.00  0.00     0.074 H 
ATOM     16  O   LIG d   1       7.983  -2.726  -3.934  0.00  0.00    -0.461 OA
ATOM     17  C   LIG d   1       7.514  -3.530  -4.917  0.00  0.00     0.312 C 
ATOM     18  O   LIG d   1       7.934  -4.732  -5.077  0.00  0.00    -0.251 OA
ATOM     19  H   LIG d   1       4.816  -0.475  -6.321  0.00  0.00     0.058 H 
ATOM     20  H   LIG d   1       4.193   2.390  -3.683  0.00  0.00     0.027 H 
ATOM     21  H   LIG d   1       2.422   2.201  -3.443  0.00  0.00     0.027 H 
ATOM     22  H   LIG d   1       3.740   1.979  -1.341  0.00  0.00     0.027 H 
ATOM     23  H   LIG d   1       2.789   0.505  -1.733  0.00  0.00     0.027 H 
ATOM     24  H   LIG d   1       5.759   0.942  -2.235  0.00  0.00     0.027 H 
ATOM     25  H   LIG d   1       5.019  -0.101  -0.974  0.00  0.00     0.027 H 
ATOM     26  H   LIG d   1       6.575  -1.723  -1.941  0.00  0.00     0.031 H 
ATOM     27  H   LIG d   1       5.703  -2.799  -3.084  0.00  0.00     0.031 H 
ENDROOT
BRANCH   1  28
ATOM     28  C   LIG d   1       6.609  -3.122  -7.130  0.00  0.00     0.013 C 
ATOM     29  H   LIG d   1       7.687  -3.292  -7.266  0.00  0.00     0.043 H 
ATOM     30  H   LIG d   1       6.306  -2.224  -7.689  0.00  0.00     0.043 H 
BRANCH  28  31
ATOM     31  N   LIG d   1       5.863  -4.284  -7.628  0.00  0.00    -0.299 N 
ATOM     32  C   LIG d   1       4.451  -4.216  -7.227  0.00  0.00     0.015 C 
ATOM     33  C   LIG d   1       3.751  -5.525  -7.606  0.00  0.00     0.031 C 
ATOM     34  H   LIG d   1       3.963  -3.376  -7.742  0.00  0.00     0.044 H 
ATOM     35  H   LIG d   1       4.385  -4.066  -6.139  0.00  0.00     0.044 H 
ATOM     36  N   LIG d   1       3.980  -5.779  -9.037  0.00  0.00    -0.265 N 
ATOM     37  H   LIG d   1       2.671  -5.442  -7.417  0.00  0.00     0.048 H 
ATOM     38  H   LIG d   1       4.164  -6.356  -7.016  0.00  0.00     0.048 H 
ATOM     39  C   LIG d   1       2.951  -6.052  -9.864  0.00  0.00     0.403 C 
ATOM     40  C   LIG d   1       5.360  -5.729  -9.541  0.00  0.00     0.031 C 
ATOM     41  O   LIG d   1       1.817  -6.090  -9.430  0.00  0.00    -0.226 OA
ATOM     42  C   LIG d   1       5.997  -4.411  -9.086  0.00  0.00     0.015 C 
ATOM     43  H   LIG d   1       5.930  -6.579  -9.138  0.00  0.00     0.048 H 
ATOM     44  H   LIG d   1       5.352  -5.781 -10.640  0.00  0.00     0.048 H 
ATOM     45  H   LIG d   1       5.488  -3.568  -9.575  0.00  0.00     0.044 H 
ATOM     46  H   LIG d   1       7.063  -4.403  -9.358  0.00  0.00     0.044 H 
BRANCH  39  47
ATOM     47  O   LIG d   1       3.180  -6.282 -11.171  0.00  0.00    -0.451 OA
BRANCH  47  48
ATOM     48  C   LIG d   1       2.071  -6.795 -11.954  0.00  0.00     0.091 C 
ATOM     49  H   LIG d   1       1.841  -6.092 -12.769  0.00  0.00     0.070 H 
ATOM     50  H   LIG d   1       1.187  -6.909 -11.307  0.00  0.00     0.070 H 
BRANCH  48  51
ATOM     51  C   LIG d   1       2.450  -8.154 -12.545  0.00  0.00    -0.030 C 
ATOM     52  H   LIG d   1       3.196  -8.639 -11.899  0.00  0.00     0.026 H 
ATOM     53  H   LIG d   1       2.873  -8.012 -13.550  0.00  0.00     0.026 H 
ATOM     54  H   LIG d   1       1.554  -8.788 -12.611  0.00  0.00     0.026 H 
ENDBRANCH  48  51
ENDBRANCH  47  48
ENDBRANCH  39  47
ENDBRANCH  28  31
ENDBRANCH   1  28
BRANCH  12  55
ATOM     55  C   LIG d   1       3.697  -1.742  -2.410  0.00  0.00    -0.056 C 
ATOM     56  H   LIG d   1       3.663  -1.725  -1.310  0.00  0.00     0.024 H 
ATOM     57  H   LIG d   1       3.847  -2.775  -2.756  0.00  0.00     0.024 H 
ATOM     58  H   LIG d   1       2.748  -1.355  -2.810  0.00  0.00     0.024 H 
ENDBRANCH  12  55
BRANCH   7  59
ATOM     59  C   LIG d   1       2.002  -0.112  -4.567  0.00  0.00    -0.059 C 
ATOM     60  H   LIG d   1       1.221   0.659  -4.502  0.00  0.00     0.024 H 
ATOM     61  H   LIG d   1       1.928  -0.784  -3.699  0.00  0.00     0.024 H 
ATOM     62  H   LIG d   1       1.868  -0.694  -5.492  0.00  0.00     0.024 H 
ENDBRANCH   7  59
TORSDOF 7
ENDMDL
MODEL 10
REMARK VINA RESULT:      -5.9      4.949      8.674
REMARK  7 active torsions:
REMARK  status: ('A' for Active; 'I' for Inactive)
REMARK    1  A    between atoms: C_1  and  C_2 
REMARK    2  A    between atoms: C_2  and  O_3 
REMARK    3  A    between atoms: O_3  and  C_4 
REMARK       I    between atoms: C_4  and  N_6 
REMARK    4  A    between atoms: N_9  and  C_12 
REMARK    5  A    between atoms: C_12  and  C_13 
REMARK    6  A    between atoms: C_19  and  C_32 
REMARK    7  A    between atoms: C_24  and  C_31 
ROOT
ATOM      1  C   LIG d   1       8.265  -0.172  -6.047  0.00  0.00     0.079 C 
ATOM      2  H   LIG d   1       7.410   0.448  -6.357  0.00  0.00     0.043 H 
ATOM      3  C   LIG d   1       8.141  -0.855  -4.701  0.00  0.00     0.029 C 
ATOM      4  H   LIG d   1       9.095  -0.894  -4.152  0.00  0.00     0.039 H 
ATOM      5  C   LIG d   1       7.103  -0.108  -3.819  0.00  0.00    -0.077 C 
ATOM      6  C   LIG d   1       5.974  -0.430  -3.596  0.00  0.00    -0.064 C 
ATOM      7  C   LIG d   1       5.214   0.367  -2.520  0.00  0.00    -0.022 C 
ATOM      8  H   LIG d   1       5.976   0.978  -2.013  0.00  0.00     0.034 H 
ATOM      9  C   LIG d   1       4.424  -0.672  -1.608  0.00  0.00    -0.047 C 
ATOM     10  C   LIG d   1       3.656  -1.738  -2.404  0.00  0.00    -0.052 C 
ATOM     11  C   LIG d   1       4.566  -2.466  -3.357  0.00  0.00    -0.044 C 
ATOM     12  C   LIG d   1       5.259  -1.587  -4.312  0.00  0.00    -0.007 C 
ATOM     13  C   LIG d   1       6.138  -2.191  -5.365  0.00  0.00    -0.006 C 
ATOM     14  C   LIG d   1       7.606  -2.226  -5.071  0.00  0.00     0.111 C 
ATOM     15  H   LIG d   1       7.789  -2.947  -4.261  0.00  0.00     0.074 H 
ATOM     16  O   LIG d   1       8.271  -2.581  -6.327  0.00  0.00    -0.461 OA
ATOM     17  C   LIG d   1       8.635  -1.408  -6.896  0.00  0.00     0.312 C 
ATOM     18  O   LIG d   1       9.099  -1.342  -8.091  0.00  0.00    -0.251 OA
ATOM     19  H   LIG d   1       7.511   0.812  -3.375  0.00  0.00     0.058 H 
ATOM     20  H   LIG d   1       5.134  -1.200  -0.954  0.00  0.00     0.027 H 
ATOM     21  H   LIG d   1       3.690  -0.133  -0.992  0.00  0.00     0.027 H 
ATOM     22  H   LIG d   1       3.218  -2.470  -1.709  0.00  0.00     0.027 H 
ATOM     23  H   LIG d   1       2.854  -1.257  -2.985  0.00  0.00     0.027 H 
ATOM     24  H   LIG d   1       5.340  -3.001  -2.788  0.00  0.00     0.027 H 
ATOM     25  H   LIG d   1       3.980  -3.187  -3.946  0.00  0.00     0.027 H 
ATOM     26  H   LIG d   1       5.841  -3.236  -5.535  0.00  0.00     0.031 H 
ATOM     27  H   LIG d   1       6.033  -1.623  -6.300  0.00  0.00     0.031 H 
ENDROOT
BRANCH   1  28
ATOM     28  C   LIG d   1       9.476   0.692  -6.021  0.00  0.00     0.013 C 
ATOM     29  H   LIG d   1      10.375   0.061  -5.970  0.00  0.00     0.043 H 
ATOM     30  H   LIG d   1       9.439   1.349  -5.139  0.00  0.00     0.043 H 
BRANCH  28  31
ATOM     31  N   LIG d   1       9.520   1.510  -7.240  0.00  0.00    -0.299 N 
ATOM     32  C   LIG d   1       8.180   1.992  -7.600  0.00  0.00     0.015 C 
ATOM     33  C   LIG d   1       8.239   2.683  -8.966  0.00  0.00     0.031 C 
ATOM     34  H   LIG d   1       7.831   2.708  -6.842  0.00  0.00     0.044 H 
ATOM     35  H   LIG d   1       7.484   1.141  -7.649  0.00  0.00     0.044 H 
ATOM     36  N   LIG d   1       9.281   3.719  -8.921  0.00  0.00    -0.265 N 
ATOM     37  H   LIG d   1       7.269   3.148  -9.194  0.00  0.00     0.048 H 
ATOM     38  H   LIG d   1       8.485   1.949  -9.748  0.00  0.00     0.048 H 
ATOM     39  C   LIG d   1       9.018   4.983  -9.311  0.00  0.00     0.403 C 
ATOM     40  C   LIG d   1      10.618   3.342  -8.439  0.00  0.00     0.031 C 
ATOM     41  O   LIG d   1       7.908   5.277  -9.707  0.00  0.00    -0.226 OA
ATOM     42  C   LIG d   1      10.466   2.624  -7.092  0.00  0.00     0.015 C 
ATOM     43  H   LIG d   1      11.095   2.672  -9.168  0.00  0.00     0.048 H 
ATOM     44  H   LIG d   1      11.232   4.245  -8.314  0.00  0.00     0.048 H 
ATOM     45  H   LIG d   1      10.085   3.331  -6.341  0.00  0.00     0.044 H 
ATOM     46  H   LIG d   1      11.443   2.236  -6.770  0.00  0.00     0.044 H 
BRANCH  39  47
ATOM     47  O   LIG d   1       9.985   5.918  -9.262  0.00  0.00    -0.451 OA
BRANCH  47  48
ATOM     48  C   LIG d   1       9.722   7.098  -8.459  0.00  0.00     0.091 C 
ATOM     49  H   LIG d   1       8.699   7.453  -8.653  0.00  0.00     0.070 H 
ATOM     50  H   LIG d   1      10.441   7.889  -8.723  0.00  0.00     0.070 H 
BRANCH  48  51
ATOM     51  C   LIG d   1       9.868   6.750  -6.976  0.00  0.00    -0.030 C 
ATOM     52  H   LIG d   1       8.967   7.071  -6.434  0.00  0.00     0.026 H 
ATOM     53  H   LIG d   1      10.747   7.266  -6.564  0.00  0.00     0.026 H 
ATOM     54  H   LIG d   1       9.996   5.664  -6.866  0.00  0.00     0.026 H 
ENDBRANCH  48  51
ENDBRANCH  47  48
ENDBRANCH  39  47
ENDBRANCH  28  31
ENDBRANCH   1  28
BRANCH  12  55
ATOM     55  C   LIG d   1       4.068  -0.949  -5.166  0.00  0.00    -0.056 C 
ATOM     56  H   LIG d   1       3.198  -1.621  -5.140  0.00  0.00     0.024 H 
ATOM     57  H   LIG d   1       4.396  -0.814  -6.209  0.00  0.00     0.024 H 
ATOM     58  H   LIG d   1       3.792   0.026  -4.740  0.00  0.00     0.024 H 
ENDBRANCH  12  55
BRANCH   7  59
ATOM     59  C   LIG d   1       4.248   1.405  -3.021  0.00  0.00    -0.059 C 
ATOM     60  H   LIG d   1       4.666   1.897  -3.911  0.00  0.00     0.024 H 
ATOM     61  H   LIG d   1       4.075   2.155  -2.234  0.00  0.00     0.024 H 
ATOM     62  H   LIG d   1       3.294   0.923  -3.282  0.00  0.00     0.024 H 
ENDBRANCH   7  59
TORSDOF 7
ENDMDL
