MODEL 1
REMARK VINA RESULT:      -6.5      0.000      0.000
REMARK  11 active torsions:
REMARK  status: ('A' for Active; 'I' for Inactive)
REMARK    1  A    between atoms: C_1  and  O_2 
REMARK    2  A    between atoms: O_2  and  C_3 
REMARK    3  A    between atoms: C_7  and  O_9 
REMARK    4  A    between atoms: O_9  and  C_10 
REMARK    5  A    between atoms: C_10  and  C_11 
REMARK    6  A    between atoms: C_11  and  C_14 
REMARK    7  A    between atoms: N_12  and  O_13 
REMARK    8  A    between atoms: C_17  and  O_21 
REMARK    9  A    between atoms: C_19  and  O_20 
REMARK   10  A    between atoms: O_21  and  C_22 
REMARK   11  A    between atoms: C_22  and  C_23 
REMARK       I    between atoms: C_23  and  N_25 
ROOT
ATOM      1  C   LIG d   1       9.126   2.213  -4.154  0.00  0.00     0.128 C 
ATOM      2  N   LIG d   1      10.035   1.326  -4.400  0.00  0.00    -0.088 NA
ENDROOT
BRANCH   1   3
ATOM      3  C   LIG d   1       7.670   1.825  -4.170  0.00  0.00     0.135 C 
ATOM      4  H   LIG d   1       7.392   1.503  -5.174  0.00  0.00     0.076 H 
ATOM      5  H   LIG d   1       7.062   2.682  -3.883  0.00  0.00     0.076 H 
BRANCH   3   6
ATOM      6  O   LIG d   1       7.453   0.755  -3.249  0.00  0.00    -0.486 OA
BRANCH   6   7
ATOM      7  C   LIG d   1       6.164   0.378  -3.036  0.00  0.00     0.124 A 
ATOM      8  C   LIG d   1       5.271   1.260  -2.446  0.00  0.00    -0.020 A 
ATOM      9  C   LIG d   1       3.961   0.877  -2.229  0.00  0.00    -0.055 A 
ATOM     10  H   LIG d   1       5.599   2.248  -2.157  0.00  0.00     0.065 H 
ATOM     11  C   LIG d   1       3.538  -0.386  -2.597  0.00  0.00    -0.020 A 
ATOM     12  H   LIG d   1       3.267   1.565  -1.770  0.00  0.00     0.062 H 
ATOM     13  C   LIG d   1       4.428  -1.273  -3.187  0.00  0.00     0.124 A 
ATOM     14  H   LIG d   1       2.514  -0.682  -2.427  0.00  0.00     0.065 H 
ATOM     15  C   LIG d   1       5.743  -0.892  -3.400  0.00  0.00     0.022 A 
ATOM     16  H   LIG d   1       6.439  -1.582  -3.855  0.00  0.00     0.069 H 
BRANCH  13  17
ATOM     17  O   LIG d   1       4.011  -2.514  -3.549  0.00  0.00    -0.495 OA
BRANCH  17  18
ATOM     18  C   LIG d   1       4.875  -3.264  -4.406  0.00  0.00     0.079 C 
ATOM     19  H   LIG d   1       4.342  -3.526  -5.320  0.00  0.00     0.066 H 
ATOM     20  H   LIG d   1       5.749  -2.663  -4.657  0.00  0.00     0.066 H 
ATOM     21  H   LIG d   1       5.192  -4.173  -3.896  0.00  0.00     0.066 H 
ENDBRANCH  17  18
ENDBRANCH  13  17
ENDBRANCH   6   7
ENDBRANCH   3   6
ENDBRANCH   1   3
BRANCH   1  22
ATOM     22  C   LIG d   1       9.515   3.604  -3.859  0.00  0.00     0.044 A 
ATOM     23  C   LIG d   1      10.334   3.887  -2.757  0.00  0.00     0.129 A 
ATOM     24  C   LIG d   1      10.700   5.196  -2.490  0.00  0.00     0.022 A 
ATOM     25  C   LIG d   1      10.245   6.223  -3.303  0.00  0.00     0.125 A 
ATOM     26  H   LIG d   1      11.336   5.417  -1.646  0.00  0.00     0.069 H 
ATOM     27  C   LIG d   1       9.427   5.945  -4.393  0.00  0.00    -0.019 A 
ATOM     28  C   LIG d   1       9.062   4.647  -4.673  0.00  0.00    -0.046 A 
ATOM     29  H   LIG d   1       9.077   6.750  -5.022  0.00  0.00     0.065 H 
ATOM     30  H   LIG d   1       8.428   4.434  -5.520  0.00  0.00     0.063 H 
BRANCH  23  31
ATOM     31  O   LIG d   1      10.773   2.881  -1.958  0.00  0.00    -0.506 OA
ATOM     32  H   LIG d   1      11.734   2.846  -1.862  0.00  0.00     0.292 HD
ENDBRANCH  23  31
BRANCH  25  33
ATOM     33  O   LIG d   1      10.601   7.506  -3.035  0.00  0.00    -0.483 OA
BRANCH  33  34
ATOM     34  C   LIG d   1      10.601   7.906  -1.663  0.00  0.00     0.165 C 
ATOM     35  H   LIG d   1      10.800   7.039  -1.032  0.00  0.00     0.080 H 
ATOM     36  H   LIG d   1      11.374   8.657  -1.503  0.00  0.00     0.080 H 
BRANCH  34  37
ATOM     37  C   LIG d   1       9.256   8.485  -1.310  0.00  0.00     0.248 C 
ATOM     38  O   LIG d   1       8.407   7.783  -0.802  0.00  0.00    -0.272 OA
ATOM     39  N   LIG d   1       8.996   9.784  -1.558  0.00  0.00    -0.327 N 
ATOM     40  H   LIG d   1       9.674  10.346  -1.964  0.00  0.00     0.145 HD
ATOM     41  H   LIG d   1       8.130  10.158  -1.331  0.00  0.00     0.145 HD
ENDBRANCH  34  37
ENDBRANCH  33  34
ENDBRANCH  25  33
ENDBRANCH   1  22
BRANCH   2  42
ATOM     42  O   LIG d   1       9.662  -0.010  -4.684  0.00  0.00    -0.409 OA
ATOM     43  H   LIG d   1       9.768  -0.259  -5.612  0.00  0.00     0.328 HD
ENDBRANCH   2  42
TORSDOF 11
ENDMDL
MODEL 2
REMARK VINA RESULT:      -6.3      4.776      8.231
REMARK  11 active torsions:
REMARK  status: ('A' for Active; 'I' for Inactive)
REMARK    1  A    between atoms: C_1  and  O_2 
REMARK    2  A    between atoms: O_2  and  C_3 
REMARK    3  A    between atoms: C_7  and  O_9 
REMARK    4  A    between atoms: O_9  and  C_10 
REMARK    5  A    between atoms: C_10  and  C_11 
REMARK    6  A    between atoms: C_11  and  C_14 
REMARK    7  A    between atoms: N_12  and  O_13 
REMARK    8  A    between atoms: C_17  and  O_21 
REMARK    9  A    between atoms: C_19  and  O_20 
REMARK   10  A    between atoms: O_21  and  C_22 
REMARK   11  A    between atoms: C_22  and  C_23 
REMARK       I    between atoms: C_23  and  N_25 
ROOT
ATOM      1  C   LIG d   1       5.338  -3.055  -5.910  0.00  0.00     0.128 C 
ATOM      2  N   LIG d   1       6.379  -3.612  -6.439  0.00  0.00    -0.088 NA
ENDROOT
BRANCH   1   3
ATOM      3  C   LIG d   1       4.957  -3.368  -4.486  0.00  0.00     0.135 C 
ATOM      4  H   LIG d   1       4.964  -4.448  -4.337  0.00  0.00     0.076 H 
ATOM      5  H   LIG d   1       3.959  -2.980  -4.283  0.00  0.00     0.076 H 
BRANCH   3   6
ATOM      6  O   LIG d   1       5.896  -2.759  -3.597  0.00  0.00    -0.486 OA
BRANCH   6   7
ATOM      7  C   LIG d   1       5.582  -1.526  -3.120  0.00  0.00     0.124 A 
ATOM      8  C   LIG d   1       4.494  -1.363  -2.274  0.00  0.00    -0.020 A 
ATOM      9  C   LIG d   1       4.176  -0.109  -1.788  0.00  0.00    -0.055 A 
ATOM     10  H   LIG d   1       3.897  -2.219  -1.994  0.00  0.00     0.065 H 
ATOM     11  C   LIG d   1       4.937   0.986  -2.145  0.00  0.00    -0.020 A 
ATOM     12  H   LIG d   1       3.328   0.015  -1.130  0.00  0.00     0.062 H 
ATOM     13  C   LIG d   1       6.027   0.830  -2.991  0.00  0.00     0.124 A 
ATOM     14  H   LIG d   1       4.687   1.965  -1.764  0.00  0.00     0.065 H 
ATOM     15  C   LIG d   1       6.345  -0.426  -3.484  0.00  0.00     0.022 A 
ATOM     16  H   LIG d   1       7.189  -0.550  -4.146  0.00  0.00     0.069 H 
BRANCH  13  17
ATOM     17  O   LIG d   1       6.777   1.907  -3.341  0.00  0.00    -0.495 OA
BRANCH  17  18
ATOM     18  C   LIG d   1       7.962   1.655  -4.098  0.00  0.00     0.079 C 
ATOM     19  H   LIG d   1       7.759   0.889  -4.846  0.00  0.00     0.066 H 
ATOM     20  H   LIG d   1       8.278   2.572  -4.595  0.00  0.00     0.066 H 
ATOM     21  H   LIG d   1       8.752   1.312  -3.431  0.00  0.00     0.066 H 
ENDBRANCH  17  18
ENDBRANCH  13  17
ENDBRANCH   6   7
ENDBRANCH   3   6
ENDBRANCH   1   3
BRANCH   1  22
ATOM     22  C   LIG d   1       4.524  -2.115  -6.701  0.00  0.00     0.044 A 
ATOM     23  C   LIG d   1       4.080  -2.473  -7.982  0.00  0.00     0.129 A 
ATOM     24  C   LIG d   1       3.310  -1.586  -8.716  0.00  0.00     0.022 A 
ATOM     25  C   LIG d   1       2.992  -0.343  -8.190  0.00  0.00     0.125 A 
ATOM     26  H   LIG d   1       2.962  -1.861  -9.700  0.00  0.00     0.069 H 
ATOM     27  C   LIG d   1       3.436   0.016  -6.922  0.00  0.00    -0.019 A 
ATOM     28  C   LIG d   1       4.197  -0.859  -6.179  0.00  0.00    -0.046 A 
ATOM     29  H   LIG d   1       3.184   0.986  -6.518  0.00  0.00     0.065 H 
ATOM     30  H   LIG d   1       4.540  -0.577  -5.195  0.00  0.00     0.063 H 
BRANCH  23  31
ATOM     31  O   LIG d   1       4.398  -3.688  -8.498  0.00  0.00    -0.506 OA
ATOM     32  H   LIG d   1       4.591  -4.360  -7.830  0.00  0.00     0.292 HD
ENDBRANCH  23  31
BRANCH  25  33
ATOM     33  O   LIG d   1       2.241   0.526  -8.915  0.00  0.00    -0.483 OA
BRANCH  33  34
ATOM     34  C   LIG d   1       2.695   1.880  -8.977  0.00  0.00     0.165 C 
ATOM     35  H   LIG d   1       1.902   2.510  -9.381  0.00  0.00     0.080 H 
ATOM     36  H   LIG d   1       2.956   2.222  -7.976  0.00  0.00     0.080 H 
BRANCH  34  37
ATOM     37  C   LIG d   1       3.906   1.962  -9.869  0.00  0.00     0.248 C 
ATOM     38  O   LIG d   1       4.883   2.585  -9.510  0.00  0.00    -0.272 OA
ATOM     39  N   LIG d   1       3.904   1.345 -11.067  0.00  0.00    -0.327 N 
ATOM     40  H   LIG d   1       3.122   0.848 -11.355  0.00  0.00     0.145 HD
ATOM     41  H   LIG d   1       4.683   1.398 -11.643  0.00  0.00     0.145 HD
ENDBRANCH  34  37
ENDBRANCH  33  34
ENDBRANCH  25  33
ENDBRANCH   1  22
BRANCH   2  42
ATOM     42  O   LIG d   1       7.161  -4.516  -5.679  0.00  0.00    -0.409 OA
ATOM     43  H   LIG d   1       7.452  -5.295  -6.172  0.00  0.00     0.328 HD
ENDBRANCH   2  42
TORSDOF 11
ENDMDL
MODEL 3
REMARK VINA RESULT:      -6.1      1.261      1.803
REMARK  11 active torsions:
REMARK  status: ('A' for Active; 'I' for Inactive)
REMARK    1  A    between atoms: C_1  and  O_2 
REMARK    2  A    between atoms: O_2  and  C_3 
REMARK    3  A    between atoms: C_7  and  O_9 
REMARK    4  A    between atoms: O_9  and  C_10 
REMARK    5  A    between atoms: C_10  and  C_11 
REMARK    6  A    between atoms: C_11  and  C_14 
REMARK    7  A    between atoms: N_12  and  O_13 
REMARK    8  A    between atoms: C_17  and  O_21 
REMARK    9  A    between atoms: C_19  and  O_20 
REMARK   10  A    between atoms: O_21  and  C_22 
REMARK   11  A    between atoms: C_22  and  C_23 
REMARK       I    between atoms: C_23  and  N_25 
ROOT
ATOM      1  C   LIG d   1       9.844   2.722  -3.988  0.00  0.00     0.128 C 
ATOM      2  N   LIG d   1      10.920   2.015  -3.858  0.00  0.00    -0.088 NA
ENDROOT
BRANCH   1   3
ATOM      3  C   LIG d   1       8.595   2.095  -4.552  0.00  0.00     0.135 C 
ATOM      4  H   LIG d   1       8.819   1.084  -4.896  0.00  0.00     0.076 H 
ATOM      5  H   LIG d   1       8.234   2.692  -5.390  0.00  0.00     0.076 H 
BRANCH   3   6
ATOM      6  O   LIG d   1       7.590   2.041  -3.537  0.00  0.00    -0.486 OA
BRANCH   6   7
ATOM      7  C   LIG d   1       6.914   0.869  -3.401  0.00  0.00     0.124 A 
ATOM      8  C   LIG d   1       7.507  -0.324  -3.787  0.00  0.00    -0.020 A 
ATOM      9  C   LIG d   1       6.820  -1.515  -3.648  0.00  0.00    -0.055 A 
ATOM     10  H   LIG d   1       8.507  -0.322  -4.196  0.00  0.00     0.065 H 
ATOM     11  C   LIG d   1       5.542  -1.521  -3.126  0.00  0.00    -0.020 A 
ATOM     12  H   LIG d   1       7.284  -2.443  -3.950  0.00  0.00     0.062 H 
ATOM     13  C   LIG d   1       4.944  -0.330  -2.737  0.00  0.00     0.124 A 
ATOM     14  H   LIG d   1       5.008  -2.453  -3.017  0.00  0.00     0.065 H 
ATOM     15  C   LIG d   1       5.629   0.866  -2.881  0.00  0.00     0.022 A 
ATOM     16  H   LIG d   1       5.164   1.795  -2.584  0.00  0.00     0.069 H 
BRANCH  13  17
ATOM     17  O   LIG d   1       3.687  -0.337  -2.222  0.00  0.00    -0.495 OA
BRANCH  17  18
ATOM     18  C   LIG d   1       2.630  -0.740  -3.095  0.00  0.00     0.079 C 
ATOM     19  H   LIG d   1       1.769  -0.088  -2.949  0.00  0.00     0.066 H 
ATOM     20  H   LIG d   1       2.966  -0.669  -4.130  0.00  0.00     0.066 H 
ATOM     21  H   LIG d   1       2.348  -1.769  -2.874  0.00  0.00     0.066 H 
ENDBRANCH  17  18
ENDBRANCH  13  17
ENDBRANCH   6   7
ENDBRANCH   3   6
ENDBRANCH   1   3
BRANCH   1  22
ATOM     22  C   LIG d   1       9.840   4.139  -3.586  0.00  0.00     0.044 A 
ATOM     23  C   LIG d   1      10.396   4.525  -2.358  0.00  0.00     0.129 A 
ATOM     24  C   LIG d   1      10.395   5.860  -1.991  0.00  0.00     0.022 A 
ATOM     25  C   LIG d   1       9.832   6.810  -2.829  0.00  0.00     0.125 A 
ATOM     26  H   LIG d   1      10.827   6.160  -1.048  0.00  0.00     0.069 H 
ATOM     27  C   LIG d   1       9.274   6.429  -4.045  0.00  0.00    -0.019 A 
ATOM     28  C   LIG d   1       9.276   5.105  -4.425  0.00  0.00    -0.046 A 
ATOM     29  H   LIG d   1       8.838   7.174  -4.694  0.00  0.00     0.065 H 
ATOM     30  H   LIG d   1       8.843   4.813  -5.370  0.00  0.00     0.063 H 
BRANCH  23  31
ATOM     31  O   LIG d   1      10.941   3.592  -1.535  0.00  0.00    -0.506 OA
ATOM     32  H   LIG d   1      11.906   3.551  -1.571  0.00  0.00     0.292 HD
ENDBRANCH  23  31
BRANCH  25  33
ATOM     33  O   LIG d   1       9.827   8.117  -2.463  0.00  0.00    -0.483 OA
BRANCH  33  34
ATOM     34  C   LIG d   1      10.029   8.404  -1.078  0.00  0.00     0.165 C 
ATOM     35  H   LIG d   1       9.619   7.591  -0.476  0.00  0.00     0.080 H 
ATOM     36  H   LIG d   1      11.095   8.502  -0.878  0.00  0.00     0.080 H 
BRANCH  34  37
ATOM     37  C   LIG d   1       9.330   9.691  -0.725  0.00  0.00     0.248 C 
ATOM     38  O   LIG d   1       9.664  10.312   0.262  0.00  0.00    -0.272 OA
ATOM     39  N   LIG d   1       8.334  10.153  -1.506  0.00  0.00    -0.327 N 
ATOM     40  H   LIG d   1       8.066   9.657  -2.295  0.00  0.00     0.145 HD
ATOM     41  H   LIG d   1       7.884  10.982  -1.279  0.00  0.00     0.145 HD
ENDBRANCH  34  37
ENDBRANCH  33  34
ENDBRANCH  25  33
ENDBRANCH   1  22
BRANCH   2  42
ATOM     42  O   LIG d   1      10.924   0.653  -4.244  0.00  0.00    -0.409 OA
ATOM     43  H   LIG d   1      10.292   0.105  -3.760  0.00  0.00     0.328 HD
ENDBRANCH   2  42
TORSDOF 11
ENDMDL
MODEL 4
REMARK VINA RESULT:      -5.8      5.165     11.587
REMARK  11 active torsions:
REMARK  status: ('A' for Active; 'I' for Inactive)
REMARK    1  A    between atoms: C_1  and  O_2 
REMARK    2  A    between atoms: O_2  and  C_3 
REMARK    3  A    between atoms: C_7  and  O_9 
REMARK    4  A    between atoms: O_9  and  C_10 
REMARK    5  A    between atoms: C_10  and  C_11 
REMARK    6  A    between atoms: C_11  and  C_14 
REMARK    7  A    between atoms: N_12  and  O_13 
REMARK    8  A    between atoms: C_17  and  O_21 
REMARK    9  A    between atoms: C_19  and  O_20 
REMARK   10  A    between atoms: O_21  and  C_22 
REMARK   11  A    between atoms: C_22  and  C_23 
REMARK       I    between atoms: C_23  and  N_25 
ROOT
ATOM      1  C   LIG d   1       6.382  -4.754  -5.870  0.00  0.00     0.128 C 
ATOM      2  N   LIG d   1       7.297  -4.357  -6.694  0.00  0.00    -0.088 NA
ENDROOT
BRANCH   1   3
ATOM      3  C   LIG d   1       5.536  -3.744  -5.138  0.00  0.00     0.135 C 
ATOM      4  H   LIG d   1       4.713  -4.254  -4.637  0.00  0.00     0.076 H 
ATOM      5  H   LIG d   1       5.135  -3.021  -5.850  0.00  0.00     0.076 H 
BRANCH   3   6
ATOM      6  O   LIG d   1       6.337  -3.065  -4.169  0.00  0.00    -0.486 OA
BRANCH   6   7
ATOM      7  C   LIG d   1       5.769  -2.008  -3.531  0.00  0.00     0.124 A 
ATOM      8  C   LIG d   1       4.587  -2.176  -2.824  0.00  0.00    -0.020 A 
ATOM      9  C   LIG d   1       4.009  -1.100  -2.176  0.00  0.00    -0.055 A 
ATOM     10  H   LIG d   1       4.118  -3.148  -2.780  0.00  0.00     0.065 H 
ATOM     11  C   LIG d   1       4.606   0.144  -2.230  0.00  0.00    -0.020 A 
ATOM     12  H   LIG d   1       3.089  -1.233  -1.626  0.00  0.00     0.062 H 
ATOM     13  C   LIG d   1       5.789   0.318  -2.936  0.00  0.00     0.124 A 
ATOM     14  H   LIG d   1       4.153   0.982  -1.722  0.00  0.00     0.065 H 
ATOM     15  C   LIG d   1       6.366  -0.758  -3.592  0.00  0.00     0.022 A 
ATOM     16  H   LIG d   1       7.284  -0.625  -4.146  0.00  0.00     0.069 H 
BRANCH  13  17
ATOM     17  O   LIG d   1       6.376   1.542  -2.989  0.00  0.00    -0.495 OA
BRANCH  17  18
ATOM     18  C   LIG d   1       7.547   1.665  -3.798  0.00  0.00     0.079 C 
ATOM     19  H   LIG d   1       7.304   2.212  -4.708  0.00  0.00     0.066 H 
ATOM     20  H   LIG d   1       8.316   2.205  -3.245  0.00  0.00     0.066 H 
ATOM     21  H   LIG d   1       7.915   0.672  -4.058  0.00  0.00     0.066 H 
ENDBRANCH  17  18
ENDBRANCH  13  17
ENDBRANCH   6   7
ENDBRANCH   3   6
ENDBRANCH   1   3
BRANCH   1  22
ATOM     22  C   LIG d   1       6.166  -6.194  -5.647  0.00  0.00     0.044 A 
ATOM     23  C   LIG d   1       7.165  -6.970  -5.040  0.00  0.00     0.129 A 
ATOM     24  C   LIG d   1       6.953  -8.322  -4.828  0.00  0.00     0.022 A 
ATOM     25  C   LIG d   1       5.761  -8.908  -5.227  0.00  0.00     0.125 A 
ATOM     26  H   LIG d   1       7.718  -8.920  -4.357  0.00  0.00     0.069 H 
ATOM     27  C   LIG d   1       4.772  -8.142  -5.833  0.00  0.00    -0.019 A 
ATOM     28  C   LIG d   1       4.968  -6.795  -6.044  0.00  0.00    -0.046 A 
ATOM     29  H   LIG d   1       3.845  -8.605  -6.141  0.00  0.00     0.065 H 
ATOM     30  H   LIG d   1       4.197  -6.203  -6.514  0.00  0.00     0.063 H 
BRANCH  23  31
ATOM     31  O   LIG d   1       8.335  -6.395  -4.657  0.00  0.00    -0.506 OA
ATOM     32  H   LIG d   1       9.076  -7.013  -4.602  0.00  0.00     0.292 HD
ENDBRANCH  23  31
BRANCH  25  33
ATOM     33  O   LIG d   1       5.559 -10.235  -5.022  0.00  0.00    -0.483 OA
BRANCH  33  34
ATOM     34  C   LIG d   1       4.207 -10.666  -4.847  0.00  0.00     0.165 C 
ATOM     35  H   LIG d   1       3.556 -10.099  -5.515  0.00  0.00     0.080 H 
ATOM     36  H   LIG d   1       4.130 -11.727  -5.079  0.00  0.00     0.080 H 
BRANCH  34  37
ATOM     37  C   LIG d   1       3.787 -10.431  -3.419  0.00  0.00     0.248 C 
ATOM     38  O   LIG d   1       2.781  -9.797  -3.179  0.00  0.00    -0.272 OA
ATOM     39  N   LIG d   1       4.529 -10.926  -2.409  0.00  0.00    -0.327 N 
ATOM     40  H   LIG d   1       5.334 -11.433  -2.601  0.00  0.00     0.145 HD
ATOM     41  H   LIG d   1       4.259 -10.775  -1.489  0.00  0.00     0.145 HD
ENDBRANCH  34  37
ENDBRANCH  33  34
ENDBRANCH  25  33
ENDBRANCH   1  22
BRANCH   2  42
ATOM     42  O   LIG d   1       7.504  -2.972  -6.908  0.00  0.00    -0.409 OA
ATOM     43  H   LIG d   1       6.929  -2.402  -6.380  0.00  0.00     0.328 HD
ENDBRANCH   2  42
TORSDOF 11
ENDMDL
MODEL 5
REMARK VINA RESULT:      -5.7      6.388      8.511
REMARK  11 active torsions:
REMARK  status: ('A' for Active; 'I' for Inactive)
REMARK    1  A    between atoms: C_1  and  O_2 
REMARK    2  A    between atoms: O_2  and  C_3 
REMARK    3  A    between atoms: C_7  and  O_9 
REMARK    4  A    between atoms: O_9  and  C_10 
REMARK    5  A    between atoms: C_10  and  C_11 
REMARK    6  A    between atoms: C_11  and  C_14 
REMARK    7  A    between atoms: N_12  and  O_13 
REMARK    8  A    between atoms: C_17  and  O_21 
REMARK    9  A    between atoms: C_19  and  O_20 
REMARK   10  A    between atoms: O_21  and  C_22 
REMARK   11  A    between atoms: C_22  and  C_23 
REMARK       I    between atoms: C_23  and  N_25 
ROOT
ATOM      1  C   LIG d   1       3.614   0.448  -7.124  0.00  0.00     0.128 C 
ATOM      2  N   LIG d   1       3.773   1.429  -7.952  0.00  0.00    -0.088 NA
ENDROOT
BRANCH   1   3
ATOM      3  C   LIG d   1       2.424   0.428  -6.199  0.00  0.00     0.135 C 
ATOM      4  H   LIG d   1       2.244  -0.594  -5.862  0.00  0.00     0.076 H 
ATOM      5  H   LIG d   1       1.545   0.794  -6.730  0.00  0.00     0.076 H 
BRANCH   3   6
ATOM      6  O   LIG d   1       2.684   1.263  -5.070  0.00  0.00    -0.486 OA
BRANCH   6   7
ATOM      7  C   LIG d   1       3.236   0.671  -3.979  0.00  0.00     0.124 A 
ATOM      8  C   LIG d   1       3.728   1.448  -2.940  0.00  0.00    -0.020 A 
ATOM      9  C   LIG d   1       4.290   0.845  -1.830  0.00  0.00    -0.055 A 
ATOM     10  H   LIG d   1       3.672   2.525  -2.999  0.00  0.00     0.065 H 
ATOM     11  C   LIG d   1       4.363  -0.532  -1.752  0.00  0.00    -0.020 A 
ATOM     12  H   LIG d   1       4.672   1.452  -1.023  0.00  0.00     0.062 H 
ATOM     13  C   LIG d   1       3.872  -1.315  -2.788  0.00  0.00     0.124 A 
ATOM     14  H   LIG d   1       4.801  -1.000  -0.884  0.00  0.00     0.065 H 
ATOM     15  C   LIG d   1       3.314  -0.712  -3.905  0.00  0.00     0.022 A 
ATOM     16  H   LIG d   1       2.935  -1.319  -4.715  0.00  0.00     0.069 H 
BRANCH  13  17
ATOM     17  O   LIG d   1       3.944  -2.669  -2.711  0.00  0.00    -0.495 OA
BRANCH  17  18
ATOM     18  C   LIG d   1       4.507  -3.354  -3.831  0.00  0.00     0.079 C 
ATOM     19  H   LIG d   1       4.073  -2.963  -4.751  0.00  0.00     0.066 H 
ATOM     20  H   LIG d   1       5.586  -3.202  -3.845  0.00  0.00     0.066 H 
ATOM     21  H   LIG d   1       4.290  -4.419  -3.752  0.00  0.00     0.066 H 
ENDBRANCH  17  18
ENDBRANCH  13  17
ENDBRANCH   6   7
ENDBRANCH   3   6
ENDBRANCH   1   3
BRANCH   1  22
ATOM     22  C   LIG d   1       4.597  -0.649  -7.084  0.00  0.00     0.044 A 
ATOM     23  C   LIG d   1       4.299  -1.884  -7.678  0.00  0.00     0.129 A 
ATOM     24  C   LIG d   1       5.230  -2.908  -7.642  0.00  0.00     0.022 A 
ATOM     25  C   LIG d   1       6.448  -2.716  -7.007  0.00  0.00     0.125 A 
ATOM     26  H   LIG d   1       5.005  -3.858  -8.103  0.00  0.00     0.069 H 
ATOM     27  C   LIG d   1       6.743  -1.494  -6.412  0.00  0.00    -0.019 A 
ATOM     28  C   LIG d   1       5.828  -0.465  -6.447  0.00  0.00    -0.046 A 
ATOM     29  H   LIG d   1       7.695  -1.351  -5.920  0.00  0.00     0.065 H 
ATOM     30  H   LIG d   1       6.061   0.482  -5.985  0.00  0.00     0.063 H 
BRANCH  23  31
ATOM     31  O   LIG d   1       3.102  -2.072  -8.293  0.00  0.00    -0.506 OA
ATOM     32  H   LIG d   1       3.126  -1.936  -9.249  0.00  0.00     0.292 HD
ENDBRANCH  23  31
BRANCH  25  33
ATOM     33  O   LIG d   1       7.357  -3.724  -6.969  0.00  0.00    -0.483 OA
BRANCH  33  34
ATOM     34  C   LIG d   1       7.002  -4.888  -6.220  0.00  0.00     0.165 C 
ATOM     35  H   LIG d   1       5.966  -4.807  -5.890  0.00  0.00     0.080 H 
ATOM     36  H   LIG d   1       7.115  -5.772  -6.846  0.00  0.00     0.080 H 
BRANCH  34  37
ATOM     37  C   LIG d   1       7.903  -5.005  -5.018  0.00  0.00     0.248 C 
ATOM     38  O   LIG d   1       8.081  -4.046  -4.297  0.00  0.00    -0.272 OA
ATOM     39  N   LIG d   1       8.512  -6.176  -4.744  0.00  0.00    -0.327 N 
ATOM     40  H   LIG d   1       8.370  -6.943  -5.320  0.00  0.00     0.145 HD
ATOM     41  H   LIG d   1       9.092  -6.252  -3.970  0.00  0.00     0.145 HD
ENDBRANCH  34  37
ENDBRANCH  33  34
ENDBRANCH  25  33
ENDBRANCH   1  22
BRANCH   2  42
ATOM     42  O   LIG d   1       2.829   2.484  -7.990  0.00  0.00    -0.409 OA
ATOM     43  H   LIG d   1       2.811   2.966  -8.828  0.00  0.00     0.328 HD
ENDBRANCH   2  42
TORSDOF 11
ENDMDL
MODEL 6
REMARK VINA RESULT:      -5.7      5.174     11.599
REMARK  11 active torsions:
REMARK  status: ('A' for Active; 'I' for Inactive)
REMARK    1  A    between atoms: C_1  and  O_2 
REMARK    2  A    between atoms: O_2  and  C_3 
REMARK    3  A    between atoms: C_7  and  O_9 
REMARK    4  A    between atoms: O_9  and  C_10 
REMARK    5  A    between atoms: C_10  and  C_11 
REMARK    6  A    between atoms: C_11  and  C_14 
REMARK    7  A    between atoms: N_12  and  O_13 
REMARK    8  A    between atoms: C_17  and  O_21 
REMARK    9  A    between atoms: C_19  and  O_20 
REMARK   10  A    between atoms: O_21  and  C_22 
REMARK   11  A    between atoms: C_22  and  C_23 
REMARK       I    between atoms: C_23  and  N_25 
ROOT
ATOM      1  C   LIG d   1       6.106  -4.036  -5.781  0.00  0.00     0.128 C 
ATOM      2  N   LIG d   1       6.076  -3.537  -6.975  0.00  0.00    -0.088 NA
ENDROOT
BRANCH   1   3
ATOM      3  C   LIG d   1       6.205  -3.124  -4.585  0.00  0.00     0.135 C 
ATOM      4  H   LIG d   1       6.595  -2.155  -4.899  0.00  0.00     0.076 H 
ATOM      5  H   LIG d   1       6.876  -3.563  -3.847  0.00  0.00     0.076 H 
BRANCH   3   6
ATOM      6  O   LIG d   1       4.909  -2.951  -4.010  0.00  0.00    -0.486 OA
BRANCH   6   7
ATOM      7  C   LIG d   1       4.605  -1.715  -3.533  0.00  0.00     0.124 A 
ATOM      8  C   LIG d   1       3.345  -1.461  -3.011  0.00  0.00    -0.020 A 
ATOM      9  C   LIG d   1       3.037  -0.204  -2.526  0.00  0.00    -0.055 A 
ATOM     10  H   LIG d   1       2.605  -2.247  -2.983  0.00  0.00     0.065 H 
ATOM     11  C   LIG d   1       3.981   0.803  -2.561  0.00  0.00    -0.020 A 
ATOM     12  H   LIG d   1       2.055  -0.009  -2.120  0.00  0.00     0.062 H 
ATOM     13  C   LIG d   1       5.244   0.555  -3.082  0.00  0.00     0.124 A 
ATOM     14  H   LIG d   1       3.739   1.784  -2.181  0.00  0.00     0.065 H 
ATOM     15  C   LIG d   1       5.553  -0.704  -3.574  0.00  0.00     0.022 A 
ATOM     16  H   LIG d   1       6.534  -0.898  -3.985  0.00  0.00     0.069 H 
BRANCH  13  17
ATOM     17  O   LIG d   1       6.173   1.545  -3.116  0.00  0.00    -0.495 OA
BRANCH  17  18
ATOM     18  C   LIG d   1       7.390   1.271  -3.813  0.00  0.00     0.079 C 
ATOM     19  H   LIG d   1       8.186   1.084  -3.094  0.00  0.00     0.066 H 
ATOM     20  H   LIG d   1       7.256   0.392  -4.444  0.00  0.00     0.066 H 
ATOM     21  H   LIG d   1       7.653   2.127  -4.434  0.00  0.00     0.066 H 
ENDBRANCH  17  18
ENDBRANCH  13  17
ENDBRANCH   6   7
ENDBRANCH   3   6
ENDBRANCH   1   3
BRANCH   1  22
ATOM     22  C   LIG d   1       6.044  -5.496  -5.591  0.00  0.00     0.044 A 
ATOM     23  C   LIG d   1       4.806  -6.154  -5.590  0.00  0.00     0.129 A 
ATOM     24  C   LIG d   1       4.757  -7.527  -5.417  0.00  0.00     0.022 A 
ATOM     25  C   LIG d   1       5.928  -8.245  -5.231  0.00  0.00     0.125 A 
ATOM     26  H   LIG d   1       3.805  -8.037  -5.422  0.00  0.00     0.069 H 
ATOM     27  C   LIG d   1       7.157  -7.594  -5.225  0.00  0.00    -0.019 A 
ATOM     28  C   LIG d   1       7.220  -6.230  -5.403  0.00  0.00    -0.046 A 
ATOM     29  H   LIG d   1       8.065  -8.160  -5.080  0.00  0.00     0.065 H 
ATOM     30  H   LIG d   1       8.175  -5.727  -5.399  0.00  0.00     0.063 H 
BRANCH  23  31
ATOM     31  O   LIG d   1       3.659  -5.448  -5.766  0.00  0.00    -0.506 OA
ATOM     32  H   LIG d   1       3.772  -4.637  -6.280  0.00  0.00     0.292 HD
ENDBRANCH  23  31
BRANCH  25  33
ATOM     33  O   LIG d   1       5.876  -9.591  -5.056  0.00  0.00    -0.483 OA
BRANCH  33  34
ATOM     34  C   LIG d   1       5.072 -10.074  -3.978  0.00  0.00     0.165 C 
ATOM     35  H   LIG d   1       5.708 -10.574  -3.246  0.00  0.00     0.080 H 
ATOM     36  H   LIG d   1       4.560  -9.238  -3.502  0.00  0.00     0.080 H 
BRANCH  34  37
ATOM     37  C   LIG d   1       4.055 -11.051  -4.508  0.00  0.00     0.248 C 
ATOM     38  O   LIG d   1       2.901 -10.984  -4.142  0.00  0.00    -0.272 OA
ATOM     39  N   LIG d   1       4.428 -11.999  -5.390  0.00  0.00    -0.327 N 
ATOM     40  H   LIG d   1       5.351 -12.053  -5.683  0.00  0.00     0.145 HD
ATOM     41  H   LIG d   1       3.773 -12.628  -5.732  0.00  0.00     0.145 HD
ENDBRANCH  34  37
ENDBRANCH  33  34
ENDBRANCH  25  33
ENDBRANCH   1  22
BRANCH   2  42
ATOM     42  O   LIG d   1       6.136  -2.134  -7.158  0.00  0.00    -0.409 OA
ATOM     43  H   LIG d   1       6.475  -1.865  -8.022  0.00  0.00     0.328 HD
ENDBRANCH   2  42
TORSDOF 11
ENDMDL
MODEL 7
REMARK VINA RESULT:      -5.7      7.206     11.289
REMARK  11 active torsions:
REMARK  status: ('A' for Active; 'I' for Inactive)
REMARK    1  A    between atoms: C_1  and  O_2 
REMARK    2  A    between atoms: O_2  and  C_3 
REMARK    3  A    between atoms: C_7  and  O_9 
REMARK    4  A    between atoms: O_9  and  C_10 
REMARK    5  A    between atoms: C_10  and  C_11 
REMARK    6  A    between atoms: C_11  and  C_14 
REMARK    7  A    between atoms: N_12  and  O_13 
REMARK    8  A    between atoms: C_17  and  O_21 
REMARK    9  A    between atoms: C_19  and  O_20 
REMARK   10  A    between atoms: O_21  and  C_22 
REMARK   11  A    between atoms: C_22  and  C_23 
REMARK       I    between atoms: C_23  and  N_25 
ROOT
ATOM      1  C   LIG d   1       2.927   0.073  -8.295  0.00  0.00     0.128 C 
ATOM      2  N   LIG d   1       3.445   1.017  -9.012  0.00  0.00    -0.088 NA
ENDROOT
BRANCH   1   3
ATOM      3  C   LIG d   1       2.497   0.352  -6.878  0.00  0.00     0.135 C 
ATOM      4  H   LIG d   1       1.874  -0.468  -6.519  0.00  0.00     0.076 H 
ATOM      5  H   LIG d   1       1.926   1.280  -6.847  0.00  0.00     0.076 H 
BRANCH   3   6
ATOM      6  O   LIG d   1       3.651   0.474  -6.045  0.00  0.00    -0.486 OA
BRANCH   6   7
ATOM      7  C   LIG d   1       3.713  -0.336  -4.955  0.00  0.00     0.124 A 
ATOM      8  C   LIG d   1       3.249   0.114  -3.727  0.00  0.00    -0.020 A 
ATOM      9  C   LIG d   1       3.311  -0.710  -2.619  0.00  0.00    -0.055 A 
ATOM     10  H   LIG d   1       2.837   1.108  -3.638  0.00  0.00     0.065 H 
ATOM     11  C   LIG d   1       3.837  -1.982  -2.730  0.00  0.00    -0.020 A 
ATOM     12  H   LIG d   1       2.949  -0.358  -1.664  0.00  0.00     0.062 H 
ATOM     13  C   LIG d   1       4.303  -2.438  -3.956  0.00  0.00     0.124 A 
ATOM     14  H   LIG d   1       3.884  -2.624  -1.863  0.00  0.00     0.065 H 
ATOM     15  C   LIG d   1       4.247  -1.611  -5.067  0.00  0.00     0.022 A 
ATOM     16  H   LIG d   1       4.613  -1.961  -6.021  0.00  0.00     0.069 H 
BRANCH  13  17
ATOM     17  O   LIG d   1       4.820  -3.690  -4.065  0.00  0.00    -0.495 OA
BRANCH  17  18
ATOM     18  C   LIG d   1       4.817  -4.282  -5.366  0.00  0.00     0.079 C 
ATOM     19  H   LIG d   1       4.072  -3.788  -5.988  0.00  0.00     0.066 H 
ATOM     20  H   LIG d   1       5.801  -4.168  -5.818  0.00  0.00     0.066 H 
ATOM     21  H   LIG d   1       4.575  -5.341  -5.281  0.00  0.00     0.066 H 
ENDBRANCH  17  18
ENDBRANCH  13  17
ENDBRANCH   6   7
ENDBRANCH   3   6
ENDBRANCH   1   3
BRANCH   1  22
ATOM     22  C   LIG d   1       2.759  -1.276  -8.863  0.00  0.00     0.044 A 
ATOM     23  C   LIG d   1       1.718  -1.535  -9.766  0.00  0.00     0.129 A 
ATOM     24  C   LIG d   1       1.570  -2.804 -10.301  0.00  0.00     0.022 A 
ATOM     25  C   LIG d   1       2.442  -3.818  -9.933  0.00  0.00     0.125 A 
ATOM     26  H   LIG d   1       0.772  -3.004 -11.000  0.00  0.00     0.069 H 
ATOM     27  C   LIG d   1       3.471  -3.564  -9.034  0.00  0.00    -0.019 A 
ATOM     28  C   LIG d   1       3.633  -2.305  -8.500  0.00  0.00    -0.046 A 
ATOM     29  H   LIG d   1       4.147  -4.359  -8.752  0.00  0.00     0.065 H 
ATOM     30  H   LIG d   1       4.434  -2.112  -7.803  0.00  0.00     0.063 H 
BRANCH  23  31
ATOM     31  O   LIG d   1       0.861  -0.542 -10.119  0.00  0.00    -0.506 OA
ATOM     32  H   LIG d   1       0.562  -0.589 -11.037  0.00  0.00     0.292 HD
ENDBRANCH  23  31
BRANCH  25  33
ATOM     33  O   LIG d   1       2.291  -5.062 -10.456  0.00  0.00    -0.483 OA
BRANCH  33  34
ATOM     34  C   LIG d   1       0.978  -5.430 -10.886  0.00  0.00     0.165 C 
ATOM     35  H   LIG d   1       0.276  -4.634 -10.631  0.00  0.00     0.080 H 
ATOM     36  H   LIG d   1       0.978  -5.582 -11.964  0.00  0.00     0.080 H 
BRANCH  34  37
ATOM     37  C   LIG d   1       0.563  -6.704 -10.197  0.00  0.00     0.248 C 
ATOM     38  O   LIG d   1      -0.424  -6.720  -9.493  0.00  0.00    -0.272 OA
ATOM     39  N   LIG d   1       1.290  -7.827 -10.364  0.00  0.00    -0.327 N 
ATOM     40  H   LIG d   1       2.080  -7.815 -10.926  0.00  0.00     0.145 HD
ATOM     41  H   LIG d   1       1.024  -8.648  -9.920  0.00  0.00     0.145 HD
ENDBRANCH  34  37
ENDBRANCH  33  34
ENDBRANCH  25  33
ENDBRANCH   1  22
BRANCH   2  42
ATOM     42  O   LIG d   1       3.608   2.313  -8.465  0.00  0.00    -0.409 OA
ATOM     43  H   LIG d   1       4.483   2.696  -8.614  0.00  0.00     0.328 HD
ENDBRANCH   2  42
TORSDOF 11
ENDMDL
MODEL 8
REMARK VINA RESULT:      -5.6      6.533      9.405
REMARK  11 active torsions:
REMARK  status: ('A' for Active; 'I' for Inactive)
REMARK    1  A    between atoms: C_1  and  O_2 
REMARK    2  A    between atoms: O_2  and  C_3 
REMARK    3  A    between atoms: C_7  and  O_9 
REMARK    4  A    between atoms: O_9  and  C_10 
REMARK    5  A    between atoms: C_10  and  C_11 
REMARK    6  A    between atoms: C_11  and  C_14 
REMARK    7  A    between atoms: N_12  and  O_13 
REMARK    8  A    between atoms: C_17  and  O_21 
REMARK    9  A    between atoms: C_19  and  O_20 
REMARK   10  A    between atoms: O_21  and  C_22 
REMARK   11  A    between atoms: C_22  and  C_23 
REMARK       I    between atoms: C_23  and  N_25 
ROOT
ATOM      1  C   LIG d   1       7.051  -3.107  -5.261  0.00  0.00     0.128 C 
ATOM      2  N   LIG d   1       7.609  -4.083  -4.620  0.00  0.00    -0.088 NA
ENDROOT
BRANCH   1   3
ATOM      3  C   LIG d   1       7.410  -1.682  -4.927  0.00  0.00     0.135 C 
ATOM      4  H   LIG d   1       6.989  -1.015  -5.680  0.00  0.00     0.076 H 
ATOM      5  H   LIG d   1       8.495  -1.574  -4.914  0.00  0.00     0.076 H 
BRANCH   3   6
ATOM      6  O   LIG d   1       6.882  -1.346  -3.643  0.00  0.00    -0.486 OA
BRANCH   6   7
ATOM      7  C   LIG d   1       5.540  -1.148  -3.561  0.00  0.00     0.124 A 
ATOM      8  C   LIG d   1       4.809  -1.748  -2.546  0.00  0.00    -0.020 A 
ATOM      9  C   LIG d   1       3.444  -1.546  -2.463  0.00  0.00    -0.055 A 
ATOM     10  H   LIG d   1       5.307  -2.372  -1.819  0.00  0.00     0.065 H 
ATOM     11  C   LIG d   1       2.804  -0.749  -3.391  0.00  0.00    -0.020 A 
ATOM     12  H   LIG d   1       2.877  -2.014  -1.672  0.00  0.00     0.062 H 
ATOM     13  C   LIG d   1       3.530  -0.146  -4.409  0.00  0.00     0.124 A 
ATOM     14  H   LIG d   1       1.737  -0.592  -3.324  0.00  0.00     0.065 H 
ATOM     15  C   LIG d   1       4.898  -0.351  -4.497  0.00  0.00     0.022 A 
ATOM     16  H   LIG d   1       5.465   0.112  -5.292  0.00  0.00     0.069 H 
BRANCH  13  17
ATOM     17  O   LIG d   1       2.900   0.640  -5.321  0.00  0.00    -0.495 OA
BRANCH  17  18
ATOM     18  C   LIG d   1       2.965   0.227  -6.688  0.00  0.00     0.079 C 
ATOM     19  H   LIG d   1       3.846  -0.396  -6.838  0.00  0.00     0.066 H 
ATOM     20  H   LIG d   1       2.070  -0.342  -6.939  0.00  0.00     0.066 H 
ATOM     21  H   LIG d   1       3.028   1.106  -7.329  0.00  0.00     0.066 H 
ENDBRANCH  17  18
ENDBRANCH  13  17
ENDBRANCH   6   7
ENDBRANCH   3   6
ENDBRANCH   1   3
BRANCH   1  22
ATOM     22  C   LIG d   1       6.063  -3.389  -6.318  0.00  0.00     0.044 A 
ATOM     23  C   LIG d   1       4.857  -4.030  -6.001  0.00  0.00     0.129 A 
ATOM     24  C   LIG d   1       3.931  -4.286  -6.999  0.00  0.00     0.022 A 
ATOM     25  C   LIG d   1       4.204  -3.920  -8.308  0.00  0.00     0.125 A 
ATOM     26  H   LIG d   1       2.999  -4.775  -6.757  0.00  0.00     0.069 H 
ATOM     27  C   LIG d   1       5.401  -3.289  -8.625  0.00  0.00    -0.019 A 
ATOM     28  C   LIG d   1       6.328  -3.023  -7.641  0.00  0.00    -0.046 A 
ATOM     29  H   LIG d   1       5.607  -3.007  -9.648  0.00  0.00     0.065 H 
ATOM     30  H   LIG d   1       7.256  -2.532  -7.890  0.00  0.00     0.063 H 
BRANCH  23  31
ATOM     31  O   LIG d   1       4.595  -4.394  -4.719  0.00  0.00    -0.506 OA
ATOM     32  H   LIG d   1       4.193  -3.695  -4.187  0.00  0.00     0.292 HD
ENDBRANCH  23  31
BRANCH  25  33
ATOM     33  O   LIG d   1       3.296  -4.178  -9.285  0.00  0.00    -0.483 OA
BRANCH  33  34
ATOM     34  C   LIG d   1       3.073  -3.149 -10.251  0.00  0.00     0.165 C 
ATOM     35  H   LIG d   1       3.833  -2.374 -10.138  0.00  0.00     0.080 H 
ATOM     36  H   LIG d   1       3.133  -3.571 -11.254  0.00  0.00     0.080 H 
BRANCH  34  37
ATOM     37  C   LIG d   1       1.708  -2.548 -10.040  0.00  0.00     0.248 C 
ATOM     38  O   LIG d   1       1.601  -1.392  -9.691  0.00  0.00    -0.272 OA
ATOM     39  N   LIG d   1       0.605  -3.297 -10.237  0.00  0.00    -0.327 N 
ATOM     40  H   LIG d   1       0.690  -4.223 -10.515  0.00  0.00     0.145 HD
ATOM     41  H   LIG d   1      -0.275  -2.911 -10.101  0.00  0.00     0.145 HD
ENDBRANCH  34  37
ENDBRANCH  33  34
ENDBRANCH  25  33
ENDBRANCH   1  22
BRANCH   2  42
ATOM     42  O   LIG d   1       8.557  -3.812  -3.604  0.00  0.00    -0.409 OA
ATOM     43  H   LIG d   1       9.334  -3.324  -3.911  0.00  0.00     0.328 HD
ENDBRANCH   2  42
TORSDOF 11
ENDMDL
MODEL 9
REMARK VINA RESULT:      -5.5      2.675      3.048
REMARK  11 active torsions:
REMARK  status: ('A' for Active; 'I' for Inactive)
REMARK    1  A    between atoms: C_1  and  O_2 
REMARK    2  A    between atoms: O_2  and  C_3 
REMARK    3  A    between atoms: C_7  and  O_9 
REMARK    4  A    between atoms: O_9  and  C_10 
REMARK    5  A    between atoms: C_10  and  C_11 
REMARK    6  A    between atoms: C_11  and  C_14 
REMARK    7  A    between atoms: N_12  and  O_13 
REMARK    8  A    between atoms: C_17  and  O_21 
REMARK    9  A    between atoms: C_19  and  O_20 
REMARK   10  A    between atoms: O_21  and  C_22 
REMARK   11  A    between atoms: C_22  and  C_23 
REMARK       I    between atoms: C_23  and  N_25 
ROOT
ATOM      1  C   LIG d   1       8.255   1.628  -4.920  0.00  0.00     0.128 C 
ATOM      2  N   LIG d   1       7.845   1.759  -6.140  0.00  0.00    -0.088 NA
ENDROOT
BRANCH   1   3
ATOM      3  C   LIG d   1       7.514   0.725  -3.968  0.00  0.00     0.135 C 
ATOM      4  H   LIG d   1       8.108   0.583  -3.065  0.00  0.00     0.076 H 
ATOM      5  H   LIG d   1       7.341  -0.241  -4.443  0.00  0.00     0.076 H 
BRANCH   3   6
ATOM      6  O   LIG d   1       6.260   1.319  -3.626  0.00  0.00    -0.486 OA
BRANCH   6   7
ATOM      7  C   LIG d   1       5.221   0.475  -3.392  0.00  0.00     0.124 A 
ATOM      8  C   LIG d   1       4.069   0.945  -2.779  0.00  0.00    -0.020 A 
ATOM      9  C   LIG d   1       3.011   0.087  -2.541  0.00  0.00    -0.055 A 
ATOM     10  H   LIG d   1       3.998   1.983  -2.487  0.00  0.00     0.065 H 
ATOM     11  C   LIG d   1       3.099  -1.240  -2.913  0.00  0.00    -0.020 A 
ATOM     12  H   LIG d   1       2.115   0.455  -2.064  0.00  0.00     0.062 H 
ATOM     13  C   LIG d   1       4.250  -1.716  -3.527  0.00  0.00     0.124 A 
ATOM     14  H   LIG d   1       2.272  -1.908  -2.727  0.00  0.00     0.065 H 
ATOM     15  C   LIG d   1       5.313  -0.858  -3.761  0.00  0.00     0.022 A 
ATOM     16  H   LIG d   1       6.212  -1.227  -4.234  0.00  0.00     0.069 H 
BRANCH  13  17
ATOM     17  O   LIG d   1       4.336  -3.021  -3.893  0.00  0.00    -0.495 OA
BRANCH  17  18
ATOM     18  C   LIG d   1       5.436  -3.391  -4.727  0.00  0.00     0.079 C 
ATOM     19  H   LIG d   1       6.367  -3.061  -4.267  0.00  0.00     0.066 H 
ATOM     20  H   LIG d   1       5.454  -4.474  -4.846  0.00  0.00     0.066 H 
ATOM     21  H   LIG d   1       5.326  -2.919  -5.703  0.00  0.00     0.066 H 
ENDBRANCH  17  18
ENDBRANCH  13  17
ENDBRANCH   6   7
ENDBRANCH   3   6
ENDBRANCH   1   3
BRANCH   1  22
ATOM     22  C   LIG d   1       9.447   2.363  -4.461  0.00  0.00     0.044 A 
ATOM     23  C   LIG d   1      10.678   2.181  -5.107  0.00  0.00     0.129 A 
ATOM     24  C   LIG d   1      11.792   2.880  -4.673  0.00  0.00     0.022 A 
ATOM     25  C   LIG d   1      11.692   3.746  -3.594  0.00  0.00     0.125 A 
ATOM     26  H   LIG d   1      12.740   2.747  -5.172  0.00  0.00     0.069 H 
ATOM     27  C   LIG d   1      10.473   3.922  -2.949  0.00  0.00    -0.019 A 
ATOM     28  C   LIG d   1       9.356   3.238  -3.374  0.00  0.00    -0.046 A 
ATOM     29  H   LIG d   1      10.402   4.599  -2.109  0.00  0.00     0.065 H 
ATOM     30  H   LIG d   1       8.411   3.379  -2.872  0.00  0.00     0.063 H 
BRANCH  23  31
ATOM     31  O   LIG d   1      10.776   1.328  -6.159  0.00  0.00    -0.506 OA
ATOM     32  H   LIG d   1      11.518   1.515  -6.749  0.00  0.00     0.292 HD
ENDBRANCH  23  31
BRANCH  25  33
ATOM     33  O   LIG d   1      12.788   4.425  -3.169  0.00  0.00    -0.483 OA
BRANCH  33  34
ATOM     34  C   LIG d   1      12.566   5.521  -2.278  0.00  0.00     0.165 C 
ATOM     35  H   LIG d   1      12.721   6.460  -2.812  0.00  0.00     0.080 H 
ATOM     36  H   LIG d   1      11.545   5.483  -1.901  0.00  0.00     0.080 H 
BRANCH  34  37
ATOM     37  C   LIG d   1      13.532   5.433  -1.125  0.00  0.00     0.248 C 
ATOM     38  O   LIG d   1      13.353   6.105  -0.131  0.00  0.00    -0.272 OA
ATOM     39  N   LIG d   1      14.595   4.609  -1.199  0.00  0.00    -0.327 N 
ATOM     40  H   LIG d   1      14.739   4.072  -1.993  0.00  0.00     0.145 HD
ATOM     41  H   LIG d   1      15.218   4.552  -0.456  0.00  0.00     0.145 HD
ENDBRANCH  34  37
ENDBRANCH  33  34
ENDBRANCH  25  33
ENDBRANCH   1  22
BRANCH   2  42
ATOM     42  O   LIG d   1       6.699   1.053  -6.581  0.00  0.00    -0.409 OA
ATOM     43  H   LIG d   1       6.726   0.104  -6.396  0.00  0.00     0.328 HD
ENDBRANCH   2  42
TORSDOF 11
ENDMDL
MODEL 10
REMARK VINA RESULT:      -5.5      2.304      3.751
REMARK  11 active torsions:
REMARK  status: ('A' for Active; 'I' for Inactive)
REMARK    1  A    between atoms: C_1  and  O_2 
REMARK    2  A    between atoms: O_2  and  C_3 
REMARK    3  A    between atoms: C_7  and  O_9 
REMARK    4  A    between atoms: O_9  and  C_10 
REMARK    5  A    between atoms: C_10  and  C_11 
REMARK    6  A    between atoms: C_11  and  C_14 
REMARK    7  A    between atoms: N_12  and  O_13 
REMARK    8  A    between atoms: C_17  and  O_21 
REMARK    9  A    between atoms: C_19  and  O_20 
REMARK   10  A    between atoms: O_21  and  C_22 
REMARK   11  A    between atoms: C_22  and  C_23 
REMARK       I    between atoms: C_23  and  N_25 
ROOT
ATOM      1  C   LIG d   1       7.644  -1.453  -4.958  0.00  0.00     0.128 C 
ATOM      2  N   LIG d   1       7.468  -1.852  -6.176  0.00  0.00    -0.088 NA
ENDROOT
BRANCH   1   3
ATOM      3  C   LIG d   1       7.261  -2.351  -3.809  0.00  0.00     0.135 C 
ATOM      4  H   LIG d   1       7.475  -1.845  -2.867  0.00  0.00     0.076 H 
ATOM      5  H   LIG d   1       7.836  -3.275  -3.862  0.00  0.00     0.076 H 
BRANCH   3   6
ATOM      6  O   LIG d   1       5.866  -2.651  -3.883  0.00  0.00    -0.486 OA
BRANCH   6   7
ATOM      7  C   LIG d   1       5.003  -1.658  -3.543  0.00  0.00     0.124 A 
ATOM      8  C   LIG d   1       4.996  -1.156  -2.249  0.00  0.00    -0.020 A 
ATOM      9  C   LIG d   1       4.118  -0.146  -1.903  0.00  0.00    -0.055 A 
ATOM     10  H   LIG d   1       5.678  -1.555  -1.512  0.00  0.00     0.065 H 
ATOM     11  C   LIG d   1       3.245   0.366  -2.843  0.00  0.00    -0.020 A 
ATOM     12  H   LIG d   1       4.114   0.242  -0.895  0.00  0.00     0.062 H 
ATOM     13  C   LIG d   1       3.248  -0.132  -4.139  0.00  0.00     0.124 A 
ATOM     14  H   LIG d   1       2.561   1.155  -2.570  0.00  0.00     0.065 H 
ATOM     15  C   LIG d   1       4.124  -1.149  -4.486  0.00  0.00     0.022 A 
ATOM     16  H   LIG d   1       4.125  -1.542  -5.493  0.00  0.00     0.069 H 
BRANCH  13  17
ATOM     17  O   LIG d   1       2.390   0.372  -5.063  0.00  0.00    -0.495 OA
BRANCH  17  18
ATOM     18  C   LIG d   1       2.795   0.301  -6.432  0.00  0.00     0.079 C 
ATOM     19  H   LIG d   1       3.718   0.863  -6.568  0.00  0.00     0.066 H 
ATOM     20  H   LIG d   1       2.961  -0.741  -6.707  0.00  0.00     0.066 H 
ATOM     21  H   LIG d   1       2.014   0.724  -7.064  0.00  0.00     0.066 H 
ENDBRANCH  17  18
ENDBRANCH  13  17
ENDBRANCH   6   7
ENDBRANCH   3   6
ENDBRANCH   1   3
BRANCH   1  22
ATOM     22  C   LIG d   1       8.218  -0.123  -4.694  0.00  0.00     0.044 A 
ATOM     23  C   LIG d   1       9.523   0.177  -5.111  0.00  0.00     0.129 A 
ATOM     24  C   LIG d   1      10.054   1.432  -4.865  0.00  0.00     0.022 A 
ATOM     25  C   LIG d   1       9.301   2.384  -4.195  0.00  0.00     0.125 A 
ATOM     26  H   LIG d   1      11.056   1.667  -5.191  0.00  0.00     0.069 H 
ATOM     27  C   LIG d   1       8.009   2.087  -3.775  0.00  0.00    -0.019 A 
ATOM     28  C   LIG d   1       7.467   0.845  -4.019  0.00  0.00    -0.046 A 
ATOM     29  H   LIG d   1       7.427   2.834  -3.254  0.00  0.00     0.065 H 
ATOM     30  H   LIG d   1       6.464   0.618  -3.693  0.00  0.00     0.063 H 
BRANCH  23  31
ATOM     31  O   LIG d   1      10.262  -0.759  -5.762  0.00  0.00    -0.506 OA
ATOM     32  H   LIG d   1       9.857  -1.082  -6.578  0.00  0.00     0.292 HD
ENDBRANCH  23  31
BRANCH  25  33
ATOM     33  O   LIG d   1       9.826   3.612  -3.950  0.00  0.00    -0.483 OA
BRANCH  33  34
ATOM     34  C   LIG d   1      10.435   3.814  -2.673  0.00  0.00     0.165 C 
ATOM     35  H   LIG d   1       9.997   3.126  -1.949  0.00  0.00     0.080 H 
ATOM     36  H   LIG d   1      11.506   3.630  -2.747  0.00  0.00     0.080 H 
BRANCH  34  37
ATOM     37  C   LIG d   1      10.198   5.233  -2.224  0.00  0.00     0.248 C 
ATOM     38  O   LIG d   1      10.448   5.558  -1.082  0.00  0.00    -0.272 OA
ATOM     39  N   LIG d   1       9.708   6.141  -3.090  0.00  0.00    -0.327 N 
ATOM     40  H   LIG d   1       9.507   5.882  -4.003  0.00  0.00     0.145 HD
ATOM     41  H   LIG d   1       9.555   7.055  -2.801  0.00  0.00     0.145 HD
ENDBRANCH  34  37
ENDBRANCH  33  34
ENDBRANCH  25  33
ENDBRANCH   1  22
BRANCH   2  42
ATOM     42  O   LIG d   1       6.915  -3.131  -6.430  0.00  0.00    -0.409 OA
ATOM     43  H   LIG d   1       6.941  -3.728  -5.670  0.00  0.00     0.328 HD
ENDBRANCH   2  42
TORSDOF 11
ENDMDL
