MODEL 1
REMARK VINA RESULT:      -7.2      0.000      0.000
REMARK  11 active torsions:
REMARK  status: ('A' for Active; 'I' for Inactive)
REMARK    1  A    between atoms: C_4  and  C_7 
REMARK    2  A    between atoms: C_7  and  C_8 
REMARK    3  A    between atoms: C_8  and  C_10 
REMARK    4  A    between atoms: C_8  and  N_30 
REMARK       I    between atoms: C_10  and  N_12 
REMARK    5  A    between atoms: N_12  and  C_13 
REMARK    6  A    between atoms: C_13  and  C_15 
REMARK    7  A    between atoms: C_13  and  C_27 
REMARK    8  A    between atoms: C_15  and  S_16 
REMARK    9  A    between atoms: S_16  and  C_17 
REMARK   10  A    between atoms: C_17  and  N_18 
REMARK       I    between atoms: N_18  and  C_19 
REMARK   11  A    between atoms: C_19  and  C_21 
ROOT
ATOM      1  C   UNK d   0       8.069   2.094  -7.227  0.00  0.00     0.122 C 
ATOM      2  H   UNK d   0       7.578   2.705  -6.470  0.00  0.00     0.063 H 
ENDROOT
BRANCH   1   3
ATOM      3  C   UNK d   0       9.455   2.669  -7.527  0.00  0.00     0.002 C 
ATOM      4  H   UNK d   0       9.557   2.831  -8.600  0.00  0.00     0.034 H 
ATOM      5  H   UNK d   0      10.219   1.969  -7.191  0.00  0.00     0.034 H 
BRANCH   3   6
ATOM      6  C   UNK d   0       9.622   3.980  -6.802  0.00  0.00    -0.045 A 
ATOM      7  C   UNK d   0       9.896   5.133  -7.513  0.00  0.00    -0.059 A 
ATOM      8  C   UNK d   0      10.047   6.335  -6.849  0.00  0.00    -0.061 A 
ATOM      9  H   UNK d   0       9.991   5.094  -8.588  0.00  0.00     0.062 H 
ATOM     10  C   UNK d   0       9.924   6.384  -5.472  0.00  0.00    -0.062 A 
ATOM     11  H   UNK d   0      10.262   7.236  -7.403  0.00  0.00     0.062 H 
ATOM     12  C   UNK d   0       9.649   5.231  -4.761  0.00  0.00    -0.061 A 
ATOM     13  H   UNK d   0      10.047   7.323  -4.952  0.00  0.00     0.062 H 
ATOM     14  C   UNK d   0       9.499   4.029  -5.426  0.00  0.00    -0.059 A 
ATOM     15  H   UNK d   0       9.553   5.270  -3.686  0.00  0.00     0.062 H 
ATOM     16  H   UNK d   0       9.284   3.127  -4.870  0.00  0.00     0.062 H 
ENDBRANCH   3   6
ENDBRANCH   1   3
BRANCH   1  17
ATOM     17  C   UNK d   0       7.243   2.093  -8.488  0.00  0.00     0.237 C 
ATOM     18  O   UNK d   0       7.598   2.745  -9.447  0.00  0.00    -0.274 OA
ATOM     19  N   UNK d   1       6.109   1.366  -8.549  0.00  0.00    -0.305 N 
ATOM     20  H   UNK d   1       5.825   0.844  -7.783  0.00  0.00     0.149 HD
BRANCH  19  21
ATOM     21  C   UNK d   1       5.306   1.364  -9.774  0.00  0.00     0.072 C 
ATOM     22  H   UNK d   1       5.854   1.871 -10.569  0.00  0.00     0.057 H 
BRANCH  21  23
ATOM     23  C   UNK d   1       5.018  -0.078 -10.194  0.00  0.00     0.019 C 
ATOM     24  H   UNK d   1       3.967  -0.172 -10.471  0.00  0.00     0.040 H 
ATOM     25  H   UNK d   1       5.642  -0.340 -11.048  0.00  0.00     0.040 H 
BRANCH  23  26
ATOM     26  S   UNK d   1       5.381  -1.194  -8.812  0.00  0.00    -0.140 SA
BRANCH  26  27
ATOM     27  C   UNK d   1       3.771  -1.447  -8.018  0.00  0.00     0.059 C 
ATOM     28  H   UNK d   1       3.117  -0.604  -8.243  0.00  0.00     0.058 H 
ATOM     29  H   UNK d   1       3.320  -2.366  -8.394  0.00  0.00     0.058 H 
BRANCH  27  30
ATOM     30  N   UNK d   1       3.952  -1.551  -6.567  0.00  0.00    -0.302 N 
ATOM     31  C   UNK d   1       3.781  -0.465  -5.787  0.00  0.00     0.245 C 
ATOM     32  O   UNK d   1       3.477   0.600  -6.288  0.00  0.00    -0.270 OA
ATOM     33  H   UNK d   1       4.195  -2.402  -6.169  0.00  0.00     0.150 HD
BRANCH  31  34
ATOM     34  C   UNK d   1       3.965  -0.570  -4.325  0.00  0.00     0.037 A 
ATOM     35  C   UNK d   1       4.205   0.576  -3.565  0.00  0.00    -0.050 A 
ATOM     36  C   UNK d   1       4.370   0.472  -2.198  0.00  0.00    -0.061 A 
ATOM     37  H   UNK d   1       4.257   1.542  -4.044  0.00  0.00     0.062 H 
ATOM     38  C   UNK d   1       4.309  -0.766  -1.584  0.00  0.00    -0.062 A 
ATOM     39  H   UNK d   1       4.551   1.358  -1.608  0.00  0.00     0.062 H 
ATOM     40  C   UNK d   1       4.077  -1.907  -2.332  0.00  0.00    -0.061 A 
ATOM     41  H   UNK d   1       4.443  -0.843  -0.515  0.00  0.00     0.062 H 
ATOM     42  C   UNK d   1       3.904  -1.816  -3.698  0.00  0.00    -0.050 A 
ATOM     43  H   UNK d   1       4.030  -2.870  -1.846  0.00  0.00     0.062 H 
ATOM     44  H   UNK d   1       3.722  -2.706  -4.280  0.00  0.00     0.062 H 
ENDBRANCH  31  34
ENDBRANCH  27  30
ENDBRANCH  26  27
ENDBRANCH  23  26
ENDBRANCH  21  23
BRANCH  21  45
ATOM     45  C   UNK d   1       4.006   2.085  -9.524  0.00  0.00     0.063 C 
ATOM     46  O   UNK d   1       4.013   3.231  -9.111  0.00  0.00    -0.548 OA
ATOM     47  O   UNK d   1       2.945   1.520  -9.736  0.00  0.00    -0.548 OA
ENDBRANCH  21  45
ENDBRANCH  19  21
ENDBRANCH   1  17
BRANCH   1  48
ATOM     48  N   UNK d   0       8.207   0.722  -6.733  0.00  0.00    -0.248 N 
ATOM     49  C   UNK d   0       8.790  -0.203  -7.512  0.00  0.00     0.331 A 
ATOM     50  N   UNK d   0       8.956  -1.480  -7.126  0.00  0.00    -0.307 N 
ATOM     51  O   UNK d   0       9.190   0.130  -8.610  0.00  0.00    -0.246 OA
ATOM     52  C   UNK d   0       8.511  -1.907  -5.883  0.00  0.00     0.056 A 
ATOM     53  H   UNK d   0       9.388  -2.110  -7.724  0.00  0.00     0.170 HD
ATOM     54  C   UNK d   0       7.888  -0.978  -5.031  0.00  0.00     0.063 A 
ATOM     55  C   UNK d   0       8.668  -3.220  -5.467  0.00  0.00    -0.037 A 
ATOM     56  C   UNK d   0       7.738   0.410  -5.505  0.00  0.00     0.265 A 
ATOM     57  C   UNK d   0       7.430  -1.378  -3.778  0.00  0.00    -0.047 A 
ATOM     58  O   UNK d   0       7.205   1.252  -4.809  0.00  0.00    -0.267 OA
ATOM     59  C   UNK d   0       7.594  -2.689  -3.383  0.00  0.00    -0.061 A 
ATOM     60  H   UNK d   0       6.951  -0.667  -3.122  0.00  0.00     0.063 H 
ATOM     61  C   UNK d   0       8.210  -3.604  -4.222  0.00  0.00    -0.060 A 
ATOM     62  H   UNK d   0       7.241  -3.004  -2.412  0.00  0.00     0.062 H 
ATOM     63  H   UNK d   0       8.332  -4.628  -3.900  0.00  0.00     0.062 H 
ATOM     64  H   UNK d   0       9.146  -3.940  -6.114  0.00  0.00     0.064 H 
ENDBRANCH   1  48
TORSDOF 11
ENDMDL
MODEL 2
REMARK VINA RESULT:      -7.1      3.882      5.888
REMARK  11 active torsions:
REMARK  status: ('A' for Active; 'I' for Inactive)
REMARK    1  A    between atoms: C_4  and  C_7 
REMARK    2  A    between atoms: C_7  and  C_8 
REMARK    3  A    between atoms: C_8  and  C_10 
REMARK    4  A    between atoms: C_8  and  N_30 
REMARK       I    between atoms: C_10  and  N_12 
REMARK    5  A    between atoms: N_12  and  C_13 
REMARK    6  A    between atoms: C_13  and  C_15 
REMARK    7  A    between atoms: C_13  and  C_27 
REMARK    8  A    between atoms: C_15  and  S_16 
REMARK    9  A    between atoms: S_16  and  C_17 
REMARK   10  A    between atoms: C_17  and  N_18 
REMARK       I    between atoms: N_18  and  C_19 
REMARK   11  A    between atoms: C_19  and  C_21 
ROOT
ATOM      1  C   UNK d   0       5.091  -4.047  -7.007  0.00  0.00     0.122 C 
ATOM      2  H   UNK d   0       4.627  -3.717  -6.078  0.00  0.00     0.063 H 
ENDROOT
BRANCH   1   3
ATOM      3  C   UNK d   0       6.381  -3.258  -7.242  0.00  0.00     0.002 C 
ATOM      4  H   UNK d   0       6.245  -2.586  -8.090  0.00  0.00     0.034 H 
ATOM      5  H   UNK d   0       7.196  -3.950  -7.453  0.00  0.00     0.034 H 
BRANCH   3   6
ATOM      6  C   UNK d   0       6.709  -2.454  -6.011  0.00  0.00    -0.045 A 
ATOM      7  C   UNK d   0       7.032  -3.098  -4.831  0.00  0.00    -0.059 A 
ATOM      8  C   UNK d   0       7.334  -2.361  -3.701  0.00  0.00    -0.061 A 
ATOM      9  H   UNK d   0       7.048  -4.177  -4.792  0.00  0.00     0.062 H 
ATOM     10  C   UNK d   0       7.314  -0.979  -3.752  0.00  0.00    -0.062 A 
ATOM     11  H   UNK d   0       7.586  -2.863  -2.780  0.00  0.00     0.062 H 
ATOM     12  C   UNK d   0       6.993  -0.335  -4.933  0.00  0.00    -0.061 A 
ATOM     13  H   UNK d   0       7.547  -0.403  -2.869  0.00  0.00     0.062 H 
ATOM     14  C   UNK d   0       6.689  -1.072  -6.062  0.00  0.00    -0.059 A 
ATOM     15  H   UNK d   0       6.977   0.744  -4.972  0.00  0.00     0.062 H 
ATOM     16  H   UNK d   0       6.438  -0.570  -6.984  0.00  0.00     0.062 H 
ENDBRANCH   3   6
ENDBRANCH   1   3
BRANCH   1  17
ATOM     17  C   UNK d   0       4.142  -3.812  -8.154  0.00  0.00     0.237 C 
ATOM     18  O   UNK d   0       3.145  -4.494  -8.268  0.00  0.00    -0.274 OA
ATOM     19  N   UNK d   1       4.401  -2.842  -9.055  0.00  0.00    -0.305 N 
ATOM     20  H   UNK d   1       5.197  -2.296  -8.964  0.00  0.00     0.149 HD
BRANCH  19  21
ATOM     21  C   UNK d   1       3.479  -2.612 -10.169  0.00  0.00     0.072 C 
ATOM     22  H   UNK d   1       2.549  -3.153  -9.990  0.00  0.00     0.057 H 
BRANCH  21  23
ATOM     23  C   UNK d   1       3.182  -1.116 -10.287  0.00  0.00     0.019 C 
ATOM     24  H   UNK d   1       3.556  -0.747 -11.243  0.00  0.00     0.040 H 
ATOM     25  H   UNK d   1       2.107  -0.953 -10.230  0.00  0.00     0.040 H 
BRANCH  23  26
ATOM     26  S   UNK d   1       4.003  -0.229  -8.935  0.00  0.00    -0.140 SA
BRANCH  26  27
ATOM     27  C   UNK d   1       2.697  -0.015  -7.695  0.00  0.00     0.059 C 
ATOM     28  H   UNK d   1       2.443   1.042  -7.612  0.00  0.00     0.058 H 
ATOM     29  H   UNK d   1       1.813  -0.577  -7.997  0.00  0.00     0.058 H 
BRANCH  27  30
ATOM     30  N   UNK d   1       3.169  -0.507  -6.398  0.00  0.00    -0.302 N 
ATOM     31  C   UNK d   1       3.051   0.266  -5.300  0.00  0.00     0.245 C 
ATOM     32  O   UNK d   1       2.553   1.371  -5.387  0.00  0.00    -0.270 OA
ATOM     33  H   UNK d   1       3.567  -1.390  -6.330  0.00  0.00     0.150 HD
BRANCH  31  34
ATOM     34  C   UNK d   1       3.528  -0.231  -3.992  0.00  0.00     0.037 A 
ATOM     35  C   UNK d   1       3.508  -1.598  -3.713  0.00  0.00    -0.050 A 
ATOM     36  C   UNK d   1       3.960  -2.057  -2.492  0.00  0.00    -0.061 A 
ATOM     37  H   UNK d   1       3.144  -2.297  -4.452  0.00  0.00     0.062 H 
ATOM     38  C   UNK d   1       4.421  -1.163  -1.542  0.00  0.00    -0.062 A 
ATOM     39  H   UNK d   1       3.951  -3.114  -2.276  0.00  0.00     0.062 H 
ATOM     40  C   UNK d   1       4.439   0.194  -1.811  0.00  0.00    -0.061 A 
ATOM     41  H   UNK d   1       4.771  -1.526  -0.587  0.00  0.00     0.062 H 
ATOM     42  C   UNK d   1       3.995   0.665  -3.030  0.00  0.00    -0.050 A 
ATOM     43  H   UNK d   1       4.800   0.887  -1.066  0.00  0.00     0.062 H 
ATOM     44  H   UNK d   1       4.010   1.724  -3.238  0.00  0.00     0.062 H 
ENDBRANCH  31  34
ENDBRANCH  27  30
ENDBRANCH  26  27
ENDBRANCH  23  26
ENDBRANCH  21  23
BRANCH  21  45
ATOM     45  C   UNK d   1       4.105  -3.103 -11.449  0.00  0.00     0.063 C 
ATOM     46  O   UNK d   1       5.308  -3.295 -11.505  0.00  0.00    -0.548 OA
ATOM     47  O   UNK d   1       3.409  -3.310 -12.429  0.00  0.00    -0.548 OA
ENDBRANCH  21  45
ENDBRANCH  19  21
ENDBRANCH   1  17
BRANCH   1  48
ATOM     48  N   UNK d   0       5.402  -5.475  -6.916  0.00  0.00    -0.248 N 
ATOM     49  C   UNK d   0       6.168  -6.043  -7.860  0.00  0.00     0.331 A 
ATOM     50  N   UNK d   0       6.501  -7.346  -7.841  0.00  0.00    -0.307 N 
ATOM     51  O   UNK d   0       6.585  -5.349  -8.767  0.00  0.00    -0.246 OA
ATOM     52  C   UNK d   0       6.045  -8.178  -6.829  0.00  0.00     0.056 A 
ATOM     53  H   UNK d   0       7.061  -7.709  -8.545  0.00  0.00     0.170 HD
ATOM     54  C   UNK d   0       5.233  -7.633  -5.818  0.00  0.00     0.063 A 
ATOM     55  C   UNK d   0       6.371  -9.525  -6.793  0.00  0.00    -0.037 A 
ATOM     56  C   UNK d   0       4.906  -6.196  -5.887  0.00  0.00     0.265 A 
ATOM     57  C   UNK d   0       4.761  -8.444  -4.790  0.00  0.00    -0.047 A 
ATOM     58  O   UNK d   0       4.207  -5.675  -5.039  0.00  0.00    -0.267 OA
ATOM     59  C   UNK d   0       5.095  -9.781  -4.772  0.00  0.00    -0.061 A 
ATOM     60  H   UNK d   0       4.138  -8.028  -4.012  0.00  0.00     0.063 H 
ATOM     61  C   UNK d   0       5.896 -10.318  -5.768  0.00  0.00    -0.060 A 
ATOM     62  H   UNK d   0       4.731 -10.414  -3.976  0.00  0.00     0.062 H 
ATOM     63  H   UNK d   0       6.151 -11.367  -5.741  0.00  0.00     0.062 H 
ATOM     64  H   UNK d   0       6.995  -9.952  -7.565  0.00  0.00     0.064 H 
ENDBRANCH   1  48
TORSDOF 11
ENDMDL
MODEL 3
REMARK VINA RESULT:      -7.0      2.836      6.550
REMARK  11 active torsions:
REMARK  status: ('A' for Active; 'I' for Inactive)
REMARK    1  A    between atoms: C_4  and  C_7 
REMARK    2  A    between atoms: C_7  and  C_8 
REMARK    3  A    between atoms: C_8  and  C_10 
REMARK    4  A    between atoms: C_8  and  N_30 
REMARK       I    between atoms: C_10  and  N_12 
REMARK    5  A    between atoms: N_12  and  C_13 
REMARK    6  A    between atoms: C_13  and  C_15 
REMARK    7  A    between atoms: C_13  and  C_27 
REMARK    8  A    between atoms: C_15  and  S_16 
REMARK    9  A    between atoms: S_16  and  C_17 
REMARK   10  A    between atoms: C_17  and  N_18 
REMARK       I    between atoms: N_18  and  C_19 
REMARK   11  A    between atoms: C_19  and  C_21 
ROOT
ATOM      1  C   UNK d   0       5.249  -2.645  -4.646  0.00  0.00     0.122 C 
ATOM      2  H   UNK d   0       5.688  -3.006  -3.716  0.00  0.00     0.063 H 
ENDROOT
BRANCH   1   3
ATOM      3  C   UNK d   0       3.854  -2.080  -4.369  0.00  0.00     0.002 C 
ATOM      4  H   UNK d   0       3.244  -2.841  -3.882  0.00  0.00     0.034 H 
ATOM      5  H   UNK d   0       3.388  -1.786  -5.309  0.00  0.00     0.034 H 
BRANCH   3   6
ATOM      6  C   UNK d   0       3.971  -0.877  -3.469  0.00  0.00    -0.045 A 
ATOM      7  C   UNK d   0       3.518   0.356  -3.900  0.00  0.00    -0.059 A 
ATOM      8  C   UNK d   0       3.623   1.459  -3.074  0.00  0.00    -0.061 A 
ATOM      9  H   UNK d   0       3.082   0.456  -4.882  0.00  0.00     0.062 H 
ATOM     10  C   UNK d   0       4.182   1.329  -1.815  0.00  0.00    -0.062 A 
ATOM     11  H   UNK d   0       3.271   2.421  -3.410  0.00  0.00     0.062 H 
ATOM     12  C   UNK d   0       4.633   0.096  -1.383  0.00  0.00    -0.061 A 
ATOM     13  H   UNK d   0       4.268   2.191  -1.171  0.00  0.00     0.062 H 
ATOM     14  C   UNK d   0       4.529  -1.007  -2.210  0.00  0.00    -0.059 A 
ATOM     15  H   UNK d   0       5.069  -0.006  -0.400  0.00  0.00     0.062 H 
ATOM     16  H   UNK d   0       4.882  -1.971  -1.873  0.00  0.00     0.062 H 
ENDBRANCH   3   6
ENDBRANCH   1   3
BRANCH   1  17
ATOM     17  C   UNK d   0       5.143  -3.785  -5.627  0.00  0.00     0.237 C 
ATOM     18  O   UNK d   0       4.168  -4.506  -5.616  0.00  0.00    -0.274 OA
ATOM     19  N   UNK d   1       6.132  -4.003  -6.517  0.00  0.00    -0.305 N 
ATOM     20  H   UNK d   1       6.912  -3.426  -6.526  0.00  0.00     0.149 HD
BRANCH  19  21
ATOM     21  C   UNK d   1       6.029  -5.109  -7.471  0.00  0.00     0.072 C 
ATOM     22  H   UNK d   1       5.127  -5.686  -7.263  0.00  0.00     0.057 H 
BRANCH  21  23
ATOM     23  C   UNK d   1       5.960  -4.553  -8.894  0.00  0.00     0.019 C 
ATOM     24  H   UNK d   1       5.924  -3.464  -8.856  0.00  0.00     0.040 H 
ATOM     25  H   UNK d   1       6.843  -4.867  -9.450  0.00  0.00     0.040 H 
BRANCH  23  26
ATOM     26  S   UNK d   1       4.470  -5.179  -9.717  0.00  0.00    -0.140 SA
BRANCH  26  27
ATOM     27  C   UNK d   1       3.127  -4.193  -9.001  0.00  0.00     0.059 C 
ATOM     28  H   UNK d   1       2.201  -4.392  -9.543  0.00  0.00     0.058 H 
ATOM     29  H   UNK d   1       2.998  -4.462  -7.952  0.00  0.00     0.058 H 
BRANCH  27  30
ATOM     30  N   UNK d   1       3.456  -2.770  -9.104  0.00  0.00    -0.302 N 
ATOM     31  C   UNK d   1       2.554  -1.903  -9.605  0.00  0.00     0.245 C 
ATOM     32  O   UNK d   1       1.467  -2.304  -9.973  0.00  0.00    -0.270 OA
ATOM     33  H   UNK d   1       4.325  -2.450  -8.811  0.00  0.00     0.150 HD
BRANCH  31  34
ATOM     34  C   UNK d   1       2.888  -0.467  -9.709  0.00  0.00     0.037 A 
ATOM     35  C   UNK d   1       2.476   0.421  -8.714  0.00  0.00    -0.050 A 
ATOM     36  C   UNK d   1       2.796   1.760  -8.813  0.00  0.00    -0.061 A 
ATOM     37  H   UNK d   1       1.914   0.061  -7.865  0.00  0.00     0.062 H 
ATOM     38  C   UNK d   1       3.511   2.224  -9.903  0.00  0.00    -0.062 A 
ATOM     39  H   UNK d   1       2.483   2.448  -8.042  0.00  0.00     0.062 H 
ATOM     40  C   UNK d   1       3.917   1.350 -10.896  0.00  0.00    -0.061 A 
ATOM     41  H   UNK d   1       3.755   3.274  -9.979  0.00  0.00     0.062 H 
ATOM     42  C   UNK d   1       3.610   0.008 -10.805  0.00  0.00    -0.050 A 
ATOM     43  H   UNK d   1       4.476   1.718 -11.743  0.00  0.00     0.062 H 
ATOM     44  H   UNK d   1       3.927  -0.673 -11.580  0.00  0.00     0.062 H 
ENDBRANCH  31  34
ENDBRANCH  27  30
ENDBRANCH  26  27
ENDBRANCH  23  26
ENDBRANCH  21  23
BRANCH  21  45
ATOM     45  C   UNK d   1       7.236  -6.002  -7.337  0.00  0.00     0.063 C 
ATOM     46  O   UNK d   1       7.848  -6.353  -8.331  0.00  0.00    -0.548 OA
ATOM     47  O   UNK d   1       7.601  -6.372  -6.234  0.00  0.00    -0.548 OA
ENDBRANCH  21  45
ENDBRANCH  19  21
ENDBRANCH   1  17
BRANCH   1  48
ATOM     48  N   UNK d   0       6.099  -1.594  -5.211  0.00  0.00    -0.248 N 
ATOM     49  C   UNK d   0       7.232  -1.253  -4.578  0.00  0.00     0.331 A 
ATOM     50  N   UNK d   0       8.065  -0.302  -5.038  0.00  0.00    -0.307 N 
ATOM     51  O   UNK d   0       7.521  -1.832  -3.549  0.00  0.00    -0.246 OA
ATOM     52  C   UNK d   0       7.774   0.389  -6.204  0.00  0.00     0.056 A 
ATOM     53  H   UNK d   0       8.875  -0.095  -4.546  0.00  0.00     0.170 HD
ATOM     54  C   UNK d   0       6.595   0.073  -6.903  0.00  0.00     0.063 A 
ATOM     55  C   UNK d   0       8.616   1.376  -6.693  0.00  0.00    -0.037 A 
ATOM     56  C   UNK d   0       5.723  -0.982  -6.355  0.00  0.00     0.265 A 
ATOM     57  C   UNK d   0       6.277   0.751  -8.077  0.00  0.00    -0.047 A 
ATOM     58  O   UNK d   0       4.691  -1.293  -6.919  0.00  0.00    -0.267 OA
ATOM     59  C   UNK d   0       7.126   1.730  -8.547  0.00  0.00    -0.061 A 
ATOM     60  H   UNK d   0       5.372   0.510  -8.615  0.00  0.00     0.063 H 
ATOM     61  C   UNK d   0       8.289   2.040  -7.859  0.00  0.00    -0.060 A 
ATOM     62  H   UNK d   0       6.883   2.258  -9.457  0.00  0.00     0.062 H 
ATOM     63  H   UNK d   0       8.945   2.809  -8.238  0.00  0.00     0.062 H 
ATOM     64  H   UNK d   0       9.524   1.624  -6.165  0.00  0.00     0.064 H 
ENDBRANCH   1  48
TORSDOF 11
ENDMDL
MODEL 4
REMARK VINA RESULT:      -7.0      3.644      6.424
REMARK  11 active torsions:
REMARK  status: ('A' for Active; 'I' for Inactive)
REMARK    1  A    between atoms: C_4  and  C_7 
REMARK    2  A    between atoms: C_7  and  C_8 
REMARK    3  A    between atoms: C_8  and  C_10 
REMARK    4  A    between atoms: C_8  and  N_30 
REMARK       I    between atoms: C_10  and  N_12 
REMARK    5  A    between atoms: N_12  and  C_13 
REMARK    6  A    between atoms: C_13  and  C_15 
REMARK    7  A    between atoms: C_13  and  C_27 
REMARK    8  A    between atoms: C_15  and  S_16 
REMARK    9  A    between atoms: S_16  and  C_17 
REMARK   10  A    between atoms: C_17  and  N_18 
REMARK       I    between atoms: N_18  and  C_19 
REMARK   11  A    between atoms: C_19  and  C_21 
ROOT
ATOM      1  C   UNK d   0       7.457  -3.072  -6.126  0.00  0.00     0.122 C 
ATOM      2  H   UNK d   0       8.374  -2.742  -6.614  0.00  0.00     0.063 H 
ENDROOT
BRANCH   1   3
ATOM      3  C   UNK d   0       7.735  -4.345  -5.324  0.00  0.00     0.002 C 
ATOM      4  H   UNK d   0       7.767  -5.201  -6.000  0.00  0.00     0.034 H 
ATOM      5  H   UNK d   0       6.944  -4.491  -4.589  0.00  0.00     0.034 H 
BRANCH   3   6
ATOM      6  C   UNK d   0       9.060  -4.214  -4.617  0.00  0.00    -0.045 A 
ATOM      7  C   UNK d   0      10.163  -3.736  -5.299  0.00  0.00    -0.059 A 
ATOM      8  C   UNK d   0      11.377  -3.614  -4.651  0.00  0.00    -0.061 A 
ATOM      9  H   UNK d   0      10.075  -3.458  -6.339  0.00  0.00     0.062 H 
ATOM     10  C   UNK d   0      11.488  -3.970  -3.319  0.00  0.00    -0.062 A 
ATOM     11  H   UNK d   0      12.239  -3.242  -5.184  0.00  0.00     0.062 H 
ATOM     12  C   UNK d   0      10.385  -4.446  -2.637  0.00  0.00    -0.061 A 
ATOM     13  H   UNK d   0      12.438  -3.878  -2.814  0.00  0.00     0.062 H 
ATOM     14  C   UNK d   0       9.171  -4.569  -3.286  0.00  0.00    -0.059 A 
ATOM     15  H   UNK d   0      10.471  -4.724  -1.596  0.00  0.00     0.062 H 
ATOM     16  H   UNK d   0       8.308  -4.942  -2.752  0.00  0.00     0.062 H 
ENDBRANCH   3   6
ENDBRANCH   1   3
BRANCH   1  17
ATOM     17  C   UNK d   0       6.406  -3.356  -7.169  0.00  0.00     0.237 C 
ATOM     18  O   UNK d   0       6.064  -2.483  -7.939  0.00  0.00    -0.274 OA
ATOM     19  N   UNK d   1       5.848  -4.581  -7.248  0.00  0.00    -0.305 N 
ATOM     20  H   UNK d   1       6.123  -5.279  -6.633  0.00  0.00     0.149 HD
BRANCH  19  21
ATOM     21  C   UNK d   1       4.828  -4.857  -8.262  0.00  0.00     0.072 C 
ATOM     22  H   UNK d   1       4.427  -3.916  -8.640  0.00  0.00     0.057 H 
BRANCH  21  23
ATOM     23  C   UNK d   1       5.454  -5.644  -9.415  0.00  0.00     0.019 C 
ATOM     24  H   UNK d   1       6.450  -5.980  -9.126  0.00  0.00     0.040 H 
ATOM     25  H   UNK d   1       4.831  -6.508  -9.645  0.00  0.00     0.040 H 
BRANCH  23  26
ATOM     26  S   UNK d   1       5.576  -4.579 -10.878  0.00  0.00    -0.140 SA
BRANCH  26  27
ATOM     27  C   UNK d   1       3.942  -3.799 -10.990  0.00  0.00     0.059 C 
ATOM     28  H   UNK d   1       3.548  -3.924 -11.999  0.00  0.00     0.058 H 
ATOM     29  H   UNK d   1       3.265  -4.267 -10.275  0.00  0.00     0.058 H 
BRANCH  27  30
ATOM     30  N   UNK d   1       4.060  -2.370 -10.686  0.00  0.00    -0.302 N 
ATOM     31  C   UNK d   1       3.138  -1.768  -9.909  0.00  0.00     0.245 C 
ATOM     32  O   UNK d   1       2.209  -2.410  -9.461  0.00  0.00    -0.270 OA
ATOM     33  H   UNK d   1       4.803  -1.858 -11.045  0.00  0.00     0.150 HD
BRANCH  31  34
ATOM     34  C   UNK d   1       3.258  -0.327  -9.603  0.00  0.00     0.037 A 
ATOM     35  C   UNK d   1       2.849   0.162  -8.361  0.00  0.00    -0.050 A 
ATOM     36  C   UNK d   1       2.968   1.508  -8.080  0.00  0.00    -0.061 A 
ATOM     37  H   UNK d   1       2.445  -0.512  -7.621  0.00  0.00     0.062 H 
ATOM     38  C   UNK d   1       3.480   2.373  -9.030  0.00  0.00    -0.062 A 
ATOM     39  H   UNK d   1       2.658   1.887  -7.118  0.00  0.00     0.062 H 
ATOM     40  C   UNK d   1       3.882   1.896 -10.265  0.00  0.00    -0.061 A 
ATOM     41  H   UNK d   1       3.568   3.427  -8.807  0.00  0.00     0.062 H 
ATOM     42  C   UNK d   1       3.774   0.552 -10.557  0.00  0.00    -0.050 A 
ATOM     43  H   UNK d   1       4.282   2.577 -11.002  0.00  0.00     0.062 H 
ATOM     44  H   UNK d   1       4.089   0.181 -11.521  0.00  0.00     0.062 H 
ENDBRANCH  31  34
ENDBRANCH  27  30
ENDBRANCH  26  27
ENDBRANCH  23  26
ENDBRANCH  21  23
BRANCH  21  45
ATOM     45  C   UNK d   1       3.715  -5.666  -7.647  0.00  0.00     0.063 C 
ATOM     46  O   UNK d   1       3.141  -6.515  -8.306  0.00  0.00    -0.548 OA
ATOM     47  O   UNK d   1       3.389  -5.471  -6.487  0.00  0.00    -0.548 OA
ENDBRANCH  21  45
ENDBRANCH  19  21
ENDBRANCH   1  17
BRANCH   1  48
ATOM     48  N   UNK d   0       6.979  -2.022  -5.225  0.00  0.00    -0.248 N 
ATOM     49  C   UNK d   0       7.576  -0.820  -5.238  0.00  0.00     0.331 A 
ATOM     50  N   UNK d   0       7.190   0.194  -4.444  0.00  0.00    -0.307 N 
ATOM     51  O   UNK d   0       8.504  -0.640  -6.003  0.00  0.00    -0.246 OA
ATOM     52  C   UNK d   0       6.141   0.033  -3.551  0.00  0.00     0.056 A 
ATOM     53  H   UNK d   0       7.652   1.046  -4.494  0.00  0.00     0.170 HD
ATOM     54  C   UNK d   0       5.484  -1.209  -3.494  0.00  0.00     0.063 A 
ATOM     55  C   UNK d   0       5.730   1.064  -2.720  0.00  0.00    -0.037 A 
ATOM     56  C   UNK d   0       5.947  -2.283  -4.392  0.00  0.00     0.265 A 
ATOM     57  C   UNK d   0       4.428  -1.400  -2.607  0.00  0.00    -0.047 A 
ATOM     58  O   UNK d   0       5.415  -3.376  -4.383  0.00  0.00    -0.267 OA
ATOM     59  C   UNK d   0       4.034  -0.363  -1.788  0.00  0.00    -0.061 A 
ATOM     60  H   UNK d   0       3.922  -2.353  -2.562  0.00  0.00     0.063 H 
ATOM     61  C   UNK d   0       4.681   0.862  -1.845  0.00  0.00    -0.060 A 
ATOM     62  H   UNK d   0       3.215  -0.507  -1.098  0.00  0.00     0.062 H 
ATOM     63  H   UNK d   0       4.362   1.665  -1.198  0.00  0.00     0.062 H 
ATOM     64  H   UNK d   0       6.228   2.021  -2.757  0.00  0.00     0.064 H 
ENDBRANCH   1  48
TORSDOF 11
ENDMDL
MODEL 5
REMARK VINA RESULT:      -7.0      2.213      6.942
REMARK  11 active torsions:
REMARK  status: ('A' for Active; 'I' for Inactive)
REMARK    1  A    between atoms: C_4  and  C_7 
REMARK    2  A    between atoms: C_7  and  C_8 
REMARK    3  A    between atoms: C_8  and  C_10 
REMARK    4  A    between atoms: C_8  and  N_30 
REMARK       I    between atoms: C_10  and  N_12 
REMARK    5  A    between atoms: N_12  and  C_13 
REMARK    6  A    between atoms: C_13  and  C_15 
REMARK    7  A    between atoms: C_13  and  C_27 
REMARK    8  A    between atoms: C_15  and  S_16 
REMARK    9  A    between atoms: S_16  and  C_17 
REMARK   10  A    between atoms: C_17  and  N_18 
REMARK       I    between atoms: N_18  and  C_19 
REMARK   11  A    between atoms: C_19  and  C_21 
ROOT
ATOM      1  C   UNK d   0       4.509   0.013  -8.577  0.00  0.00     0.122 C 
ATOM      2  H   UNK d   0       4.844  -0.720  -9.310  0.00  0.00     0.063 H 
ENDROOT
BRANCH   1   3
ATOM      3  C   UNK d   0       3.112   0.511  -8.954  0.00  0.00     0.002 C 
ATOM      4  H   UNK d   0       3.148   1.585  -9.141  0.00  0.00     0.034 H 
ATOM      5  H   UNK d   0       2.421   0.307  -8.137  0.00  0.00     0.034 H 
BRANCH   3   6
ATOM      6  C   UNK d   0       2.645  -0.200 -10.198  0.00  0.00    -0.045 A 
ATOM      7  C   UNK d   0       3.487  -0.313 -11.288  0.00  0.00    -0.059 A 
ATOM      8  C   UNK d   0       3.059  -0.967 -12.428  0.00  0.00    -0.061 A 
ATOM      9  H   UNK d   0       4.480   0.109 -11.248  0.00  0.00     0.062 H 
ATOM     10  C   UNK d   0       1.787  -1.509 -12.477  0.00  0.00    -0.062 A 
ATOM     11  H   UNK d   0       3.716  -1.055 -13.279  0.00  0.00     0.062 H 
ATOM     12  C   UNK d   0       0.945  -1.397 -11.387  0.00  0.00    -0.061 A 
ATOM     13  H   UNK d   0       1.451  -2.016 -13.369  0.00  0.00     0.062 H 
ATOM     14  C   UNK d   0       1.373  -0.742 -10.247  0.00  0.00    -0.059 A 
ATOM     15  H   UNK d   0      -0.048  -1.820 -11.426  0.00  0.00     0.062 H 
ATOM     16  H   UNK d   0       0.715  -0.654  -9.395  0.00  0.00     0.062 H 
ENDBRANCH   3   6
ENDBRANCH   1   3
BRANCH   1  17
ATOM     17  C   UNK d   0       5.467   1.176  -8.554  0.00  0.00     0.237 C 
ATOM     18  O   UNK d   0       5.089   2.281  -8.882  0.00  0.00    -0.274 OA
ATOM     19  N   UNK d   1       6.745   0.989  -8.166  0.00  0.00    -0.305 N 
ATOM     20  H   UNK d   1       7.048   0.106  -7.903  0.00  0.00     0.149 HD
BRANCH  19  21
ATOM     21  C   UNK d   1       7.677   2.119  -8.143  0.00  0.00     0.072 C 
ATOM     22  H   UNK d   1       7.115   3.052  -8.104  0.00  0.00     0.057 H 
BRANCH  21  23
ATOM     23  C   UNK d   1       8.576   2.014  -6.910  0.00  0.00     0.019 C 
ATOM     24  H   UNK d   1       9.610   1.874  -7.226  0.00  0.00     0.040 H 
ATOM     25  H   UNK d   1       8.496   2.929  -6.323  0.00  0.00     0.040 H 
BRANCH  23  26
ATOM     26  S   UNK d   1       8.057   0.600  -5.901  0.00  0.00    -0.140 SA
BRANCH  26  27
ATOM     27  C   UNK d   1       8.378   1.134  -4.198  0.00  0.00     0.059 C 
ATOM     28  H   UNK d   1       7.551   0.824  -3.557  0.00  0.00     0.058 H 
ATOM     29  H   UNK d   1       9.302   0.679  -3.842  0.00  0.00     0.058 H 
BRANCH  27  30
ATOM     30  N   UNK d   1       8.505   2.593  -4.159  0.00  0.00    -0.302 N 
ATOM     31  C   UNK d   1       9.537   3.163  -3.504  0.00  0.00     0.245 C 
ATOM     32  O   UNK d   1      10.361   2.465  -2.947  0.00  0.00    -0.270 OA
ATOM     33  H   UNK d   1       7.846   3.150  -4.604  0.00  0.00     0.150 HD
BRANCH  31  34
ATOM     34  C   UNK d   1       9.664   4.635  -3.465  0.00  0.00     0.037 A 
ATOM     35  C   UNK d   1      10.058   5.272  -2.287  0.00  0.00    -0.050 A 
ATOM     36  C   UNK d   1      10.180   6.647  -2.258  0.00  0.00    -0.061 A 
ATOM     37  H   UNK d   1      10.272   4.691  -1.402  0.00  0.00     0.062 H 
ATOM     38  C   UNK d   1       9.902   7.393  -3.389  0.00  0.00    -0.062 A 
ATOM     39  H   UNK d   1      10.490   7.141  -1.350  0.00  0.00     0.062 H 
ATOM     40  C   UNK d   1       9.506   6.768  -4.558  0.00  0.00    -0.061 A 
ATOM     41  H   UNK d   1       9.995   8.469  -3.361  0.00  0.00     0.062 H 
ATOM     42  C   UNK d   1       9.385   5.393  -4.602  0.00  0.00    -0.050 A 
ATOM     43  H   UNK d   1       9.290   7.355  -5.438  0.00  0.00     0.062 H 
ATOM     44  H   UNK d   1       9.076   4.907  -5.515  0.00  0.00     0.062 H 
ENDBRANCH  31  34
ENDBRANCH  27  30
ENDBRANCH  26  27
ENDBRANCH  23  26
ENDBRANCH  21  23
BRANCH  21  45
ATOM     45  C   UNK d   1       8.526   2.096  -9.388  0.00  0.00     0.063 C 
ATOM     46  O   UNK d   1       8.845   3.141  -9.929  0.00  0.00    -0.548 OA
ATOM     47  O   UNK d   1       8.895   1.031  -9.855  0.00  0.00    -0.548 OA
ENDBRANCH  21  45
ENDBRANCH  19  21
ENDBRANCH   1  17
BRANCH   1  48
ATOM     48  N   UNK d   0       4.464  -0.608  -7.251  0.00  0.00    -0.248 N 
ATOM     49  C   UNK d   0       5.167  -1.729  -7.025  0.00  0.00     0.331 A 
ATOM     50  N   UNK d   0       5.179  -2.353  -5.834  0.00  0.00    -0.307 N 
ATOM     51  O   UNK d   0       5.824  -2.197  -7.934  0.00  0.00    -0.246 OA
ATOM     52  C   UNK d   0       4.440  -1.859  -4.769  0.00  0.00     0.056 A 
ATOM     53  H   UNK d   0       5.707  -3.159  -5.719  0.00  0.00     0.170 HD
ATOM     54  C   UNK d   0       3.682  -0.690  -4.956  0.00  0.00     0.063 A 
ATOM     55  C   UNK d   0       4.435  -2.489  -3.534  0.00  0.00    -0.037 A 
ATOM     56  C   UNK d   0       3.711  -0.045  -6.281  0.00  0.00     0.265 A 
ATOM     57  C   UNK d   0       2.930  -0.171  -3.904  0.00  0.00    -0.047 A 
ATOM     58  O   UNK d   0       3.072   0.967  -6.496  0.00  0.00    -0.267 OA
ATOM     59  C   UNK d   0       2.936  -0.812  -2.684  0.00  0.00    -0.061 A 
ATOM     60  H   UNK d   0       2.347   0.727  -4.045  0.00  0.00     0.063 H 
ATOM     61  C   UNK d   0       3.685  -1.964  -2.500  0.00  0.00    -0.060 A 
ATOM     62  H   UNK d   0       2.355  -0.413  -1.866  0.00  0.00     0.062 H 
ATOM     63  H   UNK d   0       3.682  -2.456  -1.539  0.00  0.00     0.062 H 
ATOM     64  H   UNK d   0       5.015  -3.387  -3.382  0.00  0.00     0.064 H 
ENDBRANCH   1  48
TORSDOF 11
ENDMDL
MODEL 6
REMARK VINA RESULT:      -7.0      4.591      8.184
REMARK  11 active torsions:
REMARK  status: ('A' for Active; 'I' for Inactive)
REMARK    1  A    between atoms: C_4  and  C_7 
REMARK    2  A    between atoms: C_7  and  C_8 
REMARK    3  A    between atoms: C_8  and  C_10 
REMARK    4  A    between atoms: C_8  and  N_30 
REMARK       I    between atoms: C_10  and  N_12 
REMARK    5  A    between atoms: N_12  and  C_13 
REMARK    6  A    between atoms: C_13  and  C_15 
REMARK    7  A    between atoms: C_13  and  C_27 
REMARK    8  A    between atoms: C_15  and  S_16 
REMARK    9  A    between atoms: S_16  and  C_17 
REMARK   10  A    between atoms: C_17  and  N_18 
REMARK       I    between atoms: N_18  and  C_19 
REMARK   11  A    between atoms: C_19  and  C_21 
ROOT
ATOM      1  C   UNK d   0       6.705  -1.751  -5.153  0.00  0.00     0.122 C 
ATOM      2  H   UNK d   0       7.195  -0.789  -5.007  0.00  0.00     0.063 H 
ENDROOT
BRANCH   1   3
ATOM      3  C   UNK d   0       6.090  -2.218  -3.832  0.00  0.00     0.002 C 
ATOM      4  H   UNK d   0       6.885  -2.457  -3.125  0.00  0.00     0.034 H 
ATOM      5  H   UNK d   0       5.481  -3.104  -4.008  0.00  0.00     0.034 H 
BRANCH   3   6
ATOM      6  C   UNK d   0       5.227  -1.120  -3.265  0.00  0.00    -0.045 A 
ATOM      7  C   UNK d   0       5.797   0.079  -2.881  0.00  0.00    -0.059 A 
ATOM      8  C   UNK d   0       5.005   1.087  -2.363  0.00  0.00    -0.061 A 
ATOM      9  H   UNK d   0       6.861   0.229  -2.987  0.00  0.00     0.062 H 
ATOM     10  C   UNK d   0       3.642   0.894  -2.228  0.00  0.00    -0.062 A 
ATOM     11  H   UNK d   0       5.450   2.023  -2.063  0.00  0.00     0.062 H 
ATOM     12  C   UNK d   0       3.072  -0.305  -2.613  0.00  0.00    -0.061 A 
ATOM     13  H   UNK d   0       3.024   1.680  -1.820  0.00  0.00     0.062 H 
ATOM     14  C   UNK d   0       3.864  -1.312  -3.131  0.00  0.00    -0.059 A 
ATOM     15  H   UNK d   0       2.007  -0.455  -2.508  0.00  0.00     0.062 H 
ATOM     16  H   UNK d   0       3.418  -2.249  -3.431  0.00  0.00     0.062 H 
ENDBRANCH   3   6
ENDBRANCH   1   3
BRANCH   1  17
ATOM     17  C   UNK d   0       7.717  -2.766  -5.621  0.00  0.00     0.237 C 
ATOM     18  O   UNK d   0       8.247  -2.639  -6.705  0.00  0.00    -0.274 OA
ATOM     19  N   UNK d   1       8.034  -3.814  -4.834  0.00  0.00    -0.305 N 
ATOM     20  H   UNK d   1       7.611  -3.915  -3.967  0.00  0.00     0.149 HD
BRANCH  19  21
ATOM     21  C   UNK d   1       9.019  -4.799  -5.288  0.00  0.00     0.072 C 
ATOM     22  H   UNK d   1       9.317  -4.570  -6.311  0.00  0.00     0.057 H 
BRANCH  21  23
ATOM     23  C   UNK d   1      10.246  -4.752  -4.376  0.00  0.00     0.019 C 
ATOM     24  H   UNK d   1      10.827  -5.666  -4.503  0.00  0.00     0.040 H 
ATOM     25  H   UNK d   1      10.861  -3.891  -4.639  0.00  0.00     0.040 H 
BRANCH  23  26
ATOM     26  S   UNK d   1       9.712  -4.610  -2.649  0.00  0.00    -0.140 SA
BRANCH  26  27
ATOM     27  C   UNK d   1      10.173  -6.203  -1.915  0.00  0.00     0.059 C 
ATOM     28  H   UNK d   1      10.958  -6.666  -2.514  0.00  0.00     0.058 H 
ATOM     29  H   UNK d   1      10.538  -6.045  -0.900  0.00  0.00     0.058 H 
BRANCH  27  30
ATOM     30  N   UNK d   1       9.002  -7.083  -1.881  0.00  0.00    -0.302 N 
ATOM     31  C   UNK d   1       9.132  -8.390  -2.187  0.00  0.00     0.245 C 
ATOM     32  O   UNK d   1      10.220  -8.837  -2.491  0.00  0.00    -0.270 OA
ATOM     33  H   UNK d   1       8.133  -6.725  -1.639  0.00  0.00     0.150 HD
BRANCH  31  34
ATOM     34  C   UNK d   1       7.950  -9.277  -2.153  0.00  0.00     0.037 A 
ATOM     35  C   UNK d   1       7.074  -9.318  -3.240  0.00  0.00    -0.050 A 
ATOM     36  C   UNK d   1       5.975 -10.152  -3.205  0.00  0.00    -0.061 A 
ATOM     37  H   UNK d   1       7.258  -8.702  -4.108  0.00  0.00     0.062 H 
ATOM     38  C   UNK d   1       5.735 -10.938  -2.091  0.00  0.00    -0.062 A 
ATOM     39  H   UNK d   1       5.299 -10.190  -4.046  0.00  0.00     0.062 H 
ATOM     40  C   UNK d   1       6.596 -10.897  -1.009  0.00  0.00    -0.061 A 
ATOM     41  H   UNK d   1       4.871 -11.586  -2.067  0.00  0.00     0.062 H 
ATOM     42  C   UNK d   1       7.702 -10.072  -1.034  0.00  0.00    -0.050 A 
ATOM     43  H   UNK d   1       6.403 -11.513  -0.143  0.00  0.00     0.062 H 
ATOM     44  H   UNK d   1       8.373 -10.042  -0.189  0.00  0.00     0.062 H 
ENDBRANCH  31  34
ENDBRANCH  27  30
ENDBRANCH  26  27
ENDBRANCH  23  26
ENDBRANCH  21  23
BRANCH  21  45
ATOM     45  C   UNK d   1       8.409  -6.176  -5.240  0.00  0.00     0.063 C 
ATOM     46  O   UNK d   1       7.198  -6.307  -5.211  0.00  0.00    -0.548 OA
ATOM     47  O   UNK d   1       9.129  -7.161  -5.231  0.00  0.00    -0.548 OA
ENDBRANCH  21  45
ENDBRANCH  19  21
ENDBRANCH   1  17
BRANCH   1  48
ATOM     48  N   UNK d   0       5.651  -1.614  -6.161  0.00  0.00    -0.248 N 
ATOM     49  C   UNK d   0       4.913  -2.685  -6.492  0.00  0.00     0.331 A 
ATOM     50  N   UNK d   0       3.925  -2.635  -7.403  0.00  0.00    -0.307 N 
ATOM     51  O   UNK d   0       5.143  -3.743  -5.940  0.00  0.00    -0.246 OA
ATOM     52  C   UNK d   0       3.630  -1.451  -8.062  0.00  0.00     0.056 A 
ATOM     53  H   UNK d   0       3.417  -3.437  -7.605  0.00  0.00     0.170 HD
ATOM     54  C   UNK d   0       4.378  -0.300  -7.755  0.00  0.00     0.063 A 
ATOM     55  C   UNK d   0       2.619  -1.378  -9.008  0.00  0.00    -0.037 A 
ATOM     56  C   UNK d   0       5.445  -0.412  -6.743  0.00  0.00     0.265 A 
ATOM     57  C   UNK d   0       4.104   0.903  -8.401  0.00  0.00    -0.047 A 
ATOM     58  O   UNK d   0       6.122   0.552  -6.442  0.00  0.00    -0.267 OA
ATOM     59  C   UNK d   0       3.096   0.955  -9.340  0.00  0.00    -0.061 A 
ATOM     60  H   UNK d   0       4.677   1.788  -8.167  0.00  0.00     0.063 H 
ATOM     61  C   UNK d   0       2.357  -0.179  -9.641  0.00  0.00    -0.060 A 
ATOM     62  H   UNK d   0       2.880   1.886  -9.843  0.00  0.00     0.062 H 
ATOM     63  H   UNK d   0       1.570  -0.124 -10.378  0.00  0.00     0.062 H 
ATOM     64  H   UNK d   0       2.039  -2.256  -9.249  0.00  0.00     0.064 H 
ENDBRANCH   1  48
TORSDOF 11
ENDMDL
MODEL 7
REMARK VINA RESULT:      -7.0      2.044      4.771
REMARK  11 active torsions:
REMARK  status: ('A' for Active; 'I' for Inactive)
REMARK    1  A    between atoms: C_4  and  C_7 
REMARK    2  A    between atoms: C_7  and  C_8 
REMARK    3  A    between atoms: C_8  and  C_10 
REMARK    4  A    between atoms: C_8  and  N_30 
REMARK       I    between atoms: C_10  and  N_12 
REMARK    5  A    between atoms: N_12  and  C_13 
REMARK    6  A    between atoms: C_13  and  C_15 
REMARK    7  A    between atoms: C_13  and  C_27 
REMARK    8  A    between atoms: C_15  and  S_16 
REMARK    9  A    between atoms: S_16  and  C_17 
REMARK   10  A    between atoms: C_17  and  N_18 
REMARK       I    between atoms: N_18  and  C_19 
REMARK   11  A    between atoms: C_19  and  C_21 
ROOT
ATOM      1  C   UNK d   0       7.745  -1.035  -7.379  0.00  0.00     0.122 C 
ATOM      2  H   UNK d   0       8.572  -1.654  -7.725  0.00  0.00     0.063 H 
ENDROOT
BRANCH   1   3
ATOM      3  C   UNK d   0       6.647  -1.928  -6.795  0.00  0.00     0.002 C 
ATOM      4  H   UNK d   0       6.030  -2.320  -7.604  0.00  0.00     0.034 H 
ATOM      5  H   UNK d   0       6.028  -1.344  -6.115  0.00  0.00     0.034 H 
BRANCH   3   6
ATOM      6  C   UNK d   0       7.278  -3.072  -6.045  0.00  0.00    -0.045 A 
ATOM      7  C   UNK d   0       7.569  -2.940  -4.700  0.00  0.00    -0.059 A 
ATOM      8  C   UNK d   0       8.147  -3.990  -4.011  0.00  0.00    -0.061 A 
ATOM      9  H   UNK d   0       7.345  -2.016  -4.188  0.00  0.00     0.062 H 
ATOM     10  C   UNK d   0       8.433  -5.173  -4.668  0.00  0.00    -0.062 A 
ATOM     11  H   UNK d   0       8.375  -3.887  -2.961  0.00  0.00     0.062 H 
ATOM     12  C   UNK d   0       8.140  -5.306  -6.012  0.00  0.00    -0.061 A 
ATOM     13  H   UNK d   0       8.887  -5.992  -4.131  0.00  0.00     0.062 H 
ATOM     14  C   UNK d   0       7.564  -4.255  -6.701  0.00  0.00    -0.059 A 
ATOM     15  H   UNK d   0       8.363  -6.230  -6.525  0.00  0.00     0.062 H 
ATOM     16  H   UNK d   0       7.336  -4.358  -7.752  0.00  0.00     0.062 H 
ENDBRANCH   3   6
ENDBRANCH   1   3
BRANCH   1  17
ATOM     17  C   UNK d   0       7.188  -0.247  -8.537  0.00  0.00     0.237 C 
ATOM     18  O   UNK d   0       7.938   0.245  -9.353  0.00  0.00    -0.274 OA
ATOM     19  N   UNK d   1       5.854  -0.091  -8.666  0.00  0.00    -0.305 N 
ATOM     20  H   UNK d   1       5.254  -0.485  -8.014  0.00  0.00     0.149 HD
BRANCH  19  21
ATOM     21  C   UNK d   1       5.312   0.674  -9.792  0.00  0.00     0.072 C 
ATOM     22  H   UNK d   1       6.007   0.628 -10.631  0.00  0.00     0.057 H 
BRANCH  21  23
ATOM     23  C   UNK d   1       3.967   0.081 -10.212  0.00  0.00     0.019 C 
ATOM     24  H   UNK d   1       3.224   0.877 -10.277  0.00  0.00     0.040 H 
ATOM     25  H   UNK d   1       4.069  -0.401 -11.184  0.00  0.00     0.040 H 
BRANCH  23  26
ATOM     26  S   UNK d   1       3.435  -1.142  -8.982  0.00  0.00    -0.140 SA
BRANCH  26  27
ATOM     27  C   UNK d   1       2.662  -0.146  -7.679  0.00  0.00     0.059 C 
ATOM     28  H   UNK d   1       2.883   0.908  -7.847  0.00  0.00     0.058 H 
ATOM     29  H   UNK d   1       1.582  -0.297  -7.698  0.00  0.00     0.058 H 
BRANCH  27  30
ATOM     30  N   UNK d   1       3.189  -0.554  -6.374  0.00  0.00    -0.302 N 
ATOM     31  C   UNK d   1       3.029   0.247  -5.302  0.00  0.00     0.245 C 
ATOM     32  O   UNK d   1       2.447   1.307  -5.418  0.00  0.00    -0.270 OA
ATOM     33  H   UNK d   1       3.655  -1.401  -6.282  0.00  0.00     0.150 HD
BRANCH  31  34
ATOM     34  C   UNK d   1       3.562  -0.164  -3.986  0.00  0.00     0.037 A 
ATOM     35  C   UNK d   1       3.993   0.799  -3.073  0.00  0.00    -0.050 A 
ATOM     36  C   UNK d   1       4.484   0.409  -1.843  0.00  0.00    -0.061 A 
ATOM     37  H   UNK d   1       3.936   1.848  -3.325  0.00  0.00     0.062 H 
ATOM     38  C   UNK d   1       4.562  -0.934  -1.521  0.00  0.00    -0.062 A 
ATOM     39  H   UNK d   1       4.812   1.153  -1.133  0.00  0.00     0.062 H 
ATOM     40  C   UNK d   1       4.142  -1.894  -2.424  0.00  0.00    -0.061 A 
ATOM     41  H   UNK d   1       4.951  -1.235  -0.559  0.00  0.00     0.062 H 
ATOM     42  C   UNK d   1       3.643  -1.517  -3.654  0.00  0.00    -0.050 A 
ATOM     43  H   UNK d   1       4.204  -2.941  -2.167  0.00  0.00     0.062 H 
ATOM     44  H   UNK d   1       3.315  -2.268  -4.358  0.00  0.00     0.062 H 
ENDBRANCH  31  34
ENDBRANCH  27  30
ENDBRANCH  26  27
ENDBRANCH  23  26
ENDBRANCH  21  23
BRANCH  21  45
ATOM     45  C   UNK d   1       5.122   2.111  -9.378  0.00  0.00     0.063 C 
ATOM     46  O   UNK d   1       3.999   2.554  -9.213  0.00  0.00    -0.548 OA
ATOM     47  O   UNK d   1       6.093   2.829  -9.206  0.00  0.00    -0.548 OA
ENDBRANCH  21  45
ENDBRANCH  19  21
ENDBRANCH   1  17
BRANCH   1  48
ATOM     48  N   UNK d   0       8.224  -0.113  -6.347  0.00  0.00    -0.248 N 
ATOM     49  C   UNK d   0       7.347   0.688  -5.722  0.00  0.00     0.331 A 
ATOM     50  N   UNK d   0       7.711   1.557  -4.761  0.00  0.00    -0.307 N 
ATOM     51  O   UNK d   0       6.174   0.623  -6.033  0.00  0.00    -0.246 OA
ATOM     52  C   UNK d   0       9.038   1.670  -4.377  0.00  0.00     0.056 A 
ATOM     53  H   UNK d   0       7.038   2.112  -4.336  0.00  0.00     0.170 HD
ATOM     54  C   UNK d   0       9.998   0.857  -5.005  0.00  0.00     0.063 A 
ATOM     55  C   UNK d   0       9.436   2.562  -3.392  0.00  0.00    -0.037 A 
ATOM     56  C   UNK d   0       9.541  -0.081  -6.047  0.00  0.00     0.265 A 
ATOM     57  C   UNK d   0      11.338   0.949  -4.639  0.00  0.00    -0.047 A 
ATOM     58  O   UNK d   0      10.329  -0.806  -6.622  0.00  0.00    -0.267 OA
ATOM     59  C   UNK d   0      11.714   1.843  -3.659  0.00  0.00    -0.061 A 
ATOM     60  H   UNK d   0      12.077   0.325  -5.120  0.00  0.00     0.063 H 
ATOM     61  C   UNK d   0      10.768   2.644  -3.039  0.00  0.00    -0.060 A 
ATOM     62  H   UNK d   0      12.753   1.918  -3.372  0.00  0.00     0.062 H 
ATOM     63  H   UNK d   0      11.076   3.340  -2.272  0.00  0.00     0.062 H 
ATOM     64  H   UNK d   0       8.706   3.190  -2.903  0.00  0.00     0.064 H 
ENDBRANCH   1  48
TORSDOF 11
ENDMDL
MODEL 8
REMARK VINA RESULT:      -6.9      3.059      6.614
REMARK  11 active torsions:
REMARK  status: ('A' for Active; 'I' for Inactive)
REMARK    1  A    between atoms: C_4  and  C_7 
REMARK    2  A    between atoms: C_7  and  C_8 
REMARK    3  A    between atoms: C_8  and  C_10 
REMARK    4  A    between atoms: C_8  and  N_30 
REMARK       I    between atoms: C_10  and  N_12 
REMARK    5  A    between atoms: N_12  and  C_13 
REMARK    6  A    between atoms: C_13  and  C_15 
REMARK    7  A    between atoms: C_13  and  C_27 
REMARK    8  A    between atoms: C_15  and  S_16 
REMARK    9  A    between atoms: S_16  and  C_17 
REMARK   10  A    between atoms: C_17  and  N_18 
REMARK       I    between atoms: N_18  and  C_19 
REMARK   11  A    between atoms: C_19  and  C_21 
ROOT
ATOM      1  C   UNK d   0       6.762  -2.100  -4.821  0.00  0.00     0.122 C 
ATOM      2  H   UNK d   0       5.842  -1.703  -5.252  0.00  0.00     0.063 H 
ENDROOT
BRANCH   1   3
ATOM      3  C   UNK d   0       6.804  -1.784  -3.325  0.00  0.00     0.002 C 
ATOM      4  H   UNK d   0       7.753  -1.306  -3.081  0.00  0.00     0.034 H 
ATOM      5  H   UNK d   0       6.705  -2.707  -2.756  0.00  0.00     0.034 H 
BRANCH   3   6
ATOM      6  C   UNK d   0       5.669  -0.855  -2.976  0.00  0.00    -0.045 A 
ATOM      7  C   UNK d   0       5.886   0.508  -2.912  0.00  0.00    -0.059 A 
ATOM      8  C   UNK d   0       4.845   1.360  -2.594  0.00  0.00    -0.061 A 
ATOM      9  H   UNK d   0       6.870   0.908  -3.110  0.00  0.00     0.062 H 
ATOM     10  C   UNK d   0       3.586   0.848  -2.340  0.00  0.00    -0.062 A 
ATOM     11  H   UNK d   0       5.015   2.425  -2.543  0.00  0.00     0.062 H 
ATOM     12  C   UNK d   0       3.368  -0.516  -2.406  0.00  0.00    -0.061 A 
ATOM     13  H   UNK d   0       2.774   1.513  -2.088  0.00  0.00     0.062 H 
ATOM     14  C   UNK d   0       4.410  -1.367  -2.723  0.00  0.00    -0.059 A 
ATOM     15  H   UNK d   0       2.385  -0.916  -2.208  0.00  0.00     0.062 H 
ATOM     16  H   UNK d   0       4.240  -2.433  -2.774  0.00  0.00     0.062 H 
ENDBRANCH   3   6
ENDBRANCH   1   3
BRANCH   1  17
ATOM     17  C   UNK d   0       7.949  -1.468  -5.502  0.00  0.00     0.237 C 
ATOM     18  O   UNK d   0       8.049  -1.507  -6.710  0.00  0.00    -0.274 OA
ATOM     19  N   UNK d   1       8.900  -0.857  -4.766  0.00  0.00    -0.305 N 
ATOM     20  H   UNK d   1       8.821  -0.825  -3.800  0.00  0.00     0.149 HD
BRANCH  19  21
ATOM     21  C   UNK d   1      10.054  -0.242  -5.427  0.00  0.00     0.072 C 
ATOM     22  H   UNK d   1       9.859  -0.159  -6.496  0.00  0.00     0.057 H 
BRANCH  21  23
ATOM     23  C   UNK d   1      10.293   1.152  -4.843  0.00  0.00     0.019 C 
ATOM     24  H   UNK d   1      10.317   1.089  -3.755  0.00  0.00     0.040 H 
ATOM     25  H   UNK d   1      11.245   1.539  -5.205  0.00  0.00     0.040 H 
BRANCH  23  26
ATOM     26  S   UNK d   1       8.953   2.261  -5.356  0.00  0.00    -0.140 SA
BRANCH  26  27
ATOM     27  C   UNK d   1       8.718   1.880  -7.113  0.00  0.00     0.059 C 
ATOM     28  H   UNK d   1       8.985   2.750  -7.713  0.00  0.00     0.058 H 
ATOM     29  H   UNK d   1       9.353   1.039  -7.392  0.00  0.00     0.058 H 
BRANCH  27  30
ATOM     30  N   UNK d   1       7.315   1.533  -7.355  0.00  0.00    -0.302 N 
ATOM     31  C   UNK d   1       6.737   1.841  -8.533  0.00  0.00     0.245 C 
ATOM     32  O   UNK d   1       7.380   2.406  -9.395  0.00  0.00    -0.270 OA
ATOM     33  H   UNK d   1       6.801   1.082  -6.665  0.00  0.00     0.150 HD
BRANCH  31  34
ATOM     34  C   UNK d   1       5.321   1.491  -8.775  0.00  0.00     0.037 A 
ATOM     35  C   UNK d   1       4.873   0.189  -8.546  0.00  0.00    -0.050 A 
ATOM     36  C   UNK d   1       3.549  -0.130  -8.769  0.00  0.00    -0.061 A 
ATOM     37  H   UNK d   1       5.559  -0.565  -8.191  0.00  0.00     0.062 H 
ATOM     38  C   UNK d   1       2.670   0.834  -9.229  0.00  0.00    -0.062 A 
ATOM     39  H   UNK d   1       3.198  -1.135  -8.587  0.00  0.00     0.062 H 
ATOM     40  C   UNK d   1       3.109   2.125  -9.463  0.00  0.00    -0.061 A 
ATOM     41  H   UNK d   1       1.635   0.579  -9.406  0.00  0.00     0.062 H 
ATOM     42  C   UNK d   1       4.430   2.459  -9.239  0.00  0.00    -0.050 A 
ATOM     43  H   UNK d   1       2.419   2.874  -9.822  0.00  0.00     0.062 H 
ATOM     44  H   UNK d   1       4.771   3.467  -9.421  0.00  0.00     0.062 H 
ENDBRANCH  31  34
ENDBRANCH  27  30
ENDBRANCH  26  27
ENDBRANCH  23  26
ENDBRANCH  21  23
BRANCH  21  45
ATOM     45  C   UNK d   1      11.275  -1.097  -5.205  0.00  0.00     0.063 C 
ATOM     46  O   UNK d   1      11.430  -2.118  -5.851  0.00  0.00    -0.548 OA
ATOM     47  O   UNK d   1      12.109  -0.766  -4.378  0.00  0.00    -0.548 OA
ENDBRANCH  21  45
ENDBRANCH  19  21
ENDBRANCH   1  17
BRANCH   1  48
ATOM     48  N   UNK d   0       6.804  -3.551  -5.015  0.00  0.00    -0.248 N 
ATOM     49  C   UNK d   0       7.916  -4.227  -4.684  0.00  0.00     0.331 A 
ATOM     50  N   UNK d   0       8.028  -5.559  -4.828  0.00  0.00    -0.307 N 
ATOM     51  O   UNK d   0       8.859  -3.609  -4.230  0.00  0.00    -0.246 OA
ATOM     52  C   UNK d   0       6.980  -6.305  -5.347  0.00  0.00     0.056 A 
ATOM     53  H   UNK d   0       8.851  -6.003  -4.570  0.00  0.00     0.170 HD
ATOM     54  C   UNK d   0       5.795  -5.644  -5.714  0.00  0.00     0.063 A 
ATOM     55  C   UNK d   0       7.076  -7.679  -5.508  0.00  0.00    -0.037 A 
ATOM     56  C   UNK d   0       5.726  -4.183  -5.529  0.00  0.00     0.265 A 
ATOM     57  C   UNK d   0       4.726  -6.367  -6.238  0.00  0.00    -0.047 A 
ATOM     58  O   UNK d   0       4.725  -3.562  -5.832  0.00  0.00    -0.267 OA
ATOM     59  C   UNK d   0       4.841  -7.732  -6.392  0.00  0.00    -0.061 A 
ATOM     60  H   UNK d   0       3.814  -5.861  -6.521  0.00  0.00     0.063 H 
ATOM     61  C   UNK d   0       6.009  -8.384  -6.029  0.00  0.00    -0.060 A 
ATOM     62  H   UNK d   0       4.015  -8.297  -6.798  0.00  0.00     0.062 H 
ATOM     63  H   UNK d   0       6.085  -9.454  -6.154  0.00  0.00     0.062 H 
ATOM     64  H   UNK d   0       7.982  -8.195  -5.227  0.00  0.00     0.064 H 
ENDBRANCH   1  48
TORSDOF 11
ENDMDL
MODEL 9
REMARK VINA RESULT:      -6.8      2.311      5.870
REMARK  11 active torsions:
REMARK  status: ('A' for Active; 'I' for Inactive)
REMARK    1  A    between atoms: C_4  and  C_7 
REMARK    2  A    between atoms: C_7  and  C_8 
REMARK    3  A    between atoms: C_8  and  C_10 
REMARK    4  A    between atoms: C_8  and  N_30 
REMARK       I    between atoms: C_10  and  N_12 
REMARK    5  A    between atoms: N_12  and  C_13 
REMARK    6  A    between atoms: C_13  and  C_15 
REMARK    7  A    between atoms: C_13  and  C_27 
REMARK    8  A    between atoms: C_15  and  S_16 
REMARK    9  A    between atoms: S_16  and  C_17 
REMARK   10  A    between atoms: C_17  and  N_18 
REMARK       I    between atoms: N_18  and  C_19 
REMARK   11  A    between atoms: C_19  and  C_21 
ROOT
ATOM      1  C   UNK d   0       5.071   0.368  -9.536  0.00  0.00     0.122 C 
ATOM      2  H   UNK d   0       5.505  -0.081 -10.429  0.00  0.00     0.063 H 
ENDROOT
BRANCH   1   3
ATOM      3  C   UNK d   0       3.661   0.872  -9.851  0.00  0.00     0.002 C 
ATOM      4  H   UNK d   0       3.722   1.870 -10.286  0.00  0.00     0.034 H 
ATOM      5  H   UNK d   0       3.076   0.910  -8.933  0.00  0.00     0.034 H 
BRANCH   3   6
ATOM      6  C   UNK d   0       3.001  -0.064 -10.830  0.00  0.00    -0.045 A 
ATOM      7  C   UNK d   0       3.652  -0.416 -11.997  0.00  0.00    -0.059 A 
ATOM      8  C   UNK d   0       3.047  -1.276 -12.894  0.00  0.00    -0.061 A 
ATOM      9  H   UNK d   0       4.635  -0.020 -12.207  0.00  0.00     0.062 H 
ATOM     10  C   UNK d   0       1.789  -1.783 -12.624  0.00  0.00    -0.062 A 
ATOM     11  H   UNK d   0       3.556  -1.551 -13.806  0.00  0.00     0.062 H 
ATOM     12  C   UNK d   0       1.138  -1.431 -11.457  0.00  0.00    -0.061 A 
ATOM     13  H   UNK d   0       1.315  -2.451 -13.327  0.00  0.00     0.062 H 
ATOM     14  C   UNK d   0       1.743  -0.571 -10.560  0.00  0.00    -0.059 A 
ATOM     15  H   UNK d   0       0.156  -1.827 -11.246  0.00  0.00     0.062 H 
ATOM     16  H   UNK d   0       1.234  -0.295  -9.648  0.00  0.00     0.062 H 
ENDBRANCH   3   6
ENDBRANCH   1   3
BRANCH   1  17
ATOM     17  C   UNK d   0       5.929   1.523  -9.085  0.00  0.00     0.237 C 
ATOM     18  O   UNK d   0       5.477   2.648  -9.081  0.00  0.00    -0.274 OA
ATOM     19  N   UNK d   1       7.198   1.304  -8.685  0.00  0.00    -0.305 N 
ATOM     20  H   UNK d   1       7.559   0.404  -8.688  0.00  0.00     0.149 HD
BRANCH  19  21
ATOM     21  C   UNK d   1       8.031   2.426  -8.247  0.00  0.00     0.072 C 
ATOM     22  H   UNK d   1       7.396   3.213  -7.838  0.00  0.00     0.057 H 
BRANCH  21  23
ATOM     23  C   UNK d   1       9.006   1.948  -7.170  0.00  0.00     0.019 C 
ATOM     24  H   UNK d   1      10.011   2.297  -7.409  0.00  0.00     0.040 H 
ATOM     25  H   UNK d   1       8.704   2.347  -6.202  0.00  0.00     0.040 H 
BRANCH  23  26
ATOM     26  S   UNK d   1       8.996   0.135  -7.107  0.00  0.00    -0.140 SA
BRANCH  26  27
ATOM     27  C   UNK d   1       9.343  -0.246  -5.368  0.00  0.00     0.059 C 
ATOM     28  H   UNK d   1       9.986  -1.124  -5.309  0.00  0.00     0.058 H 
ATOM     29  H   UNK d   1       9.844   0.603  -4.903  0.00  0.00     0.058 H 
BRANCH  27  30
ATOM     30  N   UNK d   1       8.085  -0.514  -4.666  0.00  0.00    -0.302 N 
ATOM     31  C   UNK d   1       7.519   0.444  -3.905  0.00  0.00     0.245 C 
ATOM     32  O   UNK d   1       8.054   1.530  -3.801  0.00  0.00    -0.270 OA
ATOM     33  H   UNK d   1       7.659  -1.382  -4.750  0.00  0.00     0.150 HD
BRANCH  31  34
ATOM     34  C   UNK d   1       6.251   0.172  -3.197  0.00  0.00     0.037 A 
ATOM     35  C   UNK d   1       5.448   1.230  -2.767  0.00  0.00    -0.050 A 
ATOM     36  C   UNK d   1       4.262   0.969  -2.112  0.00  0.00    -0.061 A 
ATOM     37  H   UNK d   1       5.751   2.250  -2.952  0.00  0.00     0.062 H 
ATOM     38  C   UNK d   1       3.874  -0.337  -1.869  0.00  0.00    -0.062 A 
ATOM     39  H   UNK d   1       3.636   1.786  -1.784  0.00  0.00     0.062 H 
ATOM     40  C   UNK d   1       4.668  -1.390  -2.288  0.00  0.00    -0.061 A 
ATOM     41  H   UNK d   1       2.947  -0.536  -1.352  0.00  0.00     0.062 H 
ATOM     42  C   UNK d   1       5.854  -1.143  -2.950  0.00  0.00    -0.050 A 
ATOM     43  H   UNK d   1       4.361  -2.407  -2.096  0.00  0.00     0.062 H 
ATOM     44  H   UNK d   1       6.472  -1.966  -3.276  0.00  0.00     0.062 H 
ENDBRANCH  31  34
ENDBRANCH  27  30
ENDBRANCH  26  27
ENDBRANCH  23  26
ENDBRANCH  21  23
BRANCH  21  45
ATOM     45  C   UNK d   1       8.805   2.967  -9.422  0.00  0.00     0.063 C 
ATOM     46  O   UNK d   1       8.723   4.147  -9.715  0.00  0.00    -0.548 OA
ATOM     47  O   UNK d   1       9.514   2.223 -10.079  0.00  0.00    -0.548 OA
ENDBRANCH  21  45
ENDBRANCH  19  21
ENDBRANCH   1  17
BRANCH   1  48
ATOM     48  N   UNK d   0       5.004  -0.635  -8.470  0.00  0.00    -0.248 N 
ATOM     49  C   UNK d   0       4.307  -0.365  -7.356  0.00  0.00     0.331 A 
ATOM     50  N   UNK d   0       4.195  -1.236  -6.337  0.00  0.00    -0.307 N 
ATOM     51  O   UNK d   0       3.748   0.711  -7.265  0.00  0.00    -0.246 OA
ATOM     52  C   UNK d   0       4.820  -2.473  -6.394  0.00  0.00     0.056 A 
ATOM     53  H   UNK d   0       3.676  -0.995  -5.554  0.00  0.00     0.170 HD
ATOM     54  C   UNK d   0       5.568  -2.803  -7.538  0.00  0.00     0.063 A 
ATOM     55  C   UNK d   0       4.723  -3.384  -5.353  0.00  0.00    -0.037 A 
ATOM     56  C   UNK d   0       5.651  -1.810  -8.626  0.00  0.00     0.265 A 
ATOM     57  C   UNK d   0       6.207  -4.037  -7.622  0.00  0.00    -0.047 A 
ATOM     58  O   UNK d   0       6.286  -2.045  -9.636  0.00  0.00    -0.267 OA
ATOM     59  C   UNK d   0       6.099  -4.930  -6.577  0.00  0.00    -0.061 A 
ATOM     60  H   UNK d   0       6.782  -4.293  -8.500  0.00  0.00     0.063 H 
ATOM     61  C   UNK d   0       5.361  -4.605  -5.449  0.00  0.00    -0.060 A 
ATOM     62  H   UNK d   0       6.593  -5.889  -6.638  0.00  0.00     0.062 H 
ATOM     63  H   UNK d   0       5.284  -5.314  -4.638  0.00  0.00     0.062 H 
ATOM     64  H   UNK d   0       4.149  -3.140  -4.471  0.00  0.00     0.064 H 
ENDBRANCH   1  48
TORSDOF 11
ENDMDL
