MODEL 1
REMARK VINA RESULT:      -8.0      0.000      0.000
REMARK  4 active torsions:
REMARK  status: ('A' for Active; 'I' for Inactive)
REMARK    1  A    between atoms: C_1  and  O_2 
REMARK    2  A    between atoms: O_2  and  C_3 
REMARK    3  A    between atoms: C_6  and  C_9 
REMARK    4  A    between atoms: N_21  and  C_24 
ROOT
ATOM      1  C   LIG d   1       2.601  -1.183 -10.888  0.00  0.00    -0.001 A 
ATOM      2  C   LIG d   1       2.879   0.146 -10.622  0.00  0.00     0.031 A 
ATOM      3  C   LIG d   1       3.506   0.495  -9.416  0.00  0.00     0.338 A 
ATOM      4  O   LIG d   1       3.747   1.668  -9.191  0.00  0.00    -0.245 OA
ATOM      5  O   LIG d   1       3.847  -0.428  -8.503  0.00  0.00    -0.422 OA
ATOM      6  C   LIG d   1       3.608  -1.744  -8.693  0.00  0.00     0.147 A 
ATOM      7  C   LIG d   1       2.979  -2.180  -9.872  0.00  0.00     0.026 A 
ATOM      8  C   LIG d   1       2.726  -3.539 -10.067  0.00  0.00    -0.047 A 
ATOM      9  C   LIG d   1       3.088  -4.441  -9.109  0.00  0.00    -0.019 A 
ATOM     10  C   LIG d   1       3.711  -4.016  -7.935  0.00  0.00     0.130 A 
ATOM     11  C   LIG d   1       3.979  -2.674  -7.732  0.00  0.00     0.051 A 
ATOM     12  C   LIG d   1       4.659  -2.203  -6.471  0.00  0.00     0.035 C 
ATOM     13  N   LIG d   1       4.585  -3.256  -5.449  0.00  0.00    -0.259 N 
ATOM     14  C   LIG d   1       5.018  -4.544  -6.014  0.00  0.00     0.144 C 
ATOM     15  O   LIG d   1       4.055  -4.943  -7.001  0.00  0.00    -0.476 OA
ATOM     16  H   LIG d   1       2.615   0.910 -11.340  0.00  0.00     0.070 H 
ATOM     17  H   LIG d   1       2.244  -3.875 -10.973  0.00  0.00     0.063 H 
ATOM     18  H   LIG d   1       2.890  -5.492  -9.260  0.00  0.00     0.065 H 
ATOM     19  H   LIG d   1       5.703  -1.977  -6.685  0.00  0.00     0.048 H 
ATOM     20  H   LIG d   1       4.161  -1.305  -6.105  0.00  0.00     0.048 H 
ATOM     21  H   LIG d   1       6.003  -4.432  -6.467  0.00  0.00     0.087 H 
ATOM     22  H   LIG d   1       5.059  -5.295  -5.225  0.00  0.00     0.087 H 
ENDROOT
BRANCH  13  23
ATOM     23  C   LIG d   1       5.387  -2.902  -4.270  0.00  0.00     0.039 C 
ATOM     24  H   LIG d   1       5.389  -3.738  -3.572  0.00  0.00     0.051 H 
ATOM     25  C   LIG d   1       4.782  -1.696  -3.600  0.00  0.00    -0.027 A 
ATOM     26  C   LIG d   1       5.543  -0.657  -3.114  0.00  0.00    -0.043 A 
ATOM     27  C   LIG d   1       3.399  -1.651  -3.476  0.00  0.00    -0.057 A 
ATOM     28  C   LIG d   1       7.045  -0.634  -3.220  0.00  0.00    -0.027 C 
ATOM     29  C   LIG d   1       4.922   0.422  -2.501  0.00  0.00    -0.058 A 
ATOM     30  C   LIG d   1       7.584  -2.034  -3.508  0.00  0.00    -0.047 C 
ATOM     31  H   LIG d   1       7.466  -0.273  -2.282  0.00  0.00     0.031 H 
ATOM     32  H   LIG d   1       7.339   0.037  -4.028  0.00  0.00     0.031 H 
ATOM     33  C   LIG d   1       6.821  -2.608  -4.708  0.00  0.00    -0.033 C 
ATOM     34  H   LIG d   1       7.434  -2.671  -2.637  0.00  0.00     0.027 H 
ATOM     35  H   LIG d   1       8.647  -1.977  -3.743  0.00  0.00     0.027 H 
ATOM     36  H   LIG d   1       7.300  -3.531  -5.039  0.00  0.00     0.028 H 
ATOM     37  H   LIG d   1       6.816  -1.884  -5.521  0.00  0.00     0.028 H 
ATOM     38  C   LIG d   1       3.549   0.465  -2.378  0.00  0.00    -0.061 A 
ATOM     39  H   LIG d   1       5.519   1.237  -2.117  0.00  0.00     0.062 H 
ATOM     40  C   LIG d   1       2.784  -0.576  -2.868  0.00  0.00    -0.061 A 
ATOM     41  H   LIG d   1       3.074   1.309  -1.900  0.00  0.00     0.062 H 
ATOM     42  H   LIG d   1       1.708  -0.548  -2.776  0.00  0.00     0.062 H 
ATOM     43  H   LIG d   1       2.801  -2.465  -3.859  0.00  0.00     0.062 H 
ENDBRANCH  13  23
BRANCH   1  44
ATOM     44  C   LIG d   1       1.941  -1.589 -12.145  0.00  0.00    -0.017 A 
ATOM     45  C   LIG d   1       0.549  -1.703 -12.200  0.00  0.00    -0.051 A 
ATOM     46  C   LIG d   1      -0.062  -2.080 -13.376  0.00  0.00    -0.019 A 
ATOM     47  H   LIG d   1      -0.045  -1.496 -11.323  0.00  0.00     0.062 H 
ATOM     48  C   LIG d   1       0.702  -2.347 -14.505  0.00  0.00     0.120 A 
ATOM     49  H   LIG d   1      -1.138  -2.168 -13.420  0.00  0.00     0.065 H 
ATOM     50  C   LIG d   1       2.086  -2.240 -14.453  0.00  0.00    -0.019 A 
ATOM     51  C   LIG d   1       2.706  -1.857 -13.283  0.00  0.00    -0.051 A 
ATOM     52  H   LIG d   1       2.678  -2.451 -15.331  0.00  0.00     0.065 H 
ATOM     53  H   LIG d   1       3.782  -1.770 -13.244  0.00  0.00     0.062 H 
BRANCH  48  54
ATOM     54  O   LIG d   1       0.095  -2.719 -15.661  0.00  0.00    -0.495 OA
BRANCH  54  55
ATOM     55  C   LIG d   1      -1.014  -1.930 -16.095  0.00  0.00     0.079 C 
ATOM     56  H   LIG d   1      -1.523  -1.509 -15.228  0.00  0.00     0.066 H 
ATOM     57  H   LIG d   1      -0.658  -1.122 -16.735  0.00  0.00     0.066 H 
ATOM     58  H   LIG d   1      -1.710  -2.556 -16.655  0.00  0.00     0.066 H 
ENDBRANCH  54  55
ENDBRANCH  48  54
ENDBRANCH   1  44
TORSDOF 4
ENDMDL
MODEL 2
REMARK VINA RESULT:      -7.7      1.844      2.074
REMARK  4 active torsions:
REMARK  status: ('A' for Active; 'I' for Inactive)
REMARK    1  A    between atoms: C_1  and  O_2 
REMARK    2  A    between atoms: O_2  and  C_3 
REMARK    3  A    between atoms: C_6  and  C_9 
REMARK    4  A    between atoms: N_21  and  C_24 
ROOT
ATOM      1  C   LIG d   1       1.950  -2.216 -10.132  0.00  0.00    -0.001 A 
ATOM      2  C   LIG d   1       1.722  -0.852 -10.065  0.00  0.00     0.031 A 
ATOM      3  C   LIG d   1       2.443  -0.074  -9.147  0.00  0.00     0.338 A 
ATOM      4  O   LIG d   1       2.236   1.127  -9.096  0.00  0.00    -0.245 OA
ATOM      5  O   LIG d   1       3.354  -0.614  -8.322  0.00  0.00    -0.422 OA
ATOM      6  C   LIG d   1       3.630  -1.936  -8.331  0.00  0.00     0.147 A 
ATOM      7  C   LIG d   1       2.950  -2.790  -9.216  0.00  0.00     0.026 A 
ATOM      8  C   LIG d   1       3.230  -4.158  -9.223  0.00  0.00    -0.047 A 
ATOM      9  C   LIG d   1       4.162  -4.663  -8.364  0.00  0.00    -0.019 A 
ATOM     10  C   LIG d   1       4.840  -3.823  -7.480  0.00  0.00     0.130 A 
ATOM     11  C   LIG d   1       4.583  -2.464  -7.470  0.00  0.00     0.051 A 
ATOM     12  C   LIG d   1       5.315  -1.544  -6.525  0.00  0.00     0.035 C 
ATOM     13  N   LIG d   1       5.944  -2.334  -5.458  0.00  0.00    -0.259 N 
ATOM     14  C   LIG d   1       6.700  -3.457  -6.035  0.00  0.00     0.144 C 
ATOM     15  O   LIG d   1       5.761  -4.362  -6.636  0.00  0.00    -0.476 OA
ATOM     16  H   LIG d   1       0.993  -0.390 -10.717  0.00  0.00     0.070 H 
ATOM     17  H   LIG d   1       2.709  -4.814  -9.904  0.00  0.00     0.063 H 
ATOM     18  H   LIG d   1       4.377  -5.721  -8.368  0.00  0.00     0.065 H 
ATOM     19  H   LIG d   1       6.083  -0.998  -7.073  0.00  0.00     0.048 H 
ATOM     20  H   LIG d   1       4.609  -0.838  -6.088  0.00  0.00     0.048 H 
ATOM     21  H   LIG d   1       7.399  -3.082  -6.782  0.00  0.00     0.087 H 
ATOM     22  H   LIG d   1       7.245  -3.975  -5.246  0.00  0.00     0.087 H 
ENDROOT
BRANCH  13  23
ATOM     23  C   LIG d   1       6.809  -1.491  -4.621  0.00  0.00     0.039 C 
ATOM     24  H   LIG d   1       7.546  -2.119  -4.121  0.00  0.00     0.051 H 
ATOM     25  C   LIG d   1       5.969  -0.790  -3.586  0.00  0.00    -0.027 A 
ATOM     26  C   LIG d   1       6.153   0.533  -3.254  0.00  0.00    -0.043 A 
ATOM     27  C   LIG d   1       4.977  -1.526  -2.951  0.00  0.00    -0.057 A 
ATOM     28  C   LIG d   1       7.204   1.393  -3.905  0.00  0.00    -0.027 C 
ATOM     29  C   LIG d   1       5.349   1.118  -2.285  0.00  0.00    -0.058 A 
ATOM     30  C   LIG d   1       8.253   0.527  -4.598  0.00  0.00    -0.047 C 
ATOM     31  H   LIG d   1       7.689   2.006  -3.145  0.00  0.00     0.031 H 
ATOM     32  H   LIG d   1       6.731   2.044  -4.641  0.00  0.00     0.031 H 
ATOM     33  C   LIG d   1       7.529  -0.475  -5.505  0.00  0.00    -0.033 C 
ATOM     34  H   LIG d   1       8.838  -0.009  -3.852  0.00  0.00     0.027 H 
ATOM     35  H   LIG d   1       8.911   1.156  -5.199  0.00  0.00     0.027 H 
ATOM     36  H   LIG d   1       8.255  -0.989  -6.137  0.00  0.00     0.028 H 
ATOM     37  H   LIG d   1       6.805   0.048  -6.128  0.00  0.00     0.028 H 
ATOM     38  C   LIG d   1       4.365   0.386  -1.655  0.00  0.00    -0.061 A 
ATOM     39  H   LIG d   1       5.495   2.156  -2.022  0.00  0.00     0.062 H 
ATOM     40  C   LIG d   1       4.177  -0.942  -1.990  0.00  0.00    -0.061 A 
ATOM     41  H   LIG d   1       3.743   0.848  -0.903  0.00  0.00     0.062 H 
ATOM     42  H   LIG d   1       3.407  -1.520  -1.501  0.00  0.00     0.062 H 
ATOM     43  H   LIG d   1       4.830  -2.563  -3.212  0.00  0.00     0.062 H 
ENDBRANCH  13  23
BRANCH   1  44
ATOM     44  C   LIG d   1       1.209  -3.067 -11.084  0.00  0.00    -0.017 A 
ATOM     45  C   LIG d   1       0.149  -3.860 -10.638  0.00  0.00    -0.051 A 
ATOM     46  C   LIG d   1      -0.540  -4.652 -11.530  0.00  0.00    -0.019 A 
ATOM     47  H   LIG d   1      -0.131  -3.850  -9.595  0.00  0.00     0.062 H 
ATOM     48  C   LIG d   1      -0.182  -4.664 -12.872  0.00  0.00     0.120 A 
ATOM     49  H   LIG d   1      -1.361  -5.264 -11.185  0.00  0.00     0.065 H 
ATOM     50  C   LIG d   1       0.876  -3.882 -13.320  0.00  0.00    -0.019 A 
ATOM     51  C   LIG d   1       1.567  -3.082 -12.435  0.00  0.00    -0.051 A 
ATOM     52  H   LIG d   1       1.155  -3.896 -14.363  0.00  0.00     0.065 H 
ATOM     53  H   LIG d   1       2.386  -2.471 -12.784  0.00  0.00     0.062 H 
BRANCH  48  54
ATOM     54  O   LIG d   1      -0.863  -5.447 -13.748  0.00  0.00    -0.495 OA
BRANCH  54  55
ATOM     55  C   LIG d   1      -1.497  -6.612 -13.219  0.00  0.00     0.079 C 
ATOM     56  H   LIG d   1      -2.459  -6.338 -12.784  0.00  0.00     0.066 H 
ATOM     57  H   LIG d   1      -1.653  -7.337 -14.018  0.00  0.00     0.066 H 
ATOM     58  H   LIG d   1      -0.864  -7.053 -12.448  0.00  0.00     0.066 H 
ENDBRANCH  54  55
ENDBRANCH  48  54
ENDBRANCH   1  44
TORSDOF 4
ENDMDL
MODEL 3
REMARK VINA RESULT:      -7.6      3.277      9.401
REMARK  4 active torsions:
REMARK  status: ('A' for Active; 'I' for Inactive)
REMARK    1  A    between atoms: C_1  and  O_2 
REMARK    2  A    between atoms: O_2  and  C_3 
REMARK    3  A    between atoms: C_6  and  C_9 
REMARK    4  A    between atoms: N_21  and  C_24 
ROOT
ATOM      1  C   LIG d   1       8.318  -3.769  -5.348  0.00  0.00    -0.001 A 
ATOM      2  C   LIG d   1       8.985  -3.722  -6.560  0.00  0.00     0.031 A 
ATOM      3  C   LIG d   1       8.449  -2.969  -7.616  0.00  0.00     0.338 A 
ATOM      4  O   LIG d   1       9.044  -2.933  -8.679  0.00  0.00    -0.245 OA
ATOM      5  O   LIG d   1       7.300  -2.288  -7.488  0.00  0.00    -0.422 OA
ATOM      6  C   LIG d   1       6.595  -2.286  -6.336  0.00  0.00     0.147 A 
ATOM      7  C   LIG d   1       7.057  -3.018  -5.229  0.00  0.00     0.026 A 
ATOM      8  C   LIG d   1       6.326  -3.022  -4.039  0.00  0.00    -0.047 A 
ATOM      9  C   LIG d   1       5.161  -2.316  -3.957  0.00  0.00    -0.019 A 
ATOM     10  C   LIG d   1       4.694  -1.589  -5.052  0.00  0.00     0.130 A 
ATOM     11  C   LIG d   1       5.413  -1.565  -6.234  0.00  0.00     0.051 A 
ATOM     12  C   LIG d   1       4.923  -0.776  -7.422  0.00  0.00     0.035 C 
ATOM     13  N   LIG d   1       3.502  -0.447  -7.243  0.00  0.00    -0.259 N 
ATOM     14  C   LIG d   1       3.278   0.127  -5.907  0.00  0.00     0.144 C 
ATOM     15  O   LIG d   1       3.527  -0.899  -4.935  0.00  0.00    -0.476 OA
ATOM     16  H   LIG d   1       9.912  -4.262  -6.691  0.00  0.00     0.070 H 
ATOM     17  H   LIG d   1       6.681  -3.583  -3.188  0.00  0.00     0.063 H 
ATOM     18  H   LIG d   1       4.595  -2.321  -3.037  0.00  0.00     0.065 H 
ATOM     19  H   LIG d   1       5.501   0.144  -7.510  0.00  0.00     0.048 H 
ATOM     20  H   LIG d   1       5.048  -1.370  -8.328  0.00  0.00     0.048 H 
ATOM     21  H   LIG d   1       3.952   0.969  -5.753  0.00  0.00     0.087 H 
ATOM     22  H   LIG d   1       2.244   0.462  -5.821  0.00  0.00     0.087 H 
ENDROOT
BRANCH  13  23
ATOM     23  C   LIG d   1       3.038   0.468  -8.295  0.00  0.00     0.039 C 
ATOM     24  H   LIG d   1       2.143   0.986  -7.951  0.00  0.00     0.051 H 
ATOM     25  C   LIG d   1       2.710  -0.323  -9.534  0.00  0.00    -0.027 A 
ATOM     26  C   LIG d   1       3.058   0.098 -10.797  0.00  0.00    -0.043 A 
ATOM     27  C   LIG d   1       2.025  -1.521  -9.374  0.00  0.00    -0.057 A 
ATOM     28  C   LIG d   1       3.807   1.381 -11.046  0.00  0.00    -0.027 C 
ATOM     29  C   LIG d   1       2.718  -0.675 -11.898  0.00  0.00    -0.058 A 
ATOM     30  C   LIG d   1       3.721   2.298  -9.827  0.00  0.00    -0.047 C 
ATOM     31  H   LIG d   1       3.375   1.888 -11.908  0.00  0.00     0.031 H 
ATOM     32  H   LIG d   1       4.853   1.153 -11.251  0.00  0.00     0.031 H 
ATOM     33  C   LIG d   1       4.132   1.494  -8.588  0.00  0.00    -0.033 C 
ATOM     34  H   LIG d   1       2.699   2.657  -9.709  0.00  0.00     0.027 H 
ATOM     35  H   LIG d   1       4.396   3.144  -9.955  0.00  0.00     0.027 H 
ATOM     36  H   LIG d   1       4.244   2.165  -7.735  0.00  0.00     0.028 H 
ATOM     37  H   LIG d   1       5.074   0.981  -8.778  0.00  0.00     0.028 H 
ATOM     38  C   LIG d   1       2.039  -1.864 -11.738  0.00  0.00    -0.061 A 
ATOM     39  H   LIG d   1       2.990  -0.344 -12.890  0.00  0.00     0.062 H 
ATOM     40  C   LIG d   1       1.690  -2.290 -10.469  0.00  0.00    -0.061 A 
ATOM     41  H   LIG d   1       1.779  -2.460 -12.600  0.00  0.00     0.062 H 
ATOM     42  H   LIG d   1       1.159  -3.220 -10.337  0.00  0.00     0.062 H 
ATOM     43  H   LIG d   1       1.753  -1.853  -8.383  0.00  0.00     0.062 H 
ENDBRANCH  13  23
BRANCH   1  44
ATOM     44  C   LIG d   1       8.849  -4.551  -4.214  0.00  0.00    -0.017 A 
ATOM     45  C   LIG d   1       9.362  -3.897  -3.091  0.00  0.00    -0.051 A 
ATOM     46  C   LIG d   1       9.856  -4.631  -2.035  0.00  0.00    -0.019 A 
ATOM     47  H   LIG d   1       9.370  -2.818  -3.050  0.00  0.00     0.062 H 
ATOM     48  C   LIG d   1       9.846  -6.019  -2.085  0.00  0.00     0.120 A 
ATOM     49  H   LIG d   1      10.252  -4.126  -1.165  0.00  0.00     0.065 H 
ATOM     50  C   LIG d   1       9.342  -6.674  -3.202  0.00  0.00    -0.019 A 
ATOM     51  C   LIG d   1       8.840  -5.947  -4.261  0.00  0.00    -0.051 A 
ATOM     52  H   LIG d   1       9.338  -7.753  -3.240  0.00  0.00     0.065 H 
ATOM     53  H   LIG d   1       8.445  -6.457  -5.127  0.00  0.00     0.062 H 
BRANCH  48  54
ATOM     54  O   LIG d   1      10.334  -6.739  -1.042  0.00  0.00    -0.495 OA
BRANCH  54  55
ATOM     55  C   LIG d   1      10.857  -8.035  -1.337  0.00  0.00     0.079 C 
ATOM     56  H   LIG d   1      11.284  -8.036  -2.341  0.00  0.00     0.066 H 
ATOM     57  H   LIG d   1      11.632  -8.289  -0.613  0.00  0.00     0.066 H 
ATOM     58  H   LIG d   1      10.055  -8.771  -1.284  0.00  0.00     0.066 H 
ENDBRANCH  54  55
ENDBRANCH  48  54
ENDBRANCH   1  44
TORSDOF 4
ENDMDL
MODEL 4
REMARK VINA RESULT:      -7.5      2.031      2.495
REMARK  4 active torsions:
REMARK  status: ('A' for Active; 'I' for Inactive)
REMARK    1  A    between atoms: C_1  and  O_2 
REMARK    2  A    between atoms: O_2  and  C_3 
REMARK    3  A    between atoms: C_6  and  C_9 
REMARK    4  A    between atoms: N_21  and  C_24 
ROOT
ATOM      1  C   LIG d   1       4.028  -0.313 -11.649  0.00  0.00    -0.001 A 
ATOM      2  C   LIG d   1       3.687   0.987 -11.318  0.00  0.00     0.031 A 
ATOM      3  C   LIG d   1       4.051   1.500 -10.063  0.00  0.00     0.338 A 
ATOM      4  O   LIG d   1       3.748   2.647  -9.781  0.00  0.00    -0.245 OA
ATOM      5  O   LIG d   1       4.723   0.763  -9.165  0.00  0.00    -0.422 OA
ATOM      6  C   LIG d   1       5.089  -0.512  -9.418  0.00  0.00     0.147 A 
ATOM      7  C   LIG d   1       4.761  -1.106 -10.648  0.00  0.00     0.026 A 
ATOM      8  C   LIG d   1       5.134  -2.426 -10.909  0.00  0.00    -0.047 A 
ATOM      9  C   LIG d   1       5.813  -3.138  -9.963  0.00  0.00    -0.019 A 
ATOM     10  C   LIG d   1       6.141  -2.557  -8.738  0.00  0.00     0.130 A 
ATOM     11  C   LIG d   1       5.789  -1.246  -8.470  0.00  0.00     0.051 A 
ATOM     12  C   LIG d   1       6.145  -0.603  -7.152  0.00  0.00     0.035 C 
ATOM     13  N   LIG d   1       6.496  -1.644  -6.176  0.00  0.00    -0.259 N 
ATOM     14  C   LIG d   1       7.469  -2.580  -6.760  0.00  0.00     0.144 C 
ATOM     15  O   LIG d   1       6.817  -3.297  -7.818  0.00  0.00    -0.476 OA
ATOM     16  H   LIG d   1       3.146   1.603 -12.022  0.00  0.00     0.070 H 
ATOM     17  H   LIG d   1       4.883  -2.883 -11.854  0.00  0.00     0.063 H 
ATOM     18  H   LIG d   1       6.100  -4.160 -10.164  0.00  0.00     0.065 H 
ATOM     19  H   LIG d   1       6.994   0.065  -7.292  0.00  0.00     0.048 H 
ATOM     20  H   LIG d   1       5.291  -0.033  -6.785  0.00  0.00     0.048 H 
ATOM     21  H   LIG d   1       8.324  -2.026  -7.146  0.00  0.00     0.087 H 
ATOM     22  H   LIG d   1       7.801  -3.286  -5.998  0.00  0.00     0.087 H 
ENDROOT
BRANCH  13  23
ATOM     23  C   LIG d   1       7.015  -1.048  -4.937  0.00  0.00     0.039 C 
ATOM     24  H   LIG d   1       7.872  -1.626  -4.592  0.00  0.00     0.051 H 
ATOM     25  C   LIG d   1       5.940  -1.075  -3.883  0.00  0.00    -0.027 A 
ATOM     26  C   LIG d   1       5.701  -0.013  -3.041  0.00  0.00    -0.043 A 
ATOM     27  C   LIG d   1       5.172  -2.227  -3.772  0.00  0.00    -0.057 A 
ATOM     28  C   LIG d   1       6.488   1.269  -3.109  0.00  0.00    -0.027 C 
ATOM     29  C   LIG d   1       4.698  -0.105  -2.085  0.00  0.00    -0.058 A 
ATOM     30  C   LIG d   1       7.790   1.059  -3.879  0.00  0.00    -0.047 C 
ATOM     31  H   LIG d   1       6.719   1.604  -2.097  0.00  0.00     0.031 H 
ATOM     32  H   LIG d   1       5.892   2.032  -3.611  0.00  0.00     0.031 H 
ATOM     33  C   LIG d   1       7.457   0.388  -5.217  0.00  0.00    -0.033 C 
ATOM     34  H   LIG d   1       8.458   0.420  -3.303  0.00  0.00     0.027 H 
ATOM     35  H   LIG d   1       8.269   2.022  -4.061  0.00  0.00     0.027 H 
ATOM     36  H   LIG d   1       8.342   0.382  -5.854  0.00  0.00     0.028 H 
ATOM     37  H   LIG d   1       6.651   0.930  -5.710  0.00  0.00     0.028 H 
ATOM     38  C   LIG d   1       3.937  -1.250  -1.975  0.00  0.00    -0.061 A 
ATOM     39  H   LIG d   1       4.511   0.727  -1.422  0.00  0.00     0.062 H 
ATOM     40  C   LIG d   1       4.174  -2.316  -2.823  0.00  0.00    -0.061 A 
ATOM     41  H   LIG d   1       3.159  -1.313  -1.229  0.00  0.00     0.062 H 
ATOM     42  H   LIG d   1       3.581  -3.214  -2.742  0.00  0.00     0.062 H 
ATOM     43  H   LIG d   1       5.357  -3.059  -4.433  0.00  0.00     0.062 H 
ENDBRANCH  13  23
BRANCH   1  44
ATOM     44  C   LIG d   1       3.661  -0.888 -12.959  0.00  0.00    -0.017 A 
ATOM     45  C   LIG d   1       4.458  -0.640 -14.080  0.00  0.00    -0.051 A 
ATOM     46  C   LIG d   1       4.113  -1.179 -15.300  0.00  0.00    -0.019 A 
ATOM     47  H   LIG d   1       5.342  -0.027 -13.990  0.00  0.00     0.062 H 
ATOM     48  C   LIG d   1       2.976  -1.968 -15.417  0.00  0.00     0.120 A 
ATOM     49  H   LIG d   1       4.728  -0.988 -16.167  0.00  0.00     0.065 H 
ATOM     50  C   LIG d   1       2.178  -2.213 -14.306  0.00  0.00    -0.019 A 
ATOM     51  C   LIG d   1       2.519  -1.682 -13.080  0.00  0.00    -0.051 A 
ATOM     52  H   LIG d   1       1.292  -2.823 -14.401  0.00  0.00     0.065 H 
ATOM     53  H   LIG d   1       1.900  -1.876 -12.216  0.00  0.00     0.062 H 
BRANCH  48  54
ATOM     54  O   LIG d   1       2.639  -2.496 -16.622  0.00  0.00    -0.495 OA
BRANCH  54  55
ATOM     55  C   LIG d   1       2.569  -1.596 -17.728  0.00  0.00     0.079 C 
ATOM     56  H   LIG d   1       3.382  -0.873 -17.661  0.00  0.00     0.066 H 
ATOM     57  H   LIG d   1       2.658  -2.156 -18.660  0.00  0.00     0.066 H 
ATOM     58  H   LIG d   1       1.614  -1.071 -17.711  0.00  0.00     0.066 H 
ENDBRANCH  54  55
ENDBRANCH  48  54
ENDBRANCH   1  44
TORSDOF 4
ENDMDL
MODEL 5
REMARK VINA RESULT:      -6.9      4.935      9.361
REMARK  4 active torsions:
REMARK  status: ('A' for Active; 'I' for Inactive)
REMARK    1  A    between atoms: C_1  and  O_2 
REMARK    2  A    between atoms: O_2  and  C_3 
REMARK    3  A    between atoms: C_6  and  C_9 
REMARK    4  A    between atoms: N_21  and  C_24 
ROOT
ATOM      1  C   LIG d   1       7.153  -8.005  -5.151  0.00  0.00    -0.001 A 
ATOM      2  C   LIG d   1       5.900  -8.242  -5.689  0.00  0.00     0.031 A 
ATOM      3  C   LIG d   1       5.079  -7.157  -6.035  0.00  0.00     0.338 A 
ATOM      4  O   LIG d   1       3.978  -7.376  -6.510  0.00  0.00    -0.245 OA
ATOM      5  O   LIG d   1       5.472  -5.887  -5.856  0.00  0.00    -0.422 OA
ATOM      6  C   LIG d   1       6.681  -5.579  -5.338  0.00  0.00     0.147 A 
ATOM      7  C   LIG d   1       7.564  -6.604  -4.959  0.00  0.00     0.026 A 
ATOM      8  C   LIG d   1       8.811  -6.288  -4.417  0.00  0.00    -0.047 A 
ATOM      9  C   LIG d   1       9.167  -4.981  -4.251  0.00  0.00    -0.019 A 
ATOM     10  C   LIG d   1       8.295  -3.956  -4.621  0.00  0.00     0.130 A 
ATOM     11  C   LIG d   1       7.061  -4.254  -5.172  0.00  0.00     0.051 A 
ATOM     12  C   LIG d   1       6.112  -3.156  -5.584  0.00  0.00     0.035 C 
ATOM     13  N   LIG d   1       6.521  -1.891  -4.957  0.00  0.00    -0.259 N 
ATOM     14  C   LIG d   1       7.959  -1.662  -5.169  0.00  0.00     0.144 C 
ATOM     15  O   LIG d   1       8.681  -2.665  -4.440  0.00  0.00    -0.476 OA
ATOM     16  H   LIG d   1       5.558  -9.256  -5.844  0.00  0.00     0.070 H 
ATOM     17  H   LIG d   1       9.492  -7.075  -4.128  0.00  0.00     0.063 H 
ATOM     18  H   LIG d   1      10.131  -4.736  -3.830  0.00  0.00     0.065 H 
ATOM     19  H   LIG d   1       6.131  -3.048  -6.668  0.00  0.00     0.048 H 
ATOM     20  H   LIG d   1       5.102  -3.411  -5.262  0.00  0.00     0.048 H 
ATOM     21  H   LIG d   1       8.187  -1.726  -6.232  0.00  0.00     0.087 H 
ATOM     22  H   LIG d   1       8.231  -0.676  -4.792  0.00  0.00     0.087 H 
ENDROOT
BRANCH  13  23
ATOM     23  C   LIG d   1       5.726  -0.768  -5.474  0.00  0.00     0.039 C 
ATOM     24  H   LIG d   1       6.392  -0.041  -5.936  0.00  0.00     0.051 H 
ATOM     25  C   LIG d   1       4.990  -0.115  -4.334  0.00  0.00    -0.027 A 
ATOM     26  C   LIG d   1       3.680   0.294  -4.435  0.00  0.00    -0.043 A 
ATOM     27  C   LIG d   1       5.679   0.077  -3.143  0.00  0.00    -0.057 A 
ATOM     28  C   LIG d   1       2.868   0.112  -5.691  0.00  0.00    -0.027 C 
ATOM     29  C   LIG d   1       3.061   0.898  -3.348  0.00  0.00    -0.058 A 
ATOM     30  C   LIG d   1       3.782  -0.150  -6.887  0.00  0.00    -0.047 C 
ATOM     31  H   LIG d   1       2.284   1.014  -5.876  0.00  0.00     0.031 H 
ATOM     32  H   LIG d   1       2.191  -0.733  -5.563  0.00  0.00     0.031 H 
ATOM     33  C   LIG d   1       4.742  -1.288  -6.520  0.00  0.00    -0.033 C 
ATOM     34  H   LIG d   1       4.350   0.750  -7.119  0.00  0.00     0.027 H 
ATOM     35  H   LIG d   1       3.183  -0.440  -7.750  0.00  0.00     0.027 H 
ATOM     36  H   LIG d   1       5.287  -1.608  -7.409  0.00  0.00     0.028 H 
ATOM     37  H   LIG d   1       4.180  -2.127  -6.111  0.00  0.00     0.028 H 
ATOM     38  C   LIG d   1       3.747   1.087  -2.167  0.00  0.00    -0.061 A 
ATOM     39  H   LIG d   1       2.033   1.220  -3.428  0.00  0.00     0.062 H 
ATOM     40  C   LIG d   1       5.062   0.675  -2.064  0.00  0.00    -0.061 A 
ATOM     41  H   LIG d   1       3.258   1.557  -1.327  0.00  0.00     0.062 H 
ATOM     42  H   LIG d   1       5.604   0.820  -1.141  0.00  0.00     0.062 H 
ATOM     43  H   LIG d   1       6.707  -0.245  -3.063  0.00  0.00     0.062 H 
ENDBRANCH  13  23
BRANCH   1  44
ATOM     44  C   LIG d   1       8.045  -9.120  -4.774  0.00  0.00    -0.017 A 
ATOM     45  C   LIG d   1       8.902  -9.683  -5.723  0.00  0.00    -0.051 A 
ATOM     46  C   LIG d   1       9.733 -10.723  -5.368  0.00  0.00    -0.019 A 
ATOM     47  H   LIG d   1       8.913  -9.304  -6.734  0.00  0.00     0.062 H 
ATOM     48  C   LIG d   1       9.720 -11.212  -4.067  0.00  0.00     0.120 A 
ATOM     49  H   LIG d   1      10.396 -11.158  -6.101  0.00  0.00     0.065 H 
ATOM     50  C   LIG d   1       8.866 -10.658  -3.121  0.00  0.00    -0.019 A 
ATOM     51  C   LIG d   1       8.035  -9.614  -3.467  0.00  0.00    -0.051 A 
ATOM     52  H   LIG d   1       8.855 -11.043  -2.112  0.00  0.00     0.065 H 
ATOM     53  H   LIG d   1       7.374  -9.182  -2.731  0.00  0.00     0.062 H 
BRANCH  48  54
ATOM     54  O   LIG d   1      10.540 -12.237  -3.721  0.00  0.00    -0.495 OA
BRANCH  54  55
ATOM     55  C   LIG d   1      10.896 -12.345  -2.342  0.00  0.00     0.079 C 
ATOM     56  H   LIG d   1      11.981 -12.402  -2.249  0.00  0.00     0.066 H 
ATOM     57  H   LIG d   1      10.531 -11.471  -1.802  0.00  0.00     0.066 H 
ATOM     58  H   LIG d   1      10.449 -13.245  -1.920  0.00  0.00     0.066 H 
ENDBRANCH  54  55
ENDBRANCH  48  54
ENDBRANCH   1  44
TORSDOF 4
ENDMDL
MODEL 6
REMARK VINA RESULT:      -6.9      6.121      9.184
REMARK  4 active torsions:
REMARK  status: ('A' for Active; 'I' for Inactive)
REMARK    1  A    between atoms: C_1  and  O_2 
REMARK    2  A    between atoms: O_2  and  C_3 
REMARK    3  A    between atoms: C_6  and  C_9 
REMARK    4  A    between atoms: N_21  and  C_24 
ROOT
ATOM      1  C   LIG d   1       9.874   4.277  -6.317  0.00  0.00    -0.001 A 
ATOM      2  C   LIG d   1       9.895   4.195  -4.935  0.00  0.00     0.031 A 
ATOM      3  C   LIG d   1       9.197   3.161  -4.292  0.00  0.00     0.338 A 
ATOM      4  O   LIG d   1       9.223   3.097  -3.075  0.00  0.00    -0.245 OA
ATOM      5  O   LIG d   1       8.502   2.242  -4.980  0.00  0.00    -0.422 OA
ATOM      6  C   LIG d   1       8.437   2.257  -6.329  0.00  0.00     0.147 A 
ATOM      7  C   LIG d   1       9.102   3.262  -7.053  0.00  0.00     0.026 A 
ATOM      8  C   LIG d   1       9.030   3.282  -8.447  0.00  0.00    -0.047 A 
ATOM      9  C   LIG d   1       8.308   2.328  -9.103  0.00  0.00    -0.019 A 
ATOM     10  C   LIG d   1       7.642   1.329  -8.392  0.00  0.00     0.130 A 
ATOM     11  C   LIG d   1       7.714   1.288  -7.011  0.00  0.00     0.051 A 
ATOM     12  C   LIG d   1       7.006   0.209  -6.232  0.00  0.00     0.035 C 
ATOM     13  N   LIG d   1       5.998  -0.435  -7.086  0.00  0.00    -0.259 N 
ATOM     14  C   LIG d   1       6.594  -0.810  -8.378  0.00  0.00     0.144 C 
ATOM     15  O   LIG d   1       6.930   0.396  -9.079  0.00  0.00    -0.476 OA
ATOM     16  H   LIG d   1      10.447   4.923  -4.357  0.00  0.00     0.070 H 
ATOM     17  H   LIG d   1       9.543   4.052  -9.004  0.00  0.00     0.063 H 
ATOM     18  H   LIG d   1       8.252   2.346 -10.181  0.00  0.00     0.065 H 
ATOM     19  H   LIG d   1       7.730  -0.535  -5.900  0.00  0.00     0.048 H 
ATOM     20  H   LIG d   1       6.517   0.651  -5.363  0.00  0.00     0.048 H 
ATOM     21  H   LIG d   1       7.485  -1.414  -8.209  0.00  0.00     0.087 H 
ATOM     22  H   LIG d   1       5.870  -1.378  -8.964  0.00  0.00     0.087 H 
ENDROOT
BRANCH  13  23
ATOM     23  C   LIG d   1       5.412  -1.605  -6.417  0.00  0.00     0.039 C 
ATOM     24  H   LIG d   1       4.948  -2.250  -7.162  0.00  0.00     0.051 H 
ATOM     25  C   LIG d   1       4.364  -1.144  -5.437  0.00  0.00    -0.027 A 
ATOM     26  C   LIG d   1       4.236  -1.686  -4.179  0.00  0.00    -0.043 A 
ATOM     27  C   LIG d   1       3.502  -0.132  -5.840  0.00  0.00    -0.057 A 
ATOM     28  C   LIG d   1       5.139  -2.780  -3.672  0.00  0.00    -0.027 C 
ATOM     29  C   LIG d   1       3.244  -1.221  -3.327  0.00  0.00    -0.058 A 
ATOM     30  C   LIG d   1       5.860  -3.462  -4.833  0.00  0.00    -0.047 C 
ATOM     31  H   LIG d   1       4.543  -3.519  -3.136  0.00  0.00     0.031 H 
ATOM     32  H   LIG d   1       5.876  -2.352  -2.992  0.00  0.00     0.031 H 
ATOM     33  C   LIG d   1       6.516  -2.378  -5.697  0.00  0.00    -0.033 C 
ATOM     34  H   LIG d   1       5.145  -4.026  -5.430  0.00  0.00     0.027 H 
ATOM     35  H   LIG d   1       6.626  -4.134  -4.445  0.00  0.00     0.027 H 
ATOM     36  H   LIG d   1       7.175  -2.843  -6.431  0.00  0.00     0.028 H 
ATOM     37  H   LIG d   1       7.088  -1.700  -5.066  0.00  0.00     0.028 H 
ATOM     38  C   LIG d   1       2.388  -0.217  -3.729  0.00  0.00    -0.061 A 
ATOM     39  H   LIG d   1       3.141  -1.648  -2.340  0.00  0.00     0.062 H 
ATOM     40  C   LIG d   1       2.518   0.331  -4.991  0.00  0.00    -0.061 A 
ATOM     41  H   LIG d   1       1.620   0.140  -3.059  0.00  0.00     0.062 H 
ATOM     42  H   LIG d   1       1.852   1.118  -5.311  0.00  0.00     0.062 H 
ATOM     43  H   LIG d   1       3.604   0.296  -6.826  0.00  0.00     0.062 H 
ENDBRANCH  13  23
BRANCH   1  44
ATOM     44  C   LIG d   1      10.595   5.351  -7.029  0.00  0.00    -0.017 A 
ATOM     45  C   LIG d   1      11.924   5.165  -7.416  0.00  0.00    -0.051 A 
ATOM     46  C   LIG d   1      12.593   6.169  -8.081  0.00  0.00    -0.019 A 
ATOM     47  H   LIG d   1      12.426   4.235  -7.195  0.00  0.00     0.062 H 
ATOM     48  C   LIG d   1      11.948   7.366  -8.367  0.00  0.00     0.120 A 
ATOM     49  H   LIG d   1      13.621   6.026  -8.382  0.00  0.00     0.065 H 
ATOM     50  C   LIG d   1      10.628   7.558  -7.978  0.00  0.00    -0.019 A 
ATOM     51  C   LIG d   1       9.949   6.556  -7.318  0.00  0.00    -0.051 A 
ATOM     52  H   LIG d   1      10.130   8.490  -8.198  0.00  0.00     0.065 H 
ATOM     53  H   LIG d   1       8.922   6.704  -7.020  0.00  0.00     0.062 H 
BRANCH  48  54
ATOM     54  O   LIG d   1      12.611   8.354  -9.022  0.00  0.00    -0.495 OA
BRANCH  54  55
ATOM     55  C   LIG d   1      11.984   9.636  -9.066  0.00  0.00     0.079 C 
ATOM     56  H   LIG d   1      10.901   9.512  -9.066  0.00  0.00     0.066 H 
ATOM     57  H   LIG d   1      12.283  10.218  -8.194  0.00  0.00     0.066 H 
ATOM     58  H   LIG d   1      12.289  10.159  -9.973  0.00  0.00     0.066 H 
ENDBRANCH  54  55
ENDBRANCH  48  54
ENDBRANCH   1  44
TORSDOF 4
ENDMDL
MODEL 7
REMARK VINA RESULT:      -6.7      1.652      3.627
REMARK  4 active torsions:
REMARK  status: ('A' for Active; 'I' for Inactive)
REMARK    1  A    between atoms: C_1  and  O_2 
REMARK    2  A    between atoms: O_2  and  C_3 
REMARK    3  A    between atoms: C_6  and  C_9 
REMARK    4  A    between atoms: N_21  and  C_24 
ROOT
ATOM      1  C   LIG d   1       2.935  -2.682 -11.323  0.00  0.00    -0.001 A 
ATOM      2  C   LIG d   1       3.277  -3.934 -10.842  0.00  0.00     0.031 A 
ATOM      3  C   LIG d   1       3.581  -4.093  -9.481  0.00  0.00     0.338 A 
ATOM      4  O   LIG d   1       3.880  -5.200  -9.067  0.00  0.00    -0.245 OA
ATOM      5  O   LIG d   1       3.552  -3.062  -8.624  0.00  0.00    -0.422 OA
ATOM      6  C   LIG d   1       3.226  -1.812  -9.020  0.00  0.00     0.147 A 
ATOM      7  C   LIG d   1       2.913  -1.562 -10.367  0.00  0.00     0.026 A 
ATOM      8  C   LIG d   1       2.582  -0.270 -10.779  0.00  0.00    -0.047 A 
ATOM      9  C   LIG d   1       2.569   0.749  -9.872  0.00  0.00    -0.019 A 
ATOM     10  C   LIG d   1       2.881   0.511  -8.533  0.00  0.00     0.130 A 
ATOM     11  C   LIG d   1       3.199  -0.767  -8.107  0.00  0.00     0.051 A 
ATOM     12  C   LIG d   1       3.531  -1.040  -6.661  0.00  0.00     0.035 C 
ATOM     13  N   LIG d   1       3.842   0.225  -5.980  0.00  0.00    -0.259 N 
ATOM     14  C   LIG d   1       2.798   1.223  -6.261  0.00  0.00     0.144 C 
ATOM     15  O   LIG d   1       2.860   1.550  -7.657  0.00  0.00    -0.476 OA
ATOM     16  H   LIG d   1       3.309  -4.783 -11.511  0.00  0.00     0.070 H 
ATOM     17  H   LIG d   1       2.340  -0.077 -11.814  0.00  0.00     0.063 H 
ATOM     18  H   LIG d   1       2.315   1.749 -10.192  0.00  0.00     0.065 H 
ATOM     19  H   LIG d   1       2.677  -1.513  -6.176  0.00  0.00     0.048 H 
ATOM     20  H   LIG d   1       4.393  -1.704  -6.606  0.00  0.00     0.048 H 
ATOM     21  H   LIG d   1       1.821   0.811  -6.010  0.00  0.00     0.087 H 
ATOM     22  H   LIG d   1       2.982   2.121  -5.671  0.00  0.00     0.087 H 
ENDROOT
BRANCH  13  23
ATOM     23  C   LIG d   1       3.997   0.018  -4.533  0.00  0.00     0.039 C 
ATOM     24  H   LIG d   1       4.056   0.986  -4.037  0.00  0.00     0.051 H 
ATOM     25  C   LIG d   1       5.267  -0.751  -4.275  0.00  0.00    -0.027 A 
ATOM     26  C   LIG d   1       5.340  -1.773  -3.356  0.00  0.00    -0.043 A 
ATOM     27  C   LIG d   1       6.397  -0.398  -5.001  0.00  0.00    -0.057 A 
ATOM     28  C   LIG d   1       4.155  -2.216  -2.539  0.00  0.00    -0.027 C 
ATOM     29  C   LIG d   1       6.543  -2.437  -3.160  0.00  0.00    -0.058 A 
ATOM     30  C   LIG d   1       3.067  -1.143  -2.547  0.00  0.00    -0.047 C 
ATOM     31  H   LIG d   1       4.473  -2.397  -1.512  0.00  0.00     0.031 H 
ATOM     32  H   LIG d   1       3.752  -3.138  -2.958  0.00  0.00     0.031 H 
ATOM     33  C   LIG d   1       2.788  -0.749  -4.002  0.00  0.00    -0.033 C 
ATOM     34  H   LIG d   1       3.407  -0.271  -1.989  0.00  0.00     0.027 H 
ATOM     35  H   LIG d   1       2.158  -1.538  -2.093  0.00  0.00     0.027 H 
ATOM     36  H   LIG d   1       1.902  -0.114  -4.046  0.00  0.00     0.028 H 
ATOM     37  H   LIG d   1       2.629  -1.645  -4.601  0.00  0.00     0.028 H 
ATOM     38  C   LIG d   1       7.664  -2.085  -3.882  0.00  0.00    -0.061 A 
ATOM     39  H   LIG d   1       6.602  -3.238  -2.437  0.00  0.00     0.062 H 
ATOM     40  C   LIG d   1       7.591  -1.061  -4.807  0.00  0.00    -0.061 A 
ATOM     41  H   LIG d   1       8.596  -2.607  -3.723  0.00  0.00     0.062 H 
ATOM     42  H   LIG d   1       8.465  -0.781  -5.375  0.00  0.00     0.062 H 
ATOM     43  H   LIG d   1       6.340   0.402  -5.723  0.00  0.00     0.062 H 
ENDBRANCH  13  23
BRANCH   1  44
ATOM     44  C   LIG d   1       2.610  -2.474 -12.748  0.00  0.00    -0.017 A 
ATOM     45  C   LIG d   1       1.309  -2.690 -13.209  0.00  0.00    -0.051 A 
ATOM     46  C   LIG d   1       1.010  -2.494 -14.539  0.00  0.00    -0.019 A 
ATOM     47  H   LIG d   1       0.539  -3.008 -12.522  0.00  0.00     0.062 H 
ATOM     48  C   LIG d   1       2.000  -2.084 -15.423  0.00  0.00     0.120 A 
ATOM     49  H   LIG d   1       0.004  -2.660 -14.896  0.00  0.00     0.065 H 
ATOM     50  C   LIG d   1       3.297  -1.874 -14.971  0.00  0.00    -0.019 A 
ATOM     51  C   LIG d   1       3.603  -2.061 -13.640  0.00  0.00    -0.051 A 
ATOM     52  H   LIG d   1       4.065  -1.558 -15.661  0.00  0.00     0.065 H 
ATOM     53  H   LIG d   1       4.610  -1.894 -13.288  0.00  0.00     0.062 H 
BRANCH  48  54
ATOM     54  O   LIG d   1       1.701  -1.893 -16.734  0.00  0.00    -0.495 OA
BRANCH  54  55
ATOM     55  C   LIG d   1       2.471  -0.918 -17.439  0.00  0.00     0.079 C 
ATOM     56  H   LIG d   1       2.523  -1.189 -18.494  0.00  0.00     0.066 H 
ATOM     57  H   LIG d   1       2.000   0.060 -17.338  0.00  0.00     0.066 H 
ATOM     58  H   LIG d   1       3.478  -0.881 -17.024  0.00  0.00     0.066 H 
ENDBRANCH  54  55
ENDBRANCH  48  54
ENDBRANCH   1  44
TORSDOF 4
ENDMDL
MODEL 8
REMARK VINA RESULT:      -6.6      5.611      9.893
REMARK  4 active torsions:
REMARK  status: ('A' for Active; 'I' for Inactive)
REMARK    1  A    between atoms: C_1  and  O_2 
REMARK    2  A    between atoms: O_2  and  C_3 
REMARK    3  A    between atoms: C_6  and  C_9 
REMARK    4  A    between atoms: N_21  and  C_24 
ROOT
ATOM      1  C   LIG d   1      11.571   1.621  -5.004  0.00  0.00    -0.001 A 
ATOM      2  C   LIG d   1      11.022   2.624  -4.224  0.00  0.00     0.031 A 
ATOM      3  C   LIG d   1       9.718   2.477  -3.725  0.00  0.00     0.338 A 
ATOM      4  O   LIG d   1       9.243   3.366  -3.039  0.00  0.00    -0.245 OA
ATOM      5  O   LIG d   1       8.979   1.387  -3.984  0.00  0.00    -0.422 OA
ATOM      6  C   LIG d   1       9.449   0.368  -4.736  0.00  0.00     0.147 A 
ATOM      7  C   LIG d   1      10.743   0.435  -5.280  0.00  0.00     0.026 A 
ATOM      8  C   LIG d   1      11.228  -0.615  -6.062  0.00  0.00    -0.047 A 
ATOM      9  C   LIG d   1      10.439  -1.703  -6.301  0.00  0.00    -0.019 A 
ATOM     10  C   LIG d   1       9.152  -1.776  -5.768  0.00  0.00     0.130 A 
ATOM     11  C   LIG d   1       8.662  -0.749  -4.980  0.00  0.00     0.051 A 
ATOM     12  C   LIG d   1       7.275  -0.820  -4.391  0.00  0.00     0.035 C 
ATOM     13  N   LIG d   1       6.494  -1.848  -5.092  0.00  0.00    -0.259 N 
ATOM     14  C   LIG d   1       7.262  -3.101  -5.174  0.00  0.00     0.144 C 
ATOM     15  O   LIG d   1       8.393  -2.874  -6.029  0.00  0.00    -0.476 OA
ATOM     16  H   LIG d   1      11.594   3.513  -4.000  0.00  0.00     0.070 H 
ATOM     17  H   LIG d   1      12.223  -0.566  -6.478  0.00  0.00     0.063 H 
ATOM     18  H   LIG d   1      10.813  -2.514  -6.908  0.00  0.00     0.065 H 
ATOM     19  H   LIG d   1       7.343  -1.073  -3.333  0.00  0.00     0.048 H 
ATOM     20  H   LIG d   1       6.785   0.148  -4.503  0.00  0.00     0.048 H 
ATOM     21  H   LIG d   1       7.591  -3.394  -4.177  0.00  0.00     0.087 H 
ATOM     22  H   LIG d   1       6.638  -3.886  -5.602  0.00  0.00     0.087 H 
ENDROOT
BRANCH  13  23
ATOM     23  C   LIG d   1       5.200  -2.066  -4.432  0.00  0.00     0.039 C 
ATOM     24  H   LIG d   1       4.867  -3.086  -4.622  0.00  0.00     0.051 H 
ATOM     25  C   LIG d   1       4.188  -1.100  -4.990  0.00  0.00    -0.027 A 
ATOM     26  C   LIG d   1       3.282  -0.434  -4.196  0.00  0.00    -0.043 A 
ATOM     27  C   LIG d   1       4.184  -0.888  -6.362  0.00  0.00    -0.057 A 
ATOM     28  C   LIG d   1       3.233  -0.608  -2.700  0.00  0.00    -0.027 C 
ATOM     29  C   LIG d   1       2.370   0.438  -4.775  0.00  0.00    -0.058 A 
ATOM     30  C   LIG d   1       3.971  -1.879  -2.284  0.00  0.00    -0.047 C 
ATOM     31  H   LIG d   1       2.194  -0.675  -2.380  0.00  0.00     0.031 H 
ATOM     32  H   LIG d   1       3.701   0.253  -2.222  0.00  0.00     0.031 H 
ATOM     33  C   LIG d   1       5.363  -1.862  -2.926  0.00  0.00    -0.033 C 
ATOM     34  H   LIG d   1       3.418  -2.753  -2.626  0.00  0.00     0.027 H 
ATOM     35  H   LIG d   1       4.069  -1.908  -1.198  0.00  0.00     0.027 H 
ATOM     36  H   LIG d   1       5.968  -2.668  -2.510  0.00  0.00     0.028 H 
ATOM     37  H   LIG d   1       5.845  -0.904  -2.736  0.00  0.00     0.028 H 
ATOM     38  C   LIG d   1       2.367   0.646  -6.138  0.00  0.00    -0.061 A 
ATOM     39  H   LIG d   1       1.657   0.959  -4.152  0.00  0.00     0.062 H 
ATOM     40  C   LIG d   1       3.279  -0.020  -6.936  0.00  0.00    -0.061 A 
ATOM     41  H   LIG d   1       1.655   1.327  -6.580  0.00  0.00     0.062 H 
ATOM     42  H   LIG d   1       3.282   0.140  -8.004  0.00  0.00     0.062 H 
ATOM     43  H   LIG d   1       4.895  -1.409  -6.986  0.00  0.00     0.062 H 
ENDBRANCH  13  23
BRANCH   1  44
ATOM     44  C   LIG d   1      12.939   1.739  -5.547  0.00  0.00    -0.017 A 
ATOM     45  C   LIG d   1      14.027   1.256  -4.816  0.00  0.00    -0.051 A 
ATOM     46  C   LIG d   1      15.302   1.368  -5.327  0.00  0.00    -0.019 A 
ATOM     47  H   LIG d   1      13.869   0.794  -3.852  0.00  0.00     0.062 H 
ATOM     48  C   LIG d   1      15.506   1.960  -6.566  0.00  0.00     0.120 A 
ATOM     49  H   LIG d   1      16.143   0.993  -4.763  0.00  0.00     0.065 H 
ATOM     50  C   LIG d   1      14.428   2.448  -7.294  0.00  0.00    -0.019 A 
ATOM     51  C   LIG d   1      13.149   2.335  -6.793  0.00  0.00    -0.051 A 
ATOM     52  H   LIG d   1      14.590   2.911  -8.256  0.00  0.00     0.065 H 
ATOM     53  H   LIG d   1      12.310   2.710  -7.361  0.00  0.00     0.062 H 
BRANCH  48  54
ATOM     54  O   LIG d   1      16.765   2.069  -7.066  0.00  0.00    -0.495 OA
BRANCH  54  55
ATOM     55  C   LIG d   1      17.827   1.544  -6.268  0.00  0.00     0.079 C 
ATOM     56  H   LIG d   1      18.030   2.223  -5.440  0.00  0.00     0.066 H 
ATOM     57  H   LIG d   1      17.540   0.568  -5.876  0.00  0.00     0.066 H 
ATOM     58  H   LIG d   1      18.723   1.440  -6.880  0.00  0.00     0.066 H 
ENDBRANCH  54  55
ENDBRANCH  48  54
ENDBRANCH   1  44
TORSDOF 4
ENDMDL
MODEL 9
REMARK VINA RESULT:      -6.5      6.427     11.513
REMARK  4 active torsions:
REMARK  status: ('A' for Active; 'I' for Inactive)
REMARK    1  A    between atoms: C_1  and  O_2 
REMARK    2  A    between atoms: O_2  and  C_3 
REMARK    3  A    between atoms: C_6  and  C_9 
REMARK    4  A    between atoms: N_21  and  C_24 
ROOT
ATOM      1  C   LIG d   1      13.455  -3.547  -4.027  0.00  0.00    -0.001 A 
ATOM      2  C   LIG d   1      13.002  -4.722  -3.453  0.00  0.00     0.031 A 
ATOM      3  C   LIG d   1      11.621  -4.957  -3.354  0.00  0.00     0.338 A 
ATOM      4  O   LIG d   1      11.232  -5.995  -2.849  0.00  0.00    -0.245 OA
ATOM      5  O   LIG d   1      10.719  -4.069  -3.800  0.00  0.00    -0.422 OA
ATOM      6  C   LIG d   1      11.087  -2.902  -4.372  0.00  0.00     0.147 A 
ATOM      7  C   LIG d   1      12.449  -2.585  -4.505  0.00  0.00     0.026 A 
ATOM      8  C   LIG d   1      12.831  -1.376  -5.091  0.00  0.00    -0.047 A 
ATOM      9  C   LIG d   1      11.877  -0.502  -5.527  0.00  0.00    -0.019 A 
ATOM     10  C   LIG d   1      10.523  -0.808  -5.395  0.00  0.00     0.130 A 
ATOM     11  C   LIG d   1      10.129  -2.008  -4.829  0.00  0.00     0.051 A 
ATOM     12  C   LIG d   1       8.668  -2.354  -4.688  0.00  0.00     0.035 C 
ATOM     13  N   LIG d   1       7.856  -1.138  -4.842  0.00  0.00    -0.259 N 
ATOM     14  C   LIG d   1       8.267  -0.404  -6.049  0.00  0.00     0.144 C 
ATOM     15  O   LIG d   1       9.600   0.087  -5.838  0.00  0.00    -0.476 OA
ATOM     16  H   LIG d   1      13.707  -5.455  -3.085  0.00  0.00     0.070 H 
ATOM     17  H   LIG d   1      13.878  -1.132  -5.196  0.00  0.00     0.063 H 
ATOM     18  H   LIG d   1      12.173   0.434  -5.977  0.00  0.00     0.065 H 
ATOM     19  H   LIG d   1       8.390  -3.075  -5.456  0.00  0.00     0.048 H 
ATOM     20  H   LIG d   1       8.491  -2.786  -3.703  0.00  0.00     0.048 H 
ATOM     21  H   LIG d   1       8.239  -1.070  -6.911  0.00  0.00     0.087 H 
ATOM     22  H   LIG d   1       7.594   0.439  -6.212  0.00  0.00     0.087 H 
ENDROOT
BRANCH  13  23
ATOM     23  C   LIG d   1       6.424  -1.464  -4.886  0.00  0.00     0.039 C 
ATOM     24  H   LIG d   1       6.013  -1.147  -5.843  0.00  0.00     0.051 H 
ATOM     25  C   LIG d   1       5.714  -0.737  -3.774  0.00  0.00    -0.027 A 
ATOM     26  C   LIG d   1       4.742  -1.331  -3.002  0.00  0.00    -0.043 A 
ATOM     27  C   LIG d   1       6.068   0.585  -3.537  0.00  0.00    -0.057 A 
ATOM     28  C   LIG d   1       4.314  -2.762  -3.196  0.00  0.00    -0.027 C 
ATOM     29  C   LIG d   1       4.121  -0.602  -1.997  0.00  0.00    -0.058 A 
ATOM     30  C   LIG d   1       4.753  -3.271  -4.568  0.00  0.00    -0.047 C 
ATOM     31  H   LIG d   1       3.228  -2.825  -3.120  0.00  0.00     0.031 H 
ATOM     32  H   LIG d   1       4.765  -3.381  -2.421  0.00  0.00     0.031 H 
ATOM     33  C   LIG d   1       6.248  -2.975  -4.737  0.00  0.00    -0.033 C 
ATOM     34  H   LIG d   1       4.186  -2.763  -5.347  0.00  0.00     0.027 H 
ATOM     35  H   LIG d   1       4.583  -4.346  -4.632  0.00  0.00     0.027 H 
ATOM     36  H   LIG d   1       6.622  -3.477  -5.630  0.00  0.00     0.028 H 
ATOM     37  H   LIG d   1       6.794  -3.324  -3.862  0.00  0.00     0.028 H 
ATOM     38  C   LIG d   1       4.473   0.711  -1.763  0.00  0.00    -0.061 A 
ATOM     39  H   LIG d   1       3.356  -1.067  -1.392  0.00  0.00     0.062 H 
ATOM     40  C   LIG d   1       5.451   1.308  -2.537  0.00  0.00    -0.061 A 
ATOM     41  H   LIG d   1       3.985   1.271  -0.979  0.00  0.00     0.062 H 
ATOM     42  H   LIG d   1       5.731   2.335  -2.358  0.00  0.00     0.062 H 
ATOM     43  H   LIG d   1       6.831   1.051  -4.141  0.00  0.00     0.062 H 
ENDBRANCH  13  23
BRANCH   1  44
ATOM     44  C   LIG d   1      14.900  -3.265  -4.147  0.00  0.00    -0.017 A 
ATOM     45  C   LIG d   1      15.593  -3.641  -5.300  0.00  0.00    -0.051 A 
ATOM     46  C   LIG d   1      16.940  -3.375  -5.409  0.00  0.00    -0.019 A 
ATOM     47  H   LIG d   1      15.073  -4.139  -6.105  0.00  0.00     0.062 H 
ATOM     48  C   LIG d   1      17.610  -2.733  -4.375  0.00  0.00     0.120 A 
ATOM     49  H   LIG d   1      17.477  -3.665  -6.300  0.00  0.00     0.065 H 
ATOM     50  C   LIG d   1      16.926  -2.362  -3.223  0.00  0.00    -0.019 A 
ATOM     51  C   LIG d   1      15.576  -2.619  -3.109  0.00  0.00    -0.051 A 
ATOM     52  H   LIG d   1      17.449  -1.867  -2.419  0.00  0.00     0.065 H 
ATOM     53  H   LIG d   1      15.044  -2.327  -2.216  0.00  0.00     0.062 H 
BRANCH  48  54
ATOM     54  O   LIG d   1      18.938  -2.474  -4.485  0.00  0.00    -0.495 OA
BRANCH  54  55
ATOM     55  C   LIG d   1      19.593  -1.939  -3.334  0.00  0.00     0.079 C 
ATOM     56  H   LIG d   1      20.673  -2.023  -3.457  0.00  0.00     0.066 H 
ATOM     57  H   LIG d   1      19.321  -0.890  -3.214  0.00  0.00     0.066 H 
ATOM     58  H   LIG d   1      19.285  -2.497  -2.449  0.00  0.00     0.066 H 
ENDBRANCH  54  55
ENDBRANCH  48  54
ENDBRANCH   1  44
TORSDOF 4
ENDMDL
