MODEL 1
REMARK VINA RESULT:      -4.6      0.000      0.000
REMARK  0 active torsions:
REMARK  status: ('A' for Active; 'I' for Inactive)
ROOT
ATOM      1  C   LIG d   1       4.406   0.358  -1.715  0.00  0.00    -0.008 C 
ATOM      2  C   LIG d   1       4.365  -1.174  -1.956  0.00  0.00    -0.008 C 
ATOM      3  C   LIG d   1       3.455  -1.270  -3.206  0.00  0.00    -0.030 C 
ATOM      4  N   LIG d   1       3.815  -0.096  -4.026  0.00  0.00     0.243 N 
ATOM      5  C   LIG d   1       4.390   0.936  -3.147  0.00  0.00    -0.030 C 
ATOM      6  C   LIG d   1       2.616   0.427  -4.703  0.00  0.00    -0.030 C 
ATOM      7  C   LIG d   1       2.871   0.327  -6.222  0.00  0.00    -0.008 C 
ATOM      8  C   LIG d   1       3.966  -0.769  -6.322  0.00  0.00    -0.008 C 
ATOM      9  C   LIG d   1       4.804  -0.491  -5.048  0.00  0.00    -0.030 C 
ATOM     10  H   LIG d   1       3.527   0.684  -1.158  0.00  0.00     0.032 H 
ATOM     11  H   LIG d   1       5.319   0.642  -1.193  0.00  0.00     0.032 H 
ATOM     12  H   LIG d   1       3.919  -1.691  -1.107  0.00  0.00     0.032 H 
ATOM     13  H   LIG d   1       5.362  -1.562  -2.169  0.00  0.00     0.032 H 
ATOM     14  H   LIG d   1       2.405  -1.223  -2.916  0.00  0.00     0.082 H 
ATOM     15  H   LIG d   1       3.657  -2.191  -3.754  0.00  0.00     0.082 H 
ATOM     16  H   LIG d   1       5.405   1.170  -3.464  0.00  0.00     0.082 H 
ATOM     17  H   LIG d   1       3.773   1.835  -3.177  0.00  0.00     0.082 H 
ATOM     18  H   LIG d   1       1.746  -0.172  -4.433  0.00  0.00     0.082 H 
ATOM     19  H   LIG d   1       2.455   1.467  -4.422  0.00  0.00     0.082 H 
ATOM     20  H   LIG d   1       3.239   1.275  -6.615  0.00  0.00     0.032 H 
ATOM     21  H   LIG d   1       1.969   0.018  -6.748  0.00  0.00     0.032 H 
ATOM     22  H   LIG d   1       4.568  -0.639  -7.221  0.00  0.00     0.032 H 
ATOM     23  H   LIG d   1       3.525  -1.765  -6.289  0.00  0.00     0.032 H 
ATOM     24  H   LIG d   1       5.509   0.321  -5.228  0.00  0.00     0.082 H 
ATOM     25  H   LIG d   1       5.333  -1.392  -4.738  0.00  0.00     0.082 H 
ENDROOT
TORSDOF 0
ENDMDL
MODEL 2
REMARK VINA RESULT:      -4.6      0.071      3.455
REMARK  0 active torsions:
REMARK  status: ('A' for Active; 'I' for Inactive)
ROOT
ATOM      1  C   LIG d   1       2.859   0.326  -6.208  0.00  0.00    -0.008 C 
ATOM      2  C   LIG d   1       3.966  -0.753  -6.341  0.00  0.00    -0.008 C 
ATOM      3  C   LIG d   1       4.804  -0.501  -5.062  0.00  0.00    -0.030 C 
ATOM      4  N   LIG d   1       3.812  -0.148  -4.026  0.00  0.00     0.243 N 
ATOM      5  C   LIG d   1       2.605   0.378  -4.686  0.00  0.00    -0.030 C 
ATOM      6  C   LIG d   1       4.376   0.866  -3.119  0.00  0.00    -0.030 C 
ATOM      7  C   LIG d   1       4.403   0.247  -1.705  0.00  0.00    -0.008 C 
ATOM      8  C   LIG d   1       4.382  -1.279  -1.990  0.00  0.00    -0.008 C 
ATOM      9  C   LIG d   1       3.469  -1.351  -3.241  0.00  0.00    -0.030 C 
ATOM     10  H   LIG d   1       3.213   1.290  -6.573  0.00  0.00     0.032 H 
ATOM     11  H   LIG d   1       1.957   0.021  -6.741  0.00  0.00     0.032 H 
ATOM     12  H   LIG d   1       4.564  -0.589  -7.238  0.00  0.00     0.032 H 
ATOM     13  H   LIG d   1       3.537  -1.755  -6.336  0.00  0.00     0.032 H 
ATOM     14  H   LIG d   1       5.498   0.325  -5.219  0.00  0.00     0.082 H 
ATOM     15  H   LIG d   1       5.344  -1.404  -4.778  0.00  0.00     0.082 H 
ATOM     16  H   LIG d   1       1.744  -0.238  -4.431  0.00  0.00     0.082 H 
ATOM     17  H   LIG d   1       2.432   1.409  -4.374  0.00  0.00     0.082 H 
ATOM     18  H   LIG d   1       5.389   1.122  -3.432  0.00  0.00     0.082 H 
ATOM     19  H   LIG d   1       3.748   1.756  -3.122  0.00  0.00     0.082 H 
ATOM     20  H   LIG d   1       3.522   0.545  -1.137  0.00  0.00     0.032 H 
ATOM     21  H   LIG d   1       5.314   0.527  -1.176  0.00  0.00     0.032 H 
ATOM     22  H   LIG d   1       3.944  -1.825  -1.155  0.00  0.00     0.032 H 
ATOM     23  H   LIG d   1       5.382  -1.647  -2.215  0.00  0.00     0.032 H 
ATOM     24  H   LIG d   1       2.419  -1.325  -2.946  0.00  0.00     0.082 H 
ATOM     25  H   LIG d   1       3.682  -2.253  -3.814  0.00  0.00     0.082 H 
ENDROOT
TORSDOF 0
ENDMDL
MODEL 3
REMARK VINA RESULT:      -4.4      1.614      3.252
REMARK  0 active torsions:
REMARK  status: ('A' for Active; 'I' for Inactive)
ROOT
ATOM      1  C   LIG d   1       4.808  -2.967  -4.238  0.00  0.00    -0.008 C 
ATOM      2  C   LIG d   1       6.199  -2.404  -3.842  0.00  0.00    -0.008 C 
ATOM      3  C   LIG d   1       5.918  -0.881  -3.794  0.00  0.00    -0.030 C 
ATOM      4  N   LIG d   1       4.553  -0.767  -3.243  0.00  0.00     0.243 N 
ATOM      5  C   LIG d   1       3.830  -2.023  -3.507  0.00  0.00    -0.030 C 
ATOM      6  C   LIG d   1       3.852   0.363  -3.876  0.00  0.00    -0.030 C 
ATOM      7  C   LIG d   1       3.494   1.362  -2.754  0.00  0.00    -0.008 C 
ATOM      8  C   LIG d   1       4.511   1.011  -1.635  0.00  0.00    -0.008 C 
ATOM      9  C   LIG d   1       4.626  -0.528  -1.788  0.00  0.00    -0.030 C 
ATOM     10  H   LIG d   1       4.663  -2.912  -5.317  0.00  0.00     0.032 H 
ATOM     11  H   LIG d   1       4.693  -3.993  -3.886  0.00  0.00     0.032 H 
ATOM     12  H   LIG d   1       6.946  -2.640  -4.600  0.00  0.00     0.032 H 
ATOM     13  H   LIG d   1       6.506  -2.776  -2.864  0.00  0.00     0.032 H 
ATOM     14  H   LIG d   1       5.959  -0.456  -4.797  0.00  0.00     0.082 H 
ATOM     15  H   LIG d   1       6.634  -0.384  -3.140  0.00  0.00     0.082 H 
ATOM     16  H   LIG d   1       3.512  -2.473  -2.567  0.00  0.00     0.082 H 
ATOM     17  H   LIG d   1       2.963  -1.826  -4.138  0.00  0.00     0.082 H 
ATOM     18  H   LIG d   1       4.504   0.843  -4.606  0.00  0.00     0.082 H 
ATOM     19  H   LIG d   1       2.942   0.010  -4.361  0.00  0.00     0.082 H 
ATOM     20  H   LIG d   1       2.472   1.205  -2.409  0.00  0.00     0.032 H 
ATOM     21  H   LIG d   1       3.632   2.389  -3.091  0.00  0.00     0.032 H 
ATOM     22  H   LIG d   1       4.119   1.278  -0.654  0.00  0.00     0.032 H 
ATOM     23  H   LIG d   1       5.472   1.493  -1.816  0.00  0.00     0.032 H 
ATOM     24  H   LIG d   1       3.797  -1.022  -1.280  0.00  0.00     0.082 H 
ATOM     25  H   LIG d   1       5.579  -0.878  -1.392  0.00  0.00     0.082 H 
ENDROOT
TORSDOF 0
ENDMDL
MODEL 4
REMARK VINA RESULT:      -4.4      1.621      2.565
REMARK  0 active torsions:
REMARK  status: ('A' for Active; 'I' for Inactive)
ROOT
ATOM      1  C   LIG d   1       3.514   1.355  -2.748  0.00  0.00    -0.008 C 
ATOM      2  C   LIG d   1       4.513   0.995  -1.617  0.00  0.00    -0.008 C 
ATOM      3  C   LIG d   1       4.626  -0.542  -1.776  0.00  0.00    -0.030 C 
ATOM      4  N   LIG d   1       4.573  -0.774  -3.234  0.00  0.00     0.243 N 
ATOM      5  C   LIG d   1       3.884   0.361  -3.870  0.00  0.00    -0.030 C 
ATOM      6  C   LIG d   1       3.850  -2.026  -3.514  0.00  0.00    -0.030 C 
ATOM      7  C   LIG d   1       4.836  -2.970  -4.236  0.00  0.00    -0.008 C 
ATOM      8  C   LIG d   1       6.223  -2.413  -3.818  0.00  0.00    -0.008 C 
ATOM      9  C   LIG d   1       5.946  -0.889  -3.766  0.00  0.00    -0.030 C 
ATOM     10  H   LIG d   1       2.486   1.199  -2.419  0.00  0.00     0.032 H 
ATOM     11  H   LIG d   1       3.659   2.384  -3.078  0.00  0.00     0.032 H 
ATOM     12  H   LIG d   1       4.109   1.259  -0.640  0.00  0.00     0.032 H 
ATOM     13  H   LIG d   1       5.478   1.476  -1.782  0.00  0.00     0.032 H 
ATOM     14  H   LIG d   1       3.789  -1.037  -1.283  0.00  0.00     0.082 H 
ATOM     15  H   LIG d   1       5.572  -0.898  -1.369  0.00  0.00     0.082 H 
ATOM     16  H   LIG d   1       4.547   0.842  -4.588  0.00  0.00     0.082 H 
ATOM     17  H   LIG d   1       2.981   0.013  -4.371  0.00  0.00     0.082 H 
ATOM     18  H   LIG d   1       3.518  -2.481  -2.581  0.00  0.00     0.082 H 
ATOM     19  H   LIG d   1       2.993  -1.823  -4.156  0.00  0.00     0.082 H 
ATOM     20  H   LIG d   1       4.706  -2.909  -5.317  0.00  0.00     0.032 H 
ATOM     21  H   LIG d   1       4.714  -3.996  -3.892  0.00  0.00     0.032 H 
ATOM     22  H   LIG d   1       6.979  -2.647  -4.567  0.00  0.00     0.032 H 
ATOM     23  H   LIG d   1       6.515  -2.790  -2.838  0.00  0.00     0.032 H 
ATOM     24  H   LIG d   1       6.002  -0.459  -4.766  0.00  0.00     0.082 H 
ATOM     25  H   LIG d   1       6.655  -0.397  -3.099  0.00  0.00     0.082 H 
ENDROOT
TORSDOF 0
ENDMDL
MODEL 5
REMARK VINA RESULT:      -3.9      1.791      3.239
REMARK  0 active torsions:
REMARK  status: ('A' for Active; 'I' for Inactive)
ROOT
ATOM      1  C   LIG d   1       7.219  -1.892  -3.789  0.00  0.00    -0.008 C 
ATOM      2  C   LIG d   1       7.354  -0.390  -4.153  0.00  0.00    -0.008 C 
ATOM      3  C   LIG d   1       5.876   0.006  -4.401  0.00  0.00    -0.030 C 
ATOM      4  N   LIG d   1       5.109  -0.758  -3.396  0.00  0.00     0.243 N 
ATOM      5  C   LIG d   1       5.891  -1.941  -3.002  0.00  0.00    -0.030 C 
ATOM      6  C   LIG d   1       3.815  -1.172  -3.966  0.00  0.00    -0.030 C 
ATOM      7  C   LIG d   1       2.710  -0.525  -3.104  0.00  0.00    -0.008 C 
ATOM      8  C   LIG d   1       3.440   0.675  -2.443  0.00  0.00    -0.008 C 
ATOM      9  C   LIG d   1       4.858   0.093  -2.215  0.00  0.00    -0.030 C 
ATOM     10  H   LIG d   1       7.157  -2.504  -4.689  0.00  0.00     0.032 H 
ATOM     11  H   LIG d   1       8.052  -2.213  -3.163  0.00  0.00     0.032 H 
ATOM     12  H   LIG d   1       7.950  -0.260  -5.057  0.00  0.00     0.032 H 
ATOM     13  H   LIG d   1       7.776   0.177  -3.323  0.00  0.00     0.032 H 
ATOM     14  H   LIG d   1       5.571  -0.278  -5.408  0.00  0.00     0.082 H 
ATOM     15  H   LIG d   1       5.740   1.077  -4.249  0.00  0.00     0.082 H 
ATOM     16  H   LIG d   1       6.092  -1.914  -1.932  0.00  0.00     0.082 H 
ATOM     17  H   LIG d   1       5.343  -2.849  -3.256  0.00  0.00     0.082 H 
ATOM     18  H   LIG d   1       3.734  -0.824  -4.995  0.00  0.00     0.082 H 
ATOM     19  H   LIG d   1       3.725  -2.258  -3.930  0.00  0.00     0.082 H 
ATOM     20  H   LIG d   1       2.353  -1.223  -2.347  0.00  0.00     0.032 H 
ATOM     21  H   LIG d   1       1.886  -0.178  -3.726  0.00  0.00     0.032 H 
ATOM     22  H   LIG d   1       2.972   0.943  -1.496  0.00  0.00     0.032 H 
ATOM     23  H   LIG d   1       3.473   1.531  -3.117  0.00  0.00     0.032 H 
ATOM     24  H   LIG d   1       4.880  -0.507  -1.305  0.00  0.00     0.082 H 
ATOM     25  H   LIG d   1       5.593   0.895  -2.161  0.00  0.00     0.082 H 
ENDROOT
TORSDOF 0
ENDMDL
MODEL 6
REMARK VINA RESULT:      -3.8      2.089      3.748
REMARK  0 active torsions:
REMARK  status: ('A' for Active; 'I' for Inactive)
ROOT
ATOM      1  C   LIG d   1       7.183  -1.169  -5.662  0.00  0.00    -0.008 C 
ATOM      2  C   LIG d   1       7.531  -2.397  -4.780  0.00  0.00    -0.008 C 
ATOM      3  C   LIG d   1       6.945  -1.975  -3.409  0.00  0.00    -0.030 C 
ATOM      4  N   LIG d   1       5.703  -1.248  -3.739  0.00  0.00     0.243 N 
ATOM      5  C   LIG d   1       5.811  -0.722  -5.110  0.00  0.00    -0.030 C 
ATOM      6  C   LIG d   1       5.505  -0.141  -2.787  0.00  0.00    -0.030 C 
ATOM      7  C   LIG d   1       4.173  -0.406  -2.052  0.00  0.00    -0.008 C 
ATOM      8  C   LIG d   1       3.976  -1.936  -2.224  0.00  0.00    -0.008 C 
ATOM      9  C   LIG d   1       4.552  -2.168  -3.645  0.00  0.00    -0.030 C 
ATOM     10  H   LIG d   1       7.925  -0.380  -5.534  0.00  0.00     0.032 H 
ATOM     11  H   LIG d   1       7.103  -1.456  -6.710  0.00  0.00     0.032 H 
ATOM     12  H   LIG d   1       8.610  -2.539  -4.717  0.00  0.00     0.032 H 
ATOM     13  H   LIG d   1       7.041  -3.297  -5.154  0.00  0.00     0.032 H 
ATOM     14  H   LIG d   1       7.641  -1.320  -2.884  0.00  0.00     0.082 H 
ATOM     15  H   LIG d   1       6.721  -2.854  -2.805  0.00  0.00     0.082 H 
ATOM     16  H   LIG d   1       5.012  -1.130  -5.728  0.00  0.00     0.082 H 
ATOM     17  H   LIG d   1       5.754   0.366  -5.095  0.00  0.00     0.082 H 
ATOM     18  H   LIG d   1       6.325  -0.116  -2.070  0.00  0.00     0.082 H 
ATOM     19  H   LIG d   1       5.450   0.805  -3.325  0.00  0.00     0.082 H 
ATOM     20  H   LIG d   1       3.357   0.142  -2.523  0.00  0.00     0.032 H 
ATOM     21  H   LIG d   1       4.253  -0.145  -0.997  0.00  0.00     0.032 H 
ATOM     22  H   LIG d   1       2.920  -2.201  -2.183  0.00  0.00     0.032 H 
ATOM     23  H   LIG d   1       4.546  -2.489  -1.477  0.00  0.00     0.032 H 
ATOM     24  H   LIG d   1       3.806  -1.921  -4.401  0.00  0.00     0.082 H 
ATOM     25  H   LIG d   1       4.880  -3.201  -3.756  0.00  0.00     0.082 H 
ENDROOT
TORSDOF 0
ENDMDL
MODEL 7
REMARK VINA RESULT:      -3.7      1.173      3.551
REMARK  0 active torsions:
REMARK  status: ('A' for Active; 'I' for Inactive)
ROOT
ATOM      1  C   LIG d   1       4.735  -2.310  -5.909  0.00  0.00    -0.008 C 
ATOM      2  C   LIG d   1       4.304  -0.905  -6.408  0.00  0.00    -0.008 C 
ATOM      3  C   LIG d   1       3.737  -0.274  -5.111  0.00  0.00    -0.030 C 
ATOM      4  N   LIG d   1       4.616  -0.773  -4.034  0.00  0.00     0.243 N 
ATOM      5  C   LIG d   1       5.239  -2.032  -4.476  0.00  0.00    -0.030 C 
ATOM      6  C   LIG d   1       3.827  -1.001  -2.811  0.00  0.00    -0.030 C 
ATOM      7  C   LIG d   1       4.402  -0.075  -1.719  0.00  0.00    -0.008 C 
ATOM      8  C   LIG d   1       5.114   1.034  -2.539  0.00  0.00    -0.008 C 
ATOM      9  C   LIG d   1       5.662   0.228  -3.745  0.00  0.00    -0.030 C 
ATOM     10  H   LIG d   1       3.884  -2.992  -5.893  0.00  0.00     0.032 H 
ATOM     11  H   LIG d   1       5.536  -2.711  -6.531  0.00  0.00     0.032 H 
ATOM     12  H   LIG d   1       3.533  -0.983  -7.174  0.00  0.00     0.032 H 
ATOM     13  H   LIG d   1       5.162  -0.341  -6.774  0.00  0.00     0.032 H 
ATOM     14  H   LIG d   1       2.711  -0.601  -4.946  0.00  0.00     0.082 H 
ATOM     15  H   LIG d   1       3.786   0.814  -5.166  0.00  0.00     0.082 H 
ATOM     16  H   LIG d   1       6.323  -1.929  -4.477  0.00  0.00     0.082 H 
ATOM     17  H   LIG d   1       4.941  -2.845  -3.814  0.00  0.00     0.082 H 
ATOM     18  H   LIG d   1       2.780  -0.755  -2.993  0.00  0.00     0.082 H 
ATOM     19  H   LIG d   1       3.917  -2.042  -2.501  0.00  0.00     0.082 H 
ATOM     20  H   LIG d   1       5.117  -0.612  -1.095  0.00  0.00     0.032 H 
ATOM     21  H   LIG d   1       3.604   0.350  -1.110  0.00  0.00     0.032 H 
ATOM     22  H   LIG d   1       5.927   1.482  -1.967  0.00  0.00     0.032 H 
ATOM     23  H   LIG d   1       4.404   1.793  -2.867  0.00  0.00     0.032 H 
ATOM     24  H   LIG d   1       6.597  -0.265  -3.478  0.00  0.00     0.082 H 
ATOM     25  H   LIG d   1       5.809   0.884  -4.603  0.00  0.00     0.082 H 
ENDROOT
TORSDOF 0
ENDMDL
MODEL 8
REMARK VINA RESULT:      -3.1      5.416      6.387
REMARK  0 active torsions:
REMARK  status: ('A' for Active; 'I' for Inactive)
ROOT
ATOM      1  C   LIG d   1       3.543   2.540  -9.718  0.00  0.00    -0.008 C 
ATOM      2  C   LIG d   1       2.968   1.826  -8.466  0.00  0.00    -0.008 C 
ATOM      3  C   LIG d   1       2.418   0.513  -9.079  0.00  0.00    -0.030 C 
ATOM      4  N   LIG d   1       3.392   0.152 -10.129  0.00  0.00     0.243 N 
ATOM      5  C   LIG d   1       4.096   1.371 -10.562  0.00  0.00    -0.030 C 
ATOM      6  C   LIG d   1       2.690  -0.460 -11.271  0.00  0.00    -0.030 C 
ATOM      7  C   LIG d   1       3.241  -1.893 -11.428  0.00  0.00    -0.008 C 
ATOM      8  C   LIG d   1       3.811  -2.206 -10.019  0.00  0.00    -0.008 C 
ATOM      9  C   LIG d   1       4.362  -0.822  -9.590  0.00  0.00    -0.030 C 
ATOM     10  H   LIG d   1       2.755   3.066 -10.258  0.00  0.00     0.032 H 
ATOM     11  H   LIG d   1       4.342   3.226  -9.437  0.00  0.00     0.032 H 
ATOM     12  H   LIG d   1       2.167   2.413  -8.016  0.00  0.00     0.032 H 
ATOM     13  H   LIG d   1       3.754   1.618  -7.740  0.00  0.00     0.032 H 
ATOM     14  H   LIG d   1       1.434   0.681  -9.516  0.00  0.00     0.082 H 
ATOM     15  H   LIG d   1       2.370  -0.269  -8.321  0.00  0.00     0.082 H 
ATOM     16  H   LIG d   1       5.166   1.262 -10.390  0.00  0.00     0.082 H 
ATOM     17  H   LIG d   1       3.905   1.553 -11.620  0.00  0.00     0.082 H 
ATOM     18  H   LIG d   1       1.619  -0.494 -11.074  0.00  0.00     0.082 H 
ATOM     19  H   LIG d   1       2.886   0.114 -12.176  0.00  0.00     0.082 H 
ATOM     20  H   LIG d   1       4.031  -1.923 -12.179  0.00  0.00     0.032 H 
ATOM     21  H   LIG d   1       2.443  -2.590 -11.684  0.00  0.00     0.032 H 
ATOM     22  H   LIG d   1       4.612  -2.944 -10.077  0.00  0.00     0.032 H 
ATOM     23  H   LIG d   1       3.023  -2.539  -9.344  0.00  0.00     0.032 H 
ATOM     24  H   LIG d   1       5.348  -0.655 -10.024  0.00  0.00     0.082 H 
ATOM     25  H   LIG d   1       4.406  -0.753  -8.503  0.00  0.00     0.082 H 
ENDROOT
TORSDOF 0
ENDMDL
MODEL 9
REMARK VINA RESULT:      -3.1      5.017      6.297
REMARK  0 active torsions:
REMARK  status: ('A' for Active; 'I' for Inactive)
ROOT
ATOM      1  C   LIG d   1       2.706  -2.615  -9.496  0.00  0.00    -0.008 C 
ATOM      2  C   LIG d   1       1.751  -2.002 -10.555  0.00  0.00    -0.008 C 
ATOM      3  C   LIG d   1       1.617  -0.544 -10.049  0.00  0.00    -0.030 C 
ATOM      4  N   LIG d   1       2.958  -0.200  -9.532  0.00  0.00     0.243 N 
ATOM      5  C   LIG d   1       3.657  -1.444  -9.167  0.00  0.00    -0.030 C 
ATOM      6  C   LIG d   1       2.830   0.674  -8.354  0.00  0.00    -0.030 C 
ATOM      7  C   LIG d   1       3.530   2.006  -8.697  0.00  0.00    -0.008 C 
ATOM      8  C   LIG d   1       3.520   2.017 -10.250  0.00  0.00    -0.008 C 
ATOM      9  C   LIG d   1       3.720   0.515 -10.575  0.00  0.00    -0.030 C 
ATOM     10  H   LIG d   1       2.152  -2.923  -8.609  0.00  0.00     0.032 H 
ATOM     11  H   LIG d   1       3.258  -3.456  -9.916  0.00  0.00     0.032 H 
ATOM     12  H   LIG d   1       0.785  -2.508 -10.548  0.00  0.00     0.032 H 
ATOM     13  H   LIG d   1       2.199  -2.032 -11.548  0.00  0.00     0.032 H 
ATOM     14  H   LIG d   1       0.876  -0.484  -9.251  0.00  0.00     0.082 H 
ATOM     15  H   LIG d   1       1.346   0.120 -10.871  0.00  0.00     0.082 H 
ATOM     16  H   LIG d   1       4.575  -1.537  -9.745  0.00  0.00     0.082 H 
ATOM     17  H   LIG d   1       3.886  -1.440  -8.101  0.00  0.00     0.082 H 
ATOM     18  H   LIG d   1       1.776   0.854  -8.138  0.00  0.00     0.082 H 
ATOM     19  H   LIG d   1       3.314   0.211  -7.495  0.00  0.00     0.082 H 
ATOM     20  H   LIG d   1       4.553   2.012  -8.319  0.00  0.00     0.032 H 
ATOM     21  H   LIG d   1       2.970   2.853  -8.303  0.00  0.00     0.032 H 
ATOM     22  H   LIG d   1       4.343   2.615 -10.641  0.00  0.00     0.032 H 
ATOM     23  H   LIG d   1       2.564   2.375 -10.630  0.00  0.00     0.032 H 
ATOM     24  H   LIG d   1       4.777   0.253 -10.519  0.00  0.00     0.082 H 
ATOM     25  H   LIG d   1       3.322   0.285 -11.563  0.00  0.00     0.082 H 
ENDROOT
TORSDOF 0
ENDMDL
MODEL 10
REMARK VINA RESULT:      -3.0      2.320      3.523
REMARK  0 active torsions:
REMARK  status: ('A' for Active; 'I' for Inactive)
ROOT
ATOM      1  C   LIG d   1       4.890  -2.358  -3.501  0.00  0.00    -0.008 C 
ATOM      2  C   LIG d   1       4.489  -1.889  -4.924  0.00  0.00    -0.008 C 
ATOM      3  C   LIG d   1       4.941  -0.407  -4.905  0.00  0.00    -0.030 C 
ATOM      4  N   LIG d   1       6.193  -0.405  -4.122  0.00  0.00     0.243 N 
ATOM      5  C   LIG d   1       6.197  -1.580  -3.233  0.00  0.00    -0.030 C 
ATOM      6  C   LIG d   1       6.282   0.831  -3.326  0.00  0.00    -0.030 C 
ATOM      7  C   LIG d   1       7.548   1.582  -3.793  0.00  0.00    -0.008 C 
ATOM      8  C   LIG d   1       7.790   1.009  -5.215  0.00  0.00    -0.008 C 
ATOM      9  C   LIG d   1       7.349  -0.466  -5.038  0.00  0.00    -0.030 C 
ATOM     10  H   LIG d   1       4.124  -2.084  -2.774  0.00  0.00     0.032 H 
ATOM     11  H   LIG d   1       5.069  -3.433  -3.485  0.00  0.00     0.032 H 
ATOM     12  H   LIG d   1       3.412  -1.968  -5.072  0.00  0.00     0.032 H 
ATOM     13  H   LIG d   1       5.029  -2.452  -5.687  0.00  0.00     0.032 H 
ATOM     14  H   LIG d   1       4.188   0.213  -4.418  0.00  0.00     0.082 H 
ATOM     15  H   LIG d   1       5.128  -0.054  -5.919  0.00  0.00     0.082 H 
ATOM     16  H   LIG d   1       7.057  -2.211  -3.457  0.00  0.00     0.082 H 
ATOM     17  H   LIG d   1       6.231  -1.258  -2.193  0.00  0.00     0.082 H 
ATOM     18  H   LIG d   1       5.400   1.448  -3.498  0.00  0.00     0.082 H 
ATOM     19  H   LIG d   1       6.366   0.585  -2.268  0.00  0.00     0.082 H 
ATOM     20  H   LIG d   1       8.391   1.359  -3.139  0.00  0.00     0.032 H 
ATOM     21  H   LIG d   1       7.368   2.655  -3.836  0.00  0.00     0.032 H 
ATOM     22  H   LIG d   1       8.844   1.072  -5.487  0.00  0.00     0.032 H 
ATOM     23  H   LIG d   1       7.167   1.517  -5.951  0.00  0.00     0.032 H 
ATOM     24  H   LIG d   1       8.155  -1.052  -4.594  0.00  0.00     0.082 H 
ATOM     25  H   LIG d   1       7.053  -0.891  -5.997  0.00  0.00     0.082 H 
ENDROOT
TORSDOF 0
ENDMDL
