MODEL 1
REMARK VINA RESULT:      -7.1      0.000      0.000
REMARK  8 active torsions:
REMARK  status: ('A' for Active; 'I' for Inactive)
REMARK    1  A    between atoms: C_1  and  O_2 
REMARK    2  A    between atoms: O_2  and  C_3 
REMARK    3  A    between atoms: C_3  and  C_5 
REMARK    4  A    between atoms: N_10  and  C_13 
REMARK    5  A    between atoms: C_13  and  C_14 
REMARK       I    between atoms: N_22  and  C_23 
REMARK    6  A    between atoms: C_23  and  C_25 
REMARK    7  A    between atoms: C_25  and  O_26 
REMARK    8  A    between atoms: O_26  and  C_27 
ROOT
ATOM      1  C   LIG d   1       4.897  -0.027  -8.907  0.00  0.00     0.129 C 
ATOM      2  H   LIG d   1       5.953   0.005  -8.641  0.00  0.00     0.062 H 
ATOM      3  C   LIG d   1       4.650  -1.178  -9.889  0.00  0.00     0.020 C 
ATOM      4  C   LIG d   1       4.701  -2.482  -9.133  0.00  0.00     0.066 A 
ATOM      5  C   LIG d   1       4.582  -2.592  -7.791  0.00  0.00     0.059 A 
ATOM      6  N   LIG d   1       4.673  -3.914  -7.486  0.00  0.00    -0.328 N 
ATOM      7  C   LIG d   1       4.849  -4.578  -8.651  0.00  0.00     0.097 A 
ATOM      8  N   LIG d   1       4.864  -3.712  -9.631  0.00  0.00    -0.240 NA
ATOM      9  C   LIG d   1       4.388  -1.421  -6.861  0.00  0.00     0.058 C 
ATOM     10  N   LIG d   1       4.090  -0.243  -7.696  0.00  0.00    -0.279 N 
ATOM     11  C   LIG d   1       3.107   0.614  -7.357  0.00  0.00     0.254 C 
ATOM     12  O   LIG d   1       2.810   1.521  -8.105  0.00  0.00    -0.272 OA
ATOM     13  H   LIG d   1       3.668  -1.061 -10.350  0.00  0.00     0.035 H 
ATOM     14  H   LIG d   1       5.420  -1.173 -10.659  0.00  0.00     0.035 H 
ATOM     15  H   LIG d   1       4.958  -5.648  -8.755  0.00  0.00     0.103 H 
ATOM     16  H   LIG d   1       5.298  -1.249  -6.286  0.00  0.00     0.053 H 
ATOM     17  H   LIG d   1       3.554  -1.617  -6.186  0.00  0.00     0.053 H 
ENDROOT
BRANCH   1  18
ATOM     18  C   LIG d   1       4.501   1.277  -9.550  0.00  0.00     0.328 C 
ATOM     19  O   LIG d   1       3.611   1.303 -10.367  0.00  0.00    -0.249 OA
BRANCH  18  20
ATOM     20  O   LIG d   1       5.136   2.412  -9.215  0.00  0.00    -0.467 OA
BRANCH  20  21
ATOM     21  C   LIG d   1       6.553   2.311  -8.915  0.00  0.00     0.082 C 
ATOM     22  H   LIG d   1       7.120   2.886  -9.647  0.00  0.00     0.066 H 
ATOM     23  H   LIG d   1       6.743   2.706  -7.917  0.00  0.00     0.066 H 
ATOM     24  H   LIG d   1       6.859   1.266  -8.956  0.00  0.00     0.066 H 
ENDBRANCH  20  21
ENDBRANCH  18  20
ENDBRANCH   1  18
BRANCH  11  25
ATOM     25  C   LIG d   1       2.375   0.443  -6.052  0.00  0.00     0.165 C 
ATOM     26  H   LIG d   1       1.338   0.752  -6.173  0.00  0.00     0.080 H 
ATOM     27  H   LIG d   1       2.409  -0.604  -5.751  0.00  0.00     0.080 H 
BRANCH  25  28
ATOM     28  O   LIG d   1       2.997   1.247  -5.048  0.00  0.00    -0.483 OA
BRANCH  28  29
ATOM     29  C   LIG d   1       3.440   0.609  -3.932  0.00  0.00     0.121 A 
ATOM     30  C   LIG d   1       4.162   1.306  -2.974  0.00  0.00    -0.020 A 
ATOM     31  C   LIG d   1       4.611   0.655  -1.841  0.00  0.00    -0.058 A 
ATOM     32  H   LIG d   1       4.372   2.356  -3.113  0.00  0.00     0.065 H 
ATOM     33  C   LIG d   1       4.342  -0.690  -1.663  0.00  0.00    -0.061 A 
ATOM     34  H   LIG d   1       5.173   1.196  -1.095  0.00  0.00     0.062 H 
ATOM     35  C   LIG d   1       3.622  -1.386  -2.617  0.00  0.00    -0.058 A 
ATOM     36  H   LIG d   1       4.694  -1.197  -0.776  0.00  0.00     0.062 H 
ATOM     37  C   LIG d   1       3.166  -0.738  -3.748  0.00  0.00    -0.020 A 
ATOM     38  H   LIG d   1       3.414  -2.436  -2.475  0.00  0.00     0.062 H 
ATOM     39  H   LIG d   1       2.601  -1.282  -4.491  0.00  0.00     0.065 H 
ENDBRANCH  28  29
ENDBRANCH  25  28
ENDBRANCH  11  25
BRANCH   6  40
ATOM     40  C   LIG d   1       4.596  -4.505  -6.148  0.00  0.00     0.050 C 
ATOM     41  H   LIG d   1       3.824  -3.996  -5.570  0.00  0.00     0.054 H 
ATOM     42  H   LIG d   1       4.348  -5.563  -6.232  0.00  0.00     0.054 H 
BRANCH  40  43
ATOM     43  C   LIG d   1       5.925  -4.354  -5.454  0.00  0.00    -0.028 A 
ATOM     44  C   LIG d   1       6.158  -3.265  -4.636  0.00  0.00    -0.056 A 
ATOM     45  C   LIG d   1       7.377  -3.126  -4.000  0.00  0.00    -0.043 A 
ATOM     46  H   LIG d   1       5.387  -2.522  -4.494  0.00  0.00     0.062 H 
ATOM     47  C   LIG d   1       8.364  -4.078  -4.181  0.00  0.00     0.041 A 
ATOM     48  H   LIG d   1       7.559  -2.274  -3.360  0.00  0.00     0.063 H 
ATOM     49  C   LIG d   1       8.131  -5.168  -5.000  0.00  0.00    -0.043 A 
ATOM     50 CL   LIG d   1       9.895  -3.903  -3.383  0.00  0.00    -0.084 Cl
ATOM     51  C   LIG d   1       6.909  -5.308  -5.631  0.00  0.00    -0.056 A 
ATOM     52  H   LIG d   1       8.901  -5.912  -5.142  0.00  0.00     0.063 H 
ATOM     53  H   LIG d   1       6.725  -6.162  -6.267  0.00  0.00     0.062 H 
ENDBRANCH  40  43
ENDBRANCH   6  40
TORSDOF 8
ENDMDL
MODEL 2
REMARK VINA RESULT:      -7.0      2.626      3.637
REMARK  8 active torsions:
REMARK  status: ('A' for Active; 'I' for Inactive)
REMARK    1  A    between atoms: C_1  and  O_2 
REMARK    2  A    between atoms: O_2  and  C_3 
REMARK    3  A    between atoms: C_3  and  C_5 
REMARK    4  A    between atoms: N_10  and  C_13 
REMARK    5  A    between atoms: C_13  and  C_14 
REMARK       I    between atoms: N_22  and  C_23 
REMARK    6  A    between atoms: C_23  and  C_25 
REMARK    7  A    between atoms: C_25  and  O_26 
REMARK    8  A    between atoms: O_26  and  C_27 
ROOT
ATOM      1  C   LIG d   1       4.609  -1.407  -8.367  0.00  0.00     0.129 C 
ATOM      2  H   LIG d   1       5.519  -1.021  -8.826  0.00  0.00     0.062 H 
ATOM      3  C   LIG d   1       4.828  -2.864  -7.944  0.00  0.00     0.020 C 
ATOM      4  C   LIG d   1       5.694  -2.888  -6.710  0.00  0.00     0.066 A 
ATOM      5  C   LIG d   1       5.900  -1.825  -5.902  0.00  0.00     0.059 A 
ATOM      6  N   LIG d   1       6.726  -2.233  -4.902  0.00  0.00    -0.328 N 
ATOM      7  C   LIG d   1       7.006  -3.537  -5.127  0.00  0.00     0.097 A 
ATOM      8  N   LIG d   1       6.384  -3.919  -6.213  0.00  0.00    -0.240 NA
ATOM      9  C   LIG d   1       5.295  -0.462  -6.126  0.00  0.00     0.058 C 
ATOM     10  N   LIG d   1       4.276  -0.604  -7.181  0.00  0.00    -0.279 N 
ATOM     11  C   LIG d   1       3.071  -0.012  -7.063  0.00  0.00     0.254 C 
ATOM     12  O   LIG d   1       2.210  -0.220  -7.892  0.00  0.00    -0.272 OA
ATOM     13  H   LIG d   1       3.866  -3.330  -7.724  0.00  0.00     0.035 H 
ATOM     14  H   LIG d   1       5.323  -3.408  -8.748  0.00  0.00     0.035 H 
ATOM     15  H   LIG d   1       7.640  -4.160  -4.513  0.00  0.00     0.103 H 
ATOM     16  H   LIG d   1       6.067   0.239  -6.446  0.00  0.00     0.053 H 
ATOM     17  H   LIG d   1       4.830  -0.106  -5.206  0.00  0.00     0.053 H 
ENDROOT
BRANCH   1  18
ATOM     18  C   LIG d   1       3.477  -1.336  -9.359  0.00  0.00     0.328 C 
ATOM     19  O   LIG d   1       2.621  -2.189  -9.363  0.00  0.00    -0.249 OA
BRANCH  18  20
ATOM     20  O   LIG d   1       3.418  -0.324 -10.240  0.00  0.00    -0.467 OA
BRANCH  20  21
ATOM     21  C   LIG d   1       4.666   0.349 -10.556  0.00  0.00     0.082 C 
ATOM     22  H   LIG d   1       4.866   1.113  -9.805  0.00  0.00     0.066 H 
ATOM     23  H   LIG d   1       5.479  -0.377 -10.561  0.00  0.00     0.066 H 
ATOM     24  H   LIG d   1       4.588   0.814 -11.538  0.00  0.00     0.066 H 
ENDBRANCH  20  21
ENDBRANCH  18  20
ENDBRANCH   1  18
BRANCH  11  25
ATOM     25  C   LIG d   1       2.793   0.905  -5.901  0.00  0.00     0.165 C 
ATOM     26  H   LIG d   1       3.727   1.341  -5.549  0.00  0.00     0.080 H 
ATOM     27  H   LIG d   1       2.119   1.701  -6.220  0.00  0.00     0.080 H 
BRANCH  25  28
ATOM     28  O   LIG d   1       2.185   0.163  -4.842  0.00  0.00    -0.483 OA
BRANCH  28  29
ATOM     29  C   LIG d   1       2.960  -0.119  -3.761  0.00  0.00     0.121 A 
ATOM     30  C   LIG d   1       3.541   0.910  -3.035  0.00  0.00    -0.020 A 
ATOM     31  C   LIG d   1       4.327   0.620  -1.937  0.00  0.00    -0.058 A 
ATOM     32  H   LIG d   1       3.378   1.937  -3.327  0.00  0.00     0.065 H 
ATOM     33  C   LIG d   1       4.536  -0.695  -1.563  0.00  0.00    -0.061 A 
ATOM     34  H   LIG d   1       4.780   1.420  -1.371  0.00  0.00     0.062 H 
ATOM     35  C   LIG d   1       3.957  -1.722  -2.285  0.00  0.00    -0.058 A 
ATOM     36  H   LIG d   1       5.151  -0.920  -0.703  0.00  0.00     0.062 H 
ATOM     37  C   LIG d   1       3.165  -1.437  -3.380  0.00  0.00    -0.020 A 
ATOM     38  H   LIG d   1       4.122  -2.748  -1.991  0.00  0.00     0.062 H 
ATOM     39  H   LIG d   1       2.711  -2.240  -3.942  0.00  0.00     0.065 H 
ENDBRANCH  28  29
ENDBRANCH  25  28
ENDBRANCH  11  25
BRANCH   6  40
ATOM     40  C   LIG d   1       7.219  -1.415  -3.791  0.00  0.00     0.050 C 
ATOM     41  H   LIG d   1       6.387  -1.148  -3.139  0.00  0.00     0.054 H 
ATOM     42  H   LIG d   1       7.958  -1.980  -3.223  0.00  0.00     0.054 H 
BRANCH  40  43
ATOM     43  C   LIG d   1       7.854  -0.161  -4.333  0.00  0.00    -0.028 A 
ATOM     44  C   LIG d   1       8.825  -0.245  -5.313  0.00  0.00    -0.056 A 
ATOM     45  C   LIG d   1       9.408   0.905  -5.811  0.00  0.00    -0.043 A 
ATOM     46  H   LIG d   1       9.129  -1.211  -5.689  0.00  0.00     0.062 H 
ATOM     47  C   LIG d   1       9.018   2.142  -5.328  0.00  0.00     0.041 A 
ATOM     48  H   LIG d   1      10.167   0.839  -6.576  0.00  0.00     0.063 H 
ATOM     49  C   LIG d   1       8.046   2.226  -4.347  0.00  0.00    -0.043 A 
ATOM     50 CL   LIG d   1       9.750   3.587  -5.952  0.00  0.00    -0.084 Cl
ATOM     51  C   LIG d   1       7.461   1.075  -3.855  0.00  0.00    -0.056 A 
ATOM     52  H   LIG d   1       7.741   3.191  -3.970  0.00  0.00     0.063 H 
ATOM     53  H   LIG d   1       6.699   1.141  -3.092  0.00  0.00     0.062 H 
ENDBRANCH  40  43
ENDBRANCH   6  40
TORSDOF 8
ENDMDL
MODEL 3
REMARK VINA RESULT:      -6.7      1.678      2.561
REMARK  8 active torsions:
REMARK  status: ('A' for Active; 'I' for Inactive)
REMARK    1  A    between atoms: C_1  and  O_2 
REMARK    2  A    between atoms: O_2  and  C_3 
REMARK    3  A    between atoms: C_3  and  C_5 
REMARK    4  A    between atoms: N_10  and  C_13 
REMARK    5  A    between atoms: C_13  and  C_14 
REMARK       I    between atoms: N_22  and  C_23 
REMARK    6  A    between atoms: C_23  and  C_25 
REMARK    7  A    between atoms: C_25  and  O_26 
REMARK    8  A    between atoms: O_26  and  C_27 
ROOT
ATOM      1  C   LIG d   1       4.249  -1.845  -8.574  0.00  0.00     0.129 C 
ATOM      2  H   LIG d   1       5.195  -1.633  -9.071  0.00  0.00     0.062 H 
ATOM      3  C   LIG d   1       4.206  -3.321  -8.161  0.00  0.00     0.020 C 
ATOM      4  C   LIG d   1       5.103  -3.518  -6.965  0.00  0.00     0.066 A 
ATOM      5  C   LIG d   1       5.539  -2.519  -6.166  0.00  0.00     0.059 A 
ATOM      6  N   LIG d   1       6.314  -3.085  -5.202  0.00  0.00    -0.328 N 
ATOM      7  C   LIG d   1       6.334  -4.416  -5.440  0.00  0.00     0.097 A 
ATOM      8  N   LIG d   1       5.606  -4.665  -6.498  0.00  0.00    -0.240 NA
ATOM      9  C   LIG d   1       5.193  -1.065  -6.364  0.00  0.00     0.058 C 
ATOM     10  N   LIG d   1       4.122  -1.004  -7.375  0.00  0.00    -0.279 N 
ATOM     11  C   LIG d   1       3.057  -0.196  -7.205  0.00  0.00     0.254 C 
ATOM     12  O   LIG d   1       2.138  -0.231  -7.996  0.00  0.00    -0.272 OA
ATOM     13  H   LIG d   1       3.184  -3.599  -7.901  0.00  0.00     0.035 H 
ATOM     14  H   LIG d   1       4.556  -3.941  -8.986  0.00  0.00     0.035 H 
ATOM     15  H   LIG d   1       6.863  -5.153  -4.854  0.00  0.00     0.103 H 
ATOM     16  H   LIG d   1       6.069  -0.520  -6.716  0.00  0.00     0.053 H 
ATOM     17  H   LIG d   1       4.842  -0.636  -5.425  0.00  0.00     0.053 H 
ENDROOT
BRANCH   1  18
ATOM     18  C   LIG d   1       3.110  -1.553  -9.517  0.00  0.00     0.328 C 
ATOM     19  O   LIG d   1       2.118  -2.243  -9.500  0.00  0.00    -0.249 OA
BRANCH  18  20
ATOM     20  O   LIG d   1       3.196  -0.525 -10.377  0.00  0.00    -0.467 OA
BRANCH  20  21
ATOM     21  C   LIG d   1       4.528  -0.125 -10.795  0.00  0.00     0.082 C 
ATOM     22  H   LIG d   1       4.618   0.959 -10.730  0.00  0.00     0.066 H 
ATOM     23  H   LIG d   1       5.268  -0.590 -10.143  0.00  0.00     0.066 H 
ATOM     24  H   LIG d   1       4.698  -0.444 -11.823  0.00  0.00     0.066 H 
ENDBRANCH  20  21
ENDBRANCH  18  20
ENDBRANCH   1  18
BRANCH  11  25
ATOM     25  C   LIG d   1       3.005   0.747  -6.031  0.00  0.00     0.165 C 
ATOM     26  H   LIG d   1       4.019   1.008  -5.729  0.00  0.00     0.080 H 
ATOM     27  H   LIG d   1       2.467   1.652  -6.317  0.00  0.00     0.080 H 
BRANCH  25  28
ATOM     28  O   LIG d   1       2.331   0.116  -4.941  0.00  0.00    -0.483 OA
BRANCH  28  29
ATOM     29  C   LIG d   1       3.052  -0.101  -3.810  0.00  0.00     0.121 A 
ATOM     30  C   LIG d   1       3.571   0.971  -3.100  0.00  0.00    -0.020 A 
ATOM     31  C   LIG d   1       4.303   0.747  -1.951  0.00  0.00    -0.058 A 
ATOM     32  H   LIG d   1       3.400   1.981  -3.444  0.00  0.00     0.065 H 
ATOM     33  C   LIG d   1       4.521  -0.545  -1.509  0.00  0.00    -0.061 A 
ATOM     34  H   LIG d   1       4.707   1.582  -1.397  0.00  0.00     0.062 H 
ATOM     35  C   LIG d   1       4.006  -1.616  -2.216  0.00  0.00    -0.058 A 
ATOM     36  H   LIG d   1       5.095  -0.719  -0.610  0.00  0.00     0.062 H 
ATOM     37  C   LIG d   1       3.267  -1.396  -3.362  0.00  0.00    -0.020 A 
ATOM     38  H   LIG d   1       4.177  -2.624  -1.869  0.00  0.00     0.062 H 
ATOM     39  H   LIG d   1       2.861  -2.233  -3.912  0.00  0.00     0.065 H 
ENDBRANCH  28  29
ENDBRANCH  25  28
ENDBRANCH  11  25
BRANCH   6  40
ATOM     40  C   LIG d   1       6.998  -2.384  -4.112  0.00  0.00     0.050 C 
ATOM     41  H   LIG d   1       6.979  -1.310  -4.303  0.00  0.00     0.054 H 
ATOM     42  H   LIG d   1       6.492  -2.594  -3.171  0.00  0.00     0.054 H 
BRANCH  40  43
ATOM     43  C   LIG d   1       8.428  -2.854  -4.031  0.00  0.00    -0.028 A 
ATOM     44  C   LIG d   1       8.815  -3.720  -3.026  0.00  0.00    -0.056 A 
ATOM     45  C   LIG d   1      10.126  -4.152  -2.952  0.00  0.00    -0.043 A 
ATOM     46  H   LIG d   1       8.092  -4.060  -2.299  0.00  0.00     0.062 H 
ATOM     47  C   LIG d   1      11.051  -3.716  -3.884  0.00  0.00     0.041 A 
ATOM     48  H   LIG d   1      10.428  -4.829  -2.166  0.00  0.00     0.063 H 
ATOM     49  C   LIG d   1      10.663  -2.849  -4.889  0.00  0.00    -0.043 A 
ATOM     50 CL   LIG d   1      12.697  -4.257  -3.790  0.00  0.00    -0.084 Cl
ATOM     51  C   LIG d   1       9.350  -2.423  -4.966  0.00  0.00    -0.056 A 
ATOM     52  H   LIG d   1      11.385  -2.509  -5.617  0.00  0.00     0.063 H 
ATOM     53  H   LIG d   1       9.047  -1.749  -5.754  0.00  0.00     0.062 H 
ENDBRANCH  40  43
ENDBRANCH   6  40
TORSDOF 8
ENDMDL
MODEL 4
REMARK VINA RESULT:      -6.6      4.866      7.181
REMARK  8 active torsions:
REMARK  status: ('A' for Active; 'I' for Inactive)
REMARK    1  A    between atoms: C_1  and  O_2 
REMARK    2  A    between atoms: O_2  and  C_3 
REMARK    3  A    between atoms: C_3  and  C_5 
REMARK    4  A    between atoms: N_10  and  C_13 
REMARK    5  A    between atoms: C_13  and  C_14 
REMARK       I    between atoms: N_22  and  C_23 
REMARK    6  A    between atoms: C_23  and  C_25 
REMARK    7  A    between atoms: C_25  and  O_26 
REMARK    8  A    between atoms: O_26  and  C_27 
ROOT
ATOM      1  C   LIG d   1      10.621   3.977  -5.208  0.00  0.00     0.129 C 
ATOM      2  H   LIG d   1      11.582   3.617  -5.573  0.00  0.00     0.062 H 
ATOM      3  C   LIG d   1      10.073   5.038  -6.169  0.00  0.00     0.020 C 
ATOM      4  C   LIG d   1       9.564   4.353  -7.412  0.00  0.00     0.066 A 
ATOM      5  C   LIG d   1       9.275   3.035  -7.493  0.00  0.00     0.059 A 
ATOM      6  N   LIG d   1       8.843   2.794  -8.760  0.00  0.00    -0.328 N 
ATOM      7  C   LIG d   1       8.883   3.972  -9.422  0.00  0.00     0.097 A 
ATOM      8  N   LIG d   1       9.316   4.899  -8.606  0.00  0.00    -0.240 NA
ATOM      9  C   LIG d   1       9.428   2.064  -6.349  0.00  0.00     0.058 C 
ATOM     10  N   LIG d   1       9.671   2.858  -5.131  0.00  0.00    -0.279 N 
ATOM     11  C   LIG d   1       9.040   2.563  -3.977  0.00  0.00     0.254 C 
ATOM     12  O   LIG d   1       9.175   3.285  -3.011  0.00  0.00    -0.272 OA
ATOM     13  H   LIG d   1       9.255   5.579  -5.690  0.00  0.00     0.035 H 
ATOM     14  H   LIG d   1      10.867   5.735  -6.436  0.00  0.00     0.035 H 
ATOM     15  H   LIG d   1       8.603   4.124 -10.454  0.00  0.00     0.103 H 
ATOM     16  H   LIG d   1      10.273   1.400  -6.536  0.00  0.00     0.053 H 
ATOM     17  H   LIG d   1       8.515   1.478  -6.234  0.00  0.00     0.053 H 
ENDROOT
BRANCH   1  18
ATOM     18  C   LIG d   1      10.799   4.582  -3.839  0.00  0.00     0.328 C 
ATOM     19  O   LIG d   1      11.615   4.121  -3.076  0.00  0.00    -0.249 OA
BRANCH  18  20
ATOM     20  O   LIG d   1      10.052   5.634  -3.466  0.00  0.00    -0.467 OA
BRANCH  20  21
ATOM     21  C   LIG d   1      10.595   6.494  -2.429  0.00  0.00     0.082 C 
ATOM     22  H   LIG d   1      11.678   6.544  -2.530  0.00  0.00     0.066 H 
ATOM     23  H   LIG d   1      10.174   7.495  -2.531  0.00  0.00     0.066 H 
ATOM     24  H   LIG d   1      10.337   6.089  -1.451  0.00  0.00     0.066 H 
ENDBRANCH  20  21
ENDBRANCH  18  20
ENDBRANCH   1  18
BRANCH  11  25
ATOM     25  C   LIG d   1       8.166   1.339  -3.886  0.00  0.00     0.165 C 
ATOM     26  H   LIG d   1       8.144   0.836  -4.852  0.00  0.00     0.080 H 
ATOM     27  H   LIG d   1       8.567   0.662  -3.132  0.00  0.00     0.080 H 
BRANCH  25  28
ATOM     28  O   LIG d   1       6.840   1.726  -3.520  0.00  0.00    -0.483 OA
BRANCH  28  29
ATOM     29  C   LIG d   1       6.014   0.748  -3.065  0.00  0.00     0.121 A 
ATOM     30  C   LIG d   1       6.314  -0.584  -3.310  0.00  0.00    -0.020 A 
ATOM     31  C   LIG d   1       5.472  -1.577  -2.846  0.00  0.00    -0.058 A 
ATOM     32  H   LIG d   1       7.204  -0.845  -3.862  0.00  0.00     0.065 H 
ATOM     33  C   LIG d   1       4.332  -1.243  -2.138  0.00  0.00    -0.061 A 
ATOM     34  H   LIG d   1       5.705  -2.614  -3.037  0.00  0.00     0.062 H 
ATOM     35  C   LIG d   1       4.031   0.084  -1.893  0.00  0.00    -0.058 A 
ATOM     36  H   LIG d   1       3.675  -2.020  -1.776  0.00  0.00     0.062 H 
ATOM     37  C   LIG d   1       4.873   1.080  -2.350  0.00  0.00    -0.020 A 
ATOM     38  H   LIG d   1       3.141   0.342  -1.340  0.00  0.00     0.062 H 
ATOM     39  H   LIG d   1       4.640   2.116  -2.154  0.00  0.00     0.065 H 
ENDBRANCH  28  29
ENDBRANCH  25  28
ENDBRANCH  11  25
BRANCH   6  40
ATOM     40  C   LIG d   1       8.417   1.502  -9.303  0.00  0.00     0.050 C 
ATOM     41  H   LIG d   1       8.442   1.540 -10.392  0.00  0.00     0.054 H 
ATOM     42  H   LIG d   1       9.089   0.720  -8.952  0.00  0.00     0.054 H 
BRANCH  40  43
ATOM     43  C   LIG d   1       7.013   1.202  -8.844  0.00  0.00    -0.028 A 
ATOM     44  C   LIG d   1       6.783   0.172  -7.951  0.00  0.00    -0.056 A 
ATOM     45  C   LIG d   1       5.495  -0.103  -7.530  0.00  0.00    -0.043 A 
ATOM     46  H   LIG d   1       7.609  -0.418  -7.583  0.00  0.00     0.062 H 
ATOM     47  C   LIG d   1       4.437   0.653  -8.002  0.00  0.00     0.041 A 
ATOM     48  H   LIG d   1       5.316  -0.908  -6.833  0.00  0.00     0.063 H 
ATOM     49  C   LIG d   1       4.668   1.684  -8.895  0.00  0.00    -0.043 A 
ATOM     50 CL   LIG d   1       2.820   0.308  -7.473  0.00  0.00    -0.084 Cl
ATOM     51  C   LIG d   1       5.957   1.961  -9.311  0.00  0.00    -0.056 A 
ATOM     52  H   LIG d   1       3.843   2.275  -9.263  0.00  0.00     0.063 H 
ATOM     53  H   LIG d   1       6.137   2.769 -10.005  0.00  0.00     0.062 H 
ENDBRANCH  40  43
ENDBRANCH   6  40
TORSDOF 8
ENDMDL
MODEL 5
REMARK VINA RESULT:      -6.5      7.403      9.786
REMARK  8 active torsions:
REMARK  status: ('A' for Active; 'I' for Inactive)
REMARK    1  A    between atoms: C_1  and  O_2 
REMARK    2  A    between atoms: O_2  and  C_3 
REMARK    3  A    between atoms: C_3  and  C_5 
REMARK    4  A    between atoms: N_10  and  C_13 
REMARK    5  A    between atoms: C_13  and  C_14 
REMARK       I    between atoms: N_22  and  C_23 
REMARK    6  A    between atoms: C_23  and  C_25 
REMARK    7  A    between atoms: C_25  and  O_26 
REMARK    8  A    between atoms: O_26  and  C_27 
ROOT
ATOM      1  C   LIG d   1      10.538   4.149  -5.667  0.00  0.00     0.129 C 
ATOM      2  H   LIG d   1      10.260   5.191  -5.822  0.00  0.00     0.062 H 
ATOM      3  C   LIG d   1      12.014   4.067  -5.260  0.00  0.00     0.020 C 
ATOM      4  C   LIG d   1      12.150   4.519  -3.828  0.00  0.00     0.066 A 
ATOM      5  C   LIG d   1      11.124   4.594  -2.951  0.00  0.00     0.059 A 
ATOM      6  N   LIG d   1      11.635   5.035  -1.770  0.00  0.00    -0.328 N 
ATOM      7  C   LIG d   1      12.962   5.221  -1.958  0.00  0.00     0.097 A 
ATOM      8  N   LIG d   1      13.259   4.911  -3.194  0.00  0.00    -0.240 NA
ATOM      9  C   LIG d   1       9.697   4.240  -3.286  0.00  0.00     0.058 C 
ATOM     10  N   LIG d   1       9.709   3.570  -4.600  0.00  0.00    -0.279 N 
ATOM     11  C   LIG d   1       8.979   2.459  -4.816  0.00  0.00     0.254 C 
ATOM     12  O   LIG d   1       9.076   1.865  -5.869  0.00  0.00    -0.272 OA
ATOM     13  H   LIG d   1      12.363   3.037  -5.353  0.00  0.00     0.035 H 
ATOM     14  H   LIG d   1      12.608   4.714  -5.905  0.00  0.00     0.035 H 
ATOM     15  H   LIG d   1      13.660   5.570  -1.212  0.00  0.00     0.103 H 
ATOM     16  H   LIG d   1       9.092   5.145  -3.335  0.00  0.00     0.053 H 
ATOM     17  H   LIG d   1       9.295   3.565  -2.530  0.00  0.00     0.053 H 
ENDROOT
BRANCH   1  18
ATOM     18  C   LIG d   1      10.325   3.377  -6.945  0.00  0.00     0.328 C 
ATOM     19  O   LIG d   1      11.042   2.442  -7.213  0.00  0.00    -0.249 OA
BRANCH  18  20
ATOM     20  O   LIG d   1       9.339   3.729  -7.785  0.00  0.00    -0.467 OA
BRANCH  20  21
ATOM     21  C   LIG d   1       9.430   5.042  -8.397  0.00  0.00     0.082 C 
ATOM     22  H   LIG d   1       9.904   4.955  -9.374  0.00  0.00     0.066 H 
ATOM     23  H   LIG d   1       8.429   5.458  -8.515  0.00  0.00     0.066 H 
ATOM     24  H   LIG d   1      10.023   5.699  -7.761  0.00  0.00     0.066 H 
ENDBRANCH  20  21
ENDBRANCH  18  20
ENDBRANCH   1  18
BRANCH  11  25
ATOM     25  C   LIG d   1       8.042   1.953  -3.749  0.00  0.00     0.165 C 
ATOM     26  H   LIG d   1       8.593   1.327  -3.048  0.00  0.00     0.080 H 
ATOM     27  H   LIG d   1       7.608   2.800  -3.216  0.00  0.00     0.080 H 
BRANCH  25  28
ATOM     28  O   LIG d   1       6.999   1.187  -4.354  0.00  0.00    -0.483 OA
BRANCH  28  29
ATOM     29  C   LIG d   1       6.135   0.551  -3.519  0.00  0.00     0.121 A 
ATOM     30  C   LIG d   1       6.054  -0.834  -3.527  0.00  0.00    -0.020 A 
ATOM     31  C   LIG d   1       5.175  -1.477  -2.677  0.00  0.00    -0.058 A 
ATOM     32  H   LIG d   1       6.677  -1.409  -4.195  0.00  0.00     0.065 H 
ATOM     33  C   LIG d   1       4.376  -0.741  -1.820  0.00  0.00    -0.061 A 
ATOM     34  H   LIG d   1       5.111  -2.554  -2.682  0.00  0.00     0.062 H 
ATOM     35  C   LIG d   1       4.456   0.639  -1.812  0.00  0.00    -0.058 A 
ATOM     36  H   LIG d   1       3.689  -1.246  -1.157  0.00  0.00     0.062 H 
ATOM     37  C   LIG d   1       5.338   1.287  -2.655  0.00  0.00    -0.020 A 
ATOM     38  H   LIG d   1       3.831   1.211  -1.142  0.00  0.00     0.062 H 
ATOM     39  H   LIG d   1       5.402   2.365  -2.645  0.00  0.00     0.065 H 
ENDBRANCH  28  29
ENDBRANCH  25  28
ENDBRANCH  11  25
BRANCH   6  40
ATOM     40  C   LIG d   1      10.889   5.264  -0.530  0.00  0.00     0.050 C 
ATOM     41  H   LIG d   1       9.915   4.780  -0.598  0.00  0.00     0.054 H 
ATOM     42  H   LIG d   1      11.444   4.847   0.310  0.00  0.00     0.054 H 
BRANCH  40  43
ATOM     43  C   LIG d   1      10.701   6.745  -0.323  0.00  0.00    -0.028 A 
ATOM     44  C   LIG d   1       9.811   7.446  -1.114  0.00  0.00    -0.056 A 
ATOM     45  C   LIG d   1       9.638   8.804  -0.924  0.00  0.00    -0.043 A 
ATOM     46  H   LIG d   1       9.250   6.932  -1.880  0.00  0.00     0.062 H 
ATOM     47  C   LIG d   1      10.357   9.462   0.058  0.00  0.00     0.041 A 
ATOM     48  H   LIG d   1       8.942   9.352  -1.543  0.00  0.00     0.063 H 
ATOM     49  C   LIG d   1      11.249   8.760   0.849  0.00  0.00    -0.043 A 
ATOM     50 CL   LIG d   1      10.142  11.168   0.295  0.00  0.00    -0.084 Cl
ATOM     51  C   LIG d   1      11.416   7.400   0.661  0.00  0.00    -0.056 A 
ATOM     52  H   LIG d   1      11.811   9.273   1.616  0.00  0.00     0.063 H 
ATOM     53  H   LIG d   1      12.109   6.852   1.282  0.00  0.00     0.062 H 
ENDBRANCH  40  43
ENDBRANCH   6  40
TORSDOF 8
ENDMDL
MODEL 6
REMARK VINA RESULT:      -6.4      3.893      5.753
REMARK  8 active torsions:
REMARK  status: ('A' for Active; 'I' for Inactive)
REMARK    1  A    between atoms: C_1  and  O_2 
REMARK    2  A    between atoms: O_2  and  C_3 
REMARK    3  A    between atoms: C_3  and  C_5 
REMARK    4  A    between atoms: N_10  and  C_13 
REMARK    5  A    between atoms: C_13  and  C_14 
REMARK       I    between atoms: N_22  and  C_23 
REMARK    6  A    between atoms: C_23  and  C_25 
REMARK    7  A    between atoms: C_25  and  O_26 
REMARK    8  A    between atoms: O_26  and  C_27 
ROOT
ATOM      1  C   LIG d   1       8.249   0.515  -8.700  0.00  0.00     0.129 C 
ATOM      2  H   LIG d   1       8.090  -0.159  -9.541  0.00  0.00     0.062 H 
ATOM      3  C   LIG d   1       7.624   1.880  -9.012  0.00  0.00     0.020 C 
ATOM      4  C   LIG d   1       6.125   1.768  -8.893  0.00  0.00     0.066 A 
ATOM      5  C   LIG d   1       5.483   0.771  -8.245  0.00  0.00     0.059 A 
ATOM      6  N   LIG d   1       4.149   1.015  -8.350  0.00  0.00    -0.328 N 
ATOM      7  C   LIG d   1       4.011   2.156  -9.065  0.00  0.00     0.097 A 
ATOM      8  N   LIG d   1       5.200   2.598  -9.385  0.00  0.00    -0.240 NA
ATOM      9  C   LIG d   1       6.179  -0.374  -7.553  0.00  0.00     0.058 C 
ATOM     10  N   LIG d   1       7.615  -0.043  -7.496  0.00  0.00    -0.279 N 
ATOM     11  C   LIG d   1       8.327  -0.248  -6.371  0.00  0.00     0.254 C 
ATOM     12  O   LIG d   1       9.481   0.121  -6.308  0.00  0.00    -0.272 OA
ATOM     13  H   LIG d   1       7.992   2.622  -8.302  0.00  0.00     0.035 H 
ATOM     14  H   LIG d   1       7.889   2.179 -10.026  0.00  0.00     0.035 H 
ATOM     15  H   LIG d   1       3.074   2.624  -9.327  0.00  0.00     0.103 H 
ATOM     16  H   LIG d   1       6.032  -1.294  -8.119  0.00  0.00     0.053 H 
ATOM     17  H   LIG d   1       5.785  -0.492  -6.543  0.00  0.00     0.053 H 
ENDROOT
BRANCH   1  18
ATOM     18  C   LIG d   1       9.727   0.680  -8.460  0.00  0.00     0.328 C 
ATOM     19  O   LIG d   1      10.164   1.743  -8.085  0.00  0.00    -0.249 OA
BRANCH  18  20
ATOM     20  O   LIG d   1      10.561  -0.352  -8.663  0.00  0.00    -0.467 OA
BRANCH  20  21
ATOM     21  C   LIG d   1      11.972  -0.042  -8.814  0.00  0.00     0.082 C 
ATOM     22  H   LIG d   1      12.565  -0.921  -8.564  0.00  0.00     0.066 H 
ATOM     23  H   LIG d   1      12.171   0.249  -9.845  0.00  0.00     0.066 H 
ATOM     24  H   LIG d   1      12.236   0.778  -8.147  0.00  0.00     0.066 H 
ENDBRANCH  20  21
ENDBRANCH  18  20
ENDBRANCH   1  18
BRANCH  11  25
ATOM     25  C   LIG d   1       7.690  -0.933  -5.189  0.00  0.00     0.165 C 
ATOM     26  H   LIG d   1       6.728  -1.349  -5.485  0.00  0.00     0.080 H 
ATOM     27  H   LIG d   1       8.341  -1.735  -4.840  0.00  0.00     0.080 H 
BRANCH  25  28
ATOM     28  O   LIG d   1       7.495   0.014  -4.137  0.00  0.00    -0.483 OA
BRANCH  28  29
ATOM     29  C   LIG d   1       6.379  -0.130  -3.375  0.00  0.00     0.121 A 
ATOM     30  C   LIG d   1       5.750   0.987  -2.845  0.00  0.00    -0.020 A 
ATOM     31  C   LIG d   1       4.616   0.838  -2.072  0.00  0.00    -0.058 A 
ATOM     32  H   LIG d   1       6.147   1.973  -3.039  0.00  0.00     0.065 H 
ATOM     33  C   LIG d   1       4.108  -0.424  -1.824  0.00  0.00    -0.061 A 
ATOM     34  H   LIG d   1       4.126   1.708  -1.659  0.00  0.00     0.062 H 
ATOM     35  C   LIG d   1       4.733  -1.539  -2.351  0.00  0.00    -0.058 A 
ATOM     36  H   LIG d   1       3.220  -0.539  -1.219  0.00  0.00     0.062 H 
ATOM     37  C   LIG d   1       5.864  -1.395  -3.130  0.00  0.00    -0.020 A 
ATOM     38  H   LIG d   1       4.333  -2.523  -2.157  0.00  0.00     0.062 H 
ATOM     39  H   LIG d   1       6.349  -2.266  -3.545  0.00  0.00     0.065 H 
ENDBRANCH  28  29
ENDBRANCH  25  28
ENDBRANCH  11  25
BRANCH   6  40
ATOM     40  C   LIG d   1       3.068   0.197  -7.795  0.00  0.00     0.050 C 
ATOM     41  H   LIG d   1       3.430  -0.334  -6.915  0.00  0.00     0.054 H 
ATOM     42  H   LIG d   1       2.234   0.840  -7.514  0.00  0.00     0.054 H 
BRANCH  40  43
ATOM     43  C   LIG d   1       2.609  -0.798  -8.829  0.00  0.00    -0.028 A 
ATOM     44  C   LIG d   1       1.691  -0.423  -9.791  0.00  0.00    -0.056 A 
ATOM     45  C   LIG d   1       1.270  -1.336 -10.740  0.00  0.00    -0.043 A 
ATOM     46  H   LIG d   1       1.303   0.585  -9.802  0.00  0.00     0.062 H 
ATOM     47  C   LIG d   1       1.768  -2.626 -10.726  0.00  0.00     0.041 A 
ATOM     48  H   LIG d   1       0.552  -1.042 -11.491  0.00  0.00     0.063 H 
ATOM     49  C   LIG d   1       2.687  -3.002  -9.762  0.00  0.00    -0.043 A 
ATOM     50 CL   LIG d   1       1.239  -3.773 -11.916  0.00  0.00    -0.084 Cl
ATOM     51  C   LIG d   1       3.111  -2.086  -8.818  0.00  0.00    -0.056 A 
ATOM     52  H   LIG d   1       3.077  -4.009  -9.751  0.00  0.00     0.063 H 
ATOM     53  H   LIG d   1       3.832  -2.378  -8.069  0.00  0.00     0.062 H 
ENDBRANCH  40  43
ENDBRANCH   6  40
TORSDOF 8
ENDMDL
MODEL 7
REMARK VINA RESULT:      -6.2      3.608      6.007
REMARK  8 active torsions:
REMARK  status: ('A' for Active; 'I' for Inactive)
REMARK    1  A    between atoms: C_1  and  O_2 
REMARK    2  A    between atoms: O_2  and  C_3 
REMARK    3  A    between atoms: C_3  and  C_5 
REMARK    4  A    between atoms: N_10  and  C_13 
REMARK    5  A    between atoms: C_13  and  C_14 
REMARK       I    between atoms: N_22  and  C_23 
REMARK    6  A    between atoms: C_23  and  C_25 
REMARK    7  A    between atoms: C_25  and  O_26 
REMARK    8  A    between atoms: O_26  and  C_27 
ROOT
ATOM      1  C   LIG d   1       5.180  -5.625  -8.080  0.00  0.00     0.129 C 
ATOM      2  H   LIG d   1       4.361  -6.342  -8.122  0.00  0.00     0.062 H 
ATOM      3  C   LIG d   1       5.777  -5.446  -9.481  0.00  0.00     0.020 C 
ATOM      4  C   LIG d   1       4.831  -4.614 -10.310  0.00  0.00     0.066 A 
ATOM      5  C   LIG d   1       3.848  -3.840  -9.800  0.00  0.00     0.059 A 
ATOM      6  N   LIG d   1       3.218  -3.246 -10.849  0.00  0.00    -0.328 N 
ATOM      7  C   LIG d   1       3.831  -3.678 -11.975  0.00  0.00     0.097 A 
ATOM      8  N   LIG d   1       4.795  -4.497 -11.641  0.00  0.00    -0.240 NA
ATOM      9  C   LIG d   1       3.557  -3.703  -8.326  0.00  0.00     0.058 C 
ATOM     10  N   LIG d   1       4.677  -4.329  -7.600  0.00  0.00    -0.279 N 
ATOM     11  C   LIG d   1       5.222  -3.730  -6.523  0.00  0.00     0.254 C 
ATOM     12  O   LIG d   1       6.205  -4.209  -5.996  0.00  0.00    -0.272 OA
ATOM     13  H   LIG d   1       6.740  -4.939  -9.406  0.00  0.00     0.035 H 
ATOM     14  H   LIG d   1       5.911  -6.421  -9.948  0.00  0.00     0.035 H 
ATOM     15  H   LIG d   1       3.568  -3.394 -12.983  0.00  0.00     0.103 H 
ATOM     16  H   LIG d   1       2.624  -4.213  -8.084  0.00  0.00     0.053 H 
ATOM     17  H   LIG d   1       3.484  -2.649  -8.058  0.00  0.00     0.053 H 
ENDROOT
BRANCH   1  18
ATOM     18  C   LIG d   1       6.244  -6.131  -7.140  0.00  0.00     0.328 C 
ATOM     19  O   LIG d   1       5.932  -6.761  -6.157  0.00  0.00    -0.249 OA
BRANCH  18  20
ATOM     20  O   LIG d   1       7.539  -5.884  -7.395  0.00  0.00    -0.467 OA
BRANCH  20  21
ATOM     21  C   LIG d   1       8.462  -6.996  -7.258  0.00  0.00     0.082 C 
ATOM     22  H   LIG d   1       8.492  -7.317  -6.217  0.00  0.00     0.066 H 
ATOM     23  H   LIG d   1       8.128  -7.824  -7.883  0.00  0.00     0.066 H 
ATOM     24  H   LIG d   1       9.457  -6.682  -7.571  0.00  0.00     0.066 H 
ENDBRANCH  20  21
ENDBRANCH  18  20
ENDBRANCH   1  18
BRANCH  11  25
ATOM     25  C   LIG d   1       4.614  -2.466  -5.974  0.00  0.00     0.165 C 
ATOM     26  H   LIG d   1       5.345  -1.661  -6.019  0.00  0.00     0.080 H 
ATOM     27  H   LIG d   1       3.740  -2.197  -6.568  0.00  0.00     0.080 H 
BRANCH  25  28
ATOM     28  O   LIG d   1       4.220  -2.676  -4.617  0.00  0.00    -0.483 OA
BRANCH  28  29
ATOM     29  C   LIG d   1       4.075  -1.572  -3.837  0.00  0.00     0.121 A 
ATOM     30  C   LIG d   1       3.462  -0.437  -4.346  0.00  0.00    -0.020 A 
ATOM     31  C   LIG d   1       3.317   0.683  -3.551  0.00  0.00    -0.058 A 
ATOM     32  H   LIG d   1       3.097  -0.430  -5.363  0.00  0.00     0.065 H 
ATOM     33  C   LIG d   1       3.783   0.673  -2.249  0.00  0.00    -0.061 A 
ATOM     34  H   LIG d   1       2.839   1.567  -3.947  0.00  0.00     0.062 H 
ATOM     35  C   LIG d   1       4.395  -0.457  -1.740  0.00  0.00    -0.058 A 
ATOM     36  H   LIG d   1       3.669   1.551  -1.629  0.00  0.00     0.062 H 
ATOM     37  C   LIG d   1       4.537  -1.581  -2.529  0.00  0.00    -0.020 A 
ATOM     38  H   LIG d   1       4.758  -0.462  -0.723  0.00  0.00     0.062 H 
ATOM     39  H   LIG d   1       5.012  -2.466  -2.129  0.00  0.00     0.065 H 
ENDBRANCH  28  29
ENDBRANCH  25  28
ENDBRANCH  11  25
BRANCH   6  40
ATOM     40  C   LIG d   1       2.088  -2.316 -10.773  0.00  0.00     0.050 C 
ATOM     41  H   LIG d   1       1.598  -2.260 -11.745  0.00  0.00     0.054 H 
ATOM     42  H   LIG d   1       1.376  -2.669 -10.028  0.00  0.00     0.054 H 
BRANCH  40  43
ATOM     43  C   LIG d   1       2.588  -0.949 -10.383  0.00  0.00    -0.028 A 
ATOM     44  C   LIG d   1       2.248  -0.412  -9.156  0.00  0.00    -0.056 A 
ATOM     45  C   LIG d   1       2.706   0.842  -8.798  0.00  0.00    -0.043 A 
ATOM     46  H   LIG d   1       1.623  -0.973  -8.477  0.00  0.00     0.062 H 
ATOM     47  C   LIG d   1       3.506   1.560  -9.669  0.00  0.00     0.041 A 
ATOM     48  H   LIG d   1       2.439   1.261  -7.839  0.00  0.00     0.063 H 
ATOM     49  C   LIG d   1       3.846   1.022 -10.898  0.00  0.00    -0.043 A 
ATOM     50 CL   LIG d   1       4.081   3.135  -9.221  0.00  0.00    -0.084 Cl
ATOM     51  C   LIG d   1       3.392  -0.235 -11.251  0.00  0.00    -0.056 A 
ATOM     52  H   LIG d   1       4.471   1.582 -11.578  0.00  0.00     0.063 H 
ATOM     53  H   LIG d   1       3.662  -0.656 -12.209  0.00  0.00     0.062 H 
ENDBRANCH  40  43
ENDBRANCH   6  40
TORSDOF 8
ENDMDL
MODEL 8
REMARK VINA RESULT:      -6.1      3.786      7.082
REMARK  8 active torsions:
REMARK  status: ('A' for Active; 'I' for Inactive)
REMARK    1  A    between atoms: C_1  and  O_2 
REMARK    2  A    between atoms: O_2  and  C_3 
REMARK    3  A    between atoms: C_3  and  C_5 
REMARK    4  A    between atoms: N_10  and  C_13 
REMARK    5  A    between atoms: C_13  and  C_14 
REMARK       I    between atoms: N_22  and  C_23 
REMARK    6  A    between atoms: C_23  and  C_25 
REMARK    7  A    between atoms: C_25  and  O_26 
REMARK    8  A    between atoms: O_26  and  C_27 
ROOT
ATOM      1  C   LIG d   1       3.949  -0.169  -4.411  0.00  0.00     0.129 C 
ATOM      2  H   LIG d   1       4.699   0.618  -4.337  0.00  0.00     0.062 H 
ATOM      3  C   LIG d   1       2.780   0.317  -5.276  0.00  0.00     0.020 C 
ATOM      4  C   LIG d   1       3.209   0.315  -6.722  0.00  0.00     0.066 A 
ATOM      5  C   LIG d   1       4.274  -0.365  -7.200  0.00  0.00     0.059 A 
ATOM      6  N   LIG d   1       4.337  -0.127  -8.537  0.00  0.00    -0.328 N 
ATOM      7  C   LIG d   1       3.308   0.697  -8.841  0.00  0.00     0.097 A 
ATOM      8  N   LIG d   1       2.639   0.956  -7.747  0.00  0.00    -0.240 NA
ATOM      9  C   LIG d   1       5.187  -1.214  -6.351  0.00  0.00     0.058 C 
ATOM     10  N   LIG d   1       4.545  -1.361  -5.032  0.00  0.00    -0.279 N 
ATOM     11  C   LIG d   1       4.509  -2.556  -4.410  0.00  0.00     0.254 C 
ATOM     12  O   LIG d   1       3.893  -2.682  -3.373  0.00  0.00    -0.272 OA
ATOM     13  H   LIG d   1       1.927  -0.351  -5.147  0.00  0.00     0.035 H 
ATOM     14  H   LIG d   1       2.502   1.328  -4.979  0.00  0.00     0.035 H 
ATOM     15  H   LIG d   1       3.076   1.079  -9.824  0.00  0.00     0.103 H 
ATOM     16  H   LIG d   1       6.155  -0.724  -6.242  0.00  0.00     0.053 H 
ATOM     17  H   LIG d   1       5.317  -2.194  -6.811  0.00  0.00     0.053 H 
ENDROOT
BRANCH   1  18
ATOM     18  C   LIG d   1       3.446  -0.516  -3.033  0.00  0.00     0.328 C 
ATOM     19  O   LIG d   1       2.304  -0.879  -2.880  0.00  0.00    -0.249 OA
BRANCH  18  20
ATOM     20  O   LIG d   1       4.267  -0.422  -1.975  0.00  0.00    -0.467 OA
BRANCH  20  21
ATOM     21  C   LIG d   1       4.653   0.914  -1.557  0.00  0.00     0.082 C 
ATOM     22  H   LIG d   1       4.430   1.041  -0.498  0.00  0.00     0.066 H 
ATOM     23  H   LIG d   1       5.722   1.051  -1.721  0.00  0.00     0.066 H 
ATOM     24  H   LIG d   1       4.099   1.651  -2.137  0.00  0.00     0.066 H 
ENDBRANCH  20  21
ENDBRANCH  18  20
ENDBRANCH   1  18
BRANCH  11  25
ATOM     25  C   LIG d   1       5.232  -3.737  -5.004  0.00  0.00     0.165 C 
ATOM     26  H   LIG d   1       5.606  -3.475  -5.993  0.00  0.00     0.080 H 
ATOM     27  H   LIG d   1       6.068  -4.012  -4.360  0.00  0.00     0.080 H 
BRANCH  25  28
ATOM     28  O   LIG d   1       4.333  -4.842  -5.113  0.00  0.00    -0.483 OA
BRANCH  28  29
ATOM     29  C   LIG d   1       4.228  -5.437  -6.331  0.00  0.00     0.121 A 
ATOM     30  C   LIG d   1       4.581  -6.769  -6.486  0.00  0.00    -0.020 A 
ATOM     31  C   LIG d   1       4.473  -7.370  -7.725  0.00  0.00    -0.058 A 
ATOM     32  H   LIG d   1       4.938  -7.336  -5.639  0.00  0.00     0.065 H 
ATOM     33  C   LIG d   1       4.015  -6.645  -8.810  0.00  0.00    -0.061 A 
ATOM     34  H   LIG d   1       4.748  -8.407  -7.847  0.00  0.00     0.062 H 
ATOM     35  C   LIG d   1       3.663  -5.316  -8.657  0.00  0.00    -0.058 A 
ATOM     36  H   LIG d   1       3.932  -7.117  -9.778  0.00  0.00     0.062 H 
ATOM     37  C   LIG d   1       3.763  -4.712  -7.419  0.00  0.00    -0.020 A 
ATOM     38  H   LIG d   1       3.305  -4.752  -9.505  0.00  0.00     0.062 H 
ATOM     39  H   LIG d   1       3.484  -3.676  -7.299  0.00  0.00     0.065 H 
ENDBRANCH  28  29
ENDBRANCH  25  28
ENDBRANCH  11  25
BRANCH   6  40
ATOM     40  C   LIG d   1       5.331  -0.661  -9.472  0.00  0.00     0.050 C 
ATOM     41  H   LIG d   1       6.082   0.101  -9.677  0.00  0.00     0.054 H 
ATOM     42  H   LIG d   1       5.810  -1.535  -9.031  0.00  0.00     0.054 H 
BRANCH  40  43
ATOM     43  C   LIG d   1       4.651  -1.055 -10.757  0.00  0.00    -0.028 A 
ATOM     44  C   LIG d   1       3.907  -2.219 -10.818  0.00  0.00    -0.056 A 
ATOM     45  C   LIG d   1       3.284  -2.581 -11.998  0.00  0.00    -0.043 A 
ATOM     46  H   LIG d   1       3.814  -2.845  -9.944  0.00  0.00     0.062 H 
ATOM     47  C   LIG d   1       3.404  -1.777 -13.118  0.00  0.00     0.041 A 
ATOM     48  H   LIG d   1       2.703  -3.490 -12.045  0.00  0.00     0.063 H 
ATOM     49  C   LIG d   1       4.148  -0.613 -13.057  0.00  0.00    -0.043 A 
ATOM     50 CL   LIG d   1       2.622  -2.231 -14.599  0.00  0.00    -0.084 Cl
ATOM     51  C   LIG d   1       4.767  -0.250 -11.875  0.00  0.00    -0.056 A 
ATOM     52  H   LIG d   1       4.242   0.015 -13.930  0.00  0.00     0.063 H 
ATOM     53  H   LIG d   1       5.344   0.662 -11.826  0.00  0.00     0.062 H 
ENDBRANCH  40  43
ENDBRANCH   6  40
TORSDOF 8
ENDMDL
MODEL 9
REMARK VINA RESULT:      -6.1      6.668      9.036
REMARK  8 active torsions:
REMARK  status: ('A' for Active; 'I' for Inactive)
REMARK    1  A    between atoms: C_1  and  O_2 
REMARK    2  A    between atoms: O_2  and  C_3 
REMARK    3  A    between atoms: C_3  and  C_5 
REMARK    4  A    between atoms: N_10  and  C_13 
REMARK    5  A    between atoms: C_13  and  C_14 
REMARK       I    between atoms: N_22  and  C_23 
REMARK    6  A    between atoms: C_23  and  C_25 
REMARK    7  A    between atoms: C_25  and  O_26 
REMARK    8  A    between atoms: O_26  and  C_27 
ROOT
ATOM      1  C   LIG d   1      10.578   1.459  -5.631  0.00  0.00     0.129 C 
ATOM      2  H   LIG d   1      10.607   2.136  -6.484  0.00  0.00     0.062 H 
ATOM      3  C   LIG d   1      11.824   1.674  -4.764  0.00  0.00     0.020 C 
ATOM      4  C   LIG d   1      11.668   2.963  -3.996  0.00  0.00     0.066 A 
ATOM      5  C   LIG d   1      10.490   3.595  -3.801  0.00  0.00     0.059 A 
ATOM      6  N   LIG d   1      10.749   4.710  -3.066  0.00  0.00    -0.328 N 
ATOM      7  C   LIG d   1      12.081   4.730  -2.834  0.00  0.00     0.097 A 
ATOM      8  N   LIG d   1      12.622   3.680  -3.396  0.00  0.00    -0.240 NA
ATOM      9  C   LIG d   1       9.166   3.103  -4.330  0.00  0.00     0.058 C 
ATOM     10  N   LIG d   1       9.377   1.731  -4.826  0.00  0.00    -0.279 N 
ATOM     11  C   LIG d   1       8.492   0.753  -4.552  0.00  0.00     0.254 C 
ATOM     12  O   LIG d   1       8.729  -0.390  -4.884  0.00  0.00    -0.272 OA
ATOM     13  H   LIG d   1      11.931   0.843  -4.065  0.00  0.00     0.035 H 
ATOM     14  H   LIG d   1      12.707   1.734  -5.400  0.00  0.00     0.035 H 
ATOM     15  H   LIG d   1      12.612   5.489  -2.277  0.00  0.00     0.103 H 
ATOM     16  H   LIG d   1       8.829   3.745  -5.143  0.00  0.00     0.053 H 
ATOM     17  H   LIG d   1       8.425   3.097  -3.529  0.00  0.00     0.053 H 
ENDROOT
BRANCH   1  18
ATOM     18  C   LIG d   1      10.545   0.034  -6.121  0.00  0.00     0.328 C 
ATOM     19  O   LIG d   1      11.096  -0.836  -5.488  0.00  0.00    -0.249 OA
BRANCH  18  20
ATOM     20  O   LIG d   1       9.903  -0.270  -7.260  0.00  0.00    -0.467 OA
BRANCH  20  21
ATOM     21  C   LIG d   1       9.798   0.780  -8.258  0.00  0.00     0.082 C 
ATOM     22  H   LIG d   1       8.751   0.921  -8.527  0.00  0.00     0.066 H 
ATOM     23  H   LIG d   1      10.196   1.709  -7.851  0.00  0.00     0.066 H 
ATOM     24  H   LIG d   1      10.367   0.497  -9.143  0.00  0.00     0.066 H 
ENDBRANCH  20  21
ENDBRANCH  18  20
ENDBRANCH   1  18
BRANCH  11  25
ATOM     25  C   LIG d   1       7.209   1.077  -3.833  0.00  0.00     0.165 C 
ATOM     26  H   LIG d   1       7.330   2.003  -3.273  0.00  0.00     0.080 H 
ATOM     27  H   LIG d   1       6.404   1.194  -4.560  0.00  0.00     0.080 H 
BRANCH  25  28
ATOM     28  O   LIG d   1       6.885   0.015  -2.933  0.00  0.00    -0.483 OA
BRANCH  28  29
ATOM     29  C   LIG d   1       5.576  -0.339  -2.840  0.00  0.00     0.121 A 
ATOM     30  C   LIG d   1       5.217  -1.678  -2.835  0.00  0.00    -0.020 A 
ATOM     31  C   LIG d   1       3.886  -2.035  -2.740  0.00  0.00    -0.058 A 
ATOM     32  H   LIG d   1       5.978  -2.442  -2.904  0.00  0.00     0.065 H 
ATOM     33  C   LIG d   1       2.912  -1.057  -2.651  0.00  0.00    -0.061 A 
ATOM     34  H   LIG d   1       3.606  -3.078  -2.736  0.00  0.00     0.062 H 
ATOM     35  C   LIG d   1       3.268   0.279  -2.656  0.00  0.00    -0.058 A 
ATOM     36  H   LIG d   1       1.871  -1.338  -2.577  0.00  0.00     0.062 H 
ATOM     37  C   LIG d   1       4.598   0.640  -2.744  0.00  0.00    -0.020 A 
ATOM     38  H   LIG d   1       2.505   1.040  -2.586  0.00  0.00     0.062 H 
ATOM     39  H   LIG d   1       4.875   1.684  -2.744  0.00  0.00     0.065 H 
ENDBRANCH  28  29
ENDBRANCH  25  28
ENDBRANCH  11  25
BRANCH   6  40
ATOM     40  C   LIG d   1       9.770   5.701  -2.612  0.00  0.00     0.050 C 
ATOM     41  H   LIG d   1       8.777   5.249  -2.596  0.00  0.00     0.054 H 
ATOM     42  H   LIG d   1      10.032   6.038  -1.609  0.00  0.00     0.054 H 
BRANCH  40  43
ATOM     43  C   LIG d   1       9.771   6.877  -3.554  0.00  0.00    -0.028 A 
ATOM     44  C   LIG d   1      10.310   8.084  -3.152  0.00  0.00    -0.056 A 
ATOM     45  C   LIG d   1      10.311   9.163  -4.016  0.00  0.00    -0.043 A 
ATOM     46  H   LIG d   1      10.730   8.184  -2.162  0.00  0.00     0.062 H 
ATOM     47  C   LIG d   1       9.772   9.034  -5.284  0.00  0.00     0.041 A 
ATOM     48  H   LIG d   1      10.732  10.107  -3.701  0.00  0.00     0.063 H 
ATOM     49  C   LIG d   1       9.232   7.825  -5.685  0.00  0.00    -0.043 A 
ATOM     50 CL   LIG d   1       9.772  10.389  -6.369  0.00  0.00    -0.084 Cl
ATOM     51  C   LIG d   1       9.237   6.746  -4.822  0.00  0.00    -0.056 A 
ATOM     52  H   LIG d   1       8.812   7.724  -6.675  0.00  0.00     0.063 H 
ATOM     53  H   LIG d   1       8.820   5.801  -5.138  0.00  0.00     0.062 H 
ENDBRANCH  40  43
ENDBRANCH   6  40
TORSDOF 8
ENDMDL
MODEL 10
REMARK VINA RESULT:      -6.1      6.415      8.760
REMARK  8 active torsions:
REMARK  status: ('A' for Active; 'I' for Inactive)
REMARK    1  A    between atoms: C_1  and  O_2 
REMARK    2  A    between atoms: O_2  and  C_3 
REMARK    3  A    between atoms: C_3  and  C_5 
REMARK    4  A    between atoms: N_10  and  C_13 
REMARK    5  A    between atoms: C_13  and  C_14 
REMARK       I    between atoms: N_22  and  C_23 
REMARK    6  A    between atoms: C_23  and  C_25 
REMARK    7  A    between atoms: C_25  and  O_26 
REMARK    8  A    between atoms: O_26  and  C_27 
ROOT
ATOM      1  C   LIG d   1      10.392   2.182  -6.837  0.00  0.00     0.129 C 
ATOM      2  H   LIG d   1       9.907   2.654  -7.691  0.00  0.00     0.062 H 
ATOM      3  C   LIG d   1      11.763   2.827  -6.605  0.00  0.00     0.020 C 
ATOM      4  C   LIG d   1      11.563   4.188  -5.987  0.00  0.00     0.066 A 
ATOM      5  C   LIG d   1      10.423   4.592  -5.384  0.00  0.00     0.059 A 
ATOM      6  N   LIG d   1      10.625   5.866  -4.953  0.00  0.00    -0.328 N 
ATOM      7  C   LIG d   1      11.885   6.208  -5.308  0.00  0.00     0.097 A 
ATOM      8  N   LIG d   1      12.437   5.197  -5.927  0.00  0.00    -0.240 NA
ATOM      9  C   LIG d   1       9.188   3.737  -5.249  0.00  0.00     0.058 C 
ATOM     10  N   LIG d   1       9.562   2.364  -5.636  0.00  0.00    -0.279 N 
ATOM     11  C   LIG d   1       9.153   1.305  -4.910  0.00  0.00     0.254 C 
ATOM     12  O   LIG d   1       9.550   0.193  -5.185  0.00  0.00    -0.272 OA
ATOM     13  H   LIG d   1      12.351   2.203  -5.930  0.00  0.00     0.035 H 
ATOM     14  H   LIG d   1      12.284   2.931  -7.556  0.00  0.00     0.035 H 
ATOM     15  H   LIG d   1      12.357   7.160  -5.112  0.00  0.00     0.103 H 
ATOM     16  H   LIG d   1       8.405   4.109  -5.909  0.00  0.00     0.053 H 
ATOM     17  H   LIG d   1       8.840   3.748  -4.216  0.00  0.00     0.053 H 
ENDROOT
BRANCH   1  18
ATOM     18  C   LIG d   1      10.567   0.710  -7.109  0.00  0.00     0.328 C 
ATOM     19  O   LIG d   1      11.517   0.119  -6.651  0.00  0.00    -0.249 OA
BRANCH  18  20
ATOM     20  O   LIG d   1       9.669   0.054  -7.861  0.00  0.00    -0.467 OA
BRANCH  20  21
ATOM     21  C   LIG d   1       8.798   0.858  -8.700  0.00  0.00     0.082 C 
ATOM     22  H   LIG d   1       8.307   0.217  -9.432  0.00  0.00     0.066 H 
ATOM     23  H   LIG d   1       8.045   1.345  -8.080  0.00  0.00     0.066 H 
ATOM     24  H   LIG d   1       9.389   1.615  -9.216  0.00  0.00     0.066 H 
ENDBRANCH  20  21
ENDBRANCH  18  20
ENDBRANCH   1  18
BRANCH  11  25
ATOM     25  C   LIG d   1       8.204   1.504  -3.757  0.00  0.00     0.165 C 
ATOM     26  H   LIG d   1       8.421   0.774  -2.977  0.00  0.00     0.080 H 
ATOM     27  H   LIG d   1       8.325   2.511  -3.356  0.00  0.00     0.080 H 
BRANCH  25  28
ATOM     28  O   LIG d   1       6.860   1.331  -4.210  0.00  0.00    -0.483 OA
BRANCH  28  29
ATOM     29  C   LIG d   1       6.036   0.581  -3.430  0.00  0.00     0.121 A 
ATOM     30  C   LIG d   1       5.162   1.199  -2.548  0.00  0.00    -0.020 A 
ATOM     31  C   LIG d   1       4.327   0.435  -1.757  0.00  0.00    -0.058 A 
ATOM     32  H   LIG d   1       5.134   2.276  -2.480  0.00  0.00     0.065 H 
ATOM     33  C   LIG d   1       4.363  -0.945  -1.843  0.00  0.00    -0.061 A 
ATOM     34  H   LIG d   1       3.646   0.915  -1.070  0.00  0.00     0.062 H 
ATOM     35  C   LIG d   1       5.233  -1.563  -2.722  0.00  0.00    -0.058 A 
ATOM     36  H   LIG d   1       3.708  -1.542  -1.223  0.00  0.00     0.062 H 
ATOM     37  C   LIG d   1       6.066  -0.803  -3.519  0.00  0.00    -0.020 A 
ATOM     38  H   LIG d   1       5.259  -2.641  -2.787  0.00  0.00     0.062 H 
ATOM     39  H   LIG d   1       6.743  -1.286  -4.208  0.00  0.00     0.065 H 
ENDBRANCH  28  29
ENDBRANCH  25  28
ENDBRANCH  11  25
BRANCH   6  40
ATOM     40  C   LIG d   1       9.661   6.707  -4.239  0.00  0.00     0.050 C 
ATOM     41  H   LIG d   1       9.686   7.716  -4.650  0.00  0.00     0.054 H 
ATOM     42  H   LIG d   1       8.661   6.292  -4.355  0.00  0.00     0.054 H 
BRANCH  40  43
ATOM     43  C   LIG d   1      10.020   6.752  -2.776  0.00  0.00    -0.028 A 
ATOM     44  C   LIG d   1      10.344   5.587  -2.107  0.00  0.00    -0.056 A 
ATOM     45  C   LIG d   1      10.673   5.628  -0.765  0.00  0.00    -0.043 A 
ATOM     46  H   LIG d   1      10.341   4.644  -2.634  0.00  0.00     0.062 H 
ATOM     47  C   LIG d   1      10.677   6.836  -0.091  0.00  0.00     0.041 A 
ATOM     48  H   LIG d   1      10.927   4.717  -0.243  0.00  0.00     0.063 H 
ATOM     49  C   LIG d   1      10.352   8.002  -0.761  0.00  0.00    -0.043 A 
ATOM     50 CL   LIG d   1      11.089   6.888   1.594  0.00  0.00    -0.084 Cl
ATOM     51  C   LIG d   1      10.029   7.960  -2.104  0.00  0.00    -0.056 A 
ATOM     52  H   LIG d   1      10.355   8.946  -0.236  0.00  0.00     0.063 H 
ATOM     53  H   LIG d   1       9.779   8.871  -2.628  0.00  0.00     0.062 H 
ENDBRANCH  40  43
ENDBRANCH   6  40
TORSDOF 8
ENDMDL
