MODEL 1
REMARK VINA RESULT:      -5.1      0.000      0.000
REMARK  3 active torsions:
REMARK  status: ('A' for Active; 'I' for Inactive)
REMARK    1  A    between atoms: C_6  and  N_7 
REMARK    2  A    between atoms: N_7  and  N_8 
REMARK    3  A    between atoms: N_8  and  C_9 
ROOT
ATOM      1  C   LIG d   1       5.277  -1.469  -4.417  0.00  0.00    -0.038 A 
ATOM      2  C   LIG d   1       5.290  -0.305  -3.675  0.00  0.00    -0.042 A 
ATOM      3  C   LIG d   1       4.664  -0.261  -2.442  0.00  0.00     0.041 A 
ATOM      4  C   LIG d   1       4.018  -1.382  -1.950  0.00  0.00    -0.042 A 
ATOM      5  C   LIG d   1       3.997  -2.547  -2.691  0.00  0.00    -0.038 A 
ATOM      6  C   LIG d   1       4.625  -2.595  -3.929  0.00  0.00     0.044 A 
ATOM      7 CL   LIG d   1       4.688   1.203  -1.510  0.00  0.00    -0.084 Cl
ATOM      8  H   LIG d   1       5.769  -1.504  -5.378  0.00  0.00     0.064 H 
ATOM      9  H   LIG d   1       5.793   0.571  -4.056  0.00  0.00     0.063 H 
ATOM     10  H   LIG d   1       3.530  -1.345  -0.988  0.00  0.00     0.063 H 
ATOM     11  H   LIG d   1       3.493  -3.422  -2.307  0.00  0.00     0.064 H 
ENDROOT
BRANCH   6  12
ATOM     12  N   LIG d   1       4.605  -3.773  -4.680  0.00  0.00    -0.265 N 
ATOM     13  H   LIG d   1       5.070  -4.687  -4.281  0.00  0.00     0.170 HD
BRANCH  12  14
ATOM     14  N   LIG d   1       3.995  -3.790  -5.942  0.00  0.00    -0.248 N 
ATOM     15  H   LIG d   1       3.532  -2.875  -6.341  0.00  0.00     0.172 HD
BRANCH  14  16
ATOM     16  C   LIG d   1       3.975  -4.927  -6.665  0.00  0.00     0.144 C 
ATOM     17  S   LIG d   1       4.764  -6.329  -6.079  0.00  0.00    -0.018 SA
ATOM     18  N   LIG d   1       3.332  -4.961  -7.850  0.00  0.00    -0.340 N 
ATOM     19  H   LIG d   1       3.316  -5.889  -8.440  0.00  0.00     0.144 HD
ATOM     20  H   LIG d   1       2.826  -4.060  -8.227  0.00  0.00     0.144 HD
ENDBRANCH  14  16
ENDBRANCH  12  14
ENDBRANCH   6  12
TORSDOF 3
ENDMDL
MODEL 2
REMARK VINA RESULT:      -5.0      5.543      6.731
REMARK  3 active torsions:
REMARK  status: ('A' for Active; 'I' for Inactive)
REMARK    1  A    between atoms: C_6  and  N_7 
REMARK    2  A    between atoms: N_7  and  N_8 
REMARK    3  A    between atoms: N_8  and  C_9 
ROOT
ATOM      1  C   LIG d   1       6.953  -0.471  -3.738  0.00  0.00    -0.038 A 
ATOM      2  C   LIG d   1       6.049  -1.438  -3.344  0.00  0.00    -0.042 A 
ATOM      3  C   LIG d   1       4.904  -1.077  -2.656  0.00  0.00     0.041 A 
ATOM      4  C   LIG d   1       4.663   0.253  -2.357  0.00  0.00    -0.042 A 
ATOM      5  C   LIG d   1       5.566   1.223  -2.745  0.00  0.00    -0.038 A 
ATOM      6  C   LIG d   1       6.717   0.863  -3.435  0.00  0.00     0.044 A 
ATOM      7 CL   LIG d   1       3.768  -2.294  -2.166  0.00  0.00    -0.084 Cl
ATOM      8  H   LIG d   1       7.845  -0.753  -4.279  0.00  0.00     0.064 H 
ATOM      9  H   LIG d   1       6.235  -2.476  -3.576  0.00  0.00     0.063 H 
ATOM     10  H   LIG d   1       3.770   0.532  -1.820  0.00  0.00     0.063 H 
ATOM     11  H   LIG d   1       5.379   2.260  -2.511  0.00  0.00     0.064 H 
ENDROOT
BRANCH   6  12
ATOM     12  N   LIG d   1       7.632   1.843  -3.829  0.00  0.00    -0.265 N 
ATOM     13  H   LIG d   1       7.288   2.723  -4.392  0.00  0.00     0.170 HD
BRANCH  12  14
ATOM     14  N   LIG d   1       8.989   1.704  -3.509  0.00  0.00    -0.248 N 
ATOM     15  H   LIG d   1       9.422   0.702  -3.371  0.00  0.00     0.172 HD
BRANCH  14  16
ATOM     16  C   LIG d   1       9.764   2.798  -3.369  0.00  0.00     0.144 C 
ATOM     17  S   LIG d   1       9.555   4.135  -4.417  0.00  0.00    -0.018 SA
ATOM     18  N   LIG d   1      10.703   2.839  -2.402  0.00  0.00    -0.340 N 
ATOM     19  H   LIG d   1      11.336   3.731  -2.288  0.00  0.00     0.144 HD
ATOM     20  H   LIG d   1      10.838   1.979  -1.729  0.00  0.00     0.144 HD
ENDBRANCH  14  16
ENDBRANCH  12  14
ENDBRANCH   6  12
TORSDOF 3
ENDMDL
MODEL 3
REMARK VINA RESULT:      -5.0      4.432      4.774
REMARK  3 active torsions:
REMARK  status: ('A' for Active; 'I' for Inactive)
REMARK    1  A    between atoms: C_6  and  N_7 
REMARK    2  A    between atoms: N_7  and  N_8 
REMARK    3  A    between atoms: N_8  and  C_9 
ROOT
ATOM      1  C   LIG d   1       2.361   0.377  -4.669  0.00  0.00    -0.038 A 
ATOM      2  C   LIG d   1       2.552  -0.445  -3.576  0.00  0.00    -0.042 A 
ATOM      3  C   LIG d   1       3.567  -1.385  -3.583  0.00  0.00     0.041 A 
ATOM      4  C   LIG d   1       4.391  -1.509  -4.688  0.00  0.00    -0.042 A 
ATOM      5  C   LIG d   1       4.202  -0.692  -5.786  0.00  0.00    -0.038 A 
ATOM      6  C   LIG d   1       3.184   0.253  -5.781  0.00  0.00     0.044 A 
ATOM      7 CL   LIG d   1       3.806  -2.414  -2.206  0.00  0.00    -0.084 Cl
ATOM      8  H   LIG d   1       1.572   1.114  -4.660  0.00  0.00     0.064 H 
ATOM      9  H   LIG d   1       1.910  -0.351  -2.712  0.00  0.00     0.063 H 
ATOM     10  H   LIG d   1       5.182  -2.243  -4.692  0.00  0.00     0.063 H 
ATOM     11  H   LIG d   1       4.845  -0.789  -6.648  0.00  0.00     0.064 H 
ENDROOT
BRANCH   6  12
ATOM     12  N   LIG d   1       2.991   1.080  -6.890  0.00  0.00    -0.265 N 
ATOM     13  H   LIG d   1       2.198   1.842  -6.877  0.00  0.00     0.170 HD
BRANCH  12  14
ATOM     14  N   LIG d   1       3.807   0.938  -8.021  0.00  0.00    -0.248 N 
ATOM     15  H   LIG d   1       4.896   1.068  -7.934  0.00  0.00     0.172 HD
BRANCH  14  16
ATOM     16  C   LIG d   1       3.257   0.644  -9.216  0.00  0.00     0.144 C 
ATOM     17  S   LIG d   1       3.966   1.242 -10.655  0.00  0.00    -0.018 SA
ATOM     18  N   LIG d   1       2.149  -0.122  -9.278  0.00  0.00    -0.340 N 
ATOM     19  H   LIG d   1       1.700  -0.361 -10.253  0.00  0.00     0.144 HD
ATOM     20  H   LIG d   1       1.693  -0.505  -8.353  0.00  0.00     0.144 HD
ENDBRANCH  14  16
ENDBRANCH  12  14
ENDBRANCH   6  12
TORSDOF 3
ENDMDL
MODEL 4
REMARK VINA RESULT:      -4.6      5.553      6.415
REMARK  3 active torsions:
REMARK  status: ('A' for Active; 'I' for Inactive)
REMARK    1  A    between atoms: C_6  and  N_7 
REMARK    2  A    between atoms: N_7  and  N_8 
REMARK    3  A    between atoms: N_8  and  C_9 
ROOT
ATOM      1  C   LIG d   1       2.862   1.436  -7.972  0.00  0.00    -0.038 A 
ATOM      2  C   LIG d   1       3.213   1.560  -9.302  0.00  0.00    -0.042 A 
ATOM      3  C   LIG d   1       3.633   0.452 -10.016  0.00  0.00     0.041 A 
ATOM      4  C   LIG d   1       3.709  -0.784  -9.398  0.00  0.00    -0.042 A 
ATOM      5  C   LIG d   1       3.364  -0.914  -8.067  0.00  0.00    -0.038 A 
ATOM      6  C   LIG d   1       2.942   0.197  -7.348  0.00  0.00     0.044 A 
ATOM      7 CL   LIG d   1       4.068   0.612 -11.689  0.00  0.00    -0.084 Cl
ATOM      8  H   LIG d   1       2.530   2.300  -7.417  0.00  0.00     0.064 H 
ATOM      9  H   LIG d   1       3.155   2.524  -9.787  0.00  0.00     0.063 H 
ATOM     10  H   LIG d   1       4.038  -1.647  -9.957  0.00  0.00     0.063 H 
ATOM     11  H   LIG d   1       3.424  -1.878  -7.585  0.00  0.00     0.064 H 
ENDROOT
BRANCH   6  12
ATOM     12  N   LIG d   1       2.593   0.068  -6.001  0.00  0.00    -0.265 N 
ATOM     13  H   LIG d   1       1.573  -0.238  -5.724  0.00  0.00     0.170 HD
BRANCH  12  14
ATOM     14  N   LIG d   1       3.541   0.331  -5.003  0.00  0.00    -0.248 N 
ATOM     15  H   LIG d   1       4.301   1.111  -5.158  0.00  0.00     0.172 HD
BRANCH  14  16
ATOM     16  C   LIG d   1       3.521  -0.372  -3.854  0.00  0.00     0.144 C 
ATOM     17  S   LIG d   1       3.865   0.406  -2.368  0.00  0.00    -0.018 SA
ATOM     18  N   LIG d   1       3.231  -1.688  -3.874  0.00  0.00    -0.340 N 
ATOM     19  H   LIG d   1       3.216  -2.262  -2.935  0.00  0.00     0.144 HD
ATOM     20  H   LIG d   1       3.011  -2.189  -4.828  0.00  0.00     0.144 HD
ENDBRANCH  14  16
ENDBRANCH  12  14
ENDBRANCH   6  12
TORSDOF 3
ENDMDL
MODEL 5
REMARK VINA RESULT:      -4.6      5.873      6.927
REMARK  3 active torsions:
REMARK  status: ('A' for Active; 'I' for Inactive)
REMARK    1  A    between atoms: C_6  and  N_7 
REMARK    2  A    between atoms: N_7  and  N_8 
REMARK    3  A    between atoms: N_8  and  C_9 
ROOT
ATOM      1  C   LIG d   1       3.060  -0.538  -8.069  0.00  0.00    -0.038 A 
ATOM      2  C   LIG d   1       3.235  -0.783  -9.417  0.00  0.00    -0.042 A 
ATOM      3  C   LIG d   1       3.408   0.270 -10.297  0.00  0.00     0.041 A 
ATOM      4  C   LIG d   1       3.401   1.573  -9.831  0.00  0.00    -0.042 A 
ATOM      5  C   LIG d   1       3.222   1.824  -8.485  0.00  0.00    -0.038 A 
ATOM      6  C   LIG d   1       3.048   0.769  -7.599  0.00  0.00     0.044 A 
ATOM      7 CL   LIG d   1       3.633  -0.043 -11.990  0.00  0.00    -0.084 Cl
ATOM      8  H   LIG d   1       2.929  -1.361  -7.382  0.00  0.00     0.064 H 
ATOM      9  H   LIG d   1       3.241  -1.799  -9.784  0.00  0.00     0.063 H 
ATOM     10  H   LIG d   1       3.536   2.393 -10.519  0.00  0.00     0.063 H 
ATOM     11  H   LIG d   1       3.216   2.841  -8.121  0.00  0.00     0.064 H 
ENDROOT
BRANCH   6  12
ATOM     12  N   LIG d   1       2.866   1.020  -6.236  0.00  0.00    -0.265 N 
ATOM     13  H   LIG d   1       2.095   1.733  -5.907  0.00  0.00     0.170 HD
BRANCH  12  14
ATOM     14  N   LIG d   1       3.665   0.366  -5.290  0.00  0.00    -0.248 N 
ATOM     15  H   LIG d   1       4.497  -0.273  -5.620  0.00  0.00     0.172 HD
BRANCH  14  16
ATOM     16  C   LIG d   1       3.414   0.519  -3.974  0.00  0.00     0.144 C 
ATOM     17  S   LIG d   1       2.849  -0.806  -3.050  0.00  0.00    -0.018 SA
ATOM     18  N   LIG d   1       3.610   1.717  -3.386  0.00  0.00    -0.340 N 
ATOM     19  H   LIG d   1       3.404   1.842  -2.313  0.00  0.00     0.144 HD
ATOM     20  H   LIG d   1       3.972   2.569  -3.980  0.00  0.00     0.144 HD
ENDBRANCH  14  16
ENDBRANCH  12  14
ENDBRANCH   6  12
TORSDOF 3
ENDMDL
MODEL 6
REMARK VINA RESULT:      -4.5     12.738     13.968
REMARK  3 active torsions:
REMARK  status: ('A' for Active; 'I' for Inactive)
REMARK    1  A    between atoms: C_6  and  N_7 
REMARK    2  A    between atoms: N_7  and  N_8 
REMARK    3  A    between atoms: N_8  and  C_9 
ROOT
ATOM      1  C   LIG d   1       9.138   7.731  -1.532  0.00  0.00    -0.038 A 
ATOM      2  C   LIG d   1       9.978   6.704  -1.149  0.00  0.00    -0.042 A 
ATOM      3  C   LIG d   1      10.966   6.930  -0.208  0.00  0.00     0.041 A 
ATOM      4  C   LIG d   1      11.119   8.188   0.350  0.00  0.00    -0.042 A 
ATOM      5  C   LIG d   1      10.285   9.219  -0.032  0.00  0.00    -0.038 A 
ATOM      6  C   LIG d   1       9.292   8.995  -0.977  0.00  0.00     0.044 A 
ATOM      7 CL   LIG d   1      12.018   5.636   0.274  0.00  0.00    -0.084 Cl
ATOM      8  H   LIG d   1       8.364   7.552  -2.263  0.00  0.00     0.064 H 
ATOM      9  H   LIG d   1       9.861   5.722  -1.583  0.00  0.00     0.063 H 
ATOM     10  H   LIG d   1      11.891   8.362   1.084  0.00  0.00     0.063 H 
ATOM     11  H   LIG d   1      10.405  10.200   0.403  0.00  0.00     0.064 H 
ENDROOT
BRANCH   6  12
ATOM     12  N   LIG d   1       8.446  10.037  -1.366  0.00  0.00    -0.265 N 
ATOM     13  H   LIG d   1       7.355   9.893  -1.356  0.00  0.00     0.170 HD
BRANCH  12  14
ATOM     14  N   LIG d   1       8.987  11.265  -1.770  0.00  0.00    -0.248 N 
ATOM     15  H   LIG d   1       9.664  11.815  -1.100  0.00  0.00     0.172 HD
BRANCH  14  16
ATOM     16  C   LIG d   1       8.676  11.773  -2.979  0.00  0.00     0.144 C 
ATOM     17  S   LIG d   1       9.254  11.014  -4.401  0.00  0.00    -0.018 SA
ATOM     18  N   LIG d   1       7.909  12.878  -3.069  0.00  0.00    -0.340 N 
ATOM     19  H   LIG d   1       7.656  13.293  -4.055  0.00  0.00     0.144 HD
ATOM     20  H   LIG d   1       7.538  13.367  -2.155  0.00  0.00     0.144 HD
ENDBRANCH  14  16
ENDBRANCH  12  14
ENDBRANCH   6  12
TORSDOF 3
ENDMDL
MODEL 7
REMARK VINA RESULT:      -4.2      9.765     10.939
REMARK  3 active torsions:
REMARK  status: ('A' for Active; 'I' for Inactive)
REMARK    1  A    between atoms: C_6  and  N_7 
REMARK    2  A    between atoms: N_7  and  N_8 
REMARK    3  A    between atoms: N_8  and  C_9 
ROOT
ATOM      1  C   LIG d   1      11.476   6.301   0.321  0.00  0.00    -0.038 A 
ATOM      2  C   LIG d   1      11.183   7.626   0.577  0.00  0.00    -0.042 A 
ATOM      3  C   LIG d   1      10.286   8.307  -0.226  0.00  0.00     0.041 A 
ATOM      4  C   LIG d   1       9.681   7.663  -1.292  0.00  0.00    -0.042 A 
ATOM      5  C   LIG d   1       9.974   6.340  -1.556  0.00  0.00    -0.038 A 
ATOM      6  C   LIG d   1      10.875   5.654  -0.751  0.00  0.00     0.044 A 
ATOM      7 CL   LIG d   1       9.917   9.971   0.102  0.00  0.00    -0.084 Cl
ATOM      8  H   LIG d   1      12.173   5.770   0.951  0.00  0.00     0.064 H 
ATOM      9  H   LIG d   1      11.654   8.131   1.408  0.00  0.00     0.063 H 
ATOM     10  H   LIG d   1       8.982   8.196  -1.918  0.00  0.00     0.063 H 
ATOM     11  H   LIG d   1       9.503   5.838  -2.388  0.00  0.00     0.064 H 
ENDROOT
BRANCH   6  12
ATOM     12  N   LIG d   1      11.172   4.315  -1.016  0.00  0.00    -0.265 N 
ATOM     13  H   LIG d   1      11.037   3.556  -0.232  0.00  0.00     0.170 HD
BRANCH  12  14
ATOM     14  N   LIG d   1      11.645   3.938  -2.281  0.00  0.00    -0.248 N 
ATOM     15  H   LIG d   1      12.497   4.471  -2.730  0.00  0.00     0.172 HD
BRANCH  14  16
ATOM     16  C   LIG d   1      11.056   2.925  -2.946  0.00  0.00     0.144 C 
ATOM     17  S   LIG d   1       9.461   3.104  -3.541  0.00  0.00    -0.018 SA
ATOM     18  N   LIG d   1      11.724   1.771  -3.144  0.00  0.00    -0.340 N 
ATOM     19  H   LIG d   1      11.243   0.943  -3.687  0.00  0.00     0.144 HD
ATOM     20  H   LIG d   1      12.749   1.655  -2.761  0.00  0.00     0.144 HD
ENDBRANCH  14  16
ENDBRANCH  12  14
ENDBRANCH   6  12
TORSDOF 3
ENDMDL
MODEL 8
REMARK VINA RESULT:      -4.1     11.949     12.991
REMARK  3 active torsions:
REMARK  status: ('A' for Active; 'I' for Inactive)
REMARK    1  A    between atoms: C_6  and  N_7 
REMARK    2  A    between atoms: N_7  and  N_8 
REMARK    3  A    between atoms: N_8  and  C_9 
ROOT
ATOM      1  C   LIG d   1       9.851   7.193  -3.841  0.00  0.00    -0.038 A 
ATOM      2  C   LIG d   1      10.016   5.821  -3.835  0.00  0.00    -0.042 A 
ATOM      3  C   LIG d   1      10.181   5.148  -2.637  0.00  0.00     0.041 A 
ATOM      4  C   LIG d   1      10.187   5.847  -1.443  0.00  0.00    -0.042 A 
ATOM      5  C   LIG d   1      10.027   7.219  -1.444  0.00  0.00    -0.038 A 
ATOM      6  C   LIG d   1       9.861   7.897  -2.644  0.00  0.00     0.044 A 
ATOM      7 CL   LIG d   1      10.383   3.424  -2.633  0.00  0.00    -0.084 Cl
ATOM      8  H   LIG d   1       9.718   7.717  -4.776  0.00  0.00     0.064 H 
ATOM      9  H   LIG d   1      10.012   5.274  -4.766  0.00  0.00     0.063 H 
ATOM     10  H   LIG d   1      10.316   5.320  -0.510  0.00  0.00     0.063 H 
ATOM     11  H   LIG d   1      10.033   7.764  -0.511  0.00  0.00     0.064 H 
ENDROOT
BRANCH   6  12
ATOM     12  N   LIG d   1       9.700   9.285  -2.648  0.00  0.00    -0.265 N 
ATOM     13  H   LIG d   1       9.879   9.862  -1.728  0.00  0.00     0.170 HD
BRANCH  12  14
ATOM     14  N   LIG d   1       9.309   9.942  -3.822  0.00  0.00    -0.248 N 
ATOM     15  H   LIG d   1       9.368   9.422  -4.790  0.00  0.00     0.172 HD
BRANCH  14  16
ATOM     16  C   LIG d   1       8.860  11.212  -3.766  0.00  0.00     0.144 C 
ATOM     17  S   LIG d   1       9.582  12.419  -4.743  0.00  0.00    -0.018 SA
ATOM     18  N   LIG d   1       7.842  11.532  -2.942  0.00  0.00    -0.340 N 
ATOM     19  H   LIG d   1       7.477  12.568  -2.896  0.00  0.00     0.144 HD
ATOM     20  H   LIG d   1       7.379  10.757  -2.314  0.00  0.00     0.144 HD
ENDBRANCH  14  16
ENDBRANCH  12  14
ENDBRANCH   6  12
TORSDOF 3
ENDMDL
MODEL 9
REMARK VINA RESULT:      -4.1     10.537     11.758
REMARK  3 active torsions:
REMARK  status: ('A' for Active; 'I' for Inactive)
REMARK    1  A    between atoms: C_6  and  N_7 
REMARK    2  A    between atoms: N_7  and  N_8 
REMARK    3  A    between atoms: N_8  and  C_9 
ROOT
ATOM      1  C   LIG d   1      10.120   5.258  -2.285  0.00  0.00    -0.038 A 
ATOM      2  C   LIG d   1      10.342   3.944  -2.645  0.00  0.00    -0.042 A 
ATOM      3  C   LIG d   1      10.044   3.516  -3.927  0.00  0.00     0.041 A 
ATOM      4  C   LIG d   1       9.518   4.403  -4.851  0.00  0.00    -0.042 A 
ATOM      5  C   LIG d   1       9.289   5.717  -4.494  0.00  0.00    -0.038 A 
ATOM      6  C   LIG d   1       9.587   6.149  -3.208  0.00  0.00     0.044 A 
ATOM      7 CL   LIG d   1      10.329   1.865  -4.378  0.00  0.00    -0.084 Cl
ATOM      8  H   LIG d   1      10.356   5.592  -1.285  0.00  0.00     0.064 H 
ATOM      9  H   LIG d   1      10.752   3.250  -1.927  0.00  0.00     0.063 H 
ATOM     10  H   LIG d   1       9.286   4.067  -5.850  0.00  0.00     0.063 H 
ATOM     11  H   LIG d   1       8.878   6.409  -5.214  0.00  0.00     0.064 H 
ENDROOT
BRANCH   6  12
ATOM     12  N   LIG d   1       9.357   7.479  -2.844  0.00  0.00    -0.265 N 
ATOM     13  H   LIG d   1       9.590   8.290  -3.550  0.00  0.00     0.170 HD
BRANCH  12  14
ATOM     14  N   LIG d   1       8.831   7.779  -1.581  0.00  0.00    -0.248 N 
ATOM     15  H   LIG d   1       8.135   7.080  -1.094  0.00  0.00     0.172 HD
BRANCH  14  16
ATOM     16  C   LIG d   1       9.176   8.926  -0.962  0.00  0.00     0.144 C 
ATOM     17  S   LIG d   1      10.643   9.016  -0.084  0.00  0.00    -0.018 SA
ATOM     18  N   LIG d   1       8.367  10.002  -1.035  0.00  0.00    -0.340 N 
ATOM     19  H   LIG d   1       8.649  10.937  -0.530  0.00  0.00     0.144 HD
ATOM     20  H   LIG d   1       7.424   9.944  -1.599  0.00  0.00     0.144 HD
ENDBRANCH  14  16
ENDBRANCH  12  14
ENDBRANCH   6  12
TORSDOF 3
ENDMDL
