MODEL 1
REMARK VINA RESULT:      -6.0      0.000      0.000
REMARK  9 active torsions:
REMARK  status: ('A' for Active; 'I' for Inactive)
REMARK    1  A    between atoms: C_1  and  O_2 
REMARK    2  A    between atoms: O_2  and  C_3 
REMARK    3  A    between atoms: C_6  and  C_9 
REMARK    4  A    between atoms: C_9  and  C_10 
REMARK       I    between atoms: C_10  and  N_12 
REMARK    5  A    between atoms: N_18  and  C_19 
REMARK    6  A    between atoms: C_19  and  C_20 
REMARK    7  A    between atoms: C_28  and  C_30 
REMARK    8  A    between atoms: C_30  and  O_32 
REMARK    9  A    between atoms: O_32  and  C_33 
ROOT
ATOM      1  C   LIG d   1       4.043  -0.075  -4.607  0.00  0.00     0.221 C 
ATOM      2  O   LIG d   1       4.348   1.072  -4.359  0.00  0.00    -0.275 OA
ATOM      3  N   LIG d   1       4.798  -1.089  -4.141  0.00  0.00    -0.282 N 
ATOM      4  C   LIG d   1       4.373  -2.491  -4.316  0.00  0.00     0.058 C 
ATOM      5  C   LIG d   1       5.592  -3.271  -4.752  0.00  0.00     0.059 A 
ATOM      6  C   LIG d   1       6.854  -2.790  -4.720  0.00  0.00     0.066 A 
ATOM      7  N   LIG d   1       7.669  -3.751  -5.163  0.00  0.00    -0.240 NA
ATOM      8  C   LIG d   1       6.963  -4.807  -5.470  0.00  0.00     0.097 A 
ATOM      9  N   LIG d   1       5.658  -4.544  -5.226  0.00  0.00    -0.328 N 
ATOM     10  C   LIG d   1       7.223  -1.402  -4.260  0.00  0.00     0.020 C 
ATOM     11  C   LIG d   1       6.063  -0.827  -3.439  0.00  0.00     0.129 C 
ATOM     12  H   LIG d   1       6.040  -1.302  -2.458  0.00  0.00     0.062 H 
ATOM     13  H   LIG d   1       3.994  -2.884  -3.372  0.00  0.00     0.053 H 
ATOM     14  H   LIG d   1       3.599  -2.550  -5.082  0.00  0.00     0.053 H 
ATOM     15  H   LIG d   1       7.357  -5.738  -5.853  0.00  0.00     0.103 H 
ATOM     16  H   LIG d   1       7.408  -0.767  -5.125  0.00  0.00     0.035 H 
ATOM     17  H   LIG d   1       8.120  -1.447  -3.642  0.00  0.00     0.035 H 
ENDROOT
BRANCH   1  18
ATOM     18  C   LIG d   1       2.820  -0.365  -5.438  0.00  0.00     0.049 C 
ATOM     19  H   LIG d   1       2.615  -1.436  -5.421  0.00  0.00     0.041 H 
ATOM     20  H   LIG d   1       1.966   0.175  -5.030  0.00  0.00     0.041 H 
BRANCH  18  21
ATOM     21  C   LIG d   1       3.062   0.076  -6.859  0.00  0.00    -0.038 A 
ATOM     22  C   LIG d   1       3.652  -0.790  -7.760  0.00  0.00    -0.055 A 
ATOM     23  C   LIG d   1       3.875  -0.386  -9.063  0.00  0.00    -0.020 A 
ATOM     24  H   LIG d   1       3.940  -1.782  -7.445  0.00  0.00     0.062 H 
ATOM     25  C   LIG d   1       3.505   0.888  -9.466  0.00  0.00     0.120 A 
ATOM     26  H   LIG d   1       4.336  -1.064  -9.766  0.00  0.00     0.065 H 
ATOM     27  C   LIG d   1       2.912   1.755  -8.560  0.00  0.00    -0.020 A 
ATOM     28  C   LIG d   1       2.686   1.346  -7.260  0.00  0.00    -0.055 A 
ATOM     29  H   LIG d   1       2.623   2.748  -8.872  0.00  0.00     0.065 H 
ATOM     30  H   LIG d   1       2.221   2.018  -6.555  0.00  0.00     0.062 H 
BRANCH  25  31
ATOM     31  O   LIG d   1       3.723   1.287 -10.747  0.00  0.00    -0.495 OA
BRANCH  31  32
ATOM     32  C   LIG d   1       4.209   0.302 -11.660  0.00  0.00     0.079 C 
ATOM     33  H   LIG d   1       4.053   0.646 -12.682  0.00  0.00     0.066 H 
ATOM     34  H   LIG d   1       5.273   0.141 -11.489  0.00  0.00     0.066 H 
ATOM     35  H   LIG d   1       3.671  -0.633 -11.505  0.00  0.00     0.066 H 
ENDBRANCH  31  32
ENDBRANCH  25  31
ENDBRANCH  18  21
ENDBRANCH   1  18
BRANCH  11  36
ATOM     36  C   LIG d   1       6.250   0.659  -3.276  0.00  0.00     0.328 C 
ATOM     37  O   LIG d   1       5.787   1.224  -2.314  0.00  0.00    -0.249 OA
BRANCH  36  38
ATOM     38  O   LIG d   1       6.931   1.355  -4.200  0.00  0.00    -0.467 OA
BRANCH  38  39
ATOM     39  C   LIG d   1       8.145   2.020  -3.761  0.00  0.00     0.082 C 
ATOM     40  H   LIG d   1       8.113   3.068  -4.058  0.00  0.00     0.066 H 
ATOM     41  H   LIG d   1       8.226   1.952  -2.676  0.00  0.00     0.066 H 
ATOM     42  H   LIG d   1       9.010   1.539  -4.220  0.00  0.00     0.066 H 
ENDBRANCH  38  39
ENDBRANCH  36  38
ENDBRANCH  11  36
BRANCH   9  43
ATOM     43  C   LIG d   1       4.531  -5.457  -5.436  0.00  0.00     0.050 C 
ATOM     44  H   LIG d   1       4.796  -6.450  -5.071  0.00  0.00     0.054 H 
ATOM     45  H   LIG d   1       3.661  -5.090  -4.890  0.00  0.00     0.054 H 
BRANCH  43  46
ATOM     46  C   LIG d   1       4.209  -5.529  -6.905  0.00  0.00    -0.028 A 
ATOM     47  C   LIG d   1       4.318  -6.732  -7.578  0.00  0.00    -0.056 A 
ATOM     48  C   LIG d   1       4.024  -6.799  -8.927  0.00  0.00    -0.043 A 
ATOM     49  H   LIG d   1       4.636  -7.619  -7.050  0.00  0.00     0.062 H 
ATOM     50  C   LIG d   1       3.618  -5.662  -9.604  0.00  0.00     0.041 A 
ATOM     51  H   LIG d   1       4.109  -7.739  -9.452  0.00  0.00     0.063 H 
ATOM     52  C   LIG d   1       3.508  -4.459  -8.930  0.00  0.00    -0.043 A 
ATOM     53 CL   LIG d   1       3.247  -5.745 -11.297  0.00  0.00    -0.084 Cl
ATOM     54  C   LIG d   1       3.799  -4.394  -7.580  0.00  0.00    -0.056 A 
ATOM     55  H   LIG d   1       3.192  -3.572  -9.457  0.00  0.00     0.063 H 
ATOM     56  H   LIG d   1       3.709  -3.456  -7.052  0.00  0.00     0.062 H 
ENDBRANCH  43  46
ENDBRANCH   9  43
TORSDOF 9
ENDMDL
MODEL 2
REMARK VINA RESULT:      -5.7      2.910      5.277
REMARK  9 active torsions:
REMARK  status: ('A' for Active; 'I' for Inactive)
REMARK    1  A    between atoms: C_1  and  O_2 
REMARK    2  A    between atoms: O_2  and  C_3 
REMARK    3  A    between atoms: C_6  and  C_9 
REMARK    4  A    between atoms: C_9  and  C_10 
REMARK       I    between atoms: C_10  and  N_12 
REMARK    5  A    between atoms: N_18  and  C_19 
REMARK    6  A    between atoms: C_19  and  C_20 
REMARK    7  A    between atoms: C_28  and  C_30 
REMARK    8  A    between atoms: C_30  and  O_32 
REMARK    9  A    between atoms: O_32  and  C_33 
ROOT
ATOM      1  C   LIG d   1       5.434  -2.048  -4.046  0.00  0.00     0.221 C 
ATOM      2  O   LIG d   1       4.917  -2.244  -2.967  0.00  0.00    -0.275 OA
ATOM      3  N   LIG d   1       5.096  -0.962  -4.768  0.00  0.00    -0.282 N 
ATOM      4  C   LIG d   1       5.806  -0.632  -6.018  0.00  0.00     0.058 C 
ATOM      5  C   LIG d   1       4.757  -0.247  -7.035  0.00  0.00     0.059 A 
ATOM      6  C   LIG d   1       3.460  -0.013  -6.738  0.00  0.00     0.066 A 
ATOM      7  N   LIG d   1       2.833   0.312  -7.872  0.00  0.00    -0.240 NA
ATOM      8  C   LIG d   1       3.689   0.286  -8.860  0.00  0.00     0.097 A 
ATOM      9  N   LIG d   1       4.903  -0.060  -8.375  0.00  0.00    -0.328 N 
ATOM     10  C   LIG d   1       2.873  -0.117  -5.353  0.00  0.00     0.020 C 
ATOM     11  C   LIG d   1       4.012  -0.071  -4.327  0.00  0.00     0.129 C 
ATOM     12  H   LIG d   1       4.389   0.949  -4.247  0.00  0.00     0.062 H 
ATOM     13  H   LIG d   1       6.487   0.202  -5.848  0.00  0.00     0.053 H 
ATOM     14  H   LIG d   1       6.363  -1.502  -6.367  0.00  0.00     0.053 H 
ATOM     15  H   LIG d   1       3.464   0.506  -9.894  0.00  0.00     0.103 H 
ATOM     16  H   LIG d   1       2.331  -1.057  -5.255  0.00  0.00     0.035 H 
ATOM     17  H   LIG d   1       2.193   0.717  -5.180  0.00  0.00     0.035 H 
ENDROOT
BRANCH   1  18
ATOM     18  C   LIG d   1       6.454  -3.020  -4.580  0.00  0.00     0.049 C 
ATOM     19  H   LIG d   1       7.162  -2.491  -5.218  0.00  0.00     0.041 H 
ATOM     20  H   LIG d   1       6.989  -3.480  -3.749  0.00  0.00     0.041 H 
BRANCH  18  21
ATOM     21  C   LIG d   1       5.757  -4.089  -5.382  0.00  0.00    -0.038 A 
ATOM     22  C   LIG d   1       4.555  -3.811  -6.006  0.00  0.00    -0.055 A 
ATOM     23  C   LIG d   1       3.915  -4.790  -6.741  0.00  0.00    -0.020 A 
ATOM     24  H   LIG d   1       4.116  -2.829  -5.916  0.00  0.00     0.062 H 
ATOM     25  C   LIG d   1       4.480  -6.052  -6.855  0.00  0.00     0.120 A 
ATOM     26  H   LIG d   1       2.976  -4.572  -7.227  0.00  0.00     0.065 H 
ATOM     27  C   LIG d   1       5.687  -6.327  -6.229  0.00  0.00    -0.020 A 
ATOM     28  C   LIG d   1       6.326  -5.344  -5.499  0.00  0.00    -0.055 A 
ATOM     29  H   LIG d   1       6.129  -7.309  -6.317  0.00  0.00     0.065 H 
ATOM     30  H   LIG d   1       7.268  -5.557  -5.016  0.00  0.00     0.062 H 
BRANCH  25  31
ATOM     31  O   LIG d   1       3.852  -7.016  -7.578  0.00  0.00    -0.495 OA
BRANCH  31  32
ATOM     32  C   LIG d   1       3.702  -6.782  -8.980  0.00  0.00     0.079 C 
ATOM     33  H   LIG d   1       4.605  -7.100  -9.500  0.00  0.00     0.066 H 
ATOM     34  H   LIG d   1       2.849  -7.348  -9.354  0.00  0.00     0.066 H 
ATOM     35  H   LIG d   1       3.538  -5.719  -9.154  0.00  0.00     0.066 H 
ENDBRANCH  31  32
ENDBRANCH  25  31
ENDBRANCH  18  21
ENDBRANCH   1  18
BRANCH  11  36
ATOM     36  C   LIG d   1       3.500  -0.527  -2.985  0.00  0.00     0.328 C 
ATOM     37  O   LIG d   1       2.546  -1.265  -2.922  0.00  0.00    -0.249 OA
BRANCH  36  38
ATOM     38  O   LIG d   1       4.105  -0.112  -1.860  0.00  0.00    -0.467 OA
BRANCH  38  39
ATOM     39  C   LIG d   1       4.734   1.196  -1.894  0.00  0.00     0.082 C 
ATOM     40  H   LIG d   1       5.567   1.179  -2.595  0.00  0.00     0.066 H 
ATOM     41  H   LIG d   1       4.005   1.942  -2.213  0.00  0.00     0.066 H 
ATOM     42  H   LIG d   1       5.100   1.449  -0.899  0.00  0.00     0.066 H 
ENDBRANCH  38  39
ENDBRANCH  36  38
ENDBRANCH  11  36
BRANCH   9  43
ATOM     43  C   LIG d   1       6.140  -0.208  -9.146  0.00  0.00     0.050 C 
ATOM     44  H   LIG d   1       5.963   0.095 -10.178  0.00  0.00     0.054 H 
ATOM     45  H   LIG d   1       6.917   0.422  -8.710  0.00  0.00     0.054 H 
BRANCH  43  46
ATOM     46  C   LIG d   1       6.584  -1.647  -9.114  0.00  0.00    -0.028 A 
ATOM     47  C   LIG d   1       5.762  -2.636  -9.623  0.00  0.00    -0.056 A 
ATOM     48  C   LIG d   1       6.168  -3.956  -9.593  0.00  0.00    -0.043 A 
ATOM     49  H   LIG d   1       4.801  -2.375 -10.042  0.00  0.00     0.062 H 
ATOM     50  C   LIG d   1       7.399  -4.290  -9.055  0.00  0.00     0.041 A 
ATOM     51  H   LIG d   1       5.525  -4.727  -9.990  0.00  0.00     0.063 H 
ATOM     52  C   LIG d   1       8.222  -3.300  -8.547  0.00  0.00    -0.043 A 
ATOM     53 CL   LIG d   1       7.910  -5.948  -9.018  0.00  0.00    -0.084 Cl
ATOM     54  C   LIG d   1       7.816  -1.979  -8.581  0.00  0.00    -0.056 A 
ATOM     55  H   LIG d   1       9.182  -3.559  -8.127  0.00  0.00     0.063 H 
ATOM     56  H   LIG d   1       8.460  -1.206  -8.189  0.00  0.00     0.062 H 
ENDBRANCH  43  46
ENDBRANCH   9  43
TORSDOF 9
ENDMDL
MODEL 3
REMARK VINA RESULT:      -5.7      2.665      3.956
REMARK  9 active torsions:
REMARK  status: ('A' for Active; 'I' for Inactive)
REMARK    1  A    between atoms: C_1  and  O_2 
REMARK    2  A    between atoms: O_2  and  C_3 
REMARK    3  A    between atoms: C_6  and  C_9 
REMARK    4  A    between atoms: C_9  and  C_10 
REMARK       I    between atoms: C_10  and  N_12 
REMARK    5  A    between atoms: N_18  and  C_19 
REMARK    6  A    between atoms: C_19  and  C_20 
REMARK    7  A    between atoms: C_28  and  C_30 
REMARK    8  A    between atoms: C_30  and  O_32 
REMARK    9  A    between atoms: O_32  and  C_33 
ROOT
ATOM      1  C   LIG d   1       4.097  -0.606  -6.563  0.00  0.00     0.221 C 
ATOM      2  O   LIG d   1       3.386   0.333  -6.275  0.00  0.00    -0.275 OA
ATOM      3  N   LIG d   1       4.472  -1.484  -5.612  0.00  0.00    -0.282 N 
ATOM      4  C   LIG d   1       5.222  -2.705  -5.962  0.00  0.00     0.058 C 
ATOM      5  C   LIG d   1       6.332  -2.849  -4.946  0.00  0.00     0.059 A 
ATOM      6  C   LIG d   1       6.418  -2.125  -3.809  0.00  0.00     0.066 A 
ATOM      7  N   LIG d   1       7.511  -2.525  -3.152  0.00  0.00    -0.240 NA
ATOM      8  C   LIG d   1       8.106  -3.465  -3.838  0.00  0.00     0.097 A 
ATOM      9  N   LIG d   1       7.396  -3.695  -4.968  0.00  0.00    -0.328 N 
ATOM     10  C   LIG d   1       5.430  -1.062  -3.399  0.00  0.00     0.020 C 
ATOM     11  C   LIG d   1       4.136  -1.254  -4.199  0.00  0.00     0.129 C 
ATOM     12  H   LIG d   1       3.591  -2.114  -3.809  0.00  0.00     0.062 H 
ATOM     13  H   LIG d   1       4.561  -3.571  -5.920  0.00  0.00     0.053 H 
ATOM     14  H   LIG d   1       5.644  -2.606  -6.963  0.00  0.00     0.053 H 
ATOM     15  H   LIG d   1       9.014  -3.976  -3.551  0.00  0.00     0.103 H 
ATOM     16  H   LIG d   1       5.846  -0.077  -3.607  0.00  0.00     0.035 H 
ATOM     17  H   LIG d   1       5.217  -1.150  -2.334  0.00  0.00     0.035 H 
ENDROOT
BRANCH   1  18
ATOM     18  C   LIG d   1       4.563  -0.790  -7.984  0.00  0.00     0.049 C 
ATOM     19  H   LIG d   1       4.813   0.180  -8.413  0.00  0.00     0.041 H 
ATOM     20  H   LIG d   1       5.445  -1.431  -7.997  0.00  0.00     0.041 H 
BRANCH  18  21
ATOM     21  C   LIG d   1       3.465  -1.430  -8.794  0.00  0.00    -0.038 A 
ATOM     22  C   LIG d   1       2.434  -0.656  -9.292  0.00  0.00    -0.055 A 
ATOM     23  C   LIG d   1       1.426  -1.241 -10.035  0.00  0.00    -0.020 A 
ATOM     24  H   LIG d   1       2.415   0.407  -9.100  0.00  0.00     0.062 H 
ATOM     25  C   LIG d   1       1.451  -2.606 -10.282  0.00  0.00     0.120 A 
ATOM     26  H   LIG d   1       0.620  -0.636 -10.423  0.00  0.00     0.065 H 
ATOM     27  C   LIG d   1       2.487  -3.380  -9.781  0.00  0.00    -0.020 A 
ATOM     28  C   LIG d   1       3.495  -2.790  -9.044  0.00  0.00    -0.055 A 
ATOM     29  H   LIG d   1       2.508  -4.443  -9.972  0.00  0.00     0.065 H 
ATOM     30  H   LIG d   1       4.305  -3.392  -8.658  0.00  0.00     0.062 H 
BRANCH  25  31
ATOM     31  O   LIG d   1       0.461  -3.184 -11.012  0.00  0.00    -0.495 OA
BRANCH  31  32
ATOM     32  C   LIG d   1      -0.031  -4.446 -10.556  0.00  0.00     0.079 C 
ATOM     33  H   LIG d   1      -0.582  -4.932 -11.359  0.00  0.00     0.066 H 
ATOM     34  H   LIG d   1       0.807  -5.076 -10.257  0.00  0.00     0.066 H 
ATOM     35  H   LIG d   1      -0.692  -4.290  -9.703  0.00  0.00     0.066 H 
ENDBRANCH  31  32
ENDBRANCH  25  31
ENDBRANCH  18  21
ENDBRANCH   1  18
BRANCH  11  36
ATOM     36  C   LIG d   1       3.282  -0.018  -4.079  0.00  0.00     0.328 C 
ATOM     37  O   LIG d   1       2.085  -0.096  -4.215  0.00  0.00    -0.249 OA
BRANCH  36  38
ATOM     38  O   LIG d   1       3.853   1.169  -3.819  0.00  0.00    -0.467 OA
BRANCH  38  39
ATOM     39  C   LIG d   1       3.657   1.718  -2.489  0.00  0.00     0.082 C 
ATOM     40  H   LIG d   1       2.607   1.627  -2.211  0.00  0.00     0.066 H 
ATOM     41  H   LIG d   1       4.271   1.169  -1.774  0.00  0.00     0.066 H 
ATOM     42  H   LIG d   1       3.946   2.769  -2.483  0.00  0.00     0.066 H 
ENDBRANCH  38  39
ENDBRANCH  36  38
ENDBRANCH  11  36
BRANCH   9  43
ATOM     43  C   LIG d   1       7.716  -4.668  -6.016  0.00  0.00     0.050 C 
ATOM     44  H   LIG d   1       7.237  -4.367  -6.948  0.00  0.00     0.054 H 
ATOM     45  H   LIG d   1       8.796  -4.706  -6.158  0.00  0.00     0.054 H 
BRANCH  43  46
ATOM     46  C   LIG d   1       7.215  -6.028  -5.608  0.00  0.00    -0.028 A 
ATOM     47  C   LIG d   1       5.902  -6.384  -5.854  0.00  0.00    -0.056 A 
ATOM     48  C   LIG d   1       5.441  -7.632  -5.480  0.00  0.00    -0.043 A 
ATOM     49  H   LIG d   1       5.235  -5.685  -6.338  0.00  0.00     0.062 H 
ATOM     50  C   LIG d   1       6.295  -8.527  -4.860  0.00  0.00     0.041 A 
ATOM     51  H   LIG d   1       4.415  -7.908  -5.673  0.00  0.00     0.063 H 
ATOM     52  C   LIG d   1       7.609  -8.171  -4.614  0.00  0.00    -0.043 A 
ATOM     53 CL   LIG d   1       5.717 -10.094  -4.390  0.00  0.00    -0.084 Cl
ATOM     54  C   LIG d   1       8.070  -6.924  -4.993  0.00  0.00    -0.056 A 
ATOM     55  H   LIG d   1       8.276  -8.869  -4.130  0.00  0.00     0.063 H 
ATOM     56  H   LIG d   1       9.097  -6.648  -4.806  0.00  0.00     0.062 H 
ENDBRANCH  43  46
ENDBRANCH   9  43
TORSDOF 9
ENDMDL
MODEL 4
REMARK VINA RESULT:      -5.6      3.481      6.450
REMARK  9 active torsions:
REMARK  status: ('A' for Active; 'I' for Inactive)
REMARK    1  A    between atoms: C_1  and  O_2 
REMARK    2  A    between atoms: O_2  and  C_3 
REMARK    3  A    between atoms: C_6  and  C_9 
REMARK    4  A    between atoms: C_9  and  C_10 
REMARK       I    between atoms: C_10  and  N_12 
REMARK    5  A    between atoms: N_18  and  C_19 
REMARK    6  A    between atoms: C_19  and  C_20 
REMARK    7  A    between atoms: C_28  and  C_30 
REMARK    8  A    between atoms: C_30  and  O_32 
REMARK    9  A    between atoms: O_32  and  C_33 
ROOT
ATOM      1  C   LIG d   1       5.514  -0.781  -9.162  0.00  0.00     0.221 C 
ATOM      2  O   LIG d   1       5.564  -0.281 -10.265  0.00  0.00    -0.275 OA
ATOM      3  N   LIG d   1       4.381  -0.704  -8.437  0.00  0.00    -0.282 N 
ATOM      4  C   LIG d   1       4.253  -1.418  -7.154  0.00  0.00     0.058 C 
ATOM      5  C   LIG d   1       3.612  -0.460  -6.176  0.00  0.00     0.059 A 
ATOM      6  C   LIG d   1       3.046   0.716  -6.525  0.00  0.00     0.066 A 
ATOM      7  N   LIG d   1       2.574   1.288  -5.414  0.00  0.00    -0.240 NA
ATOM      8  C   LIG d   1       2.826   0.515  -4.391  0.00  0.00     0.097 A 
ATOM      9  N   LIG d   1       3.475  -0.589  -4.829  0.00  0.00    -0.328 N 
ATOM     10  C   LIG d   1       2.987   1.246  -7.936  0.00  0.00     0.020 C 
ATOM     11  C   LIG d   1       3.236   0.089  -8.911  0.00  0.00     0.129 C 
ATOM     12  H   LIG d   1       2.349  -0.544  -8.958  0.00  0.00     0.062 H 
ATOM     13  H   LIG d   1       3.624  -2.300  -7.281  0.00  0.00     0.053 H 
ATOM     14  H   LIG d   1       5.239  -1.713  -6.794  0.00  0.00     0.053 H 
ATOM     15  H   LIG d   1       2.559   0.722  -3.364  0.00  0.00     0.103 H 
ATOM     16  H   LIG d   1       3.753   2.009  -8.072  0.00  0.00     0.035 H 
ATOM     17  H   LIG d   1       2.004   1.677  -8.124  0.00  0.00     0.035 H 
ENDROOT
BRANCH   1  18
ATOM     18  C   LIG d   1       6.721  -1.487  -8.600  0.00  0.00     0.049 C 
ATOM     19  H   LIG d   1       6.402  -2.210  -7.849  0.00  0.00     0.041 H 
ATOM     20  H   LIG d   1       7.246  -2.005  -9.402  0.00  0.00     0.041 H 
BRANCH  18  21
ATOM     21  C   LIG d   1       7.643  -0.478  -7.966  0.00  0.00    -0.038 A 
ATOM     22  C   LIG d   1       7.130   0.695  -7.444  0.00  0.00    -0.055 A 
ATOM     23  C   LIG d   1       7.975   1.621  -6.863  0.00  0.00    -0.020 A 
ATOM     24  H   LIG d   1       6.068   0.887  -7.491  0.00  0.00     0.062 H 
ATOM     25  C   LIG d   1       9.338   1.373  -6.801  0.00  0.00     0.120 A 
ATOM     26  H   LIG d   1       7.573   2.537  -6.455  0.00  0.00     0.065 H 
ATOM     27  C   LIG d   1       9.850   0.195  -7.326  0.00  0.00    -0.020 A 
ATOM     28  C   LIG d   1       9.002  -0.730  -7.901  0.00  0.00    -0.055 A 
ATOM     29  H   LIG d   1      10.912   0.000  -7.280  0.00  0.00     0.065 H 
ATOM     30  H   LIG d   1       9.400  -1.650  -8.305  0.00  0.00     0.062 H 
BRANCH  25  31
ATOM     31  O   LIG d   1      10.171   2.283  -6.230  0.00  0.00    -0.495 OA
BRANCH  31  32
ATOM     32  C   LIG d   1       9.567   3.440  -5.649  0.00  0.00     0.079 C 
ATOM     33  H   LIG d   1       8.910   3.136  -4.835  0.00  0.00     0.066 H 
ATOM     34  H   LIG d   1      10.343   4.100  -5.262  0.00  0.00     0.066 H 
ATOM     35  H   LIG d   1       8.987   3.966  -6.407  0.00  0.00     0.066 H 
ENDBRANCH  31  32
ENDBRANCH  25  31
ENDBRANCH  18  21
ENDBRANCH   1  18
BRANCH  11  36
ATOM     36  C   LIG d   1       3.537   0.640 -10.280  0.00  0.00     0.328 C 
ATOM     37  O   LIG d   1       4.046   1.729 -10.395  0.00  0.00    -0.249 OA
BRANCH  36  38
ATOM     38  O   LIG d   1       3.239  -0.080 -11.374  0.00  0.00    -0.467 OA
BRANCH  38  39
ATOM     39  C   LIG d   1       2.041  -0.900 -11.316  0.00  0.00     0.082 C 
ATOM     40  H   LIG d   1       1.853  -1.195 -10.285  0.00  0.00     0.066 H 
ATOM     41  H   LIG d   1       1.192  -0.329 -11.692  0.00  0.00     0.066 H 
ATOM     42  H   LIG d   1       2.180  -1.790 -11.930  0.00  0.00     0.066 H 
ENDBRANCH  38  39
ENDBRANCH  36  38
ENDBRANCH  11  36
BRANCH   9  43
ATOM     43  C   LIG d   1       3.944  -1.708  -4.008  0.00  0.00     0.050 C 
ATOM     44  H   LIG d   1       3.736  -1.500  -2.958  0.00  0.00     0.054 H 
ATOM     45  H   LIG d   1       3.425  -2.620  -4.307  0.00  0.00     0.054 H 
BRANCH  43  46
ATOM     46  C   LIG d   1       5.427  -1.887  -4.201  0.00  0.00    -0.028 A 
ATOM     47  C   LIG d   1       5.932  -3.120  -4.571  0.00  0.00    -0.056 A 
ATOM     48  C   LIG d   1       7.293  -3.285  -4.748  0.00  0.00    -0.043 A 
ATOM     49  H   LIG d   1       5.263  -3.954  -4.720  0.00  0.00     0.062 H 
ATOM     50  C   LIG d   1       8.150  -2.215  -4.556  0.00  0.00     0.041 A 
ATOM     51  H   LIG d   1       7.686  -4.247  -5.037  0.00  0.00     0.063 H 
ATOM     52  C   LIG d   1       7.644  -0.982  -4.187  0.00  0.00    -0.043 A 
ATOM     53 CL   LIG d   1       9.859  -2.422  -4.778  0.00  0.00    -0.084 Cl
ATOM     54  C   LIG d   1       6.282  -0.817  -4.014  0.00  0.00    -0.056 A 
ATOM     55  H   LIG d   1       8.312  -0.147  -4.036  0.00  0.00     0.063 H 
ATOM     56  H   LIG d   1       5.887   0.147  -3.730  0.00  0.00     0.062 H 
ENDBRANCH  43  46
ENDBRANCH   9  43
TORSDOF 9
ENDMDL
MODEL 5
REMARK VINA RESULT:      -5.6      2.748      3.601
REMARK  9 active torsions:
REMARK  status: ('A' for Active; 'I' for Inactive)
REMARK    1  A    between atoms: C_1  and  O_2 
REMARK    2  A    between atoms: O_2  and  C_3 
REMARK    3  A    between atoms: C_6  and  C_9 
REMARK    4  A    between atoms: C_9  and  C_10 
REMARK       I    between atoms: C_10  and  N_12 
REMARK    5  A    between atoms: N_18  and  C_19 
REMARK    6  A    between atoms: C_19  and  C_20 
REMARK    7  A    between atoms: C_28  and  C_30 
REMARK    8  A    between atoms: C_30  and  O_32 
REMARK    9  A    between atoms: O_32  and  C_33 
ROOT
ATOM      1  C   LIG d   1       3.956  -0.776  -5.976  0.00  0.00     0.221 C 
ATOM      2  O   LIG d   1       3.354   0.181  -5.540  0.00  0.00    -0.275 OA
ATOM      3  N   LIG d   1       4.474  -1.689  -5.131  0.00  0.00    -0.282 N 
ATOM      4  C   LIG d   1       5.092  -2.928  -5.640  0.00  0.00     0.058 C 
ATOM      5  C   LIG d   1       6.372  -3.135  -4.863  0.00  0.00     0.059 A 
ATOM      6  C   LIG d   1       6.708  -2.441  -3.754  0.00  0.00     0.066 A 
ATOM      7  N   LIG d   1       7.891  -2.895  -3.331  0.00  0.00    -0.240 NA
ATOM      8  C   LIG d   1       8.302  -3.840  -4.134  0.00  0.00     0.097 A 
ATOM      9  N   LIG d   1       7.377  -4.018  -5.106  0.00  0.00    -0.328 N 
ATOM     10  C   LIG d   1       5.862  -1.352  -3.142  0.00  0.00     0.020 C 
ATOM     11  C   LIG d   1       4.430  -1.479  -3.676  0.00  0.00     0.129 C 
ATOM     12  H   LIG d   1       3.938  -2.328  -3.200  0.00  0.00     0.062 H 
ATOM     13  H   LIG d   1       4.418  -3.770  -5.483  0.00  0.00     0.053 H 
ATOM     14  H   LIG d   1       5.314  -2.821  -6.702  0.00  0.00     0.053 H 
ATOM     15  H   LIG d   1       9.228  -4.390  -4.038  0.00  0.00     0.103 H 
ATOM     16  H   LIG d   1       6.268  -0.379  -3.413  0.00  0.00     0.035 H 
ATOM     17  H   LIG d   1       5.858  -1.457  -2.057  0.00  0.00     0.035 H 
ENDROOT
BRANCH   1  18
ATOM     18  C   LIG d   1       4.128  -0.945  -7.464  0.00  0.00     0.049 C 
ATOM     19  H   LIG d   1       4.540  -1.932  -7.673  0.00  0.00     0.041 H 
ATOM     20  H   LIG d   1       3.160  -0.844  -7.955  0.00  0.00     0.041 H 
BRANCH  18  21
ATOM     21  C   LIG d   1       5.068   0.112  -7.984  0.00  0.00    -0.038 A 
ATOM     22  C   LIG d   1       6.423   0.016  -7.730  0.00  0.00    -0.055 A 
ATOM     23  C   LIG d   1       7.286   0.985  -8.206  0.00  0.00    -0.020 A 
ATOM     24  H   LIG d   1       6.807  -0.816  -7.159  0.00  0.00     0.062 H 
ATOM     25  C   LIG d   1       6.792   2.053  -8.940  0.00  0.00     0.120 A 
ATOM     26  H   LIG d   1       8.345   0.909  -8.008  0.00  0.00     0.065 H 
ATOM     27  C   LIG d   1       5.431   2.147  -9.193  0.00  0.00    -0.020 A 
ATOM     28  C   LIG d   1       4.573   1.174  -8.720  0.00  0.00    -0.055 A 
ATOM     29  H   LIG d   1       5.044   2.978  -9.763  0.00  0.00     0.065 H 
ATOM     30  H   LIG d   1       3.514   1.244  -8.921  0.00  0.00     0.062 H 
BRANCH  25  31
ATOM     31  O   LIG d   1       7.639   3.007  -9.409  0.00  0.00    -0.495 OA
BRANCH  31  32
ATOM     32  C   LIG d   1       8.822   3.256  -8.647  0.00  0.00     0.079 C 
ATOM     33  H   LIG d   1       8.911   2.507  -7.860  0.00  0.00     0.066 H 
ATOM     34  H   LIG d   1       9.693   3.201  -9.300  0.00  0.00     0.066 H 
ATOM     35  H   LIG d   1       8.764   4.248  -8.200  0.00  0.00     0.066 H 
ENDBRANCH  31  32
ENDBRANCH  25  31
ENDBRANCH  18  21
ENDBRANCH   1  18
BRANCH  11  36
ATOM     36  C   LIG d   1       3.666  -0.216  -3.372  0.00  0.00     0.328 C 
ATOM     37  O   LIG d   1       2.469  -0.257  -3.216  0.00  0.00    -0.249 OA
BRANCH  36  38
ATOM     38  O   LIG d   1       4.317   0.954  -3.274  0.00  0.00    -0.467 OA
BRANCH  38  39
ATOM     39  C   LIG d   1       4.377   1.567  -1.958  0.00  0.00     0.082 C 
ATOM     40  H   LIG d   1       3.723   1.024  -1.276  0.00  0.00     0.066 H 
ATOM     41  H   LIG d   1       5.400   1.531  -1.586  0.00  0.00     0.066 H 
ATOM     42  H   LIG d   1       4.051   2.605  -2.026  0.00  0.00     0.066 H 
ENDBRANCH  38  39
ENDBRANCH  36  38
ENDBRANCH  11  36
BRANCH   9  43
ATOM     43  C   LIG d   1       7.447  -4.978  -6.211  0.00  0.00     0.050 C 
ATOM     44  H   LIG d   1       6.866  -4.603  -7.054  0.00  0.00     0.054 H 
ATOM     45  H   LIG d   1       8.486  -5.106  -6.515  0.00  0.00     0.054 H 
BRANCH  43  46
ATOM     46  C   LIG d   1       6.888  -6.302  -5.763  0.00  0.00    -0.028 A 
ATOM     47  C   LIG d   1       5.538  -6.566  -5.903  0.00  0.00    -0.056 A 
ATOM     48  C   LIG d   1       5.023  -7.781  -5.492  0.00  0.00    -0.043 A 
ATOM     49  H   LIG d   1       4.884  -5.821  -6.334  0.00  0.00     0.062 H 
ATOM     50  C   LIG d   1       5.861  -8.735  -4.940  0.00  0.00     0.041 A 
ATOM     51  H   LIG d   1       3.969  -7.986  -5.601  0.00  0.00     0.063 H 
ATOM     52  C   LIG d   1       7.212  -8.471  -4.800  0.00  0.00    -0.043 A 
ATOM     53 CL   LIG d   1       5.216 -10.261  -4.422  0.00  0.00    -0.084 Cl
ATOM     54  C   LIG d   1       7.725  -7.257  -5.216  0.00  0.00    -0.056 A 
ATOM     55  H   LIG d   1       7.865  -9.214  -4.369  0.00  0.00     0.063 H 
ATOM     56  H   LIG d   1       8.780  -7.053  -5.112  0.00  0.00     0.062 H 
ENDBRANCH  43  46
ENDBRANCH   9  43
TORSDOF 9
ENDMDL
MODEL 6
REMARK VINA RESULT:      -5.6      2.864      6.180
REMARK  9 active torsions:
REMARK  status: ('A' for Active; 'I' for Inactive)
REMARK    1  A    between atoms: C_1  and  O_2 
REMARK    2  A    between atoms: O_2  and  C_3 
REMARK    3  A    between atoms: C_6  and  C_9 
REMARK    4  A    between atoms: C_9  and  C_10 
REMARK       I    between atoms: C_10  and  N_12 
REMARK    5  A    between atoms: N_18  and  C_19 
REMARK    6  A    between atoms: C_19  and  C_20 
REMARK    7  A    between atoms: C_28  and  C_30 
REMARK    8  A    between atoms: C_30  and  O_32 
REMARK    9  A    between atoms: O_32  and  C_33 
ROOT
ATOM      1  C   LIG d   1       4.520  -2.462  -4.673  0.00  0.00     0.221 C 
ATOM      2  O   LIG d   1       4.072  -2.666  -3.566  0.00  0.00    -0.275 OA
ATOM      3  N   LIG d   1       4.541  -1.211  -5.173  0.00  0.00    -0.282 N 
ATOM      4  C   LIG d   1       5.202  -0.920  -6.458  0.00  0.00     0.058 C 
ATOM      5  C   LIG d   1       4.278  -0.008  -7.235  0.00  0.00     0.059 A 
ATOM      6  C   LIG d   1       3.195   0.602  -6.707  0.00  0.00     0.066 A 
ATOM      7  N   LIG d   1       2.629   1.333  -7.671  0.00  0.00    -0.240 NA
ATOM      8  C   LIG d   1       3.316   1.198  -8.775  0.00  0.00     0.097 A 
ATOM      9  N   LIG d   1       4.356   0.365  -8.540  0.00  0.00    -0.328 N 
ATOM     10  C   LIG d   1       2.745   0.450  -5.276  0.00  0.00     0.020 C 
ATOM     11  C   LIG d   1       3.911  -0.098  -4.446  0.00  0.00     0.129 C 
ATOM     12  H   LIG d   1       4.645   0.692  -4.282  0.00  0.00     0.062 H 
ATOM     13  H   LIG d   1       6.156  -0.423  -6.281  0.00  0.00     0.053 H 
ATOM     14  H   LIG d   1       5.361  -1.846  -7.011  0.00  0.00     0.053 H 
ATOM     15  H   LIG d   1       3.092   1.674  -9.719  0.00  0.00     0.103 H 
ATOM     16  H   LIG d   1       1.905  -0.242  -5.229  0.00  0.00     0.035 H 
ATOM     17  H   LIG d   1       2.441   1.420  -4.882  0.00  0.00     0.035 H 
ENDROOT
BRANCH   1  18
ATOM     18  C   LIG d   1       5.052  -3.609  -5.493  0.00  0.00     0.049 C 
ATOM     19  H   LIG d   1       4.388  -4.468  -5.391  0.00  0.00     0.041 H 
ATOM     20  H   LIG d   1       5.104  -3.314  -6.541  0.00  0.00     0.041 H 
BRANCH  18  21
ATOM     21  C   LIG d   1       6.429  -3.979  -5.005  0.00  0.00    -0.038 A 
ATOM     22  C   LIG d   1       6.977  -5.201  -5.347  0.00  0.00    -0.055 A 
ATOM     23  C   LIG d   1       8.239  -5.542  -4.900  0.00  0.00    -0.020 A 
ATOM     24  H   LIG d   1       6.418  -5.890  -5.962  0.00  0.00     0.062 H 
ATOM     25  C   LIG d   1       8.958  -4.656  -4.110  0.00  0.00     0.120 A 
ATOM     26  H   LIG d   1       8.667  -6.497  -5.167  0.00  0.00     0.065 H 
ATOM     27  C   LIG d   1       8.405  -3.430  -3.770  0.00  0.00    -0.020 A 
ATOM     28  C   LIG d   1       7.145  -3.091  -4.223  0.00  0.00    -0.055 A 
ATOM     29  H   LIG d   1       8.963  -2.739  -3.155  0.00  0.00     0.065 H 
ATOM     30  H   LIG d   1       6.717  -2.135  -3.962  0.00  0.00     0.062 H 
BRANCH  25  31
ATOM     31  O   LIG d   1      10.200  -4.989  -3.670  0.00  0.00    -0.495 OA
BRANCH  31  32
ATOM     32  C   LIG d   1      11.089  -3.914  -3.363  0.00  0.00     0.079 C 
ATOM     33  H   LIG d   1      12.093  -4.308  -3.207  0.00  0.00     0.066 H 
ATOM     34  H   LIG d   1      11.102  -3.205  -4.190  0.00  0.00     0.066 H 
ATOM     35  H   LIG d   1      10.751  -3.411  -2.457  0.00  0.00     0.066 H 
ENDBRANCH  31  32
ENDBRANCH  25  31
ENDBRANCH  18  21
ENDBRANCH   1  18
BRANCH  11  36
ATOM     36  C   LIG d   1       3.396  -0.592  -3.118  0.00  0.00     0.328 C 
ATOM     37  O   LIG d   1       2.272  -1.024  -3.030  0.00  0.00    -0.249 OA
BRANCH  36  38
ATOM     38  O   LIG d   1       4.187  -0.550  -2.034  0.00  0.00    -0.467 OA
BRANCH  38  39
ATOM     39  C   LIG d   1       4.681   0.754  -1.628  0.00  0.00     0.082 C 
ATOM     40  H   LIG d   1       4.367   1.502  -2.355  0.00  0.00     0.066 H 
ATOM     41  H   LIG d   1       4.278   1.007  -0.648  0.00  0.00     0.066 H 
ATOM     42  H   LIG d   1       5.770   0.730  -1.578  0.00  0.00     0.066 H 
ENDBRANCH  38  39
ENDBRANCH  36  38
ENDBRANCH  11  36
BRANCH   9  43
ATOM     43  C   LIG d   1       5.372  -0.056  -9.508  0.00  0.00     0.050 C 
ATOM     44  H   LIG d   1       5.928   0.816  -9.853  0.00  0.00     0.054 H 
ATOM     45  H   LIG d   1       6.057  -0.760  -9.033  0.00  0.00     0.054 H 
BRANCH  43  46
ATOM     46  C   LIG d   1       4.702  -0.722 -10.682  0.00  0.00    -0.028 A 
ATOM     47  C   LIG d   1       4.613  -0.061 -11.893  0.00  0.00    -0.056 A 
ATOM     48  C   LIG d   1       3.998  -0.671 -12.970  0.00  0.00    -0.043 A 
ATOM     49  H   LIG d   1       5.022   0.933 -11.997  0.00  0.00     0.062 H 
ATOM     50  C   LIG d   1       3.473  -1.945 -12.837  0.00  0.00     0.041 A 
ATOM     51  H   LIG d   1       3.928  -0.154 -13.915  0.00  0.00     0.063 H 
ATOM     52  C   LIG d   1       3.563  -2.606 -11.625  0.00  0.00    -0.043 A 
ATOM     53 CL   LIG d   1       2.701  -2.711 -14.189  0.00  0.00    -0.084 Cl
ATOM     54  C   LIG d   1       4.183  -1.996 -10.550  0.00  0.00    -0.056 A 
ATOM     55  H   LIG d   1       3.154  -3.599 -11.520  0.00  0.00     0.063 H 
ATOM     56  H   LIG d   1       4.257  -2.514  -9.605  0.00  0.00     0.062 H 
ENDBRANCH  43  46
ENDBRANCH   9  43
TORSDOF 9
ENDMDL
MODEL 7
REMARK VINA RESULT:      -5.5      3.183      6.346
REMARK  9 active torsions:
REMARK  status: ('A' for Active; 'I' for Inactive)
REMARK    1  A    between atoms: C_1  and  O_2 
REMARK    2  A    between atoms: O_2  and  C_3 
REMARK    3  A    between atoms: C_6  and  C_9 
REMARK    4  A    between atoms: C_9  and  C_10 
REMARK       I    between atoms: C_10  and  N_12 
REMARK    5  A    between atoms: N_18  and  C_19 
REMARK    6  A    between atoms: C_19  and  C_20 
REMARK    7  A    between atoms: C_28  and  C_30 
REMARK    8  A    between atoms: C_30  and  O_32 
REMARK    9  A    between atoms: O_32  and  C_33 
ROOT
ATOM      1  C   LIG d   1       4.499  -3.406  -5.268  0.00  0.00     0.221 C 
ATOM      2  O   LIG d   1       4.471  -3.598  -4.071  0.00  0.00    -0.275 OA
ATOM      3  N   LIG d   1       4.675  -2.159  -5.746  0.00  0.00    -0.282 N 
ATOM      4  C   LIG d   1       4.847  -1.919  -7.191  0.00  0.00     0.058 C 
ATOM      5  C   LIG d   1       3.991  -0.725  -7.547  0.00  0.00     0.059 A 
ATOM      6  C   LIG d   1       3.408   0.089  -6.639  0.00  0.00     0.066 A 
ATOM      7  N   LIG d   1       2.744   1.036  -7.307  0.00  0.00    -0.240 NA
ATOM      8  C   LIG d   1       2.890   0.841  -8.591  0.00  0.00     0.097 A 
ATOM      9  N   LIG d   1       3.664  -0.253  -8.780  0.00  0.00    -0.328 N 
ATOM     10  C   LIG d   1       3.517  -0.087  -5.145  0.00  0.00     0.020 C 
ATOM     11  C   LIG d   1       4.709  -1.001  -4.839  0.00  0.00     0.129 C 
ATOM     12  H   LIG d   1       5.638  -0.450  -4.986  0.00  0.00     0.062 H 
ATOM     13  H   LIG d   1       5.894  -1.708  -7.410  0.00  0.00     0.053 H 
ATOM     14  H   LIG d   1       4.517  -2.794  -7.753  0.00  0.00     0.053 H 
ATOM     15  H   LIG d   1       2.465   1.452  -9.374  0.00  0.00     0.103 H 
ATOM     16  H   LIG d   1       2.602  -0.538  -4.763  0.00  0.00     0.035 H 
ATOM     17  H   LIG d   1       3.670   0.883  -4.672  0.00  0.00     0.035 H 
ENDROOT
BRANCH   1  18
ATOM     18  C   LIG d   1       4.334  -4.562  -6.220  0.00  0.00     0.049 C 
ATOM     19  H   LIG d   1       3.312  -4.937  -6.163  0.00  0.00     0.041 H 
ATOM     20  H   LIG d   1       4.541  -4.228  -7.237  0.00  0.00     0.041 H 
BRANCH  18  21
ATOM     21  C   LIG d   1       5.294  -5.661  -5.847  0.00  0.00    -0.038 A 
ATOM     22  C   LIG d   1       6.652  -5.405  -5.795  0.00  0.00    -0.055 A 
ATOM     23  C   LIG d   1       7.534  -6.412  -5.454  0.00  0.00    -0.020 A 
ATOM     24  H   LIG d   1       7.022  -4.416  -6.022  0.00  0.00     0.062 H 
ATOM     25  C   LIG d   1       7.057  -7.681  -5.162  0.00  0.00     0.120 A 
ATOM     26  H   LIG d   1       8.594  -6.210  -5.413  0.00  0.00     0.065 H 
ATOM     27  C   LIG d   1       5.694  -7.936  -5.214  0.00  0.00    -0.020 A 
ATOM     28  C   LIG d   1       4.815  -6.925  -5.551  0.00  0.00    -0.055 A 
ATOM     29  H   LIG d   1       5.320  -8.924  -4.988  0.00  0.00     0.065 H 
ATOM     30  H   LIG d   1       3.754  -7.121  -5.587  0.00  0.00     0.062 H 
BRANCH  25  31
ATOM     31  O   LIG d   1       7.922  -8.673  -4.826  0.00  0.00    -0.495 OA
BRANCH  31  32
ATOM     32  C   LIG d   1       8.597  -8.549  -3.573  0.00  0.00     0.079 C 
ATOM     33  H   LIG d   1       7.885  -8.693  -2.761  0.00  0.00     0.066 H 
ATOM     34  H   LIG d   1       9.382  -9.302  -3.505  0.00  0.00     0.066 H 
ATOM     35  H   LIG d   1       9.039  -7.555  -3.496  0.00  0.00     0.066 H 
ENDBRANCH  31  32
ENDBRANCH  25  31
ENDBRANCH  18  21
ENDBRANCH   1  18
BRANCH  11  36
ATOM     36  C   LIG d   1       4.625  -1.477  -3.412  0.00  0.00     0.328 C 
ATOM     37  O   LIG d   1       3.548  -1.621  -2.885  0.00  0.00    -0.249 OA
BRANCH  36  38
ATOM     38  O   LIG d   1       5.749  -1.741  -2.725  0.00  0.00    -0.467 OA
BRANCH  38  39
ATOM     39  C   LIG d   1       6.992  -1.235  -3.279  0.00  0.00     0.082 C 
ATOM     40  H   LIG d   1       7.137  -1.644  -4.278  0.00  0.00     0.066 H 
ATOM     41  H   LIG d   1       6.951  -0.147  -3.333  0.00  0.00     0.066 H 
ATOM     42  H   LIG d   1       7.823  -1.535  -2.639  0.00  0.00     0.066 H 
ENDBRANCH  38  39
ENDBRANCH  36  38
ENDBRANCH  11  36
BRANCH   9  43
ATOM     43  C   LIG d   1       4.071  -0.822 -10.067  0.00  0.00     0.050 C 
ATOM     44  H   LIG d   1       4.419  -0.024 -10.723  0.00  0.00     0.054 H 
ATOM     45  H   LIG d   1       4.876  -1.540  -9.908  0.00  0.00     0.054 H 
BRANCH  43  46
ATOM     46  C   LIG d   1       2.896  -1.519 -10.703  0.00  0.00    -0.028 A 
ATOM     47  C   LIG d   1       2.290  -2.581 -10.057  0.00  0.00    -0.056 A 
ATOM     48  C   LIG d   1       1.212  -3.220 -10.640  0.00  0.00    -0.043 A 
ATOM     49  H   LIG d   1       2.660  -2.912  -9.098  0.00  0.00     0.062 H 
ATOM     50  C   LIG d   1       0.738  -2.796 -11.870  0.00  0.00     0.041 A 
ATOM     51  H   LIG d   1       0.740  -4.050 -10.136  0.00  0.00     0.063 H 
ATOM     52  C   LIG d   1       1.345  -1.733 -12.515  0.00  0.00    -0.043 A 
ATOM     53 CL   LIG d   1      -0.615  -3.599 -12.602  0.00  0.00    -0.084 Cl
ATOM     54  C   LIG d   1       2.420  -1.092 -11.928  0.00  0.00    -0.056 A 
ATOM     55  H   LIG d   1       0.976  -1.402 -13.474  0.00  0.00     0.063 H 
ATOM     56  H   LIG d   1       2.890  -0.259 -12.429  0.00  0.00     0.062 H 
ENDBRANCH  43  46
ENDBRANCH   9  43
TORSDOF 9
ENDMDL
MODEL 8
REMARK VINA RESULT:      -5.4      5.702      9.633
REMARK  9 active torsions:
REMARK  status: ('A' for Active; 'I' for Inactive)
REMARK    1  A    between atoms: C_1  and  O_2 
REMARK    2  A    between atoms: O_2  and  C_3 
REMARK    3  A    between atoms: C_6  and  C_9 
REMARK    4  A    between atoms: C_9  and  C_10 
REMARK       I    between atoms: C_10  and  N_12 
REMARK    5  A    between atoms: N_18  and  C_19 
REMARK    6  A    between atoms: C_19  and  C_20 
REMARK    7  A    between atoms: C_28  and  C_30 
REMARK    8  A    between atoms: C_30  and  O_32 
REMARK    9  A    between atoms: O_32  and  C_33 
ROOT
ATOM      1  C   LIG d   1      10.264   5.320  -4.311  0.00  0.00     0.221 C 
ATOM      2  O   LIG d   1      10.469   6.493  -4.542  0.00  0.00    -0.275 OA
ATOM      3  N   LIG d   1      10.455   4.400  -5.277  0.00  0.00    -0.282 N 
ATOM      4  C   LIG d   1      10.342   2.959  -4.982  0.00  0.00     0.058 C 
ATOM      5  C   LIG d   1       9.550   2.338  -6.109  0.00  0.00     0.059 A 
ATOM      6  C   LIG d   1       9.251   2.969  -7.266  0.00  0.00     0.066 A 
ATOM      7  N   LIG d   1       8.557   2.119  -8.027  0.00  0.00    -0.240 NA
ATOM      8  C   LIG d   1       8.411   0.988  -7.388  0.00  0.00     0.097 A 
ATOM      9  N   LIG d   1       9.019   1.088  -6.183  0.00  0.00    -0.328 N 
ATOM     10  C   LIG d   1       9.653   4.385  -7.590  0.00  0.00     0.020 C 
ATOM     11  C   LIG d   1      10.789   4.806  -6.650  0.00  0.00     0.129 C 
ATOM     12  H   LIG d   1      11.716   4.320  -6.958  0.00  0.00     0.062 H 
ATOM     13  H   LIG d   1      11.335   2.512  -4.931  0.00  0.00     0.053 H 
ATOM     14  H   LIG d   1       9.820   2.815  -4.036  0.00  0.00     0.053 H 
ATOM     15  H   LIG d   1       7.892   0.116  -7.760  0.00  0.00     0.103 H 
ATOM     16  H   LIG d   1       8.800   5.048  -7.451  0.00  0.00     0.035 H 
ATOM     17  H   LIG d   1       9.995   4.442  -8.624  0.00  0.00     0.035 H 
ENDROOT
BRANCH   1  18
ATOM     18  C   LIG d   1       9.792   4.893  -2.946  0.00  0.00     0.049 C 
ATOM     19  H   LIG d   1       8.718   5.057  -2.864  0.00  0.00     0.041 H 
ATOM     20  H   LIG d   1      10.009   3.835  -2.801  0.00  0.00     0.041 H 
BRANCH  18  21
ATOM     21  C   LIG d   1      10.505   5.701  -1.892  0.00  0.00    -0.038 A 
ATOM     22  C   LIG d   1      11.785   5.353  -1.503  0.00  0.00    -0.055 A 
ATOM     23  C   LIG d   1      12.440   6.093  -0.537  0.00  0.00    -0.020 A 
ATOM     24  H   LIG d   1      12.273   4.501  -1.954  0.00  0.00     0.062 H 
ATOM     25  C   LIG d   1      11.813   7.187   0.041  0.00  0.00     0.120 A 
ATOM     26  H   LIG d   1      13.440   5.820  -0.233  0.00  0.00     0.065 H 
ATOM     27  C   LIG d   1      10.529   7.534  -0.352  0.00  0.00    -0.020 A 
ATOM     28  C   LIG d   1       9.880   6.795  -1.322  0.00  0.00    -0.055 A 
ATOM     29  H   LIG d   1      10.038   8.386   0.097  0.00  0.00     0.065 H 
ATOM     30  H   LIG d   1       8.882   7.069  -1.632  0.00  0.00     0.062 H 
BRANCH  25  31
ATOM     31  O   LIG d   1      12.455   7.916   0.991  0.00  0.00    -0.495 OA
BRANCH  31  32
ATOM     32  C   LIG d   1      11.693   8.923   1.661  0.00  0.00     0.079 C 
ATOM     33  H   LIG d   1      11.257   9.597   0.925  0.00  0.00     0.066 H 
ATOM     34  H   LIG d   1      10.898   8.452   2.240  0.00  0.00     0.066 H 
ATOM     35  H   LIG d   1      12.345   9.486   2.329  0.00  0.00     0.066 H 
ENDBRANCH  31  32
ENDBRANCH  25  31
ENDBRANCH  18  21
ENDBRANCH   1  18
BRANCH  11  36
ATOM     36  C   LIG d   1      10.961   6.302  -6.706  0.00  0.00     0.328 C 
ATOM     37  O   LIG d   1      12.047   6.793  -6.512  0.00  0.00    -0.249 OA
BRANCH  36  38
ATOM     38  O   LIG d   1       9.906   7.089  -6.971  0.00  0.00    -0.467 OA
BRANCH  38  39
ATOM     39  C   LIG d   1      10.172   8.336  -7.666  0.00  0.00     0.082 C 
ATOM     40  H   LIG d   1       9.762   8.284  -8.674  0.00  0.00     0.066 H 
ATOM     41  H   LIG d   1       9.708   9.160  -7.126  0.00  0.00     0.066 H 
ATOM     42  H   LIG d   1      11.249   8.498  -7.720  0.00  0.00     0.066 H 
ENDBRANCH  38  39
ENDBRANCH  36  38
ENDBRANCH  11  36
BRANCH   9  43
ATOM     43  C   LIG d   1       9.090   0.047  -5.154  0.00  0.00     0.050 C 
ATOM     44  H   LIG d   1       9.254  -0.921  -5.627  0.00  0.00     0.054 H 
ATOM     45  H   LIG d   1       9.916   0.264  -4.475  0.00  0.00     0.054 H 
BRANCH  43  46
ATOM     46  C   LIG d   1       7.798   0.017  -4.380  0.00  0.00    -0.028 A 
ATOM     47  C   LIG d   1       7.122  -1.177  -4.209  0.00  0.00    -0.056 A 
ATOM     48  C   LIG d   1       5.937  -1.206  -3.500  0.00  0.00    -0.043 A 
ATOM     49  H   LIG d   1       7.520  -2.088  -4.633  0.00  0.00     0.062 H 
ATOM     50  C   LIG d   1       5.427  -0.039  -2.958  0.00  0.00     0.041 A 
ATOM     51  H   LIG d   1       5.409  -2.138  -3.368  0.00  0.00     0.063 H 
ATOM     52  C   LIG d   1       6.104   1.156  -3.127  0.00  0.00    -0.043 A 
ATOM     53 CL   LIG d   1       3.938  -0.074  -2.066  0.00  0.00    -0.084 Cl
ATOM     54  C   LIG d   1       7.292   1.182  -3.834  0.00  0.00    -0.056 A 
ATOM     55  H   LIG d   1       5.707   2.066  -2.705  0.00  0.00     0.063 H 
ATOM     56  H   LIG d   1       7.823   2.113  -3.962  0.00  0.00     0.062 H 
ENDBRANCH  43  46
ENDBRANCH   9  43
TORSDOF 9
ENDMDL
MODEL 9
REMARK VINA RESULT:      -5.4      2.551      3.404
REMARK  9 active torsions:
REMARK  status: ('A' for Active; 'I' for Inactive)
REMARK    1  A    between atoms: C_1  and  O_2 
REMARK    2  A    between atoms: O_2  and  C_3 
REMARK    3  A    between atoms: C_6  and  C_9 
REMARK    4  A    between atoms: C_9  and  C_10 
REMARK       I    between atoms: C_10  and  N_12 
REMARK    5  A    between atoms: N_18  and  C_19 
REMARK    6  A    between atoms: C_19  and  C_20 
REMARK    7  A    between atoms: C_28  and  C_30 
REMARK    8  A    between atoms: C_30  and  O_32 
REMARK    9  A    between atoms: O_32  and  C_33 
ROOT
ATOM      1  C   LIG d   1       5.656  -0.831  -6.461  0.00  0.00     0.221 C 
ATOM      2  O   LIG d   1       5.277   0.279  -6.154  0.00  0.00    -0.275 OA
ATOM      3  N   LIG d   1       5.861  -1.760  -5.507  0.00  0.00    -0.282 N 
ATOM      4  C   LIG d   1       6.192  -3.152  -5.864  0.00  0.00     0.058 C 
ATOM      5  C   LIG d   1       7.314  -3.590  -4.951  0.00  0.00     0.059 A 
ATOM      6  C   LIG d   1       7.722  -2.899  -3.864  0.00  0.00     0.066 A 
ATOM      7  N   LIG d   1       8.717  -3.583  -3.294  0.00  0.00    -0.240 NA
ATOM      8  C   LIG d   1       8.944  -4.669  -3.986  0.00  0.00     0.097 A 
ATOM      9  N   LIG d   1       8.085  -4.707  -5.031  0.00  0.00    -0.328 N 
ATOM     10  C   LIG d   1       7.126  -1.587  -3.417  0.00  0.00     0.020 C 
ATOM     11  C   LIG d   1       5.755  -1.414  -4.081  0.00  0.00     0.129 C 
ATOM     12  H   LIG d   1       5.031  -2.072  -3.599  0.00  0.00     0.062 H 
ATOM     13  H   LIG d   1       5.319  -3.790  -5.718  0.00  0.00     0.053 H 
ATOM     14  H   LIG d   1       6.518  -3.200  -6.904  0.00  0.00     0.053 H 
ATOM     15  H   LIG d   1       9.693  -5.415  -3.760  0.00  0.00     0.103 H 
ATOM     16  H   LIG d   1       7.781  -0.769  -3.712  0.00  0.00     0.035 H 
ATOM     17  H   LIG d   1       7.009  -1.588  -2.333  0.00  0.00     0.035 H 
ENDROOT
BRANCH   1  18
ATOM     18  C   LIG d   1       5.899  -1.171  -7.908  0.00  0.00     0.049 C 
ATOM     19  H   LIG d   1       6.641  -0.488  -8.322  0.00  0.00     0.041 H 
ATOM     20  H   LIG d   1       6.266  -2.195  -7.985  0.00  0.00     0.041 H 
BRANCH  18  21
ATOM     21  C   LIG d   1       4.610  -1.040  -8.679  0.00  0.00    -0.038 A 
ATOM     22  C   LIG d   1       3.659  -2.040  -8.607  0.00  0.00    -0.055 A 
ATOM     23  C   LIG d   1       2.477  -1.922  -9.313  0.00  0.00    -0.020 A 
ATOM     24  H   LIG d   1       3.840  -2.915  -8.000  0.00  0.00     0.062 H 
ATOM     25  C   LIG d   1       2.245  -0.798 -10.093  0.00  0.00     0.120 A 
ATOM     26  H   LIG d   1       1.734  -2.704  -9.257  0.00  0.00     0.065 H 
ATOM     27  C   LIG d   1       3.202   0.204 -10.162  0.00  0.00    -0.020 A 
ATOM     28  C   LIG d   1       4.380   0.084  -9.451  0.00  0.00    -0.055 A 
ATOM     29  H   LIG d   1       3.024   1.079 -10.769  0.00  0.00     0.065 H 
ATOM     30  H   LIG d   1       5.123   0.866  -9.501  0.00  0.00     0.062 H 
BRANCH  25  31
ATOM     31  O   LIG d   1       1.083  -0.680 -10.789  0.00  0.00    -0.495 OA
BRANCH  31  32
ATOM     32  C   LIG d   1       0.936  -1.499 -11.950  0.00  0.00     0.079 C 
ATOM     33  H   LIG d   1       0.620  -2.498 -11.650  0.00  0.00     0.066 H 
ATOM     34  H   LIG d   1       0.186  -1.064 -12.609  0.00  0.00     0.066 H 
ATOM     35  H   LIG d   1       1.890  -1.562 -12.474  0.00  0.00     0.066 H 
ENDBRANCH  31  32
ENDBRANCH  25  31
ENDBRANCH  18  21
ENDBRANCH   1  18
BRANCH  11  36
ATOM     36  C   LIG d   1       5.306   0.018  -3.943  0.00  0.00     0.328 C 
ATOM     37  O   LIG d   1       6.123   0.907  -3.912  0.00  0.00    -0.249 OA
BRANCH  36  38
ATOM     38  O   LIG d   1       3.997   0.305  -3.855  0.00  0.00    -0.467 OA
BRANCH  38  39
ATOM     39  C   LIG d   1       3.604   1.289  -2.861  0.00  0.00     0.082 C 
ATOM     40  H   LIG d   1       2.591   1.630  -3.070  0.00  0.00     0.066 H 
ATOM     41  H   LIG d   1       3.639   0.838  -1.870  0.00  0.00     0.066 H 
ATOM     42  H   LIG d   1       4.289   2.136  -2.898  0.00  0.00     0.066 H 
ENDBRANCH  38  39
ENDBRANCH  36  38
ENDBRANCH  11  36
BRANCH   9  43
ATOM     43  C   LIG d   1       8.003  -5.752  -6.054  0.00  0.00     0.050 C 
ATOM     44  H   LIG d   1       7.640  -5.319  -6.986  0.00  0.00     0.054 H 
ATOM     45  H   LIG d   1       8.992  -6.182  -6.214  0.00  0.00     0.054 H 
BRANCH  43  46
ATOM     46  C   LIG d   1       7.055  -6.830  -5.597  0.00  0.00    -0.028 A 
ATOM     47  C   LIG d   1       7.515  -7.864  -4.802  0.00  0.00    -0.056 A 
ATOM     48  C   LIG d   1       6.646  -8.853  -4.383  0.00  0.00    -0.043 A 
ATOM     49  H   LIG d   1       8.555  -7.899  -4.511  0.00  0.00     0.062 H 
ATOM     50  C   LIG d   1       5.314  -8.809  -4.757  0.00  0.00     0.041 A 
ATOM     51  H   LIG d   1       7.006  -9.660  -3.763  0.00  0.00     0.063 H 
ATOM     52  C   LIG d   1       4.854  -7.774  -5.552  0.00  0.00    -0.043 A 
ATOM     53 CL   LIG d   1       4.223 -10.051  -4.231  0.00  0.00    -0.084 Cl
ATOM     54  C   LIG d   1       5.724  -6.783  -5.967  0.00  0.00    -0.056 A 
ATOM     55  H   LIG d   1       3.816  -7.739  -5.845  0.00  0.00     0.063 H 
ATOM     56  H   LIG d   1       5.364  -5.972  -6.584  0.00  0.00     0.062 H 
ENDBRANCH  43  46
ENDBRANCH   9  43
TORSDOF 9
ENDMDL
MODEL 10
REMARK VINA RESULT:      -5.4      7.447     11.835
REMARK  9 active torsions:
REMARK  status: ('A' for Active; 'I' for Inactive)
REMARK    1  A    between atoms: C_1  and  O_2 
REMARK    2  A    between atoms: O_2  and  C_3 
REMARK    3  A    between atoms: C_6  and  C_9 
REMARK    4  A    between atoms: C_9  and  C_10 
REMARK       I    between atoms: C_10  and  N_12 
REMARK    5  A    between atoms: N_18  and  C_19 
REMARK    6  A    between atoms: C_19  and  C_20 
REMARK    7  A    between atoms: C_28  and  C_30 
REMARK    8  A    between atoms: C_30  and  O_32 
REMARK    9  A    between atoms: O_32  and  C_33 
ROOT
ATOM      1  C   LIG d   1      12.419   5.774  -2.544  0.00  0.00     0.221 C 
ATOM      2  O   LIG d   1      12.418   5.199  -1.477  0.00  0.00    -0.275 OA
ATOM      3  N   LIG d   1      12.320   7.118  -2.585  0.00  0.00    -0.282 N 
ATOM      4  C   LIG d   1      12.454   7.848  -3.859  0.00  0.00     0.058 C 
ATOM      5  C   LIG d   1      11.358   8.890  -3.889  0.00  0.00     0.059 A 
ATOM      6  C   LIG d   1      10.597   9.222  -2.824  0.00  0.00     0.066 A 
ATOM      7  N   LIG d   1       9.748  10.178  -3.211  0.00  0.00    -0.240 NA
ATOM      8  C   LIG d   1       9.952  10.450  -4.473  0.00  0.00     0.097 A 
ATOM      9  N   LIG d   1      10.952   9.662  -4.932  0.00  0.00    -0.328 N 
ATOM     10  C   LIG d   1      10.721   8.592  -1.459  0.00  0.00     0.020 C 
ATOM     11  C   LIG d   1      12.083   7.894  -1.358  0.00  0.00     0.129 C 
ATOM     12  H   LIG d   1      12.868   8.642  -1.243  0.00  0.00     0.062 H 
ATOM     13  H   LIG d   1      13.430   8.330  -3.909  0.00  0.00     0.053 H 
ATOM     14  H   LIG d   1      12.335   7.159  -4.695  0.00  0.00     0.053 H 
ATOM     15  H   LIG d   1       9.411  11.183  -5.054  0.00  0.00     0.103 H 
ATOM     16  H   LIG d   1       9.925   7.862  -1.320  0.00  0.00     0.035 H 
ATOM     17  H   LIG d   1      10.649   9.362  -0.692  0.00  0.00     0.035 H 
ENDROOT
BRANCH   1  18
ATOM     18  C   LIG d   1      12.529   4.988  -3.824  0.00  0.00     0.049 C 
ATOM     19  H   LIG d   1      12.728   5.668  -4.653  0.00  0.00     0.041 H 
ATOM     20  H   LIG d   1      13.343   4.269  -3.741  0.00  0.00     0.041 H 
BRANCH  18  21
ATOM     21  C   LIG d   1      11.236   4.256  -4.076  0.00  0.00    -0.038 A 
ATOM     22  C   LIG d   1      10.201   4.889  -4.740  0.00  0.00    -0.055 A 
ATOM     23  C   LIG d   1       9.015   4.220  -4.971  0.00  0.00    -0.020 A 
ATOM     24  H   LIG d   1      10.321   5.909  -5.076  0.00  0.00     0.062 H 
ATOM     25  C   LIG d   1       8.863   2.910  -4.539  0.00  0.00     0.120 A 
ATOM     26  H   LIG d   1       8.208   4.715  -5.490  0.00  0.00     0.065 H 
ATOM     27  C   LIG d   1       9.903   2.277  -3.874  0.00  0.00    -0.020 A 
ATOM     28  C   LIG d   1      11.089   2.948  -3.650  0.00  0.00    -0.055 A 
ATOM     29  H   LIG d   1       9.787   1.257  -3.537  0.00  0.00     0.065 H 
ATOM     30  H   LIG d   1      11.901   2.454  -3.136  0.00  0.00     0.062 H 
BRANCH  25  31
ATOM     31  O   LIG d   1       7.697   2.249  -4.766  0.00  0.00    -0.495 OA
BRANCH  31  32
ATOM     32  C   LIG d   1       7.311   1.266  -3.803  0.00  0.00     0.079 C 
ATOM     33  H   LIG d   1       6.380   0.796  -4.120  0.00  0.00     0.066 H 
ATOM     34  H   LIG d   1       8.091   0.510  -3.723  0.00  0.00     0.066 H 
ATOM     35  H   LIG d   1       7.166   1.745  -2.835  0.00  0.00     0.066 H 
ENDBRANCH  31  32
ENDBRANCH  25  31
ENDBRANCH  18  21
ENDBRANCH   1  18
BRANCH  11  36
ATOM     36  C   LIG d   1      12.088   6.969  -0.168  0.00  0.00     0.328 C 
ATOM     37  O   LIG d   1      13.131   6.675   0.364  0.00  0.00    -0.249 OA
BRANCH  36  38
ATOM     38  O   LIG d   1      10.931   6.473   0.301  0.00  0.00    -0.467 OA
BRANCH  38  39
ATOM     39  C   LIG d   1      10.973   5.813   1.593  0.00  0.00     0.082 C 
ATOM     40  H   LIG d   1       9.992   5.397   1.820  0.00  0.00     0.066 H 
ATOM     41  H   LIG d   1      11.711   5.011   1.568  0.00  0.00     0.066 H 
ATOM     42  H   LIG d   1      11.249   6.536   2.362  0.00  0.00     0.066 H 
ENDBRANCH  38  39
ENDBRANCH  36  38
ENDBRANCH  11  36
BRANCH   9  43
ATOM     43  C   LIG d   1      11.492   9.644  -6.293  0.00  0.00     0.050 C 
ATOM     44  H   LIG d   1      11.406  10.639  -6.731  0.00  0.00     0.054 H 
ATOM     45  H   LIG d   1      12.542   9.350  -6.263  0.00  0.00     0.054 H 
BRANCH  43  46
ATOM     46  C   LIG d   1      10.719   8.658  -7.129  0.00  0.00    -0.028 A 
ATOM     47  C   LIG d   1      11.226   7.391  -7.350  0.00  0.00    -0.056 A 
ATOM     48  C   LIG d   1      10.518   6.485  -8.116  0.00  0.00    -0.043 A 
ATOM     49  H   LIG d   1      12.179   7.110  -6.925  0.00  0.00     0.062 H 
ATOM     50  C   LIG d   1       9.297   6.846  -8.661  0.00  0.00     0.041 A 
ATOM     51  H   LIG d   1      10.915   5.497  -8.289  0.00  0.00     0.063 H 
ATOM     52  C   LIG d   1       8.789   8.114  -8.439  0.00  0.00    -0.043 A 
ATOM     53 CL   LIG d   1       8.406   5.710  -9.624  0.00  0.00    -0.084 Cl
ATOM     54  C   LIG d   1       9.497   9.017  -7.668  0.00  0.00    -0.056 A 
ATOM     55  H   LIG d   1       7.838   8.396  -8.864  0.00  0.00     0.063 H 
ATOM     56  H   LIG d   1       9.099  10.005  -7.491  0.00  0.00     0.062 H 
ENDBRANCH  43  46
ENDBRANCH   9  43
TORSDOF 9
ENDMDL
