MODEL 1
REMARK VINA RESULT:      -7.0      0.000      0.000
REMARK  6 active torsions:
REMARK  status: ('A' for Active; 'I' for Inactive)
REMARK    1  A    between atoms: C_1  and  C_2 
REMARK    2  A    between atoms: C_2  and  C_3 
REMARK    3  A    between atoms: C_2  and  C_4 
REMARK    4  A    between atoms: C_4  and  N_5 
REMARK       I    between atoms: N_5  and  C_6 
REMARK    5  A    between atoms: C_6  and  C_8 
REMARK    6  A    between atoms: C_10  and  C_18 
ROOT
ATOM      1  C   LIG d   1       4.717  -2.348  -5.461  0.00  0.00     0.048 A 
ATOM      2  C   LIG d   1       4.573  -1.716  -6.686  0.00  0.00    -0.021 A 
ATOM      3  C   LIG d   1       4.194  -0.366  -6.727  0.00  0.00     0.090 A 
ATOM      4  N   LIG d   1       3.969   0.322  -5.626  0.00  0.00    -0.245 NA
ATOM      5  C   LIG d   1       4.089  -0.228  -4.417  0.00  0.00     0.072 A 
ATOM      6  C   LIG d   1       4.464  -1.590  -4.289  0.00  0.00     0.013 A 
ATOM      7  C   LIG d   1       4.581  -2.160  -3.015  0.00  0.00    -0.052 A 
ATOM      8  C   LIG d   1       4.330  -1.402  -1.910  0.00  0.00    -0.061 A 
ATOM      9  C   LIG d   1       3.957  -0.065  -2.031  0.00  0.00    -0.060 A 
ATOM     10  C   LIG d   1       3.844   0.525  -3.253  0.00  0.00    -0.036 A 
ATOM     11  H   LIG d   1       4.752  -2.258  -7.603  0.00  0.00     0.065 H 
ATOM     12  H   LIG d   1       4.869  -3.195  -2.908  0.00  0.00     0.062 H 
ATOM     13  H   LIG d   1       4.421  -1.843  -0.929  0.00  0.00     0.062 H 
ATOM     14  H   LIG d   1       3.763   0.516  -1.141  0.00  0.00     0.062 H 
ATOM     15  H   LIG d   1       3.554   1.562  -3.329  0.00  0.00     0.064 H 
ENDROOT
BRANCH   1  16
ATOM     16  C   LIG d   1       5.114  -3.770  -5.379  0.00  0.00     0.245 C 
ATOM     17  N   LIG d   1       4.215  -4.738  -5.647  0.00  0.00    -0.311 N 
ATOM     18  H   LIG d   1       3.307  -4.501  -5.893  0.00  0.00     0.149 HD
ATOM     19  O   LIG d   1       6.252  -4.067  -5.071  0.00  0.00    -0.270 OA
BRANCH  17  20
ATOM     20  C   LIG d   1       4.609  -6.147  -5.566  0.00  0.00     0.014 C 
ATOM     21  H   LIG d   1       3.806  -6.723  -5.107  0.00  0.00     0.046 H 
ATOM     22  H   LIG d   1       5.513  -6.237  -4.963  0.00  0.00     0.046 H 
BRANCH  20  23
ATOM     23  C   LIG d   1       4.879  -6.682  -6.974  0.00  0.00    -0.031 C 
ATOM     24  H   LIG d   1       5.922  -6.504  -7.237  0.00  0.00     0.031 H 
BRANCH  23  25
ATOM     25  C   LIG d   1       4.592  -8.185  -7.011  0.00  0.00    -0.061 C 
ATOM     26  H   LIG d   1       4.159  -8.495  -6.061  0.00  0.00     0.023 H 
ATOM     27  H   LIG d   1       3.892  -8.401  -7.818  0.00  0.00     0.023 H 
ATOM     28  H   LIG d   1       5.522  -8.728  -7.181  0.00  0.00     0.023 H 
ENDBRANCH  23  25
BRANCH  23  29
ATOM     29  C   LIG d   1       3.970  -5.965  -7.975  0.00  0.00    -0.061 C 
ATOM     30  H   LIG d   1       2.936  -6.027  -7.635  0.00  0.00     0.023 H 
ATOM     31  H   LIG d   1       4.265  -4.919  -8.050  0.00  0.00     0.023 H 
ATOM     32  H   LIG d   1       4.060  -6.439  -8.951  0.00  0.00     0.023 H 
ENDBRANCH  23  29
ENDBRANCH  20  23
ENDBRANCH  17  20
ENDBRANCH   1  16
BRANCH   3  33
ATOM     33  C   LIG d   1       4.043   0.305  -8.041  0.00  0.00     0.089 A 
ATOM     34  N   LIG d   1       4.709   1.426  -8.288  0.00  0.00    -0.253 NA
ATOM     35  C   LIG d   1       4.604   2.051  -9.441  0.00  0.00     0.028 A 
ATOM     36  C   LIG d   1       3.789   1.558 -10.445  0.00  0.00    -0.044 A 
ATOM     37  H   LIG d   1       5.161   2.962  -9.607  0.00  0.00     0.083 H 
ATOM     38  C   LIG d   1       3.075   0.389 -10.230  0.00  0.00    -0.058 A 
ATOM     39  H   LIG d   1       3.709   2.080 -11.388  0.00  0.00     0.063 H 
ATOM     40  C   LIG d   1       3.209  -0.251  -9.008  0.00  0.00    -0.034 A 
ATOM     41  H   LIG d   1       2.432  -0.016 -10.997  0.00  0.00     0.062 H 
ATOM     42  H   LIG d   1       2.671  -1.166  -8.808  0.00  0.00     0.064 H 
ENDBRANCH   3  33
TORSDOF 6
ENDMDL
MODEL 2
REMARK VINA RESULT:      -7.0      1.588      2.072
REMARK  6 active torsions:
REMARK  status: ('A' for Active; 'I' for Inactive)
REMARK    1  A    between atoms: C_1  and  C_2 
REMARK    2  A    between atoms: C_2  and  C_3 
REMARK    3  A    between atoms: C_2  and  C_4 
REMARK    4  A    between atoms: C_4  and  N_5 
REMARK       I    between atoms: N_5  and  C_6 
REMARK    5  A    between atoms: C_6  and  C_8 
REMARK    6  A    between atoms: C_10  and  C_18 
ROOT
ATOM      1  C   LIG d   1       4.670  -2.383  -5.517  0.00  0.00     0.048 A 
ATOM      2  C   LIG d   1       4.528  -1.720  -6.725  0.00  0.00    -0.021 A 
ATOM      3  C   LIG d   1       4.189  -0.358  -6.731  0.00  0.00     0.090 A 
ATOM      4  N   LIG d   1       4.000   0.311  -5.612  0.00  0.00    -0.245 NA
ATOM      5  C   LIG d   1       4.121  -0.269  -4.417  0.00  0.00     0.072 A 
ATOM      6  C   LIG d   1       4.456  -1.644  -4.324  0.00  0.00     0.013 A 
ATOM      7  C   LIG d   1       4.574  -2.246  -3.065  0.00  0.00    -0.052 A 
ATOM      8  C   LIG d   1       4.361  -1.505  -1.940  0.00  0.00    -0.061 A 
ATOM      9  C   LIG d   1       4.027  -0.155  -2.027  0.00  0.00    -0.060 A 
ATOM     10  C   LIG d   1       3.914   0.465  -3.233  0.00  0.00    -0.036 A 
ATOM     11  H   LIG d   1       4.678  -2.246  -7.656  0.00  0.00     0.065 H 
ATOM     12  H   LIG d   1       4.832  -3.291  -2.985  0.00  0.00     0.062 H 
ATOM     13  H   LIG d   1       4.452  -1.971  -0.971  0.00  0.00     0.062 H 
ATOM     14  H   LIG d   1       3.863   0.410  -1.121  0.00  0.00     0.062 H 
ATOM     15  H   LIG d   1       3.654   1.511  -3.282  0.00  0.00     0.064 H 
ENDROOT
BRANCH   1  16
ATOM     16  C   LIG d   1       5.026  -3.818  -5.471  0.00  0.00     0.245 C 
ATOM     17  N   LIG d   1       6.320  -4.193  -5.519  0.00  0.00    -0.311 N 
ATOM     18  H   LIG d   1       7.017  -3.522  -5.585  0.00  0.00     0.149 HD
ATOM     19  O   LIG d   1       4.152  -4.659  -5.389  0.00  0.00    -0.270 OA
BRANCH  17  20
ATOM     20  C   LIG d   1       6.671  -5.615  -5.473  0.00  0.00     0.014 C 
ATOM     21  H   LIG d   1       6.452  -6.075  -6.436  0.00  0.00     0.046 H 
ATOM     22  H   LIG d   1       6.090  -6.108  -4.694  0.00  0.00     0.046 H 
BRANCH  20  23
ATOM     23  C   LIG d   1       8.163  -5.761  -5.166  0.00  0.00    -0.031 C 
ATOM     24  H   LIG d   1       8.732  -5.699  -6.094  0.00  0.00     0.031 H 
BRANCH  23  25
ATOM     25  C   LIG d   1       8.601  -4.638  -4.223  0.00  0.00    -0.061 C 
ATOM     26  H   LIG d   1       7.811  -4.441  -3.501  0.00  0.00     0.023 H 
ATOM     27  H   LIG d   1       9.507  -4.940  -3.697  0.00  0.00     0.023 H 
ATOM     28  H   LIG d   1       8.801  -3.735  -4.800  0.00  0.00     0.023 H 
ENDBRANCH  23  25
BRANCH  23  29
ATOM     29  C   LIG d   1       8.417  -7.115  -4.500  0.00  0.00    -0.061 C 
ATOM     30  H   LIG d   1       8.691  -6.960  -3.456  0.00  0.00     0.023 H 
ATOM     31  H   LIG d   1       7.514  -7.721  -4.553  0.00  0.00     0.023 H 
ATOM     32  H   LIG d   1       9.229  -7.626  -5.016  0.00  0.00     0.023 H 
ENDBRANCH  23  29
ENDBRANCH  20  23
ENDBRANCH  17  20
ENDBRANCH   1  16
BRANCH   3  33
ATOM     33  C   LIG d   1       4.040   0.346  -8.028  0.00  0.00     0.089 A 
ATOM     34  N   LIG d   1       4.732   1.455  -8.257  0.00  0.00    -0.253 NA
ATOM     35  C   LIG d   1       4.629   2.109  -9.395  0.00  0.00     0.028 A 
ATOM     36  C   LIG d   1       3.790   1.660 -10.400  0.00  0.00    -0.044 A 
ATOM     37  H   LIG d   1       5.207   3.009  -9.547  0.00  0.00     0.083 H 
ATOM     38  C   LIG d   1       3.048   0.505 -10.202  0.00  0.00    -0.058 A 
ATOM     39  H   LIG d   1       3.712   2.205 -11.329  0.00  0.00     0.063 H 
ATOM     40  C   LIG d   1       3.180  -0.166  -8.997  0.00  0.00    -0.034 A 
ATOM     41  H   LIG d   1       2.386   0.134 -10.970  0.00  0.00     0.062 H 
ATOM     42  H   LIG d   1       2.621  -1.071  -8.811  0.00  0.00     0.064 H 
ENDBRANCH   3  33
TORSDOF 6
ENDMDL
MODEL 3
REMARK VINA RESULT:      -6.9      4.577      5.550
REMARK  6 active torsions:
REMARK  status: ('A' for Active; 'I' for Inactive)
REMARK    1  A    between atoms: C_1  and  C_2 
REMARK    2  A    between atoms: C_2  and  C_3 
REMARK    3  A    between atoms: C_2  and  C_4 
REMARK    4  A    between atoms: C_4  and  N_5 
REMARK       I    between atoms: N_5  and  C_6 
REMARK    5  A    between atoms: C_6  and  C_8 
REMARK    6  A    between atoms: C_10  and  C_18 
ROOT
ATOM      1  C   LIG d   1       7.266  -0.978  -3.978  0.00  0.00     0.048 A 
ATOM      2  C   LIG d   1       8.103   0.090  -4.262  0.00  0.00    -0.021 A 
ATOM      3  C   LIG d   1       7.721   1.387  -3.887  0.00  0.00     0.090 A 
ATOM      4  N   LIG d   1       6.582   1.620  -3.269  0.00  0.00    -0.245 NA
ATOM      5  C   LIG d   1       5.732   0.637  -2.967  0.00  0.00     0.072 A 
ATOM      6  C   LIG d   1       6.041  -0.703  -3.316  0.00  0.00     0.013 A 
ATOM      7  C   LIG d   1       5.139  -1.727  -3.001  0.00  0.00    -0.052 A 
ATOM      8  C   LIG d   1       3.971  -1.426  -2.365  0.00  0.00    -0.061 A 
ATOM      9  C   LIG d   1       3.662  -0.111  -2.024  0.00  0.00    -0.060 A 
ATOM     10  C   LIG d   1       4.519   0.908  -2.306  0.00  0.00    -0.036 A 
ATOM     11  H   LIG d   1       9.042  -0.075  -4.768  0.00  0.00     0.065 H 
ATOM     12  H   LIG d   1       5.367  -2.749  -3.260  0.00  0.00     0.062 H 
ATOM     13  H   LIG d   1       3.278  -2.217  -2.123  0.00  0.00     0.062 H 
ATOM     14  H   LIG d   1       2.730   0.103  -1.521  0.00  0.00     0.062 H 
ATOM     15  H   LIG d   1       4.264   1.922  -2.035  0.00  0.00     0.064 H 
ENDROOT
BRANCH   1  16
ATOM     16  C   LIG d   1       7.634  -2.358  -4.358  0.00  0.00     0.245 C 
ATOM     17  N   LIG d   1       8.426  -3.091  -3.551  0.00  0.00    -0.311 N 
ATOM     18  H   LIG d   1       8.755  -2.713  -2.721  0.00  0.00     0.149 HD
ATOM     19  O   LIG d   1       7.220  -2.833  -5.398  0.00  0.00    -0.270 OA
BRANCH  17  20
ATOM     20  C   LIG d   1       8.789  -4.460  -3.928  0.00  0.00     0.014 C 
ATOM     21  H   LIG d   1       9.029  -4.492  -4.991  0.00  0.00     0.046 H 
ATOM     22  H   LIG d   1       7.952  -5.128  -3.723  0.00  0.00     0.046 H 
BRANCH  20  23
ATOM     23  C   LIG d   1      10.007  -4.905  -3.117  0.00  0.00    -0.031 C 
ATOM     24  H   LIG d   1      10.363  -5.865  -3.493  0.00  0.00     0.031 H 
BRANCH  23  25
ATOM     25  C   LIG d   1      11.118  -3.862  -3.253  0.00  0.00    -0.061 C 
ATOM     26  H   LIG d   1      10.946  -3.053  -2.543  0.00  0.00     0.023 H 
ATOM     27  H   LIG d   1      12.082  -4.328  -3.045  0.00  0.00     0.023 H 
ATOM     28  H   LIG d   1      11.120  -3.461  -4.267  0.00  0.00     0.023 H 
ENDBRANCH  23  25
BRANCH  23  29
ATOM     29  C   LIG d   1       9.617  -5.046  -1.644  0.00  0.00    -0.061 C 
ATOM     30  H   LIG d   1      10.389  -4.596  -1.020  0.00  0.00     0.023 H 
ATOM     31  H   LIG d   1       8.668  -4.541  -1.470  0.00  0.00     0.023 H 
ATOM     32  H   LIG d   1       9.519  -6.102  -1.394  0.00  0.00     0.023 H 
ENDBRANCH  23  29
ENDBRANCH  20  23
ENDBRANCH  17  20
ENDBRANCH   1  16
BRANCH   3  33
ATOM     33  C   LIG d   1       8.623   2.524  -4.194  0.00  0.00     0.089 A 
ATOM     34  N   LIG d   1       9.209   3.185  -3.203  0.00  0.00    -0.253 NA
ATOM     35  C   LIG d   1      10.016   4.199  -3.433  0.00  0.00     0.028 A 
ATOM     36  C   LIG d   1      10.285   4.615  -4.725  0.00  0.00    -0.044 A 
ATOM     37  H   LIG d   1      10.475   4.713  -2.601  0.00  0.00     0.083 H 
ATOM     38  C   LIG d   1       9.694   3.953  -5.790  0.00  0.00    -0.058 A 
ATOM     39  H   LIG d   1      10.949   5.449  -4.902  0.00  0.00     0.063 H 
ATOM     40  C   LIG d   1       8.853   2.885  -5.520  0.00  0.00    -0.034 A 
ATOM     41  H   LIG d   1       9.887   4.258  -6.807  0.00  0.00     0.062 H 
ATOM     42  H   LIG d   1       8.379   2.344  -6.325  0.00  0.00     0.064 H 
ENDBRANCH   3  33
TORSDOF 6
ENDMDL
MODEL 4
REMARK VINA RESULT:      -6.5      5.219      8.788
REMARK  6 active torsions:
REMARK  status: ('A' for Active; 'I' for Inactive)
REMARK    1  A    between atoms: C_1  and  C_2 
REMARK    2  A    between atoms: C_2  and  C_3 
REMARK    3  A    between atoms: C_2  and  C_4 
REMARK    4  A    between atoms: C_4  and  N_5 
REMARK       I    between atoms: N_5  and  C_6 
REMARK    5  A    between atoms: C_6  and  C_8 
REMARK    6  A    between atoms: C_10  and  C_18 
ROOT
ATOM      1  C   LIG d   1       8.580   2.013  -4.254  0.00  0.00     0.048 A 
ATOM      2  C   LIG d   1       7.664   1.189  -3.619  0.00  0.00    -0.021 A 
ATOM      3  C   LIG d   1       6.746   0.455  -4.386  0.00  0.00     0.090 A 
ATOM      4  N   LIG d   1       6.730   0.529  -5.701  0.00  0.00    -0.245 NA
ATOM      5  C   LIG d   1       7.584   1.304  -6.372  0.00  0.00     0.072 A 
ATOM      6  C   LIG d   1       8.541   2.082  -5.671  0.00  0.00     0.013 A 
ATOM      7  C   LIG d   1       9.429   2.896  -6.384  0.00  0.00    -0.052 A 
ATOM      8  C   LIG d   1       9.362   2.938  -7.745  0.00  0.00    -0.061 A 
ATOM      9  C   LIG d   1       8.421   2.180  -8.438  0.00  0.00    -0.060 A 
ATOM     10  C   LIG d   1       7.550   1.369  -7.778  0.00  0.00    -0.036 A 
ATOM     11  H   LIG d   1       7.658   1.111  -2.542  0.00  0.00     0.065 H 
ATOM     12  H   LIG d   1      10.162   3.489  -5.859  0.00  0.00     0.062 H 
ATOM     13  H   LIG d   1      10.048   3.568  -8.293  0.00  0.00     0.062 H 
ATOM     14  H   LIG d   1       8.388   2.230  -9.516  0.00  0.00     0.062 H 
ATOM     15  H   LIG d   1       6.826   0.787  -8.330  0.00  0.00     0.064 H 
ENDROOT
BRANCH   1  16
ATOM     16  C   LIG d   1       9.562   2.801  -3.480  0.00  0.00     0.245 C 
ATOM     17  N   LIG d   1       9.313   4.095  -3.194  0.00  0.00    -0.311 N 
ATOM     18  H   LIG d   1       8.491   4.509  -3.499  0.00  0.00     0.149 HD
ATOM     19  O   LIG d   1      10.594   2.282  -3.098  0.00  0.00    -0.270 OA
BRANCH  17  20
ATOM     20  C   LIG d   1      10.287   4.875  -2.426  0.00  0.00     0.014 C 
ATOM     21  H   LIG d   1      11.293   4.521  -2.648  0.00  0.00     0.046 H 
ATOM     22  H   LIG d   1      10.087   4.758  -1.360  0.00  0.00     0.046 H 
BRANCH  20  23
ATOM     23  C   LIG d   1      10.171   6.352  -2.808  0.00  0.00    -0.031 C 
ATOM     24  H   LIG d   1      11.168   6.772  -2.942  0.00  0.00     0.031 H 
BRANCH  23  25
ATOM     25  C   LIG d   1       9.384   6.480  -4.114  0.00  0.00    -0.061 C 
ATOM     26  H   LIG d   1       9.839   7.247  -4.739  0.00  0.00     0.023 H 
ATOM     27  H   LIG d   1       9.399   5.526  -4.642  0.00  0.00     0.023 H 
ATOM     28  H   LIG d   1       8.353   6.756  -3.892  0.00  0.00     0.023 H 
ENDBRANCH  23  25
BRANCH  23  29
ATOM     29  C   LIG d   1       9.442   7.111  -1.697  0.00  0.00    -0.061 C 
ATOM     30  H   LIG d   1       9.748   6.718  -0.728  0.00  0.00     0.023 H 
ATOM     31  H   LIG d   1       9.692   8.170  -1.756  0.00  0.00     0.023 H 
ATOM     32  H   LIG d   1       8.366   6.985  -1.817  0.00  0.00     0.023 H 
ENDBRANCH  23  29
ENDBRANCH  20  23
ENDBRANCH  17  20
ENDBRANCH   1  16
BRANCH   3  33
ATOM     33  C   LIG d   1       5.770  -0.425  -3.700  0.00  0.00     0.089 A 
ATOM     34  N   LIG d   1       5.434  -1.587  -4.247  0.00  0.00    -0.253 NA
ATOM     35  C   LIG d   1       4.572  -2.398  -3.670  0.00  0.00     0.028 A 
ATOM     36  C   LIG d   1       3.982  -2.066  -2.464  0.00  0.00    -0.044 A 
ATOM     37  H   LIG d   1       4.322  -3.335  -4.145  0.00  0.00     0.083 H 
ATOM     38  C   LIG d   1       4.304  -0.861  -1.857  0.00  0.00    -0.058 A 
ATOM     39  H   LIG d   1       3.275  -2.738  -1.999  0.00  0.00     0.063 H 
ATOM     40  C   LIG d   1       5.218  -0.029  -2.484  0.00  0.00    -0.034 A 
ATOM     41  H   LIG d   1       3.857  -0.578  -0.915  0.00  0.00     0.062 H 
ATOM     42  H   LIG d   1       5.496   0.913  -2.037  0.00  0.00     0.064 H 
ENDBRANCH   3  33
TORSDOF 6
ENDMDL
MODEL 5
REMARK VINA RESULT:      -6.4      2.295      5.483
REMARK  6 active torsions:
REMARK  status: ('A' for Active; 'I' for Inactive)
REMARK    1  A    between atoms: C_1  and  C_2 
REMARK    2  A    between atoms: C_2  and  C_3 
REMARK    3  A    between atoms: C_2  and  C_4 
REMARK    4  A    between atoms: C_4  and  N_5 
REMARK       I    between atoms: N_5  and  C_6 
REMARK    5  A    between atoms: C_6  and  C_8 
REMARK    6  A    between atoms: C_10  and  C_18 
ROOT
ATOM      1  C   LIG d   1       3.911  -1.777  -8.138  0.00  0.00     0.048 A 
ATOM      2  C   LIG d   1       4.027  -1.762  -6.757  0.00  0.00    -0.021 A 
ATOM      3  C   LIG d   1       4.007  -0.536  -6.074  0.00  0.00     0.090 A 
ATOM      4  N   LIG d   1       3.879   0.608  -6.714  0.00  0.00    -0.245 NA
ATOM      5  C   LIG d   1       3.764   0.662  -8.042  0.00  0.00     0.072 A 
ATOM      6  C   LIG d   1       3.781  -0.532  -8.807  0.00  0.00     0.013 A 
ATOM      7  C   LIG d   1       3.666  -0.464 -10.201  0.00  0.00    -0.052 A 
ATOM      8  C   LIG d   1       3.543   0.749 -10.810  0.00  0.00    -0.061 A 
ATOM      9  C   LIG d   1       3.531   1.925 -10.063  0.00  0.00    -0.060 A 
ATOM     10  C   LIG d   1       3.630   1.897  -8.706  0.00  0.00    -0.036 A 
ATOM     11  H   LIG d   1       4.132  -2.687  -6.210  0.00  0.00     0.065 H 
ATOM     12  H   LIG d   1       3.675  -1.368 -10.790  0.00  0.00     0.062 H 
ATOM     13  H   LIG d   1       3.455   0.799 -11.885  0.00  0.00     0.062 H 
ATOM     14  H   LIG d   1       3.433   2.875 -10.568  0.00  0.00     0.062 H 
ATOM     15  H   LIG d   1       3.619   2.817  -8.142  0.00  0.00     0.064 H 
ENDROOT
BRANCH   1  16
ATOM     16  C   LIG d   1       3.930  -3.049  -8.892  0.00  0.00     0.245 C 
ATOM     17  N   LIG d   1       2.779  -3.712  -9.123  0.00  0.00    -0.311 N 
ATOM     18  H   LIG d   1       1.940  -3.355  -8.795  0.00  0.00     0.149 HD
ATOM     19  O   LIG d   1       4.983  -3.496  -9.304  0.00  0.00    -0.270 OA
BRANCH  17  20
ATOM     20  C   LIG d   1       2.798  -4.972  -9.871  0.00  0.00     0.014 C 
ATOM     21  H   LIG d   1       2.791  -5.809  -9.173  0.00  0.00     0.046 H 
ATOM     22  H   LIG d   1       3.699  -5.017 -10.484  0.00  0.00     0.046 H 
BRANCH  20  23
ATOM     23  C   LIG d   1       1.564  -5.049 -10.771  0.00  0.00    -0.031 C 
ATOM     24  H   LIG d   1       1.875  -5.207 -11.804  0.00  0.00     0.031 H 
BRANCH  23  25
ATOM     25  C   LIG d   1       0.678  -6.213 -10.322  0.00  0.00    -0.061 C 
ATOM     26  H   LIG d   1       1.199  -7.154 -10.494  0.00  0.00     0.023 H 
ATOM     27  H   LIG d   1       0.455  -6.110  -9.260  0.00  0.00     0.023 H 
ATOM     28  H   LIG d   1      -0.252  -6.203 -10.891  0.00  0.00     0.023 H 
ENDBRANCH  23  25
BRANCH  23  29
ATOM     29  C   LIG d   1       0.776  -3.741 -10.670  0.00  0.00    -0.061 C 
ATOM     30  H   LIG d   1      -0.288  -3.963 -10.593  0.00  0.00     0.023 H 
ATOM     31  H   LIG d   1       1.097  -3.190  -9.786  0.00  0.00     0.023 H 
ATOM     32  H   LIG d   1       0.958  -3.138 -11.560  0.00  0.00     0.023 H 
ENDBRANCH  23  29
ENDBRANCH  20  23
ENDBRANCH  17  20
ENDBRANCH   1  16
BRANCH   3  33
ATOM     33  C   LIG d   1       4.130  -0.528  -4.596  0.00  0.00     0.089 A 
ATOM     34  N   LIG d   1       4.410   0.606  -3.966  0.00  0.00    -0.253 NA
ATOM     35  C   LIG d   1       4.527   0.656  -2.656  0.00  0.00     0.028 A 
ATOM     36  C   LIG d   1       4.361  -0.480  -1.883  0.00  0.00    -0.044 A 
ATOM     37  H   LIG d   1       4.756   1.596  -2.177  0.00  0.00     0.083 H 
ATOM     38  C   LIG d   1       4.068  -1.687  -2.501  0.00  0.00    -0.058 A 
ATOM     39  H   LIG d   1       4.460  -0.428  -0.809  0.00  0.00     0.063 H 
ATOM     40  C   LIG d   1       3.945  -1.709  -3.881  0.00  0.00    -0.034 A 
ATOM     41  H   LIG d   1       3.934  -2.588  -1.921  0.00  0.00     0.062 H 
ATOM     42  H   LIG d   1       3.713  -2.630  -4.395  0.00  0.00     0.064 H 
ENDBRANCH   3  33
TORSDOF 6
ENDMDL
MODEL 6
REMARK VINA RESULT:      -6.4      1.843      6.880
REMARK  6 active torsions:
REMARK  status: ('A' for Active; 'I' for Inactive)
REMARK    1  A    between atoms: C_1  and  C_2 
REMARK    2  A    between atoms: C_2  and  C_3 
REMARK    3  A    between atoms: C_2  and  C_4 
REMARK    4  A    between atoms: C_4  and  N_5 
REMARK       I    between atoms: N_5  and  C_6 
REMARK    5  A    between atoms: C_6  and  C_8 
REMARK    6  A    between atoms: C_10  and  C_18 
ROOT
ATOM      1  C   LIG d   1       3.955  -1.812  -6.901  0.00  0.00     0.048 A 
ATOM      2  C   LIG d   1       4.233  -3.128  -6.566  0.00  0.00    -0.021 A 
ATOM      3  C   LIG d   1       3.960  -4.149  -7.489  0.00  0.00     0.090 A 
ATOM      4  N   LIG d   1       3.443  -3.889  -8.673  0.00  0.00    -0.245 NA
ATOM      5  C   LIG d   1       3.152  -2.645  -9.055  0.00  0.00     0.072 A 
ATOM      6  C   LIG d   1       3.392  -1.557  -8.178  0.00  0.00     0.013 A 
ATOM      7  C   LIG d   1       3.077  -0.255  -8.587  0.00  0.00    -0.052 A 
ATOM      8  C   LIG d   1       2.538  -0.046  -9.821  0.00  0.00    -0.061 A 
ATOM      9  C   LIG d   1       2.295  -1.113 -10.684  0.00  0.00    -0.060 A 
ATOM     10  C   LIG d   1       2.599  -2.390 -10.325  0.00  0.00    -0.036 A 
ATOM     11  H   LIG d   1       4.658  -3.367  -5.602  0.00  0.00     0.065 H 
ATOM     12  H   LIG d   1       3.260   0.580  -7.927  0.00  0.00     0.062 H 
ATOM     13  H   LIG d   1       2.295   0.958 -10.133  0.00  0.00     0.062 H 
ATOM     14  H   LIG d   1       1.866  -0.923 -11.657  0.00  0.00     0.062 H 
ATOM     15  H   LIG d   1       2.404  -3.205 -11.005  0.00  0.00     0.064 H 
ENDROOT
BRANCH   1  16
ATOM     16  C   LIG d   1       4.228  -0.710  -5.954  0.00  0.00     0.245 C 
ATOM     17  N   LIG d   1       3.403  -0.500  -4.909  0.00  0.00    -0.311 N 
ATOM     18  H   LIG d   1       2.630  -1.070  -4.779  0.00  0.00     0.149 HD
ATOM     19  O   LIG d   1       5.198   0.005  -6.116  0.00  0.00    -0.270 OA
BRANCH  17  20
ATOM     20  C   LIG d   1       3.675   0.592  -3.970  0.00  0.00     0.014 C 
ATOM     21  H   LIG d   1       2.976   1.409  -4.150  0.00  0.00     0.046 H 
ATOM     22  H   LIG d   1       4.695   0.948  -4.112  0.00  0.00     0.046 H 
BRANCH  20  23
ATOM     23  C   LIG d   1       3.507   0.085  -2.536  0.00  0.00    -0.031 C 
ATOM     24  H   LIG d   1       2.503   0.320  -2.183  0.00  0.00     0.031 H 
BRANCH  23  25
ATOM     25  C   LIG d   1       3.716  -1.431  -2.505  0.00  0.00    -0.061 C 
ATOM     26  H   LIG d   1       4.060  -1.771  -3.480  0.00  0.00     0.023 H 
ATOM     27  H   LIG d   1       4.463  -1.679  -1.750  0.00  0.00     0.023 H 
ATOM     28  H   LIG d   1       2.774  -1.923  -2.259  0.00  0.00     0.023 H 
ENDBRANCH  23  25
BRANCH  23  29
ATOM     29  C   LIG d   1       4.539   0.761  -1.631  0.00  0.00    -0.061 C 
ATOM     30  H   LIG d   1       5.423   1.015  -2.216  0.00  0.00     0.023 H 
ATOM     31  H   LIG d   1       4.111   1.668  -1.206  0.00  0.00     0.023 H 
ATOM     32  H   LIG d   1       4.820   0.079  -0.829  0.00  0.00     0.023 H 
ENDBRANCH  23  29
ENDBRANCH  20  23
ENDBRANCH  17  20
ENDBRANCH   1  16
BRANCH   3  33
ATOM     33  C   LIG d   1       4.262  -5.555  -7.125  0.00  0.00     0.089 A 
ATOM     34  N   LIG d   1       3.999  -6.529  -7.988  0.00  0.00    -0.253 NA
ATOM     35  C   LIG d   1       4.252  -7.789  -7.703  0.00  0.00     0.028 A 
ATOM     36  C   LIG d   1       4.806  -8.146  -6.486  0.00  0.00    -0.044 A 
ATOM     37  H   LIG d   1       4.024  -8.555  -8.430  0.00  0.00     0.083 H 
ATOM     38  C   LIG d   1       5.097  -7.160  -5.555  0.00  0.00    -0.058 A 
ATOM     39  H   LIG d   1       5.009  -9.183  -6.263  0.00  0.00     0.063 H 
ATOM     40  C   LIG d   1       4.825  -5.841  -5.883  0.00  0.00    -0.034 A 
ATOM     41  H   LIG d   1       5.529  -7.412  -4.599  0.00  0.00     0.062 H 
ATOM     42  H   LIG d   1       5.043  -5.048  -5.184  0.00  0.00     0.064 H 
ENDBRANCH   3  33
TORSDOF 6
ENDMDL
MODEL 7
REMARK VINA RESULT:      -6.4      2.475      5.582
REMARK  6 active torsions:
REMARK  status: ('A' for Active; 'I' for Inactive)
REMARK    1  A    between atoms: C_1  and  C_2 
REMARK    2  A    between atoms: C_2  and  C_3 
REMARK    3  A    between atoms: C_2  and  C_4 
REMARK    4  A    between atoms: C_4  and  N_5 
REMARK       I    between atoms: N_5  and  C_6 
REMARK    5  A    between atoms: C_6  and  C_8 
REMARK    6  A    between atoms: C_10  and  C_18 
ROOT
ATOM      1  C   LIG d   1       4.611  -0.789  -5.667  0.00  0.00     0.048 A 
ATOM      2  C   LIG d   1       5.416  -1.913  -5.765  0.00  0.00    -0.021 A 
ATOM      3  C   LIG d   1       5.993  -2.454  -4.606  0.00  0.00     0.090 A 
ATOM      4  N   LIG d   1       5.792  -1.918  -3.420  0.00  0.00    -0.245 NA
ATOM      5  C   LIG d   1       5.029  -0.835  -3.258  0.00  0.00     0.072 A 
ATOM      6  C   LIG d   1       4.413  -0.225  -4.380  0.00  0.00     0.013 A 
ATOM      7  C   LIG d   1       3.620   0.915  -4.200  0.00  0.00    -0.052 A 
ATOM      8  C   LIG d   1       3.451   1.430  -2.949  0.00  0.00    -0.061 A 
ATOM      9  C   LIG d   1       4.059   0.837  -1.845  0.00  0.00    -0.060 A 
ATOM     10  C   LIG d   1       4.827  -0.278  -1.981  0.00  0.00    -0.036 A 
ATOM     11  H   LIG d   1       5.596  -2.371  -6.726  0.00  0.00     0.065 H 
ATOM     12  H   LIG d   1       3.144   1.384  -5.048  0.00  0.00     0.062 H 
ATOM     13  H   LIG d   1       2.840   2.309  -2.813  0.00  0.00     0.062 H 
ATOM     14  H   LIG d   1       3.910   1.263  -0.863  0.00  0.00     0.062 H 
ATOM     15  H   LIG d   1       5.291  -0.726  -1.114  0.00  0.00     0.064 H 
ENDROOT
BRANCH   1  16
ATOM     16  C   LIG d   1       3.986  -0.191  -6.866  0.00  0.00     0.245 C 
ATOM     17  N   LIG d   1       2.870  -0.737  -7.388  0.00  0.00    -0.311 N 
ATOM     18  H   LIG d   1       2.478  -1.523  -6.977  0.00  0.00     0.149 HD
ATOM     19  O   LIG d   1       4.478   0.795  -7.381  0.00  0.00    -0.270 OA
BRANCH  17  20
ATOM     20  C   LIG d   1       2.251  -0.143  -8.575  0.00  0.00     0.014 C 
ATOM     21  H   LIG d   1       2.651   0.859  -8.731  0.00  0.00     0.046 H 
ATOM     22  H   LIG d   1       1.172  -0.085  -8.433  0.00  0.00     0.046 H 
BRANCH  20  23
ATOM     23  C   LIG d   1       2.558  -1.010  -9.798  0.00  0.00    -0.031 C 
ATOM     24  H   LIG d   1       3.487  -0.672 -10.259  0.00  0.00     0.031 H 
BRANCH  23  25
ATOM     25  C   LIG d   1       2.707  -2.469  -9.363  0.00  0.00    -0.061 C 
ATOM     26  H   LIG d   1       1.809  -3.023  -9.634  0.00  0.00     0.023 H 
ATOM     27  H   LIG d   1       3.570  -2.911  -9.861  0.00  0.00     0.023 H 
ATOM     28  H   LIG d   1       2.849  -2.515  -8.282  0.00  0.00     0.023 H 
ENDBRANCH  23  25
BRANCH  23  29
ATOM     29  C   LIG d   1       1.415  -0.893 -10.808  0.00  0.00    -0.061 C 
ATOM     30  H   LIG d   1       1.403  -1.776 -11.446  0.00  0.00     0.023 H 
ATOM     31  H   LIG d   1       0.467  -0.816 -10.276  0.00  0.00     0.023 H 
ATOM     32  H   LIG d   1       1.561  -0.004 -11.420  0.00  0.00     0.023 H 
ENDBRANCH  23  29
ENDBRANCH  20  23
ENDBRANCH  17  20
ENDBRANCH   1  16
BRANCH   3  33
ATOM     33  C   LIG d   1       6.852  -3.658  -4.719  0.00  0.00     0.089 A 
ATOM     34  N   LIG d   1       8.014  -3.700  -4.078  0.00  0.00    -0.253 NA
ATOM     35  C   LIG d   1       8.804  -4.750  -4.151  0.00  0.00     0.028 A 
ATOM     36  C   LIG d   1       8.450  -5.856  -4.904  0.00  0.00    -0.044 A 
ATOM     37  H   LIG d   1       9.743  -4.748  -3.617  0.00  0.00     0.083 H 
ATOM     38  C   LIG d   1       7.244  -5.854  -5.590  0.00  0.00    -0.058 A 
ATOM     39  H   LIG d   1       9.106  -6.712  -4.958  0.00  0.00     0.063 H 
ATOM     40  C   LIG d   1       6.429  -4.738  -5.491  0.00  0.00    -0.034 A 
ATOM     41  H   LIG d   1       6.945  -6.704  -6.185  0.00  0.00     0.062 H 
ATOM     42  H   LIG d   1       5.482  -4.705  -6.008  0.00  0.00     0.064 H 
ENDBRANCH   3  33
TORSDOF 6
ENDMDL
MODEL 8
REMARK VINA RESULT:      -6.2      3.259      5.337
REMARK  6 active torsions:
REMARK  status: ('A' for Active; 'I' for Inactive)
REMARK    1  A    between atoms: C_1  and  C_2 
REMARK    2  A    between atoms: C_2  and  C_3 
REMARK    3  A    between atoms: C_2  and  C_4 
REMARK    4  A    between atoms: C_4  and  N_5 
REMARK       I    between atoms: N_5  and  C_6 
REMARK    5  A    between atoms: C_6  and  C_8 
REMARK    6  A    between atoms: C_10  and  C_18 
ROOT
ATOM      1  C   LIG d   1       6.085  -0.144  -5.359  0.00  0.00     0.048 A 
ATOM      2  C   LIG d   1       5.443  -0.541  -6.522  0.00  0.00    -0.021 A 
ATOM      3  C   LIG d   1       4.042  -0.611  -6.549  0.00  0.00     0.090 A 
ATOM      4  N   LIG d   1       3.315  -0.308  -5.493  0.00  0.00    -0.245 NA
ATOM      5  C   LIG d   1       3.872   0.080  -4.344  0.00  0.00     0.072 A 
ATOM      6  C   LIG d   1       5.282   0.171  -4.232  0.00  0.00     0.013 A 
ATOM      7  C   LIG d   1       5.857   0.573  -3.020  0.00  0.00    -0.052 A 
ATOM      8  C   LIG d   1       5.055   0.868  -1.958  0.00  0.00    -0.061 A 
ATOM      9  C   LIG d   1       3.669   0.775  -2.062  0.00  0.00    -0.060 A 
ATOM     10  C   LIG d   1       3.076   0.399  -3.227  0.00  0.00    -0.036 A 
ATOM     11  H   LIG d   1       6.017  -0.794  -7.401  0.00  0.00     0.065 H 
ATOM     12  H   LIG d   1       6.930   0.648  -2.927  0.00  0.00     0.062 H 
ATOM     13  H   LIG d   1       5.501   1.177  -1.024  0.00  0.00     0.062 H 
ATOM     14  H   LIG d   1       3.055   1.014  -1.206  0.00  0.00     0.062 H 
ATOM     15  H   LIG d   1       2.000   0.332  -3.291  0.00  0.00     0.064 H 
ENDROOT
BRANCH   1  16
ATOM     16  C   LIG d   1       7.560  -0.060  -5.292  0.00  0.00     0.245 C 
ATOM     17  N   LIG d   1       8.185   1.089  -5.618  0.00  0.00    -0.311 N 
ATOM     18  H   LIG d   1       7.667   1.860  -5.898  0.00  0.00     0.149 HD
ATOM     19  O   LIG d   1       8.209  -1.027  -4.942  0.00  0.00    -0.270 OA
BRANCH  17  20
ATOM     20  C   LIG d   1       9.646   1.172  -5.551  0.00  0.00     0.014 C 
ATOM     21  H   LIG d   1      10.059   1.142  -6.559  0.00  0.00     0.046 H 
ATOM     22  H   LIG d   1      10.032   0.331  -4.974  0.00  0.00     0.046 H 
BRANCH  20  23
ATOM     23  C   LIG d   1      10.051   2.483  -4.874  0.00  0.00    -0.031 C 
ATOM     24  H   LIG d   1      11.139   2.549  -4.831  0.00  0.00     0.031 H 
BRANCH  23  25
ATOM     25  C   LIG d   1       9.501   3.662  -5.679  0.00  0.00    -0.061 C 
ATOM     26  H   LIG d   1       9.629   4.582  -5.110  0.00  0.00     0.023 H 
ATOM     27  H   LIG d   1      10.041   3.741  -6.623  0.00  0.00     0.023 H 
ATOM     28  H   LIG d   1       8.441   3.503  -5.879  0.00  0.00     0.023 H 
ENDBRANCH  23  25
BRANCH  23  29
ATOM     29  C   LIG d   1       9.479   2.523  -3.456  0.00  0.00    -0.061 C 
ATOM     30  H   LIG d   1      10.260   2.259  -2.742  0.00  0.00     0.023 H 
ATOM     31  H   LIG d   1       9.114   3.527  -3.239  0.00  0.00     0.023 H 
ATOM     32  H   LIG d   1       8.658   1.812  -3.375  0.00  0.00     0.023 H 
ENDBRANCH  23  29
ENDBRANCH  20  23
ENDBRANCH  17  20
ENDBRANCH   1  16
BRANCH   3  33
ATOM     33  C   LIG d   1       3.362  -1.035  -7.797  0.00  0.00     0.089 A 
ATOM     34  N   LIG d   1       3.645  -2.217  -8.331  0.00  0.00    -0.253 NA
ATOM     35  C   LIG d   1       3.063  -2.631  -9.436  0.00  0.00     0.028 A 
ATOM     36  C   LIG d   1       2.130  -1.843 -10.087  0.00  0.00    -0.044 A 
ATOM     37  H   LIG d   1       3.318  -3.599  -9.842  0.00  0.00     0.083 H 
ATOM     38  C   LIG d   1       1.805  -0.600  -9.564  0.00  0.00    -0.058 A 
ATOM     39  H   LIG d   1       1.659  -2.193 -10.994  0.00  0.00     0.063 H 
ATOM     40  C   LIG d   1       2.429  -0.192  -8.396  0.00  0.00    -0.034 A 
ATOM     41  H   LIG d   1       1.081   0.033 -10.053  0.00  0.00     0.062 H 
ATOM     42  H   LIG d   1       2.196   0.767  -7.959  0.00  0.00     0.064 H 
ENDBRANCH   3  33
TORSDOF 6
ENDMDL
MODEL 9
REMARK VINA RESULT:      -6.1      2.526      7.633
REMARK  6 active torsions:
REMARK  status: ('A' for Active; 'I' for Inactive)
REMARK    1  A    between atoms: C_1  and  C_2 
REMARK    2  A    between atoms: C_2  and  C_3 
REMARK    3  A    between atoms: C_2  and  C_4 
REMARK    4  A    between atoms: C_4  and  N_5 
REMARK       I    between atoms: N_5  and  C_6 
REMARK    5  A    between atoms: C_6  and  C_8 
REMARK    6  A    between atoms: C_10  and  C_18 
ROOT
ATOM      1  C   LIG d   1       4.936  -4.504  -5.771  0.00  0.00     0.048 A 
ATOM      2  C   LIG d   1       5.017  -5.860  -5.500  0.00  0.00    -0.021 A 
ATOM      3  C   LIG d   1       4.511  -6.783  -6.429  0.00  0.00     0.090 A 
ATOM      4  N   LIG d   1       3.956  -6.392  -7.558  0.00  0.00    -0.245 NA
ATOM      5  C   LIG d   1       3.846  -5.101  -7.877  0.00  0.00     0.072 A 
ATOM      6  C   LIG d   1       4.328  -4.105  -6.991  0.00  0.00     0.013 A 
ATOM      7  C   LIG d   1       4.203  -2.753  -7.332  0.00  0.00    -0.052 A 
ATOM      8  C   LIG d   1       3.614  -2.407  -8.512  0.00  0.00    -0.061 A 
ATOM      9  C   LIG d   1       3.134  -3.382  -9.384  0.00  0.00    -0.060 A 
ATOM     10  C   LIG d   1       3.249  -4.705  -9.090  0.00  0.00    -0.036 A 
ATOM     11  H   LIG d   1       5.468  -6.206  -4.582  0.00  0.00     0.065 H 
ATOM     12  H   LIG d   1       4.570  -1.988  -6.665  0.00  0.00     0.062 H 
ATOM     13  H   LIG d   1       3.517  -1.363  -8.773  0.00  0.00     0.062 H 
ATOM     14  H   LIG d   1       2.671  -3.082 -10.313  0.00  0.00     0.062 H 
ATOM     15  H   LIG d   1       2.872  -5.448  -9.777  0.00  0.00     0.064 H 
ENDROOT
BRANCH   1  16
ATOM     16  C   LIG d   1       5.457  -3.502  -4.817  0.00  0.00     0.245 C 
ATOM     17  N   LIG d   1       4.629  -2.932  -3.919  0.00  0.00    -0.311 N 
ATOM     18  H   LIG d   1       3.691  -3.177  -3.901  0.00  0.00     0.149 HD
ATOM     19  O   LIG d   1       6.634  -3.195  -4.839  0.00  0.00    -0.270 OA
BRANCH  17  20
ATOM     20  C   LIG d   1       5.147  -1.940  -2.972  0.00  0.00     0.014 C 
ATOM     21  H   LIG d   1       5.756  -1.211  -3.507  0.00  0.00     0.046 H 
ATOM     22  H   LIG d   1       5.756  -2.440  -2.219  0.00  0.00     0.046 H 
BRANCH  20  23
ATOM     23  C   LIG d   1       3.978  -1.226  -2.293  0.00  0.00    -0.031 C 
ATOM     24  H   LIG d   1       3.601  -1.841  -1.475  0.00  0.00     0.031 H 
BRANCH  23  25
ATOM     25  C   LIG d   1       4.454   0.120  -1.740  0.00  0.00    -0.061 C 
ATOM     26  H   LIG d   1       3.994   0.928  -2.306  0.00  0.00     0.023 H 
ATOM     27  H   LIG d   1       4.170   0.203  -0.691  0.00  0.00     0.023 H 
ATOM     28  H   LIG d   1       5.539   0.185  -1.829  0.00  0.00     0.023 H 
ENDBRANCH  23  25
BRANCH  23  29
ATOM     29  C   LIG d   1       2.861  -0.991  -3.312  0.00  0.00    -0.061 C 
ATOM     30  H   LIG d   1       2.180  -1.842  -3.307  0.00  0.00     0.023 H 
ATOM     31  H   LIG d   1       2.314  -0.086  -3.050  0.00  0.00     0.023 H 
ATOM     32  H   LIG d   1       3.294  -0.879  -4.306  0.00  0.00     0.023 H 
ENDBRANCH  23  29
ENDBRANCH  20  23
ENDBRANCH  17  20
ENDBRANCH   1  16
BRANCH   3  33
ATOM     33  C   LIG d   1       4.603  -8.233  -6.133  0.00  0.00     0.089 A 
ATOM     34  N   LIG d   1       4.442  -8.661  -4.887  0.00  0.00    -0.253 NA
ATOM     35  C   LIG d   1       4.515  -9.940  -4.583  0.00  0.00     0.028 A 
ATOM     36  C   LIG d   1       4.764 -10.890  -5.557  0.00  0.00    -0.044 A 
ATOM     37  H   LIG d   1       4.379 -10.252  -3.557  0.00  0.00     0.083 H 
ATOM     38  C   LIG d   1       4.939 -10.486  -6.872  0.00  0.00    -0.058 A 
ATOM     39  H   LIG d   1       4.823 -11.936  -5.296  0.00  0.00     0.063 H 
ATOM     40  C   LIG d   1       4.852  -9.134  -7.165  0.00  0.00    -0.034 A 
ATOM     41  H   LIG d   1       5.136 -11.207  -7.651  0.00  0.00     0.062 H 
ATOM     42  H   LIG d   1       4.978  -8.785  -8.179  0.00  0.00     0.064 H 
ENDBRANCH   3  33
TORSDOF 6
ENDMDL
