MODEL 1
REMARK VINA RESULT:      -7.5      0.000      0.000
REMARK  10 active torsions:
REMARK  status: ('A' for Active; 'I' for Inactive)
REMARK    1  A    between atoms: C_1  and  C_2 
REMARK    2  A    between atoms: C_14  and  C_26 
REMARK    3  A    between atoms: C_16  and  C_18 
REMARK    4  A    between atoms: C_18  and  C_20 
REMARK    5  A    between atoms: C_28  and  O_36 
REMARK    6  A    between atoms: C_29  and  O_34 
REMARK    7  A    between atoms: C_30  and  O_32 
REMARK    8  A    between atoms: O_32  and  C_33 
REMARK    9  A    between atoms: O_34  and  C_35 
REMARK   10  A    between atoms: O_36  and  C_37 
ROOT
ATOM      1  C   LIG d   1       2.936   0.685  -8.932  0.00  0.00    -0.049 A 
ATOM      2  C   LIG d   1       2.325   0.106 -10.031  0.00  0.00    -0.058 A 
ATOM      3  C   LIG d   1       2.452  -1.247 -10.277  0.00  0.00    -0.053 A 
ATOM      4  C   LIG d   1       3.199  -2.036  -9.411  0.00  0.00    -0.004 A 
ATOM      5  C   LIG d   1       3.807  -1.440  -8.285  0.00  0.00     0.038 A 
ATOM      6  C   LIG d   1       3.685  -0.087  -8.059  0.00  0.00    -0.037 A 
ATOM      7  N   LIG d   1       4.495  -2.311  -7.446  0.00  0.00    -0.311 N 
ATOM      8  C   LIG d   1       4.060  -3.716  -7.280  0.00  0.00     0.063 C 
ATOM      9  H   LIG d   1       3.160  -3.758  -6.667  0.00  0.00     0.056 H 
ATOM     10  C   LIG d   1       3.778  -4.275  -8.648  0.00  0.00    -0.062 C 
ATOM     11  C   LIG d   1       3.389  -3.482  -9.634  0.00  0.00    -0.055 C 
ATOM     12  C   LIG d   1       5.207  -4.432  -6.571  0.00  0.00     0.127 A 
ATOM     13  C   LIG d   1       5.866  -3.310  -5.740  0.00  0.00     0.032 C 
ATOM     14  H   LIG d   1       5.326  -3.146  -4.808  0.00  0.00     0.039 H 
ATOM     15  C   LIG d   1       5.725  -2.088  -6.685  0.00  0.00     0.095 C 
ATOM     16  H   LIG d   1       6.580  -2.035  -7.359  0.00  0.00     0.059 H 
ATOM     17  C   LIG d   1       4.722  -5.546  -5.687  0.00  0.00     0.180 A 
ATOM     18  O   LIG d   1       3.918  -5.456  -4.783  0.00  0.00    -0.291 OA
ATOM     19  C   LIG d   1       5.409  -6.762  -6.128  0.00  0.00     0.029 A 
ATOM     20  C   LIG d   1       5.311  -8.064  -5.629  0.00  0.00    -0.051 A 
ATOM     21  C   LIG d   1       6.087  -9.037  -6.245  0.00  0.00    -0.061 A 
ATOM     22  C   LIG d   1       6.922  -8.745  -7.306  0.00  0.00    -0.061 A 
ATOM     23  C   LIG d   1       7.038  -7.461  -7.821  0.00  0.00    -0.051 A 
ATOM     24  C   LIG d   1       6.269  -6.462  -7.218  0.00  0.00     0.029 A 
ATOM     25  C   LIG d   1       6.186  -5.035  -7.539  0.00  0.00     0.180 A 
ATOM     26  O   LIG d   1       6.791  -4.454  -8.414  0.00  0.00    -0.291 OA
ATOM     27  H   LIG d   1       1.742   0.719 -10.703  0.00  0.00     0.062 H 
ATOM     28  H   LIG d   1       1.974  -1.690 -11.138  0.00  0.00     0.062 H 
ATOM     29  H   LIG d   1       4.166   0.367  -7.206  0.00  0.00     0.064 H 
ATOM     30  H   LIG d   1       3.911  -5.330  -8.837  0.00  0.00     0.059 H 
ATOM     31  H   LIG d   1       3.196  -3.900 -10.612  0.00  0.00     0.062 H 
ATOM     32  H   LIG d   1       4.661  -8.302  -4.799  0.00  0.00     0.062 H 
ATOM     33  H   LIG d   1       6.035 -10.053  -5.884  0.00  0.00     0.062 H 
ATOM     34  H   LIG d   1       7.503  -9.541  -7.748  0.00  0.00     0.062 H 
ATOM     35  H   LIG d   1       7.695  -7.243  -8.650  0.00  0.00     0.062 H 
ENDROOT
BRANCH  13  36
ATOM     36  C   LIG d   1       7.316  -3.620  -5.471  0.00  0.00    -0.034 A 
ATOM     37  C   LIG d   1       7.653  -4.619  -4.578  0.00  0.00    -0.013 A 
ATOM     38  C   LIG d   1       8.986  -4.911  -4.332  0.00  0.00     0.165 A 
ATOM     39  H   LIG d   1       6.878  -5.176  -4.073  0.00  0.00     0.066 H 
ATOM     40  C   LIG d   1       9.984  -4.190  -4.977  0.00  0.00     0.203 A 
ATOM     41  C   LIG d   1       9.641  -3.183  -5.871  0.00  0.00     0.165 A 
ATOM     42  C   LIG d   1       8.306  -2.901  -6.116  0.00  0.00    -0.013 A 
ATOM     43  H   LIG d   1       8.038  -2.118  -6.809  0.00  0.00     0.066 H 
BRANCH  38  44
ATOM     44  O   LIG d   1       9.318  -5.898  -3.456  0.00  0.00    -0.491 OA
BRANCH  44  45
ATOM     45  C   LIG d   1       8.947  -7.231  -3.812  0.00  0.00     0.079 C 
ATOM     46  H   LIG d   1       9.602  -7.939  -3.304  0.00  0.00     0.066 H 
ATOM     47  H   LIG d   1       7.915  -7.413  -3.513  0.00  0.00     0.066 H 
ATOM     48  H   LIG d   1       9.041  -7.358  -4.891  0.00  0.00     0.066 H 
ENDBRANCH  44  45
ENDBRANCH  38  44
BRANCH  40  49
ATOM     49  O   LIG d   1      11.294  -4.470  -4.735  0.00  0.00    -0.488 OA
BRANCH  49  50
ATOM     50  C   LIG d   1      11.905  -3.809  -3.625  0.00  0.00     0.079 C 
ATOM     51  H   LIG d   1      11.886  -4.466  -2.756  0.00  0.00     0.066 H 
ATOM     52  H   LIG d   1      12.937  -3.563  -3.873  0.00  0.00     0.066 H 
ATOM     53  H   LIG d   1      11.357  -2.894  -3.401  0.00  0.00     0.066 H 
ENDBRANCH  49  50
ENDBRANCH  40  49
BRANCH  41  54
ATOM     54  O   LIG d   1      10.614  -2.475  -6.505  0.00  0.00    -0.491 OA
BRANCH  54  55
ATOM     55  C   LIG d   1      10.827  -1.131  -6.069  0.00  0.00     0.079 C 
ATOM     56  H   LIG d   1      10.317  -0.973  -5.119  0.00  0.00     0.066 H 
ATOM     57  H   LIG d   1      11.895  -0.955  -5.943  0.00  0.00     0.066 H 
ATOM     58  H   LIG d   1      10.431  -0.441  -6.814  0.00  0.00     0.066 H 
ENDBRANCH  54  55
ENDBRANCH  41  54
ENDBRANCH  13  36
BRANCH  15  59
ATOM     59  C   LIG d   1       5.616  -0.818  -5.881  0.00  0.00     0.184 C 
ATOM     60  O   LIG d   1       6.182   0.187  -6.254  0.00  0.00    -0.290 OA
BRANCH  59  61
ATOM     61  C   LIG d   1       4.821  -0.799  -4.643  0.00  0.00     0.019 A 
ATOM     62  C   LIG d   1       3.465  -0.460  -4.684  0.00  0.00    -0.051 A 
ATOM     63  C   LIG d   1       2.726  -0.449  -3.519  0.00  0.00    -0.061 A 
ATOM     64  H   LIG d   1       2.996  -0.212  -5.625  0.00  0.00     0.062 H 
ATOM     65  C   LIG d   1       3.325  -0.760  -2.312  0.00  0.00    -0.062 A 
ATOM     66  H   LIG d   1       1.677  -0.191  -3.550  0.00  0.00     0.062 H 
ATOM     67  C   LIG d   1       4.668  -1.091  -2.262  0.00  0.00    -0.061 A 
ATOM     68  H   LIG d   1       2.743  -0.745  -1.403  0.00  0.00     0.062 H 
ATOM     69  C   LIG d   1       5.420  -1.113  -3.419  0.00  0.00    -0.051 A 
ATOM     70  H   LIG d   1       5.129  -1.334  -1.316  0.00  0.00     0.062 H 
ATOM     71  H   LIG d   1       6.467  -1.372  -3.378  0.00  0.00     0.062 H 
ENDBRANCH  59  61
ENDBRANCH  15  59
BRANCH   1  72
ATOM     72  C   LIG d   1       2.793   2.165  -8.687  0.00  0.00    -0.040 C 
ATOM     73  H   LIG d   1       1.948   2.343  -8.023  0.00  0.00     0.028 H 
ATOM     74  H   LIG d   1       3.705   2.546  -8.225  0.00  0.00     0.028 H 
ATOM     75  H   LIG d   1       2.625   2.676  -9.635  0.00  0.00     0.028 H 
ENDBRANCH   1  72
TORSDOF 10
ENDMDL
MODEL 2
REMARK VINA RESULT:      -7.4      0.005      1.908
REMARK  10 active torsions:
REMARK  status: ('A' for Active; 'I' for Inactive)
REMARK    1  A    between atoms: C_1  and  C_2 
REMARK    2  A    between atoms: C_14  and  C_26 
REMARK    3  A    between atoms: C_16  and  C_18 
REMARK    4  A    between atoms: C_18  and  C_20 
REMARK    5  A    between atoms: C_28  and  O_36 
REMARK    6  A    between atoms: C_29  and  O_34 
REMARK    7  A    between atoms: C_30  and  O_32 
REMARK    8  A    between atoms: O_32  and  C_33 
REMARK    9  A    between atoms: O_34  and  C_35 
REMARK   10  A    between atoms: O_36  and  C_37 
ROOT
ATOM      1  C   LIG d   1       2.936   0.685  -8.933  0.00  0.00    -0.049 A 
ATOM      2  C   LIG d   1       2.325   0.107 -10.032  0.00  0.00    -0.058 A 
ATOM      3  C   LIG d   1       2.453  -1.247 -10.279  0.00  0.00    -0.053 A 
ATOM      4  C   LIG d   1       3.200  -2.036  -9.412  0.00  0.00    -0.004 A 
ATOM      5  C   LIG d   1       3.808  -1.440  -8.286  0.00  0.00     0.038 A 
ATOM      6  C   LIG d   1       3.685  -0.088  -8.060  0.00  0.00    -0.037 A 
ATOM      7  N   LIG d   1       4.495  -2.311  -7.447  0.00  0.00    -0.311 N 
ATOM      8  C   LIG d   1       4.061  -3.717  -7.282  0.00  0.00     0.063 C 
ATOM      9  H   LIG d   1       3.160  -3.759  -6.670  0.00  0.00     0.056 H 
ATOM     10  C   LIG d   1       3.778  -4.275  -8.650  0.00  0.00    -0.062 C 
ATOM     11  C   LIG d   1       3.390  -3.482  -9.636  0.00  0.00    -0.055 C 
ATOM     12  C   LIG d   1       5.207  -4.432  -6.573  0.00  0.00     0.127 A 
ATOM     13  C   LIG d   1       5.866  -3.310  -5.741  0.00  0.00     0.032 C 
ATOM     14  H   LIG d   1       5.325  -3.147  -4.809  0.00  0.00     0.039 H 
ATOM     15  C   LIG d   1       5.725  -2.088  -6.686  0.00  0.00     0.095 C 
ATOM     16  H   LIG d   1       6.580  -2.035  -7.360  0.00  0.00     0.059 H 
ATOM     17  C   LIG d   1       4.722  -5.547  -5.689  0.00  0.00     0.180 A 
ATOM     18  O   LIG d   1       3.918  -5.457  -4.786  0.00  0.00    -0.291 OA
ATOM     19  C   LIG d   1       5.410  -6.763  -6.131  0.00  0.00     0.029 A 
ATOM     20  C   LIG d   1       5.311  -8.065  -5.632  0.00  0.00    -0.051 A 
ATOM     21  C   LIG d   1       6.088  -9.037  -6.248  0.00  0.00    -0.061 A 
ATOM     22  C   LIG d   1       6.923  -8.745  -7.309  0.00  0.00    -0.061 A 
ATOM     23  C   LIG d   1       7.039  -7.461  -7.823  0.00  0.00    -0.051 A 
ATOM     24  C   LIG d   1       6.270  -6.462  -7.220  0.00  0.00     0.029 A 
ATOM     25  C   LIG d   1       6.186  -5.035  -7.540  0.00  0.00     0.180 A 
ATOM     26  O   LIG d   1       6.792  -4.453  -8.415  0.00  0.00    -0.291 OA
ATOM     27  H   LIG d   1       1.742   0.720 -10.703  0.00  0.00     0.062 H 
ATOM     28  H   LIG d   1       1.975  -1.689 -11.140  0.00  0.00     0.062 H 
ATOM     29  H   LIG d   1       4.166   0.366  -7.207  0.00  0.00     0.064 H 
ATOM     30  H   LIG d   1       3.911  -5.330  -8.839  0.00  0.00     0.059 H 
ATOM     31  H   LIG d   1       3.198  -3.899 -10.615  0.00  0.00     0.062 H 
ATOM     32  H   LIG d   1       4.661  -8.304  -4.803  0.00  0.00     0.062 H 
ATOM     33  H   LIG d   1       6.036 -10.054  -5.888  0.00  0.00     0.062 H 
ATOM     34  H   LIG d   1       7.504  -9.541  -7.751  0.00  0.00     0.062 H 
ATOM     35  H   LIG d   1       7.696  -7.243  -8.652  0.00  0.00     0.062 H 
ENDROOT
BRANCH  13  36
ATOM     36  C   LIG d   1       7.316  -3.620  -5.472  0.00  0.00    -0.034 A 
ATOM     37  C   LIG d   1       8.306  -2.905  -6.120  0.00  0.00    -0.013 A 
ATOM     38  C   LIG d   1       9.641  -3.184  -5.871  0.00  0.00     0.165 A 
ATOM     39  H   LIG d   1       8.039  -2.125  -6.817  0.00  0.00     0.066 H 
ATOM     40  C   LIG d   1       9.984  -4.191  -4.977  0.00  0.00     0.203 A 
ATOM     41  C   LIG d   1       8.986  -4.912  -4.332  0.00  0.00     0.165 A 
ATOM     42  C   LIG d   1       7.653  -4.623  -4.582  0.00  0.00    -0.013 A 
ATOM     43  H   LIG d   1       6.877  -5.183  -4.082  0.00  0.00     0.066 H 
BRANCH  38  44
ATOM     44  O   LIG d   1      10.615  -2.475  -6.504  0.00  0.00    -0.491 OA
BRANCH  44  45
ATOM     45  C   LIG d   1      10.808  -1.122  -6.086  0.00  0.00     0.079 C 
ATOM     46  H   LIG d   1       9.906  -0.762  -5.592  0.00  0.00     0.066 H 
ATOM     47  H   LIG d   1      11.647  -1.074  -5.391  0.00  0.00     0.066 H 
ATOM     48  H   LIG d   1      11.020  -0.500  -6.956  0.00  0.00     0.066 H 
ENDBRANCH  44  45
ENDBRANCH  38  44
BRANCH  40  49
ATOM     49  O   LIG d   1      11.293  -4.471  -4.734  0.00  0.00    -0.488 OA
BRANCH  49  50
ATOM     50  C   LIG d   1      11.907  -3.799  -3.631  0.00  0.00     0.079 C 
ATOM     51  H   LIG d   1      12.605  -4.474  -3.138  0.00  0.00     0.066 H 
ATOM     52  H   LIG d   1      12.442  -2.922  -3.994  0.00  0.00     0.066 H 
ATOM     53  H   LIG d   1      11.139  -3.489  -2.922  0.00  0.00     0.066 H 
ENDBRANCH  49  50
ENDBRANCH  40  49
BRANCH  41  54
ATOM     54  O   LIG d   1       9.316  -5.899  -3.457  0.00  0.00    -0.491 OA
BRANCH  54  55
ATOM     55  C   LIG d   1       8.945  -7.232  -3.812  0.00  0.00     0.079 C 
ATOM     56  H   LIG d   1       9.750  -7.693  -4.383  0.00  0.00     0.066 H 
ATOM     57  H   LIG d   1       8.762  -7.812  -2.907  0.00  0.00     0.066 H 
ATOM     58  H   LIG d   1       8.038  -7.207  -4.416  0.00  0.00     0.066 H 
ENDBRANCH  54  55
ENDBRANCH  41  54
ENDBRANCH  13  36
BRANCH  15  59
ATOM     59  C   LIG d   1       5.616  -0.819  -5.881  0.00  0.00     0.184 C 
ATOM     60  O   LIG d   1       6.182   0.187  -6.254  0.00  0.00    -0.290 OA
BRANCH  59  61
ATOM     61  C   LIG d   1       4.821  -0.800  -4.643  0.00  0.00     0.019 A 
ATOM     62  C   LIG d   1       3.465  -0.460  -4.683  0.00  0.00    -0.051 A 
ATOM     63  C   LIG d   1       2.726  -0.449  -3.519  0.00  0.00    -0.061 A 
ATOM     64  H   LIG d   1       2.997  -0.211  -5.624  0.00  0.00     0.062 H 
ATOM     65  C   LIG d   1       3.326  -0.763  -2.312  0.00  0.00    -0.062 A 
ATOM     66  H   LIG d   1       1.678  -0.191  -3.549  0.00  0.00     0.062 H 
ATOM     67  C   LIG d   1       4.668  -1.095  -2.263  0.00  0.00    -0.061 A 
ATOM     68  H   LIG d   1       2.743  -0.748  -1.403  0.00  0.00     0.062 H 
ATOM     69  C   LIG d   1       5.420  -1.116  -3.419  0.00  0.00    -0.051 A 
ATOM     70  H   LIG d   1       5.129  -1.340  -1.317  0.00  0.00     0.062 H 
ATOM     71  H   LIG d   1       6.467  -1.377  -3.379  0.00  0.00     0.062 H 
ENDBRANCH  59  61
ENDBRANCH  15  59
BRANCH   1  72
ATOM     72  C   LIG d   1       2.793   2.165  -8.687  0.00  0.00    -0.040 C 
ATOM     73  H   LIG d   1       3.238   2.716  -9.515  0.00  0.00     0.028 H 
ATOM     74  H   LIG d   1       1.735   2.419  -8.608  0.00  0.00     0.028 H 
ATOM     75  H   LIG d   1       3.300   2.430  -7.760  0.00  0.00     0.028 H 
ENDBRANCH   1  72
TORSDOF 10
ENDMDL
MODEL 3
REMARK VINA RESULT:      -7.1      2.411      5.843
REMARK  10 active torsions:
REMARK  status: ('A' for Active; 'I' for Inactive)
REMARK    1  A    between atoms: C_1  and  C_2 
REMARK    2  A    between atoms: C_14  and  C_26 
REMARK    3  A    between atoms: C_16  and  C_18 
REMARK    4  A    between atoms: C_18  and  C_20 
REMARK    5  A    between atoms: C_28  and  O_36 
REMARK    6  A    between atoms: C_29  and  O_34 
REMARK    7  A    between atoms: C_30  and  O_32 
REMARK    8  A    between atoms: O_32  and  C_33 
REMARK    9  A    between atoms: O_34  and  C_35 
REMARK   10  A    between atoms: O_36  and  C_37 
ROOT
ATOM      1  C   LIG d   1       9.708   2.145  -5.124  0.00  0.00    -0.049 A 
ATOM      2  C   LIG d   1       9.911   3.074  -6.130  0.00  0.00    -0.058 A 
ATOM      3  C   LIG d   1       9.159   3.035  -7.289  0.00  0.00    -0.053 A 
ATOM      4  C   LIG d   1       8.187   2.054  -7.443  0.00  0.00    -0.004 A 
ATOM      5  C   LIG d   1       7.977   1.119  -6.407  0.00  0.00     0.038 A 
ATOM      6  C   LIG d   1       8.743   1.160  -5.264  0.00  0.00    -0.037 A 
ATOM      7  N   LIG d   1       6.953   0.204  -6.625  0.00  0.00    -0.311 N 
ATOM      8  C   LIG d   1       5.759   0.567  -7.422  0.00  0.00     0.063 C 
ATOM      9  H   LIG d   1       5.113   1.228  -6.844  0.00  0.00     0.056 H 
ATOM     10  C   LIG d   1       6.232   1.269  -8.666  0.00  0.00    -0.062 C 
ATOM     11  C   LIG d   1       7.369   1.948  -8.667  0.00  0.00    -0.055 C 
ATOM     12  C   LIG d   1       5.034  -0.743  -7.718  0.00  0.00     0.127 A 
ATOM     13  C   LIG d   1       5.404  -1.634  -6.512  0.00  0.00     0.032 C 
ATOM     14  H   LIG d   1       4.765  -1.416  -5.656  0.00  0.00     0.039 H 
ATOM     15  C   LIG d   1       6.869  -1.205  -6.236  0.00  0.00     0.095 C 
ATOM     16  H   LIG d   1       7.554  -1.802  -6.835  0.00  0.00     0.059 H 
ATOM     17  C   LIG d   1       3.546  -0.560  -7.819  0.00  0.00     0.180 A 
ATOM     18  O   LIG d   1       2.816  -0.083  -6.976  0.00  0.00    -0.291 OA
ATOM     19  C   LIG d   1       3.148  -1.069  -9.134  0.00  0.00     0.029 A 
ATOM     20  C   LIG d   1       1.876  -1.130  -9.710  0.00  0.00    -0.051 A 
ATOM     21  C   LIG d   1       1.787  -1.670 -10.987  0.00  0.00    -0.061 A 
ATOM     22  C   LIG d   1       2.897  -2.127 -11.668  0.00  0.00    -0.061 A 
ATOM     23  C   LIG d   1       4.172  -2.078 -11.119  0.00  0.00    -0.051 A 
ATOM     24  C   LIG d   1       4.290  -1.541  -9.834  0.00  0.00     0.029 A 
ATOM     25  C   LIG d   1       5.487  -1.364  -9.009  0.00  0.00     0.180 A 
ATOM     26  O   LIG d   1       6.624  -1.663  -9.310  0.00  0.00    -0.291 OA
ATOM     27  H   LIG d   1      10.665   3.838  -6.008  0.00  0.00     0.062 H 
ATOM     28  H   LIG d   1       9.326   3.762  -8.070  0.00  0.00     0.062 H 
ATOM     29  H   LIG d   1       8.591   0.433  -4.481  0.00  0.00     0.064 H 
ATOM     30  H   LIG d   1       5.651   1.205  -9.574  0.00  0.00     0.059 H 
ATOM     31  H   LIG d   1       7.697   2.441  -9.571  0.00  0.00     0.062 H 
ATOM     32  H   LIG d   1       1.001  -0.776  -9.185  0.00  0.00     0.062 H 
ATOM     33  H   LIG d   1       0.819  -1.732 -11.462  0.00  0.00     0.062 H 
ATOM     34  H   LIG d   1       2.771  -2.537 -12.660  0.00  0.00     0.062 H 
ATOM     35  H   LIG d   1       5.034  -2.439 -11.660  0.00  0.00     0.062 H 
ENDROOT
BRANCH  13  36
ATOM     36  C   LIG d   1       5.330  -3.094  -6.879  0.00  0.00    -0.034 A 
ATOM     37  C   LIG d   1       4.137  -3.633  -7.323  0.00  0.00    -0.013 A 
ATOM     38  C   LIG d   1       4.067  -4.975  -7.666  0.00  0.00     0.165 A 
ATOM     39  H   LIG d   1       3.261  -3.008  -7.407  0.00  0.00     0.066 H 
ATOM     40  C   LIG d   1       5.193  -5.780  -7.553  0.00  0.00     0.203 A 
ATOM     41  C   LIG d   1       6.390  -5.235  -7.101  0.00  0.00     0.165 A 
ATOM     42  C   LIG d   1       6.454  -3.891  -6.765  0.00  0.00    -0.013 A 
ATOM     43  H   LIG d   1       7.382  -3.467  -6.413  0.00  0.00     0.066 H 
BRANCH  38  44
ATOM     44  O   LIG d   1       2.894  -5.504  -8.109  0.00  0.00    -0.491 OA
BRANCH  44  45
ATOM     45  C   LIG d   1       2.534  -5.238  -9.466  0.00  0.00     0.079 C 
ATOM     46  H   LIG d   1       1.609  -5.762  -9.707  0.00  0.00     0.066 H 
ATOM     47  H   LIG d   1       2.388  -4.165  -9.599  0.00  0.00     0.066 H 
ATOM     48  H   LIG d   1       3.330  -5.580 -10.127  0.00  0.00     0.066 H 
ENDBRANCH  44  45
ENDBRANCH  38  44
BRANCH  40  49
ATOM     49  O   LIG d   1       5.127  -7.098  -7.885  0.00  0.00    -0.488 OA
BRANCH  49  50
ATOM     50  C   LIG d   1       4.764  -8.011  -6.847  0.00  0.00     0.079 C 
ATOM     51  H   LIG d   1       4.809  -9.031  -7.228  0.00  0.00     0.066 H 
ATOM     52  H   LIG d   1       5.456  -7.904  -6.011  0.00  0.00     0.066 H 
ATOM     53  H   LIG d   1       3.751  -7.793  -6.509  0.00  0.00     0.066 H 
ENDBRANCH  49  50
ENDBRANCH  40  49
BRANCH  41  54
ATOM     54  O   LIG d   1       7.495  -6.018  -6.988  0.00  0.00    -0.491 OA
BRANCH  54  55
ATOM     55  C   LIG d   1       7.953  -6.308  -5.666  0.00  0.00     0.079 C 
ATOM     56  H   LIG d   1       7.118  -6.664  -5.063  0.00  0.00     0.066 H 
ATOM     57  H   LIG d   1       8.725  -7.076  -5.709  0.00  0.00     0.066 H 
ATOM     58  H   LIG d   1       8.366  -5.403  -5.219  0.00  0.00     0.066 H 
ENDBRANCH  54  55
ENDBRANCH  41  54
ENDBRANCH  13  36
BRANCH  15  59
ATOM     59  C   LIG d   1       7.187  -1.358  -4.771  0.00  0.00     0.184 C 
ATOM     60  O   LIG d   1       8.265  -1.795  -4.427  0.00  0.00    -0.290 OA
BRANCH  59  61
ATOM     61  C   LIG d   1       6.191  -0.978  -3.758  0.00  0.00     0.019 A 
ATOM     62  C   LIG d   1       6.057   0.359  -3.370  0.00  0.00    -0.051 A 
ATOM     63  C   LIG d   1       5.117   0.708  -2.423  0.00  0.00    -0.061 A 
ATOM     64  H   LIG d   1       6.686   1.117  -3.814  0.00  0.00     0.062 H 
ATOM     65  C   LIG d   1       4.315  -0.262  -1.849  0.00  0.00    -0.062 A 
ATOM     66  H   LIG d   1       5.011   1.741  -2.125  0.00  0.00     0.062 H 
ATOM     67  C   LIG d   1       4.444  -1.588  -2.223  0.00  0.00    -0.061 A 
ATOM     68  H   LIG d   1       3.584   0.017  -1.105  0.00  0.00     0.062 H 
ATOM     69  C   LIG d   1       5.376  -1.953  -3.173  0.00  0.00    -0.051 A 
ATOM     70  H   LIG d   1       3.814  -2.340  -1.772  0.00  0.00     0.062 H 
ATOM     71  H   LIG d   1       5.474  -2.988  -3.465  0.00  0.00     0.062 H 
ENDBRANCH  59  61
ENDBRANCH  15  59
BRANCH   1  72
ATOM     72  C   LIG d   1      10.546   2.200  -3.873  0.00  0.00    -0.040 C 
ATOM     73  H   LIG d   1      11.521   2.626  -4.106  0.00  0.00     0.028 H 
ATOM     74  H   LIG d   1      10.046   2.822  -3.129  0.00  0.00     0.028 H 
ATOM     75  H   LIG d   1      10.674   1.192  -3.477  0.00  0.00     0.028 H 
ENDBRANCH   1  72
TORSDOF 10
ENDMDL
MODEL 4
REMARK VINA RESULT:      -7.0      2.410      5.812
REMARK  10 active torsions:
REMARK  status: ('A' for Active; 'I' for Inactive)
REMARK    1  A    between atoms: C_1  and  C_2 
REMARK    2  A    between atoms: C_14  and  C_26 
REMARK    3  A    between atoms: C_16  and  C_18 
REMARK    4  A    between atoms: C_18  and  C_20 
REMARK    5  A    between atoms: C_28  and  O_36 
REMARK    6  A    between atoms: C_29  and  O_34 
REMARK    7  A    between atoms: C_30  and  O_32 
REMARK    8  A    between atoms: O_32  and  C_33 
REMARK    9  A    between atoms: O_34  and  C_35 
REMARK   10  A    between atoms: O_36  and  C_37 
ROOT
ATOM      1  C   LIG d   1       9.705   2.143  -5.123  0.00  0.00    -0.049 A 
ATOM      2  C   LIG d   1       9.908   3.069  -6.132  0.00  0.00    -0.058 A 
ATOM      3  C   LIG d   1       9.160   3.023  -7.293  0.00  0.00    -0.053 A 
ATOM      4  C   LIG d   1       8.191   2.039  -7.447  0.00  0.00    -0.004 A 
ATOM      5  C   LIG d   1       7.981   1.108  -6.407  0.00  0.00     0.038 A 
ATOM      6  C   LIG d   1       8.743   1.156  -5.262  0.00  0.00    -0.037 A 
ATOM      7  N   LIG d   1       6.959   0.189  -6.625  0.00  0.00    -0.311 N 
ATOM      8  C   LIG d   1       5.767   0.546  -7.427  0.00  0.00     0.063 C 
ATOM      9  H   LIG d   1       5.117   1.207  -6.854  0.00  0.00     0.056 H 
ATOM     10  C   LIG d   1       6.242   1.245  -8.672  0.00  0.00    -0.062 C 
ATOM     11  C   LIG d   1       7.377   1.926  -8.673  0.00  0.00    -0.055 C 
ATOM     12  C   LIG d   1       5.046  -0.766  -7.720  0.00  0.00     0.127 A 
ATOM     13  C   LIG d   1       5.415  -1.652  -6.510  0.00  0.00     0.032 C 
ATOM     14  H   LIG d   1       4.773  -1.433  -5.657  0.00  0.00     0.039 H 
ATOM     15  C   LIG d   1       6.878  -1.218  -6.231  0.00  0.00     0.095 C 
ATOM     16  H   LIG d   1       7.567  -1.816  -6.826  0.00  0.00     0.059 H 
ATOM     17  C   LIG d   1       3.559  -0.587  -7.827  0.00  0.00     0.180 A 
ATOM     18  O   LIG d   1       2.825  -0.109  -6.987  0.00  0.00    -0.291 OA
ATOM     19  C   LIG d   1       3.166  -1.103  -9.141  0.00  0.00     0.029 A 
ATOM     20  C   LIG d   1       1.895  -1.170  -9.721  0.00  0.00    -0.051 A 
ATOM     21  C   LIG d   1       1.812  -1.714 -10.995  0.00  0.00    -0.061 A 
ATOM     22  C   LIG d   1       2.926  -2.171 -11.672  0.00  0.00    -0.061 A 
ATOM     23  C   LIG d   1       4.198  -2.116 -11.119  0.00  0.00    -0.051 A 
ATOM     24  C   LIG d   1       4.311  -1.575  -9.835  0.00  0.00     0.029 A 
ATOM     25  C   LIG d   1       5.505  -1.392  -9.008  0.00  0.00     0.180 A 
ATOM     26  O   LIG d   1       6.644  -1.689  -9.304  0.00  0.00    -0.291 OA
ATOM     27  H   LIG d   1      10.660   3.835  -6.010  0.00  0.00     0.062 H 
ATOM     28  H   LIG d   1       9.328   3.748  -8.076  0.00  0.00     0.062 H 
ATOM     29  H   LIG d   1       8.590   0.431  -4.477  0.00  0.00     0.064 H 
ATOM     30  H   LIG d   1       5.664   1.176  -9.582  0.00  0.00     0.059 H 
ATOM     31  H   LIG d   1       7.707   2.417  -9.577  0.00  0.00     0.062 H 
ATOM     32  H   LIG d   1       1.018  -0.815  -9.200  0.00  0.00     0.062 H 
ATOM     33  H   LIG d   1       0.846  -1.781 -11.473  0.00  0.00     0.062 H 
ATOM     34  H   LIG d   1       2.803  -2.585 -12.662  0.00  0.00     0.062 H 
ATOM     35  H   LIG d   1       5.063  -2.478 -11.656  0.00  0.00     0.062 H 
ENDROOT
BRANCH  13  36
ATOM     36  C   LIG d   1       5.346  -3.113  -6.871  0.00  0.00    -0.034 A 
ATOM     37  C   LIG d   1       6.471  -3.907  -6.754  0.00  0.00    -0.013 A 
ATOM     38  C   LIG d   1       6.410  -5.253  -7.080  0.00  0.00     0.165 A 
ATOM     39  H   LIG d   1       7.399  -3.479  -6.403  0.00  0.00     0.066 H 
ATOM     40  C   LIG d   1       5.218  -5.803  -7.536  0.00  0.00     0.203 A 
ATOM     41  C   LIG d   1       4.089  -5.000  -7.658  0.00  0.00     0.165 A 
ATOM     42  C   LIG d   1       4.157  -3.656  -7.324  0.00  0.00    -0.013 A 
ATOM     43  H   LIG d   1       3.282  -3.032  -7.419  0.00  0.00     0.066 H 
BRANCH  38  44
ATOM     44  O   LIG d   1       7.517  -6.035  -6.959  0.00  0.00    -0.491 OA
BRANCH  44  45
ATOM     45  C   LIG d   1       7.986  -6.293  -5.634  0.00  0.00     0.079 C 
ATOM     46  H   LIG d   1       8.225  -5.350  -5.143  0.00  0.00     0.066 H 
ATOM     47  H   LIG d   1       7.211  -6.811  -5.069  0.00  0.00     0.066 H 
ATOM     48  H   LIG d   1       8.880  -6.916  -5.680  0.00  0.00     0.066 H 
ENDBRANCH  44  45
ENDBRANCH  38  44
BRANCH  40  49
ATOM     49  O   LIG d   1       5.155  -7.122  -7.862  0.00  0.00    -0.488 OA
BRANCH  49  50
ATOM     50  C   LIG d   1       4.801  -8.032  -6.818  0.00  0.00     0.079 C 
ATOM     51  H   LIG d   1       4.480  -7.471  -5.941  0.00  0.00     0.066 H 
ATOM     52  H   LIG d   1       3.989  -8.675  -7.157  0.00  0.00     0.066 H 
ATOM     53  H   LIG d   1       5.666  -8.644  -6.562  0.00  0.00     0.066 H 
ENDBRANCH  49  50
ENDBRANCH  40  49
BRANCH  41  54
ATOM     54  O   LIG d   1       2.920  -5.532  -8.104  0.00  0.00    -0.491 OA
BRANCH  54  55
ATOM     55  C   LIG d   1       2.566  -5.273  -9.463  0.00  0.00     0.079 C 
ATOM     56  H   LIG d   1       1.780  -5.962  -9.771  0.00  0.00     0.066 H 
ATOM     57  H   LIG d   1       2.208  -4.247  -9.556  0.00  0.00     0.066 H 
ATOM     58  H   LIG d   1       3.441  -5.411 -10.099  0.00  0.00     0.066 H 
ENDBRANCH  54  55
ENDBRANCH  41  54
ENDBRANCH  13  36
BRANCH  15  59
ATOM     59  C   LIG d   1       7.192  -1.365  -4.764  0.00  0.00     0.184 C 
ATOM     60  O   LIG d   1       8.271  -1.797  -4.416  0.00  0.00    -0.290 OA
BRANCH  59  61
ATOM     61  C   LIG d   1       6.191  -0.984  -3.756  0.00  0.00     0.019 A 
ATOM     62  C   LIG d   1       6.053   0.353  -3.373  0.00  0.00    -0.051 A 
ATOM     63  C   LIG d   1       5.109   0.703  -2.430  0.00  0.00    -0.061 A 
ATOM     64  H   LIG d   1       6.681   1.112  -3.817  0.00  0.00     0.062 H 
ATOM     65  C   LIG d   1       4.307  -0.268  -1.856  0.00  0.00    -0.062 A 
ATOM     66  H   LIG d   1       4.999   1.736  -2.136  0.00  0.00     0.062 H 
ATOM     67  C   LIG d   1       4.441  -1.594  -2.225  0.00  0.00    -0.061 A 
ATOM     68  H   LIG d   1       3.573   0.011  -1.115  0.00  0.00     0.062 H 
ATOM     69  C   LIG d   1       5.377  -1.959  -3.171  0.00  0.00    -0.051 A 
ATOM     70  H   LIG d   1       3.811  -2.346  -1.774  0.00  0.00     0.062 H 
ATOM     71  H   LIG d   1       5.479  -2.995  -3.459  0.00  0.00     0.062 H 
ENDBRANCH  59  61
ENDBRANCH  15  59
BRANCH   1  72
ATOM     72  C   LIG d   1      10.539   2.205  -3.869  0.00  0.00    -0.040 C 
ATOM     73  H   LIG d   1      10.960   3.203  -3.761  0.00  0.00     0.028 H 
ATOM     74  H   LIG d   1       9.911   1.979  -3.006  0.00  0.00     0.028 H 
ATOM     75  H   LIG d   1      11.345   1.475  -3.933  0.00  0.00     0.028 H 
ENDBRANCH   1  72
TORSDOF 10
ENDMDL
MODEL 5
REMARK VINA RESULT:      -6.9      2.258      7.583
REMARK  10 active torsions:
REMARK  status: ('A' for Active; 'I' for Inactive)
REMARK    1  A    between atoms: C_1  and  C_2 
REMARK    2  A    between atoms: C_14  and  C_26 
REMARK    3  A    between atoms: C_16  and  C_18 
REMARK    4  A    between atoms: C_18  and  C_20 
REMARK    5  A    between atoms: C_28  and  O_36 
REMARK    6  A    between atoms: C_29  and  O_34 
REMARK    7  A    between atoms: C_30  and  O_32 
REMARK    8  A    between atoms: O_32  and  C_33 
REMARK    9  A    between atoms: O_34  and  C_35 
REMARK   10  A    between atoms: O_36  and  C_37 
ROOT
ATOM      1  C   LIG d   1      10.724  -6.412  -6.787  0.00  0.00    -0.049 A 
ATOM      2  C   LIG d   1      11.485  -6.376  -5.632  0.00  0.00    -0.058 A 
ATOM      3  C   LIG d   1      11.125  -5.563  -4.575  0.00  0.00    -0.053 A 
ATOM      4  C   LIG d   1       9.983  -4.776  -4.672  0.00  0.00    -0.004 A 
ATOM      5  C   LIG d   1       9.205  -4.830  -5.848  0.00  0.00     0.038 A 
ATOM      6  C   LIG d   1       9.584  -5.633  -6.900  0.00  0.00    -0.037 A 
ATOM      7  N   LIG d   1       8.055  -4.048  -5.840  0.00  0.00    -0.311 N 
ATOM      8  C   LIG d   1       7.315  -3.787  -4.584  0.00  0.00     0.063 C 
ATOM      9  H   LIG d   1       6.769  -4.680  -4.281  0.00  0.00     0.056 H 
ATOM     10  C   LIG d   1       8.319  -3.415  -3.527  0.00  0.00    -0.062 C 
ATOM     11  C   LIG d   1       9.561  -3.872  -3.585  0.00  0.00    -0.055 C 
ATOM     12  C   LIG d   1       6.336  -2.659  -4.897  0.00  0.00     0.127 A 
ATOM     13  C   LIG d   1       6.048  -2.846  -6.402  0.00  0.00     0.032 C 
ATOM     14  H   LIG d   1       5.291  -3.614  -6.561  0.00  0.00     0.039 H 
ATOM     15  C   LIG d   1       7.429  -3.308  -6.937  0.00  0.00     0.095 C 
ATOM     16  H   LIG d   1       8.036  -2.444  -7.203  0.00  0.00     0.059 H 
ATOM     17  C   LIG d   1       5.074  -2.760  -4.087  0.00  0.00     0.180 A 
ATOM     18  O   LIG d   1       4.319  -3.708  -4.039  0.00  0.00    -0.291 OA
ATOM     19  C   LIG d   1       4.933  -1.491  -3.369  0.00  0.00     0.029 A 
ATOM     20  C   LIG d   1       3.927  -1.080  -2.489  0.00  0.00    -0.051 A 
ATOM     21  C   LIG d   1       4.045   0.192  -1.945  0.00  0.00    -0.061 A 
ATOM     22  C   LIG d   1       5.105   1.024  -2.249  0.00  0.00    -0.061 A 
ATOM     23  C   LIG d   1       6.117   0.640  -3.119  0.00  0.00    -0.051 A 
ATOM     24  C   LIG d   1       6.021  -0.635  -3.683  0.00  0.00     0.029 A 
ATOM     25  C   LIG d   1       6.925  -1.303  -4.623  0.00  0.00     0.180 A 
ATOM     26  O   LIG d   1       7.947  -0.849  -5.091  0.00  0.00    -0.291 OA
ATOM     27  H   LIG d   1      12.371  -6.990  -5.557  0.00  0.00     0.062 H 
ATOM     28  H   LIG d   1      11.726  -5.539  -3.678  0.00  0.00     0.062 H 
ATOM     29  H   LIG d   1       8.994  -5.658  -7.804  0.00  0.00     0.064 H 
ATOM     30  H   LIG d   1       8.034  -2.754  -2.722  0.00  0.00     0.059 H 
ATOM     31  H   LIG d   1      10.271  -3.590  -2.821  0.00  0.00     0.062 H 
ATOM     32  H   LIG d   1       3.094  -1.723  -2.245  0.00  0.00     0.062 H 
ATOM     33  H   LIG d   1       3.286   0.541  -1.261  0.00  0.00     0.062 H 
ATOM     34  H   LIG d   1       5.147   2.003  -1.796  0.00  0.00     0.062 H 
ATOM     35  H   LIG d   1       6.941   1.299  -3.351  0.00  0.00     0.062 H 
ENDROOT
BRANCH  13  36
ATOM     36  C   LIG d   1       5.632  -1.544  -7.036  0.00  0.00    -0.034 A 
ATOM     37  C   LIG d   1       4.433  -0.955  -6.680  0.00  0.00    -0.013 A 
ATOM     38  C   LIG d   1       4.049   0.245  -7.258  0.00  0.00     0.165 A 
ATOM     39  H   LIG d   1       3.796  -1.429  -5.948  0.00  0.00     0.066 H 
ATOM     40  C   LIG d   1       4.866   0.852  -8.204  0.00  0.00     0.203 A 
ATOM     41  C   LIG d   1       6.069   0.255  -8.563  0.00  0.00     0.165 A 
ATOM     42  C   LIG d   1       6.448  -0.944  -7.977  0.00  0.00    -0.013 A 
ATOM     43  H   LIG d   1       7.381  -1.408  -8.256  0.00  0.00     0.066 H 
BRANCH  38  44
ATOM     44  O   LIG d   1       2.871   0.827  -6.903  0.00  0.00    -0.491 OA
BRANCH  44  45
ATOM     45  C   LIG d   1       2.459   0.678  -5.542  0.00  0.00     0.079 C 
ATOM     46  H   LIG d   1       1.386   0.855  -5.466  0.00  0.00     0.066 H 
ATOM     47  H   LIG d   1       2.685  -0.334  -5.204  0.00  0.00     0.066 H 
ATOM     48  H   LIG d   1       2.993   1.397  -4.920  0.00  0.00     0.066 H 
ENDBRANCH  44  45
ENDBRANCH  38  44
BRANCH  40  49
ATOM     49  O   LIG d   1       4.491   2.028  -8.776  0.00  0.00    -0.488 OA
BRANCH  49  50
ATOM     50  C   LIG d   1       3.796   1.951 -10.023  0.00  0.00     0.079 C 
ATOM     51  H   LIG d   1       2.768   1.637  -9.847  0.00  0.00     0.066 H 
ATOM     52  H   LIG d   1       3.801   2.930 -10.502  0.00  0.00     0.066 H 
ATOM     53  H   LIG d   1       4.291   1.227 -10.670  0.00  0.00     0.066 H 
ENDBRANCH  49  50
ENDBRANCH  40  49
BRANCH  41  54
ATOM     54  O   LIG d   1       6.872   0.844  -9.489  0.00  0.00    -0.491 OA
BRANCH  54  55
ATOM     55  C   LIG d   1       7.987   1.591  -8.998  0.00  0.00     0.079 C 
ATOM     56  H   LIG d   1       8.893   1.270  -9.511  0.00  0.00     0.066 H 
ATOM     57  H   LIG d   1       7.822   2.653  -9.182  0.00  0.00     0.066 H 
ATOM     58  H   LIG d   1       8.095   1.421  -7.927  0.00  0.00     0.066 H 
ENDBRANCH  54  55
ENDBRANCH  41  54
ENDBRANCH  13  36
BRANCH  15  59
ATOM     59  C   LIG d   1       7.249  -4.206  -8.133  0.00  0.00     0.184 C 
ATOM     60  O   LIG d   1       8.034  -4.152  -9.056  0.00  0.00    -0.290 OA
BRANCH  59  61
ATOM     61  C   LIG d   1       6.121  -5.150  -8.181  0.00  0.00     0.019 A 
ATOM     62  C   LIG d   1       6.125  -6.293  -7.376  0.00  0.00    -0.051 A 
ATOM     63  C   LIG d   1       5.062  -7.169  -7.423  0.00  0.00    -0.061 A 
ATOM     64  H   LIG d   1       6.958  -6.487  -6.715  0.00  0.00     0.062 H 
ATOM     65  C   LIG d   1       3.997  -6.926  -8.273  0.00  0.00    -0.062 A 
ATOM     66  H   LIG d   1       5.062  -8.051  -6.799  0.00  0.00     0.062 H 
ATOM     67  C   LIG d   1       3.987  -5.800  -9.077  0.00  0.00    -0.061 A 
ATOM     68  H   LIG d   1       3.169  -7.618  -8.309  0.00  0.00     0.062 H 
ATOM     69  C   LIG d   1       5.041  -4.910  -9.037  0.00  0.00    -0.051 A 
ATOM     70  H   LIG d   1       3.152  -5.616  -9.737  0.00  0.00     0.062 H 
ATOM     71  H   LIG d   1       5.031  -4.031  -9.664  0.00  0.00     0.062 H 
ENDBRANCH  59  61
ENDBRANCH  15  59
BRANCH   1  72
ATOM     72  C   LIG d   1      11.140  -7.299  -7.933  0.00  0.00    -0.040 C 
ATOM     73  H   LIG d   1      12.218  -7.230  -8.072  0.00  0.00     0.028 H 
ATOM     74  H   LIG d   1      10.867  -8.331  -7.710  0.00  0.00     0.028 H 
ATOM     75  H   LIG d   1      10.634  -6.977  -8.843  0.00  0.00     0.028 H 
ENDBRANCH   1  72
TORSDOF 10
ENDMDL
MODEL 6
REMARK VINA RESULT:      -6.9      2.258      7.684
REMARK  10 active torsions:
REMARK  status: ('A' for Active; 'I' for Inactive)
REMARK    1  A    between atoms: C_1  and  C_2 
REMARK    2  A    between atoms: C_14  and  C_26 
REMARK    3  A    between atoms: C_16  and  C_18 
REMARK    4  A    between atoms: C_18  and  C_20 
REMARK    5  A    between atoms: C_28  and  O_36 
REMARK    6  A    between atoms: C_29  and  O_34 
REMARK    7  A    between atoms: C_30  and  O_32 
REMARK    8  A    between atoms: O_32  and  C_33 
REMARK    9  A    between atoms: O_34  and  C_35 
REMARK   10  A    between atoms: O_36  and  C_37 
ROOT
ATOM      1  C   LIG d   1      10.738  -6.395  -6.775  0.00  0.00    -0.049 A 
ATOM      2  C   LIG d   1      11.496  -6.360  -5.618  0.00  0.00    -0.058 A 
ATOM      3  C   LIG d   1      11.131  -5.549  -4.561  0.00  0.00    -0.053 A 
ATOM      4  C   LIG d   1       9.989  -4.763  -4.660  0.00  0.00    -0.004 A 
ATOM      5  C   LIG d   1       9.214  -4.817  -5.838  0.00  0.00     0.038 A 
ATOM      6  C   LIG d   1       9.597  -5.618  -6.891  0.00  0.00    -0.037 A 
ATOM      7  N   LIG d   1       8.063  -4.036  -5.833  0.00  0.00    -0.311 N 
ATOM      8  C   LIG d   1       7.319  -3.778  -4.579  0.00  0.00     0.063 C 
ATOM      9  H   LIG d   1       6.773  -4.672  -4.279  0.00  0.00     0.056 H 
ATOM     10  C   LIG d   1       8.319  -3.407  -3.518  0.00  0.00    -0.062 C 
ATOM     11  C   LIG d   1       9.561  -3.861  -3.573  0.00  0.00    -0.055 C 
ATOM     12  C   LIG d   1       6.339  -2.651  -4.893  0.00  0.00     0.127 A 
ATOM     13  C   LIG d   1       6.056  -2.836  -6.400  0.00  0.00     0.032 C 
ATOM     14  H   LIG d   1       5.301  -3.605  -6.563  0.00  0.00     0.039 H 
ATOM     15  C   LIG d   1       7.439  -3.295  -6.931  0.00  0.00     0.095 C 
ATOM     16  H   LIG d   1       8.046  -2.430  -7.193  0.00  0.00     0.059 H 
ATOM     17  C   LIG d   1       5.075  -2.755  -4.088  0.00  0.00     0.180 A 
ATOM     18  O   LIG d   1       4.321  -3.704  -4.044  0.00  0.00    -0.291 OA
ATOM     19  C   LIG d   1       4.930  -1.488  -3.368  0.00  0.00     0.029 A 
ATOM     20  C   LIG d   1       3.920  -1.080  -2.491  0.00  0.00    -0.051 A 
ATOM     21  C   LIG d   1       4.035   0.192  -1.945  0.00  0.00    -0.061 A 
ATOM     22  C   LIG d   1       5.094   1.026  -2.244  0.00  0.00    -0.061 A 
ATOM     23  C   LIG d   1       6.109   0.645  -3.111  0.00  0.00    -0.051 A 
ATOM     24  C   LIG d   1       6.018  -0.629  -3.677  0.00  0.00     0.029 A 
ATOM     25  C   LIG d   1       6.925  -1.295  -4.615  0.00  0.00     0.180 A 
ATOM     26  O   LIG d   1       7.948  -0.839  -5.079  0.00  0.00    -0.291 OA
ATOM     27  H   LIG d   1      12.382  -6.972  -5.541  0.00  0.00     0.062 H 
ATOM     28  H   LIG d   1      11.730  -5.525  -3.662  0.00  0.00     0.062 H 
ATOM     29  H   LIG d   1       9.011  -5.642  -7.796  0.00  0.00     0.064 H 
ATOM     30  H   LIG d   1       8.031  -2.747  -2.714  0.00  0.00     0.059 H 
ATOM     31  H   LIG d   1      10.269  -3.579  -2.806  0.00  0.00     0.062 H 
ATOM     32  H   LIG d   1       3.087  -1.724  -2.251  0.00  0.00     0.062 H 
ATOM     33  H   LIG d   1       3.272   0.539  -1.263  0.00  0.00     0.062 H 
ATOM     34  H   LIG d   1       5.134   2.005  -1.789  0.00  0.00     0.062 H 
ATOM     35  H   LIG d   1       6.933   1.305  -3.339  0.00  0.00     0.062 H 
ENDROOT
BRANCH  13  36
ATOM     36  C   LIG d   1       5.640  -1.534  -7.034  0.00  0.00    -0.034 A 
ATOM     37  C   LIG d   1       6.461  -0.927  -7.966  0.00  0.00    -0.013 A 
ATOM     38  C   LIG d   1       6.079   0.269  -8.555  0.00  0.00     0.165 A 
ATOM     39  H   LIG d   1       7.399  -1.387  -8.239  0.00  0.00     0.066 H 
ATOM     40  C   LIG d   1       4.875   0.863  -8.200  0.00  0.00     0.203 A 
ATOM     41  C   LIG d   1       4.054   0.253  -7.258  0.00  0.00     0.165 A 
ATOM     42  C   LIG d   1       4.440  -0.946  -6.677  0.00  0.00    -0.013 A 
ATOM     43  H   LIG d   1       3.804  -1.420  -5.945  0.00  0.00     0.066 H 
BRANCH  38  44
ATOM     44  O   LIG d   1       6.885   0.862  -9.477  0.00  0.00    -0.491 OA
BRANCH  44  45
ATOM     45  C   LIG d   1       8.007   1.596  -8.980  0.00  0.00     0.079 C 
ATOM     46  H   LIG d   1       8.924   1.044  -9.188  0.00  0.00     0.066 H 
ATOM     47  H   LIG d   1       8.050   2.569  -9.469  0.00  0.00     0.066 H 
ATOM     48  H   LIG d   1       7.902   1.735  -7.903  0.00  0.00     0.066 H 
ENDBRANCH  44  45
ENDBRANCH  38  44
BRANCH  40  49
ATOM     49  O   LIG d   1       4.498   2.039  -8.772  0.00  0.00    -0.488 OA
BRANCH  49  50
ATOM     50  C   LIG d   1       3.786   1.960 -10.009  0.00  0.00     0.079 C 
ATOM     51  H   LIG d   1       3.762   2.944 -10.477  0.00  0.00     0.066 H 
ATOM     52  H   LIG d   1       4.286   1.254 -10.671  0.00  0.00     0.066 H 
ATOM     53  H   LIG d   1       2.767   1.623  -9.820  0.00  0.00     0.066 H 
ENDBRANCH  49  50
ENDBRANCH  40  49
BRANCH  41  54
ATOM     54  O   LIG d   1       2.874   0.830  -6.906  0.00  0.00    -0.491 OA
BRANCH  54  55
ATOM     55  C   LIG d   1       2.449   0.665  -5.552  0.00  0.00     0.079 C 
ATOM     56  H   LIG d   1       1.895  -0.269  -5.457  0.00  0.00     0.066 H 
ATOM     57  H   LIG d   1       3.321   0.640  -4.898  0.00  0.00     0.066 H 
ATOM     58  H   LIG d   1       1.807   1.500  -5.269  0.00  0.00     0.066 H 
ENDBRANCH  54  55
ENDBRANCH  41  54
ENDBRANCH  13  36
BRANCH  15  59
ATOM     59  C   LIG d   1       7.264  -4.192  -8.129  0.00  0.00     0.184 C 
ATOM     60  O   LIG d   1       8.055  -4.139  -9.047  0.00  0.00    -0.290 OA
BRANCH  59  61
ATOM     61  C   LIG d   1       6.134  -5.133  -8.185  0.00  0.00     0.019 A 
ATOM     62  C   LIG d   1       5.036  -4.863  -9.007  0.00  0.00    -0.051 A 
ATOM     63  C   LIG d   1       3.982  -5.752  -9.057  0.00  0.00    -0.061 A 
ATOM     64  H   LIG d   1       5.013  -3.963  -9.604  0.00  0.00     0.062 H 
ATOM     65  C   LIG d   1       4.006  -6.902  -8.289  0.00  0.00    -0.062 A 
ATOM     66  H   LIG d   1       3.135  -5.546  -9.695  0.00  0.00     0.062 H 
ATOM     67  C   LIG d   1       5.087  -7.174  -7.469  0.00  0.00    -0.061 A 
ATOM     68  H   LIG d   1       3.176  -7.592  -8.329  0.00  0.00     0.062 H 
ATOM     69  C   LIG d   1       6.151  -6.298  -7.412  0.00  0.00    -0.051 A 
ATOM     70  H   LIG d   1       5.099  -8.074  -6.873  0.00  0.00     0.062 H 
ATOM     71  H   LIG d   1       6.994  -6.512  -6.772  0.00  0.00     0.062 H 
ENDBRANCH  59  61
ENDBRANCH  15  59
BRANCH   1  72
ATOM     72  C   LIG d   1      11.159  -7.279  -7.921  0.00  0.00    -0.040 C 
ATOM     73  H   LIG d   1      10.778  -8.287  -7.762  0.00  0.00     0.028 H 
ATOM     74  H   LIG d   1      10.756  -6.881  -8.853  0.00  0.00     0.028 H 
ATOM     75  H   LIG d   1      12.247  -7.307  -7.978  0.00  0.00     0.028 H 
ENDBRANCH   1  72
TORSDOF 10
ENDMDL
MODEL 7
REMARK VINA RESULT:      -6.8      2.716      7.841
REMARK  10 active torsions:
REMARK  status: ('A' for Active; 'I' for Inactive)
REMARK    1  A    between atoms: C_1  and  C_2 
REMARK    2  A    between atoms: C_14  and  C_26 
REMARK    3  A    between atoms: C_16  and  C_18 
REMARK    4  A    between atoms: C_18  and  C_20 
REMARK    5  A    between atoms: C_28  and  O_36 
REMARK    6  A    between atoms: C_29  and  O_34 
REMARK    7  A    between atoms: C_30  and  O_32 
REMARK    8  A    between atoms: O_32  and  C_33 
REMARK    9  A    between atoms: O_34  and  C_35 
REMARK   10  A    between atoms: O_36  and  C_37 
ROOT
ATOM      1  C   LIG d   1      10.721  -6.402  -6.773  0.00  0.00    -0.049 A 
ATOM      2  C   LIG d   1      11.488  -6.360  -5.622  0.00  0.00    -0.058 A 
ATOM      3  C   LIG d   1      11.134  -5.541  -4.567  0.00  0.00    -0.053 A 
ATOM      4  C   LIG d   1       9.992  -4.755  -4.662  0.00  0.00    -0.004 A 
ATOM      5  C   LIG d   1       9.208  -4.814  -5.834  0.00  0.00     0.038 A 
ATOM      6  C   LIG d   1       9.581  -5.622  -6.884  0.00  0.00    -0.037 A 
ATOM      7  N   LIG d   1       8.058  -4.031  -5.824  0.00  0.00    -0.311 N 
ATOM      8  C   LIG d   1       7.325  -3.763  -4.566  0.00  0.00     0.063 C 
ATOM      9  H   LIG d   1       6.780  -4.655  -4.256  0.00  0.00     0.056 H 
ATOM     10  C   LIG d   1       8.335  -3.387  -3.516  0.00  0.00    -0.062 C 
ATOM     11  C   LIG d   1       9.575  -3.844  -3.578  0.00  0.00    -0.055 C 
ATOM     12  C   LIG d   1       6.345  -2.636  -4.880  0.00  0.00     0.127 A 
ATOM     13  C   LIG d   1       6.049  -2.831  -6.383  0.00  0.00     0.032 C 
ATOM     14  H   LIG d   1       5.291  -3.599  -6.534  0.00  0.00     0.039 H 
ATOM     15  C   LIG d   1       7.427  -3.296  -6.922  0.00  0.00     0.095 C 
ATOM     16  H   LIG d   1       8.034  -2.434  -7.195  0.00  0.00     0.059 H 
ATOM     17  C   LIG d   1       5.087  -2.733  -4.063  0.00  0.00     0.180 A 
ATOM     18  O   LIG d   1       4.332  -3.680  -4.006  0.00  0.00    -0.291 OA
ATOM     19  C   LIG d   1       4.950  -1.460  -3.351  0.00  0.00     0.029 A 
ATOM     20  C   LIG d   1       3.948  -1.044  -2.468  0.00  0.00    -0.051 A 
ATOM     21  C   LIG d   1       4.070   0.230  -1.931  0.00  0.00    -0.061 A 
ATOM     22  C   LIG d   1       5.129   1.060  -2.244  0.00  0.00    -0.061 A 
ATOM     23  C   LIG d   1       6.136   0.672  -3.117  0.00  0.00    -0.051 A 
ATOM     24  C   LIG d   1       6.037  -0.606  -3.674  0.00  0.00     0.029 A 
ATOM     25  C   LIG d   1       6.935  -1.280  -4.615  0.00  0.00     0.180 A 
ATOM     26  O   LIG d   1       7.956  -0.829  -5.091  0.00  0.00    -0.291 OA
ATOM     27  H   LIG d   1      12.374  -6.974  -5.548  0.00  0.00     0.062 H 
ATOM     28  H   LIG d   1      11.740  -5.513  -3.674  0.00  0.00     0.062 H 
ATOM     29  H   LIG d   1       8.987  -5.652  -7.785  0.00  0.00     0.064 H 
ATOM     30  H   LIG d   1       8.054  -2.721  -2.713  0.00  0.00     0.059 H 
ATOM     31  H   LIG d   1      10.290  -3.559  -2.818  0.00  0.00     0.062 H 
ATOM     32  H   LIG d   1       3.117  -1.686  -2.217  0.00  0.00     0.062 H 
ATOM     33  H   LIG d   1       3.314   0.583  -1.245  0.00  0.00     0.062 H 
ATOM     34  H   LIG d   1       5.174   2.042  -1.797  0.00  0.00     0.062 H 
ATOM     35  H   LIG d   1       6.959   1.329  -3.357  0.00  0.00     0.062 H 
ENDROOT
BRANCH  13  36
ATOM     36  C   LIG d   1       5.630  -1.532  -7.021  0.00  0.00    -0.034 A 
ATOM     37  C   LIG d   1       4.434  -0.940  -6.661  0.00  0.00    -0.013 A 
ATOM     38  C   LIG d   1       4.048   0.258  -7.243  0.00  0.00     0.165 A 
ATOM     39  H   LIG d   1       3.801  -1.410  -5.923  0.00  0.00     0.066 H 
ATOM     40  C   LIG d   1       4.860   0.859  -8.197  0.00  0.00     0.203 A 
ATOM     41  C   LIG d   1       6.061   0.259  -8.560  0.00  0.00     0.165 A 
ATOM     42  C   LIG d   1       6.442  -0.937  -7.970  0.00  0.00    -0.013 A 
ATOM     43  H   LIG d   1       7.373  -1.404  -8.252  0.00  0.00     0.066 H 
BRANCH  38  44
ATOM     44  O   LIG d   1       2.873   0.842  -6.884  0.00  0.00    -0.491 OA
BRANCH  44  45
ATOM     45  C   LIG d   1       2.464   0.693  -5.523  0.00  0.00     0.079 C 
ATOM     46  H   LIG d   1       2.839   1.531  -4.936  0.00  0.00     0.066 H 
ATOM     47  H   LIG d   1       1.375   0.672  -5.472  0.00  0.00     0.066 H 
ATOM     48  H   LIG d   1       2.864  -0.240  -5.124  0.00  0.00     0.066 H 
ENDBRANCH  44  45
ENDBRANCH  38  44
BRANCH  40  49
ATOM     49  O   LIG d   1       4.483   2.032  -8.773  0.00  0.00    -0.488 OA
BRANCH  49  50
ATOM     50  C   LIG d   1       3.777   1.949 -10.013  0.00  0.00     0.079 C 
ATOM     51  H   LIG d   1       2.811   1.472  -9.850  0.00  0.00     0.066 H 
ATOM     52  H   LIG d   1       3.625   2.952 -10.413  0.00  0.00     0.066 H 
ATOM     53  H   LIG d   1       4.358   1.359 -10.723  0.00  0.00     0.066 H 
ENDBRANCH  49  50
ENDBRANCH  40  49
BRANCH  41  54
ATOM     54  O   LIG d   1       6.859   0.842  -9.493  0.00  0.00    -0.491 OA
BRANCH  54  55
ATOM     55  C   LIG d   1       7.394  -0.005 -10.511  0.00  0.00     0.079 C 
ATOM     56  H   LIG d   1       6.660  -0.767 -10.772  0.00  0.00     0.066 H 
ATOM     57  H   LIG d   1       7.630   0.590 -11.393  0.00  0.00     0.066 H 
ATOM     58  H   LIG d   1       8.302  -0.485 -10.144  0.00  0.00     0.066 H 
ENDBRANCH  54  55
ENDBRANCH  41  54
ENDBRANCH  13  36
BRANCH  15  59
ATOM     59  C   LIG d   1       7.241  -4.200  -8.112  0.00  0.00     0.184 C 
ATOM     60  O   LIG d   1       6.550  -5.193  -8.018  0.00  0.00    -0.290 OA
BRANCH  59  61
ATOM     61  C   LIG d   1       7.897  -3.879  -9.390  0.00  0.00     0.019 A 
ATOM     62  C   LIG d   1       7.299  -4.249 -10.599  0.00  0.00    -0.051 A 
ATOM     63  C   LIG d   1       7.918  -3.940 -11.792  0.00  0.00    -0.061 A 
ATOM     64  H   LIG d   1       6.354  -4.771 -10.599  0.00  0.00     0.062 H 
ATOM     65  C   LIG d   1       9.132  -3.276 -11.794  0.00  0.00    -0.062 A 
ATOM     66  H   LIG d   1       7.456  -4.221 -12.727  0.00  0.00     0.062 H 
ATOM     67  C   LIG d   1       9.733  -2.912 -10.602  0.00  0.00    -0.061 A 
ATOM     68  H   LIG d   1       9.614  -3.041 -12.732  0.00  0.00     0.062 H 
ATOM     69  C   LIG d   1       9.124  -3.208  -9.400  0.00  0.00    -0.051 A 
ATOM     70  H   LIG d   1      10.680  -2.393 -10.612  0.00  0.00     0.062 H 
ATOM     71  H   LIG d   1       9.593  -2.923  -8.471  0.00  0.00     0.062 H 
ENDBRANCH  59  61
ENDBRANCH  15  59
BRANCH   1  72
ATOM     72  C   LIG d   1      11.131  -7.294  -7.916  0.00  0.00    -0.040 C 
ATOM     73  H   LIG d   1      10.461  -8.151  -7.967  0.00  0.00     0.028 H 
ATOM     74  H   LIG d   1      11.076  -6.734  -8.851  0.00  0.00     0.028 H 
ATOM     75  H   LIG d   1      12.153  -7.640  -7.759  0.00  0.00     0.028 H 
ENDBRANCH   1  72
TORSDOF 10
ENDMDL
MODEL 8
REMARK VINA RESULT:      -6.7      2.717      7.975
REMARK  10 active torsions:
REMARK  status: ('A' for Active; 'I' for Inactive)
REMARK    1  A    between atoms: C_1  and  C_2 
REMARK    2  A    between atoms: C_14  and  C_26 
REMARK    3  A    between atoms: C_16  and  C_18 
REMARK    4  A    between atoms: C_18  and  C_20 
REMARK    5  A    between atoms: C_28  and  O_36 
REMARK    6  A    between atoms: C_29  and  O_34 
REMARK    7  A    between atoms: C_30  and  O_32 
REMARK    8  A    between atoms: O_32  and  C_33 
REMARK    9  A    between atoms: O_34  and  C_35 
REMARK   10  A    between atoms: O_36  and  C_37 
ROOT
ATOM      1  C   LIG d   1      10.744  -6.420  -6.781  0.00  0.00    -0.049 A 
ATOM      2  C   LIG d   1      11.510  -6.383  -5.629  0.00  0.00    -0.058 A 
ATOM      3  C   LIG d   1      11.151  -5.571  -4.570  0.00  0.00    -0.053 A 
ATOM      4  C   LIG d   1      10.008  -4.787  -4.663  0.00  0.00    -0.004 A 
ATOM      5  C   LIG d   1       9.225  -4.842  -5.836  0.00  0.00     0.038 A 
ATOM      6  C   LIG d   1       9.602  -5.644  -6.890  0.00  0.00    -0.037 A 
ATOM      7  N   LIG d   1       8.074  -4.062  -5.825  0.00  0.00    -0.311 N 
ATOM      8  C   LIG d   1       7.338  -3.803  -4.566  0.00  0.00     0.063 C 
ATOM      9  H   LIG d   1       6.795  -4.697  -4.262  0.00  0.00     0.056 H 
ATOM     10  C   LIG d   1       8.344  -3.430  -3.512  0.00  0.00    -0.062 C 
ATOM     11  C   LIG d   1       9.586  -3.883  -3.574  0.00  0.00    -0.055 C 
ATOM     12  C   LIG d   1       6.355  -2.677  -4.875  0.00  0.00     0.127 A 
ATOM     13  C   LIG d   1       6.062  -2.864  -6.380  0.00  0.00     0.032 C 
ATOM     14  H   LIG d   1       5.307  -3.633  -6.537  0.00  0.00     0.039 H 
ATOM     15  C   LIG d   1       7.443  -3.323  -6.919  0.00  0.00     0.095 C 
ATOM     16  H   LIG d   1       8.047  -2.457  -7.186  0.00  0.00     0.059 H 
ATOM     17  C   LIG d   1       5.096  -2.781  -4.062  0.00  0.00     0.180 A 
ATOM     18  O   LIG d   1       4.343  -3.731  -4.011  0.00  0.00    -0.291 OA
ATOM     19  C   LIG d   1       4.955  -1.513  -3.342  0.00  0.00     0.029 A 
ATOM     20  C   LIG d   1       3.950  -1.105  -2.459  0.00  0.00    -0.051 A 
ATOM     21  C   LIG d   1       4.068   0.167  -1.915  0.00  0.00    -0.061 A 
ATOM     22  C   LIG d   1       5.124   1.002  -2.222  0.00  0.00    -0.061 A 
ATOM     23  C   LIG d   1       6.134   0.621  -3.096  0.00  0.00    -0.051 A 
ATOM     24  C   LIG d   1       6.040  -0.654  -3.660  0.00  0.00     0.029 A 
ATOM     25  C   LIG d   1       6.941  -1.320  -4.603  0.00  0.00     0.180 A 
ATOM     26  O   LIG d   1       7.962  -0.864  -5.074  0.00  0.00    -0.291 OA
ATOM     27  H   LIG d   1      12.397  -6.995  -5.556  0.00  0.00     0.062 H 
ATOM     28  H   LIG d   1      11.755  -5.546  -3.676  0.00  0.00     0.062 H 
ATOM     29  H   LIG d   1       9.010  -5.670  -7.792  0.00  0.00     0.064 H 
ATOM     30  H   LIG d   1       8.060  -2.769  -2.707  0.00  0.00     0.059 H 
ATOM     31  H   LIG d   1      10.299  -3.600  -2.812  0.00  0.00     0.062 H 
ATOM     32  H   LIG d   1       3.119  -1.749  -2.213  0.00  0.00     0.062 H 
ATOM     33  H   LIG d   1       3.309   0.515  -1.229  0.00  0.00     0.062 H 
ATOM     34  H   LIG d   1       5.166   1.981  -1.769  0.00  0.00     0.062 H 
ATOM     35  H   LIG d   1       6.956   1.281  -3.330  0.00  0.00     0.062 H 
ENDROOT
BRANCH  13  36
ATOM     36  C   LIG d   1       5.641  -1.563  -7.012  0.00  0.00    -0.034 A 
ATOM     37  C   LIG d   1       6.463  -0.949  -7.939  0.00  0.00    -0.013 A 
ATOM     38  C   LIG d   1       6.076   0.246  -8.527  0.00  0.00     0.165 A 
ATOM     39  H   LIG d   1       7.405  -1.403  -8.209  0.00  0.00     0.066 H 
ATOM     40  C   LIG d   1       4.867   0.832  -8.176  0.00  0.00     0.203 A 
ATOM     41  C   LIG d   1       4.045   0.215  -7.239  0.00  0.00     0.165 A 
ATOM     42  C   LIG d   1       4.437  -0.983  -6.660  0.00  0.00    -0.013 A 
ATOM     43  H   LIG d   1       3.800  -1.462  -5.932  0.00  0.00     0.066 H 
BRANCH  38  44
ATOM     44  O   LIG d   1       6.883   0.847  -9.444  0.00  0.00    -0.491 OA
BRANCH  44  45
ATOM     45  C   LIG d   1       7.445   0.012 -10.459  0.00  0.00     0.079 C 
ATOM     46  H   LIG d   1       7.029  -0.993 -10.375  0.00  0.00     0.066 H 
ATOM     47  H   LIG d   1       7.208   0.423 -11.440  0.00  0.00     0.066 H 
ATOM     48  H   LIG d   1       8.528  -0.031 -10.335  0.00  0.00     0.066 H 
ENDBRANCH  44  45
ENDBRANCH  38  44
BRANCH  40  49
ATOM     49  O   LIG d   1       4.486   2.007  -8.747  0.00  0.00    -0.488 OA
BRANCH  49  50
ATOM     50  C   LIG d   1       3.804   1.928 -10.001  0.00  0.00     0.079 C 
ATOM     51  H   LIG d   1       3.863   0.910 -10.383  0.00  0.00     0.066 H 
ATOM     52  H   LIG d   1       2.759   2.207  -9.864  0.00  0.00     0.066 H 
ATOM     53  H   LIG d   1       4.272   2.610 -10.712  0.00  0.00     0.066 H 
ENDBRANCH  49  50
ENDBRANCH  40  49
BRANCH  41  54
ATOM     54  O   LIG d   1       2.861   0.784  -6.892  0.00  0.00    -0.491 OA
BRANCH  54  55
ATOM     55  C   LIG d   1       2.430   0.613  -5.540  0.00  0.00     0.079 C 
ATOM     56  H   LIG d   1       1.562   1.245  -5.353  0.00  0.00     0.066 H 
ATOM     57  H   LIG d   1       2.164  -0.431  -5.373  0.00  0.00     0.066 H 
ATOM     58  H   LIG d   1       3.238   0.894  -4.864  0.00  0.00     0.066 H 
ENDBRANCH  54  55
ENDBRANCH  41  54
ENDBRANCH  13  36
BRANCH  15  59
ATOM     59  C   LIG d   1       7.261  -4.221  -8.115  0.00  0.00     0.184 C 
ATOM     60  O   LIG d   1       6.478  -5.146  -8.065  0.00  0.00    -0.290 OA
BRANCH  59  61
ATOM     61  C   LIG d   1       8.033  -3.976  -9.343  0.00  0.00     0.019 A 
ATOM     62  C   LIG d   1       9.137  -3.119  -9.320  0.00  0.00    -0.051 A 
ATOM     63  C   LIG d   1       9.858  -2.898 -10.475  0.00  0.00    -0.061 A 
ATOM     64  H   LIG d   1       9.427  -2.633  -8.400  0.00  0.00     0.062 H 
ATOM     65  C   LIG d   1       9.485  -3.513 -11.656  0.00  0.00    -0.062 A 
ATOM     66  H   LIG d   1      10.714  -2.239 -10.457  0.00  0.00     0.062 H 
ATOM     67  C   LIG d   1       8.390  -4.359 -11.689  0.00  0.00    -0.061 A 
ATOM     68  H   LIG d   1      10.051  -3.333 -12.558  0.00  0.00     0.062 H 
ATOM     69  C   LIG d   1       7.662  -4.595 -10.541  0.00  0.00    -0.051 A 
ATOM     70  H   LIG d   1       8.105  -4.837 -12.615  0.00  0.00     0.062 H 
ATOM     71  H   LIG d   1       6.808  -5.256 -10.568  0.00  0.00     0.062 H 
ENDBRANCH  59  61
ENDBRANCH  15  59
BRANCH   1  72
ATOM     72  C   LIG d   1      11.159  -7.305  -7.929  0.00  0.00    -0.040 C 
ATOM     73  H   LIG d   1      11.307  -8.322  -7.568  0.00  0.00     0.028 H 
ATOM     74  H   LIG d   1      10.379  -7.300  -8.691  0.00  0.00     0.028 H 
ATOM     75  H   LIG d   1      12.089  -6.932  -8.358  0.00  0.00     0.028 H 
ENDBRANCH   1  72
TORSDOF 10
ENDMDL
MODEL 9
REMARK VINA RESULT:      -6.5      2.164      5.279
REMARK  10 active torsions:
REMARK  status: ('A' for Active; 'I' for Inactive)
REMARK    1  A    between atoms: C_1  and  C_2 
REMARK    2  A    between atoms: C_14  and  C_26 
REMARK    3  A    between atoms: C_16  and  C_18 
REMARK    4  A    between atoms: C_18  and  C_20 
REMARK    5  A    between atoms: C_28  and  O_36 
REMARK    6  A    between atoms: C_29  and  O_34 
REMARK    7  A    between atoms: C_30  and  O_32 
REMARK    8  A    between atoms: O_32  and  C_33 
REMARK    9  A    between atoms: O_34  and  C_35 
REMARK   10  A    between atoms: O_36  and  C_37 
ROOT
ATOM      1  C   LIG d   1       4.666  -0.716 -12.211  0.00  0.00    -0.049 A 
ATOM      2  C   LIG d   1       3.337  -0.335 -12.138  0.00  0.00    -0.058 A 
ATOM      3  C   LIG d   1       2.700  -0.229 -10.917  0.00  0.00    -0.053 A 
ATOM      4  C   LIG d   1       3.401  -0.504  -9.750  0.00  0.00    -0.004 A 
ATOM      5  C   LIG d   1       4.760  -0.878  -9.832  0.00  0.00     0.038 A 
ATOM      6  C   LIG d   1       5.379  -0.994 -11.056  0.00  0.00    -0.037 A 
ATOM      7  N   LIG d   1       5.397  -1.087  -8.614  0.00  0.00    -0.311 N 
ATOM      8  C   LIG d   1       5.006  -0.327  -7.405  0.00  0.00     0.063 C 
ATOM      9  H   LIG d   1       5.370   0.698  -7.475  0.00  0.00     0.056 H 
ATOM     10  C   LIG d   1       3.504  -0.334  -7.322  0.00  0.00    -0.062 C 
ATOM     11  C   LIG d   1       2.768  -0.429  -8.419  0.00  0.00    -0.055 C 
ATOM     12  C   LIG d   1       5.669  -1.035  -6.227  0.00  0.00     0.127 A 
ATOM     13  C   LIG d   1       6.937  -1.657  -6.854  0.00  0.00     0.032 C 
ATOM     14  H   LIG d   1       7.737  -0.920  -6.926  0.00  0.00     0.039 H 
ATOM     15  C   LIG d   1       6.429  -2.064  -8.262  0.00  0.00     0.095 C 
ATOM     16  H   LIG d   1       6.003  -3.066  -8.231  0.00  0.00     0.059 H 
ATOM     17  C   LIG d   1       6.024  -0.085  -5.118  0.00  0.00     0.180 A 
ATOM     18  O   LIG d   1       6.719   0.904  -5.208  0.00  0.00    -0.291 OA
ATOM     19  C   LIG d   1       5.368  -0.587  -3.909  0.00  0.00     0.029 A 
ATOM     20  C   LIG d   1       5.388  -0.067  -2.611  0.00  0.00    -0.051 A 
ATOM     21  C   LIG d   1       4.668  -0.756  -1.644  0.00  0.00    -0.061 A 
ATOM     22  C   LIG d   1       3.957  -1.903  -1.937  0.00  0.00    -0.061 A 
ATOM     23  C   LIG d   1       3.921  -2.440  -3.217  0.00  0.00    -0.051 A 
ATOM     24  C   LIG d   1       4.639  -1.768  -4.210  0.00  0.00     0.029 A 
ATOM     25  C   LIG d   1       4.786  -2.095  -5.630  0.00  0.00     0.180 A 
ATOM     26  O   LIG d   1       4.292  -3.038  -6.211  0.00  0.00    -0.291 OA
ATOM     27  H   LIG d   1       2.793  -0.119 -13.046  0.00  0.00     0.062 H 
ATOM     28  H   LIG d   1       1.662   0.066 -10.870  0.00  0.00     0.062 H 
ATOM     29  H   LIG d   1       6.414  -1.297 -11.115  0.00  0.00     0.064 H 
ATOM     30  H   LIG d   1       3.017  -0.282  -6.360  0.00  0.00     0.059 H 
ATOM     31  H   LIG d   1       1.690  -0.440  -8.341  0.00  0.00     0.062 H 
ATOM     32  H   LIG d   1       5.941   0.829  -2.371  0.00  0.00     0.062 H 
ATOM     33  H   LIG d   1       4.662  -0.382  -0.631  0.00  0.00     0.062 H 
ATOM     34  H   LIG d   1       3.414  -2.399  -1.146  0.00  0.00     0.062 H 
ATOM     35  H   LIG d   1       3.363  -3.339  -3.436  0.00  0.00     0.062 H 
ENDROOT
BRANCH  13  36
ATOM     36  C   LIG d   1       7.388  -2.863  -6.073  0.00  0.00    -0.034 A 
ATOM     37  C   LIG d   1       8.231  -2.707  -4.989  0.00  0.00    -0.013 A 
ATOM     38  C   LIG d   1       8.644  -3.815  -4.264  0.00  0.00     0.165 A 
ATOM     39  H   LIG d   1       8.565  -1.721  -4.703  0.00  0.00     0.066 H 
ATOM     40  C   LIG d   1       8.218  -5.084  -4.635  0.00  0.00     0.203 A 
ATOM     41  C   LIG d   1       7.374  -5.238  -5.729  0.00  0.00     0.165 A 
ATOM     42  C   LIG d   1       6.961  -4.125  -6.445  0.00  0.00    -0.013 A 
ATOM     43  H   LIG d   1       6.307  -4.243  -7.295  0.00  0.00     0.066 H 
BRANCH  38  44
ATOM     44  O   LIG d   1       9.470  -3.660  -3.194  0.00  0.00    -0.491 OA
BRANCH  44  45
ATOM     45  C   LIG d   1      10.864  -3.506  -3.468  0.00  0.00     0.079 C 
ATOM     46  H   LIG d   1      11.175  -2.492  -3.216  0.00  0.00     0.066 H 
ATOM     47  H   LIG d   1      11.432  -4.219  -2.870  0.00  0.00     0.066 H 
ATOM     48  H   LIG d   1      11.048  -3.691  -4.526  0.00  0.00     0.066 H 
ENDBRANCH  44  45
ENDBRANCH  38  44
BRANCH  40  49
ATOM     49  O   LIG d   1       8.624  -6.174  -3.929  0.00  0.00    -0.488 OA
BRANCH  49  50
ATOM     50  C   LIG d   1       9.759  -6.885  -4.429  0.00  0.00     0.079 C 
ATOM     51  H   LIG d   1      10.386  -6.207  -5.008  0.00  0.00     0.066 H 
ATOM     52  H   LIG d   1      10.332  -7.288  -3.594  0.00  0.00     0.066 H 
ATOM     53  H   LIG d   1       9.423  -7.702  -5.068  0.00  0.00     0.066 H 
ENDBRANCH  49  50
ENDBRANCH  40  49
BRANCH  41  54
ATOM     54  O   LIG d   1       6.954  -6.478  -6.096  0.00  0.00    -0.491 OA
BRANCH  54  55
ATOM     55  C   LIG d   1       5.635  -6.860  -5.701  0.00  0.00     0.079 C 
ATOM     56  H   LIG d   1       5.572  -7.947  -5.651  0.00  0.00     0.066 H 
ATOM     57  H   LIG d   1       5.413  -6.437  -4.721  0.00  0.00     0.066 H 
ATOM     58  H   LIG d   1       4.915  -6.486  -6.429  0.00  0.00     0.066 H 
ENDBRANCH  54  55
ENDBRANCH  41  54
ENDBRANCH  13  36
BRANCH  15  59
ATOM     59  C   LIG d   1       7.558  -2.008  -9.258  0.00  0.00     0.184 C 
ATOM     60  O   LIG d   1       7.631  -2.838 -10.139  0.00  0.00    -0.290 OA
BRANCH  59  61
ATOM     61  C   LIG d   1       8.572  -0.946  -9.161  0.00  0.00     0.019 A 
ATOM     62  C   LIG d   1       8.284   0.344  -9.618  0.00  0.00    -0.051 A 
ATOM     63  C   LIG d   1       9.238   1.335  -9.520  0.00  0.00    -0.061 A 
ATOM     64  H   LIG d   1       7.316   0.565 -10.044  0.00  0.00     0.062 H 
ATOM     65  C   LIG d   1      10.480   1.053  -8.980  0.00  0.00    -0.062 A 
ATOM     66  H   LIG d   1       9.016   2.333  -9.869  0.00  0.00     0.062 H 
ATOM     67  C   LIG d   1      10.775  -0.222  -8.531  0.00  0.00    -0.061 A 
ATOM     68  H   LIG d   1      11.225   1.832  -8.910  0.00  0.00     0.062 H 
ATOM     69  C   LIG d   1       9.830  -1.223  -8.617  0.00  0.00    -0.051 A 
ATOM     70  H   LIG d   1      11.747  -0.435  -8.110  0.00  0.00     0.062 H 
ATOM     71  H   LIG d   1      10.061  -2.217  -8.265  0.00  0.00     0.062 H 
ENDBRANCH  59  61
ENDBRANCH  15  59
BRANCH   1  72
ATOM     72  C   LIG d   1       5.340  -0.835 -13.553  0.00  0.00    -0.040 C 
ATOM     73  H   LIG d   1       5.407   0.149 -14.016  0.00  0.00     0.028 H 
ATOM     74  H   LIG d   1       6.344  -1.243 -13.420  0.00  0.00     0.028 H 
ATOM     75  H   LIG d   1       4.760  -1.500 -14.193  0.00  0.00     0.028 H 
ENDBRANCH   1  72
TORSDOF 10
ENDMDL
MODEL 10
REMARK VINA RESULT:      -6.5      2.168      5.176
REMARK  10 active torsions:
REMARK  status: ('A' for Active; 'I' for Inactive)
REMARK    1  A    between atoms: C_1  and  C_2 
REMARK    2  A    between atoms: C_14  and  C_26 
REMARK    3  A    between atoms: C_16  and  C_18 
REMARK    4  A    between atoms: C_18  and  C_20 
REMARK    5  A    between atoms: C_28  and  O_36 
REMARK    6  A    between atoms: C_29  and  O_34 
REMARK    7  A    between atoms: C_30  and  O_32 
REMARK    8  A    between atoms: O_32  and  C_33 
REMARK    9  A    between atoms: O_34  and  C_35 
REMARK   10  A    between atoms: O_36  and  C_37 
ROOT
ATOM      1  C   LIG d   1       4.562  -0.819 -12.230  0.00  0.00    -0.049 A 
ATOM      2  C   LIG d   1       3.228  -0.459 -12.149  0.00  0.00    -0.058 A 
ATOM      3  C   LIG d   1       2.601  -0.348 -10.923  0.00  0.00    -0.053 A 
ATOM      4  C   LIG d   1       3.318  -0.598  -9.760  0.00  0.00    -0.004 A 
ATOM      5  C   LIG d   1       4.682  -0.952  -9.851  0.00  0.00     0.038 A 
ATOM      6  C   LIG d   1       5.291  -1.073 -11.080  0.00  0.00    -0.037 A 
ATOM      7  N   LIG d   1       5.334  -1.137  -8.637  0.00  0.00    -0.311 N 
ATOM      8  C   LIG d   1       4.943  -0.368  -7.433  0.00  0.00     0.063 C 
ATOM      9  H   LIG d   1       5.290   0.661  -7.519  0.00  0.00     0.056 H 
ATOM     10  C   LIG d   1       3.442  -0.399  -7.335  0.00  0.00    -0.062 C 
ATOM     11  C   LIG d   1       2.697  -0.518  -8.423  0.00  0.00    -0.055 C 
ATOM     12  C   LIG d   1       5.629  -1.052  -6.254  0.00  0.00     0.127 A 
ATOM     13  C   LIG d   1       6.900  -1.662  -6.886  0.00  0.00     0.032 C 
ATOM     14  H   LIG d   1       7.687  -0.914  -6.975  0.00  0.00     0.039 H 
ATOM     15  C   LIG d   1       6.384  -2.094  -8.284  0.00  0.00     0.095 C 
ATOM     16  H   LIG d   1       5.974  -3.102  -8.237  0.00  0.00     0.059 H 
ATOM     17  C   LIG d   1       5.980  -0.084  -5.160  0.00  0.00     0.180 A 
ATOM     18  O   LIG d   1       6.659   0.915  -5.267  0.00  0.00    -0.291 OA
ATOM     19  C   LIG d   1       5.343  -0.582  -3.938  0.00  0.00     0.029 A 
ATOM     20  C   LIG d   1       5.368  -0.046  -2.646  0.00  0.00    -0.051 A 
ATOM     21  C   LIG d   1       4.668  -0.735  -1.664  0.00  0.00    -0.061 A 
ATOM     22  C   LIG d   1       3.973  -1.896  -1.937  0.00  0.00    -0.061 A 
ATOM     23  C   LIG d   1       3.933  -2.449  -3.210  0.00  0.00    -0.051 A 
ATOM     24  C   LIG d   1       4.630  -1.778  -4.218  0.00  0.00     0.029 A 
ATOM     25  C   LIG d   1       4.768  -2.119  -5.635  0.00  0.00     0.180 A 
ATOM     26  O   LIG d   1       4.284  -3.076  -6.200  0.00  0.00    -0.291 OA
ATOM     27  H   LIG d   1       2.672  -0.262 -13.054  0.00  0.00     0.062 H 
ATOM     28  H   LIG d   1       1.559  -0.069 -10.869  0.00  0.00     0.062 H 
ATOM     29  H   LIG d   1       6.329  -1.360 -11.145  0.00  0.00     0.064 H 
ATOM     30  H   LIG d   1       2.964  -0.342  -6.369  0.00  0.00     0.059 H 
ATOM     31  H   LIG d   1       1.620  -0.544  -8.335  0.00  0.00     0.062 H 
ATOM     32  H   LIG d   1       5.909   0.861  -2.423  0.00  0.00     0.062 H 
ATOM     33  H   LIG d   1       4.667  -0.349  -0.656  0.00  0.00     0.062 H 
ATOM     34  H   LIG d   1       3.446  -2.391  -1.135  0.00  0.00     0.062 H 
ATOM     35  H   LIG d   1       3.386  -3.359  -3.413  0.00  0.00     0.062 H 
ENDROOT
BRANCH  13  36
ATOM     36  C   LIG d   1       7.377  -2.852  -6.095  0.00  0.00    -0.034 A 
ATOM     37  C   LIG d   1       6.907  -4.116  -6.400  0.00  0.00    -0.013 A 
ATOM     38  C   LIG d   1       7.348  -5.214  -5.678  0.00  0.00     0.165 A 
ATOM     39  H   LIG d   1       6.198  -4.248  -7.204  0.00  0.00     0.066 H 
ATOM     40  C   LIG d   1       8.256  -5.043  -4.640  0.00  0.00     0.203 A 
ATOM     41  C   LIG d   1       8.723  -3.769  -4.333  0.00  0.00     0.165 A 
ATOM     42  C   LIG d   1       8.281  -2.676  -5.064  0.00  0.00    -0.013 A 
ATOM     43  H   LIG d   1       8.642  -1.688  -4.826  0.00  0.00     0.066 H 
BRANCH  38  44
ATOM     44  O   LIG d   1       6.889  -6.459  -5.982  0.00  0.00    -0.491 OA
BRANCH  44  45
ATOM     45  C   LIG d   1       5.517  -6.732  -5.690  0.00  0.00     0.079 C 
ATOM     46  H   LIG d   1       5.411  -7.773  -5.382  0.00  0.00     0.066 H 
ATOM     47  H   LIG d   1       5.180  -6.079  -4.885  0.00  0.00     0.066 H 
ATOM     48  H   LIG d   1       4.914  -6.553  -6.580  0.00  0.00     0.066 H 
ENDBRANCH  44  45
ENDBRANCH  38  44
BRANCH  40  49
ATOM     49  O   LIG d   1       8.688  -6.117  -3.926  0.00  0.00    -0.488 OA
BRANCH  49  50
ATOM     50  C   LIG d   1       9.797  -6.846  -4.457  0.00  0.00     0.079 C 
ATOM     51  H   LIG d   1      10.705  -6.251  -4.355  0.00  0.00     0.066 H 
ATOM     52  H   LIG d   1       9.912  -7.781  -3.910  0.00  0.00     0.066 H 
ATOM     53  H   LIG d   1       9.620  -7.060  -5.510  0.00  0.00     0.066 H 
ENDBRANCH  49  50
ENDBRANCH  40  49
BRANCH  41  54
ATOM     54  O   LIG d   1       9.611  -3.596  -3.319  0.00  0.00    -0.491 OA
BRANCH  54  55
ATOM     55  C   LIG d   1      10.988  -3.461  -3.677  0.00  0.00     0.079 C 
ATOM     56  H   LIG d   1      11.075  -2.799  -4.538  0.00  0.00     0.066 H 
ATOM     57  H   LIG d   1      11.543  -3.043  -2.838  0.00  0.00     0.066 H 
ATOM     58  H   LIG d   1      11.394  -4.441  -3.929  0.00  0.00     0.066 H 
ENDBRANCH  54  55
ENDBRANCH  41  54
ENDBRANCH  13  36
BRANCH  15  59
ATOM     59  C   LIG d   1       7.503  -2.032  -9.292  0.00  0.00     0.184 C 
ATOM     60  O   LIG d   1       7.585  -2.876 -10.159  0.00  0.00    -0.290 OA
BRANCH  59  61
ATOM     61  C   LIG d   1       8.494  -0.947  -9.224  0.00  0.00     0.019 A 
ATOM     62  C   LIG d   1       9.761  -1.185  -8.682  0.00  0.00    -0.051 A 
ATOM     63  C   LIG d   1      10.686  -0.164  -8.627  0.00  0.00    -0.061 A 
ATOM     64  H   LIG d   1      10.016  -2.167  -8.311  0.00  0.00     0.062 H 
ATOM     65  C   LIG d   1      10.360   1.096  -9.096  0.00  0.00    -0.062 A 
ATOM     66  H   LIG d   1      11.666  -0.347  -8.212  0.00  0.00     0.062 H 
ATOM     67  C   LIG d   1       9.107   1.342  -9.629  0.00  0.00    -0.061 A 
ATOM     68  H   LIG d   1      11.087   1.893  -9.046  0.00  0.00     0.062 H 
ATOM     69  C   LIG d   1       8.172   0.330  -9.697  0.00  0.00    -0.051 A 
ATOM     70  H   LIG d   1       8.860   2.328  -9.995  0.00  0.00     0.062 H 
ATOM     71  H   LIG d   1       7.195   0.522 -10.114  0.00  0.00     0.062 H 
ENDBRANCH  59  61
ENDBRANCH  15  59
BRANCH   1  72
ATOM     72  C   LIG d   1       5.225  -0.944 -13.578  0.00  0.00    -0.040 C 
ATOM     73  H   LIG d   1       5.449   0.048 -13.967  0.00  0.00     0.028 H 
ATOM     74  H   LIG d   1       6.151  -1.512 -13.475  0.00  0.00     0.028 H 
ATOM     75  H   LIG d   1       4.556  -1.462 -14.265  0.00  0.00     0.028 H 
ENDBRANCH   1  72
TORSDOF 10
ENDMDL
