MODEL 1
REMARK VINA RESULT:      -8.4      0.000      0.000
REMARK  3 active torsions:
REMARK  status: ('A' for Active; 'I' for Inactive)
REMARK    1  A    between atoms: C_1  and  N_2 
REMARK    2  A    between atoms: N_5  and  C_8 
REMARK    3  A    between atoms: C_8  and  C_9 
REMARK       I    between atoms: C_9  and  N_11 
ROOT
ATOM      1  C   LIG d   1       4.902  -1.082  -6.963  0.00  0.00     0.231 C 
ATOM      2  O   LIG d   1       5.361   0.034  -7.088  0.00  0.00    -0.274 OA
ATOM      3  N   LIG d   1       5.272  -1.850  -5.920  0.00  0.00    -0.277 N 
ATOM      4  C   LIG d   1       4.731  -3.209  -5.755  0.00  0.00     0.020 C 
ATOM      5  C   LIG d   1       5.881  -4.220  -5.842  0.00  0.00    -0.009 C 
ATOM      6  C   LIG d   1       7.033  -3.734  -5.001  0.00  0.00    -0.015 A 
ATOM      7  C   LIG d   1       8.152  -4.493  -4.481  0.00  0.00     0.003 A 
ATOM      8  C   LIG d   1       8.510  -5.841  -4.578  0.00  0.00    -0.052 A 
ATOM      9  C   LIG d   1       9.666  -6.223  -3.943  0.00  0.00    -0.061 A 
ATOM     10  C   LIG d   1      10.450  -5.326  -3.237  0.00  0.00    -0.060 A 
ATOM     11  C   LIG d   1      10.118  -3.986  -3.124  0.00  0.00    -0.038 A 
ATOM     12  C   LIG d   1       8.950  -3.570  -3.758  0.00  0.00     0.047 A 
ATOM     13  N   LIG d   1       8.344  -2.350  -3.849  0.00  0.00    -0.355 N 
ATOM     14  H   LIG d   1       8.675  -1.531  -3.448  0.00  0.00     0.166 HD
ATOM     15  C   LIG d   1       7.197  -2.457  -4.590  0.00  0.00     0.058 A 
ATOM     16  C   LIG d   1       6.230  -1.356  -4.926  0.00  0.00     0.181 A 
ATOM     17  C   LIG d   1       5.538  -0.855  -3.702  0.00  0.00     0.012 A 
ATOM     18  C   LIG d   1       4.711  -1.481  -2.793  0.00  0.00    -0.054 A 
ATOM     19  C   LIG d   1       4.228  -0.709  -1.742  0.00  0.00    -0.061 A 
ATOM     20  C   LIG d   1       4.560   0.624  -1.617  0.00  0.00    -0.060 A 
ATOM     21  C   LIG d   1       5.390   1.262  -2.526  0.00  0.00    -0.040 A 
ATOM     22  C   LIG d   1       5.882   0.498  -3.586  0.00  0.00     0.040 A 
ATOM     23  N   LIG d   1       6.716   0.873  -4.626  0.00  0.00    -0.283 N 
ATOM     24  C   LIG d   1       6.971  -0.154  -5.464  0.00  0.00     0.252 A 
ATOM     25  O   LIG d   1       7.665  -0.119  -6.458  0.00  0.00    -0.272 OA
ATOM     26  H   LIG d   1       4.246  -3.292  -4.783  0.00  0.00     0.047 H 
ATOM     27  H   LIG d   1       4.007  -3.412  -6.544  0.00  0.00     0.047 H 
ATOM     28  H   LIG d   1       5.543  -5.188  -5.474  0.00  0.00     0.033 H 
ATOM     29  H   LIG d   1       6.203  -4.317  -6.880  0.00  0.00     0.033 H 
ATOM     30  H   LIG d   1       7.907  -6.549  -5.127  0.00  0.00     0.062 H 
ATOM     31  H   LIG d   1       9.975  -7.257  -3.996  0.00  0.00     0.062 H 
ATOM     32  H   LIG d   1      11.348  -5.683  -2.757  0.00  0.00     0.062 H 
ATOM     33  H   LIG d   1      10.738  -3.296  -2.569  0.00  0.00     0.064 H 
ATOM     34  H   LIG d   1       4.451  -2.525  -2.894  0.00  0.00     0.062 H 
ATOM     35  H   LIG d   1       3.577  -1.163  -1.009  0.00  0.00     0.062 H 
ATOM     36  H   LIG d   1       4.164   1.187  -0.785  0.00  0.00     0.062 H 
ATOM     37  H   LIG d   1       5.644   2.306  -2.419  0.00  0.00     0.064 H 
ATOM     38  H   LIG d   1       7.073   1.768  -4.739  0.00  0.00     0.155 HD
ENDROOT
BRANCH   1  39
ATOM     39  C   LIG d   1       3.916  -1.608  -7.975  0.00  0.00     0.076 C 
ATOM     40  H   LIG d   1       2.924  -1.220  -7.750  0.00  0.00     0.052 H 
ATOM     41  H   LIG d   1       3.899  -2.698  -7.932  0.00  0.00     0.052 H 
BRANCH  39  42
ATOM     42  N   LIG d   1       4.318  -1.178  -9.320  0.00  0.00    -0.284 N 
ATOM     43  C   LIG d   1       4.586  -2.336 -10.185  0.00  0.00     0.040 C 
ATOM     44  C   LIG d   1       5.057  -1.845 -11.557  0.00  0.00    -0.019 C 
ATOM     45  H   LIG d   1       3.673  -2.920 -10.303  0.00  0.00     0.048 H 
ATOM     46  H   LIG d   1       5.360  -2.956  -9.735  0.00  0.00     0.048 H 
ATOM     47  N   LIG d   1       4.022  -0.993 -12.155  0.00  0.00     0.235 N 
ATOM     48  H   LIG d   1       5.243  -2.702 -12.204  0.00  0.00     0.083 H 
ATOM     49  H   LIG d   1       5.978  -1.273 -11.440  0.00  0.00     0.083 H 
ATOM     50  C   LIG d   1       3.785   0.171 -11.292  0.00  0.00    -0.019 C 
ATOM     51  H   LIG d   1       3.167  -1.520 -12.252  0.00  0.00     0.203 HD
ATOM     52  C   LIG d   1       3.301  -0.302  -9.918  0.00  0.00     0.040 C 
ATOM     53  H   LIG d   1       4.711   0.733 -11.177  0.00  0.00     0.083 H 
ATOM     54  H   LIG d   1       3.025   0.810 -11.743  0.00  0.00     0.083 H 
ATOM     55  H   LIG d   1       2.368  -0.853 -10.032  0.00  0.00     0.048 H 
ATOM     56  H   LIG d   1       3.139   0.561  -9.273  0.00  0.00     0.048 H 
BRANCH  47  57
ATOM     57  C   LIG d   1       4.468  -0.538 -13.479  0.00  0.00    -0.043 C 
ATOM     58  H   LIG d   1       5.522  -0.264 -13.432  0.00  0.00     0.078 H 
ATOM     59  H   LIG d   1       4.333  -1.341 -14.204  0.00  0.00     0.078 H 
ATOM     60  H   LIG d   1       3.880   0.328 -13.782  0.00  0.00     0.078 H 
ENDBRANCH  47  57
ENDBRANCH  39  42
ENDBRANCH   1  39
TORSDOF 3
ENDMDL
MODEL 2
REMARK VINA RESULT:      -8.4      2.158      7.289
REMARK  3 active torsions:
REMARK  status: ('A' for Active; 'I' for Inactive)
REMARK    1  A    between atoms: C_1  and  N_2 
REMARK    2  A    between atoms: N_5  and  C_8 
REMARK    3  A    between atoms: C_8  and  C_9 
REMARK       I    between atoms: C_9  and  N_11 
ROOT
ATOM      1  C   LIG d   1       7.285  -3.124  -5.097  0.00  0.00     0.231 C 
ATOM      2  O   LIG d   1       6.508  -3.929  -4.629  0.00  0.00    -0.274 OA
ATOM      3  N   LIG d   1       6.851  -1.902  -5.461  0.00  0.00    -0.277 N 
ATOM      4  C   LIG d   1       7.778  -0.913  -6.036  0.00  0.00     0.020 C 
ATOM      5  C   LIG d   1       7.336  -0.587  -7.468  0.00  0.00    -0.009 C 
ATOM      6  C   LIG d   1       5.846  -0.360  -7.488  0.00  0.00    -0.015 A 
ATOM      7  C   LIG d   1       5.051   0.319  -8.490  0.00  0.00     0.003 A 
ATOM      8  C   LIG d   1       5.381   0.950  -9.694  0.00  0.00    -0.052 A 
ATOM      9  C   LIG d   1       4.346   1.502 -10.408  0.00  0.00    -0.061 A 
ATOM     10  C   LIG d   1       3.034   1.443  -9.970  0.00  0.00    -0.060 A 
ATOM     11  C   LIG d   1       2.680   0.825  -8.782  0.00  0.00    -0.038 A 
ATOM     12  C   LIG d   1       3.709   0.255  -8.036  0.00  0.00     0.047 A 
ATOM     13  N   LIG d   1       3.713  -0.417  -6.848  0.00  0.00    -0.355 N 
ATOM     14  H   LIG d   1       2.928  -0.608  -6.312  0.00  0.00     0.166 HD
ATOM     15  C   LIG d   1       4.994  -0.778  -6.525  0.00  0.00     0.058 A 
ATOM     16  C   LIG d   1       5.443  -1.526  -5.300  0.00  0.00     0.181 A 
ATOM     17  C   LIG d   1       5.231  -0.714  -4.065  0.00  0.00     0.012 A 
ATOM     18  C   LIG d   1       5.741   0.504  -3.668  0.00  0.00    -0.054 A 
ATOM     19  C   LIG d   1       5.327   0.990  -2.433  0.00  0.00    -0.061 A 
ATOM     20  C   LIG d   1       4.446   0.284  -1.640  0.00  0.00    -0.060 A 
ATOM     21  C   LIG d   1       3.929  -0.942  -2.031  0.00  0.00    -0.040 A 
ATOM     22  C   LIG d   1       4.336  -1.441  -3.269  0.00  0.00     0.040 A 
ATOM     23  N   LIG d   1       3.985  -2.624  -3.898  0.00  0.00    -0.283 N 
ATOM     24  C   LIG d   1       4.591  -2.758  -5.097  0.00  0.00     0.252 A 
ATOM     25  O   LIG d   1       4.473  -3.689  -5.866  0.00  0.00    -0.272 OA
ATOM     26  H   LIG d   1       7.761  -0.005  -5.434  0.00  0.00     0.047 H 
ATOM     27  H   LIG d   1       8.787  -1.325  -6.050  0.00  0.00     0.047 H 
ATOM     28  H   LIG d   1       7.846   0.313  -7.810  0.00  0.00     0.033 H 
ATOM     29  H   LIG d   1       7.587  -1.420  -8.125  0.00  0.00     0.033 H 
ATOM     30  H   LIG d   1       6.401   1.001 -10.045  0.00  0.00     0.062 H 
ATOM     31  H   LIG d   1       4.563   1.998 -11.343  0.00  0.00     0.062 H 
ATOM     32  H   LIG d   1       2.261   1.895 -10.572  0.00  0.00     0.062 H 
ATOM     33  H   LIG d   1       1.652   0.786  -8.450  0.00  0.00     0.064 H 
ATOM     34  H   LIG d   1       6.432   1.055  -4.290  0.00  0.00     0.062 H 
ATOM     35  H   LIG d   1       5.705   1.941  -2.086  0.00  0.00     0.062 H 
ATOM     36  H   LIG d   1       4.151   0.698  -0.689  0.00  0.00     0.062 H 
ATOM     37  H   LIG d   1       3.240  -1.487  -1.403  0.00  0.00     0.064 H 
ATOM     38  H   LIG d   1       3.376  -3.278  -3.521  0.00  0.00     0.155 HD
ENDROOT
BRANCH   1  39
ATOM     39  C   LIG d   1       8.737  -3.491  -5.269  0.00  0.00     0.076 C 
ATOM     40  H   LIG d   1       9.359  -2.626  -5.042  0.00  0.00     0.052 H 
ATOM     41  H   LIG d   1       8.912  -3.804  -6.299  0.00  0.00     0.052 H 
BRANCH  39  42
ATOM     42  N   LIG d   1       9.075  -4.592  -4.358  0.00  0.00    -0.284 N 
ATOM     43  C   LIG d   1      10.032  -5.517  -4.983  0.00  0.00     0.040 C 
ATOM     44  C   LIG d   1      10.312  -6.679  -4.026  0.00  0.00    -0.019 C 
ATOM     45  H   LIG d   1      10.962  -4.989  -5.195  0.00  0.00     0.048 H 
ATOM     46  H   LIG d   1       9.612  -5.904  -5.911  0.00  0.00     0.048 H 
ATOM     47  N   LIG d   1      10.859  -6.156  -2.768  0.00  0.00     0.235 N 
ATOM     48  H   LIG d   1      11.032  -7.358  -4.482  0.00  0.00     0.083 H 
ATOM     49  H   LIG d   1       9.384  -7.215  -3.825  0.00  0.00     0.083 H 
ATOM     50  C   LIG d   1       9.882  -5.254  -2.144  0.00  0.00    -0.019 C 
ATOM     51  H   LIG d   1      11.712  -5.650  -2.956  0.00  0.00     0.203 HD
ATOM     52  C   LIG d   1       9.599  -4.080  -3.084  0.00  0.00     0.040 C 
ATOM     53  H   LIG d   1       8.957  -5.797  -1.952  0.00  0.00     0.083 H 
ATOM     54  H   LIG d   1      10.284  -4.876  -1.204  0.00  0.00     0.083 H 
ATOM     55  H   LIG d   1      10.521  -3.529  -3.266  0.00  0.00     0.048 H 
ATOM     56  H   LIG d   1       8.862  -3.418  -2.628  0.00  0.00     0.048 H 
BRANCH  47  57
ATOM     57  C   LIG d   1      11.145  -7.273  -1.857  0.00  0.00    -0.043 C 
ATOM     58  H   LIG d   1      12.074  -7.758  -2.157  0.00  0.00     0.078 H 
ATOM     59  H   LIG d   1      11.244  -6.896  -0.839  0.00  0.00     0.078 H 
ATOM     60  H   LIG d   1      10.328  -7.994  -1.900  0.00  0.00     0.078 H 
ENDBRANCH  47  57
ENDBRANCH  39  42
ENDBRANCH   1  39
TORSDOF 3
ENDMDL
MODEL 3
REMARK VINA RESULT:      -8.0      3.393      6.307
REMARK  3 active torsions:
REMARK  status: ('A' for Active; 'I' for Inactive)
REMARK    1  A    between atoms: C_1  and  N_2 
REMARK    2  A    between atoms: N_5  and  C_8 
REMARK    3  A    between atoms: C_8  and  C_9 
REMARK       I    between atoms: C_9  and  N_11 
ROOT
ATOM      1  C   LIG d   1       6.079   0.505  -9.614  0.00  0.00     0.231 C 
ATOM      2  O   LIG d   1       5.378   1.395 -10.050  0.00  0.00    -0.274 OA
ATOM      3  N   LIG d   1       5.579  -0.370  -8.721  0.00  0.00    -0.277 N 
ATOM      4  C   LIG d   1       6.416  -1.452  -8.176  0.00  0.00     0.020 C 
ATOM      5  C   LIG d   1       6.560  -1.258  -6.662  0.00  0.00    -0.009 C 
ATOM      6  C   LIG d   1       5.210  -0.947  -6.070  0.00  0.00    -0.015 A 
ATOM      7  C   LIG d   1       4.784  -1.054  -4.690  0.00  0.00     0.003 A 
ATOM      8  C   LIG d   1       5.442  -1.457  -3.524  0.00  0.00    -0.052 A 
ATOM      9  C   LIG d   1       4.712  -1.434  -2.361  0.00  0.00    -0.061 A 
ATOM     10  C   LIG d   1       3.387  -1.032  -2.330  0.00  0.00    -0.060 A 
ATOM     11  C   LIG d   1       2.712  -0.629  -3.470  0.00  0.00    -0.038 A 
ATOM     12  C   LIG d   1       3.427  -0.642  -4.665  0.00  0.00     0.047 A 
ATOM     13  N   LIG d   1       3.079  -0.312  -5.943  0.00  0.00    -0.355 N 
ATOM     14  H   LIG d   1       2.205   0.006  -6.218  0.00  0.00     0.166 HD
ATOM     15  C   LIG d   1       4.147  -0.501  -6.778  0.00  0.00     0.058 A 
ATOM     16  C   LIG d   1       4.191  -0.265  -8.262  0.00  0.00     0.181 A 
ATOM     17  C   LIG d   1       3.301  -1.221  -8.985  0.00  0.00     0.012 A 
ATOM     18  C   LIG d   1       3.310  -2.597  -9.073  0.00  0.00    -0.054 A 
ATOM     19  C   LIG d   1       2.315  -3.187  -9.845  0.00  0.00    -0.061 A 
ATOM     20  C   LIG d   1       1.364  -2.429 -10.496  0.00  0.00    -0.060 A 
ATOM     21  C   LIG d   1       1.349  -1.045 -10.414  0.00  0.00    -0.040 A 
ATOM     22  C   LIG d   1       2.341  -0.439  -9.642  0.00  0.00     0.040 A 
ATOM     23  N   LIG d   1       2.562   0.904  -9.392  0.00  0.00    -0.283 N 
ATOM     24  C   LIG d   1       3.632   1.100  -8.591  0.00  0.00     0.252 A 
ATOM     25  O   LIG d   1       4.061   2.168  -8.208  0.00  0.00    -0.272 OA
ATOM     26  H   LIG d   1       5.944  -2.413  -8.377  0.00  0.00     0.047 H 
ATOM     27  H   LIG d   1       7.400  -1.422  -8.644  0.00  0.00     0.047 H 
ATOM     28  H   LIG d   1       6.953  -2.171  -6.214  0.00  0.00     0.033 H 
ATOM     29  H   LIG d   1       7.245  -0.433  -6.464  0.00  0.00     0.033 H 
ATOM     30  H   LIG d   1       6.475  -1.772  -3.537  0.00  0.00     0.062 H 
ATOM     31  H   LIG d   1       5.187  -1.740  -1.440  0.00  0.00     0.062 H 
ATOM     32  H   LIG d   1       2.862  -1.035  -1.387  0.00  0.00     0.062 H 
ATOM     33  H   LIG d   1       1.678  -0.318  -3.433  0.00  0.00     0.064 H 
ATOM     34  H   LIG d   1       4.056  -3.189  -8.563  0.00  0.00     0.062 H 
ATOM     35  H   LIG d   1       2.288  -4.263  -9.938  0.00  0.00     0.062 H 
ATOM     36  H   LIG d   1       0.610  -2.927 -11.084  0.00  0.00     0.062 H 
ATOM     37  H   LIG d   1       0.600  -0.460 -10.927  0.00  0.00     0.064 H 
ATOM     38  H   LIG d   1       2.014   1.620  -9.751  0.00  0.00     0.155 HD
ENDROOT
BRANCH   1  39
ATOM     39  C   LIG d   1       7.509   0.380 -10.074  0.00  0.00     0.076 C 
ATOM     40  H   LIG d   1       7.532   0.239 -11.154  0.00  0.00     0.052 H 
ATOM     41  H   LIG d   1       7.973  -0.477  -9.586  0.00  0.00     0.052 H 
BRANCH  39  42
ATOM     42  N   LIG d   1       8.245   1.601  -9.723  0.00  0.00    -0.284 N 
ATOM     43  C   LIG d   1       8.500   1.664  -8.277  0.00  0.00     0.040 C 
ATOM     44  C   LIG d   1       9.216   2.977  -7.945  0.00  0.00    -0.019 C 
ATOM     45  H   LIG d   1       9.129   0.824  -7.982  0.00  0.00     0.048 H 
ATOM     46  H   LIG d   1       7.554   1.619  -7.737  0.00  0.00     0.048 H 
ATOM     47  N   LIG d   1      10.481   3.047  -8.687  0.00  0.00     0.235 N 
ATOM     48  H   LIG d   1       9.418   3.019  -6.875  0.00  0.00     0.083 H 
ATOM     49  H   LIG d   1       8.581   3.817  -8.228  0.00  0.00     0.083 H 
ATOM     50  C   LIG d   1      10.207   3.008 -10.130  0.00  0.00    -0.019 C 
ATOM     51  H   LIG d   1      11.063   2.262  -8.434  0.00  0.00     0.203 HD
ATOM     52  C   LIG d   1       9.501   1.695 -10.480  0.00  0.00     0.040 C 
ATOM     53  H   LIG d   1       9.568   3.848 -10.401  0.00  0.00     0.083 H 
ATOM     54  H   LIG d   1      11.146   3.072 -10.680  0.00  0.00     0.083 H 
ATOM     55  H   LIG d   1      10.146   0.856 -10.221  0.00  0.00     0.048 H 
ATOM     56  H   LIG d   1       9.285   1.672 -11.548  0.00  0.00     0.048 H 
BRANCH  47  57
ATOM     57  C   LIG d   1      11.175   4.298  -8.355  0.00  0.00    -0.043 C 
ATOM     58  H   LIG d   1      10.596   4.847  -7.611  0.00  0.00     0.078 H 
ATOM     59  H   LIG d   1      12.161   4.071  -7.952  0.00  0.00     0.078 H 
ATOM     60  H   LIG d   1      11.280   4.905  -9.254  0.00  0.00     0.078 H 
ENDBRANCH  47  57
ENDBRANCH  39  42
ENDBRANCH   1  39
TORSDOF 3
ENDMDL
MODEL 4
REMARK VINA RESULT:      -7.5      2.459      6.438
REMARK  3 active torsions:
REMARK  status: ('A' for Active; 'I' for Inactive)
REMARK    1  A    between atoms: C_1  and  N_2 
REMARK    2  A    between atoms: N_5  and  C_8 
REMARK    3  A    between atoms: C_8  and  C_9 
REMARK       I    between atoms: C_9  and  N_11 
ROOT
ATOM      1  C   LIG d   1       7.576  -2.883  -5.072  0.00  0.00     0.231 C 
ATOM      2  O   LIG d   1       6.868  -3.756  -4.617  0.00  0.00    -0.274 OA
ATOM      3  N   LIG d   1       7.043  -1.696  -5.423  0.00  0.00    -0.277 N 
ATOM      4  C   LIG d   1       7.885  -0.627  -5.983  0.00  0.00     0.020 C 
ATOM      5  C   LIG d   1       7.421  -0.321  -7.412  0.00  0.00    -0.009 C 
ATOM      6  C   LIG d   1       5.917  -0.219  -7.435  0.00  0.00    -0.015 A 
ATOM      7  C   LIG d   1       5.071   0.404  -8.431  0.00  0.00     0.003 A 
ATOM      8  C   LIG d   1       5.350   1.075  -9.626  0.00  0.00    -0.052 A 
ATOM      9  C   LIG d   1       4.275   1.547 -10.337  0.00  0.00    -0.061 A 
ATOM     10  C   LIG d   1       2.971   1.374  -9.904  0.00  0.00    -0.060 A 
ATOM     11  C   LIG d   1       2.667   0.713  -8.726  0.00  0.00    -0.038 A 
ATOM     12  C   LIG d   1       3.738   0.223  -7.983  0.00  0.00     0.047 A 
ATOM     13  N   LIG d   1       3.795  -0.461  -6.803  0.00  0.00    -0.355 N 
ATOM     14  H   LIG d   1       3.027  -0.725  -6.273  0.00  0.00     0.166 HD
ATOM     15  C   LIG d   1       5.101  -0.719  -6.480  0.00  0.00     0.058 A 
ATOM     16  C   LIG d   1       5.607  -1.442  -5.263  0.00  0.00     0.181 A 
ATOM     17  C   LIG d   1       5.325  -0.665  -4.019  0.00  0.00     0.012 A 
ATOM     18  C   LIG d   1       5.731   0.586  -3.605  0.00  0.00    -0.054 A 
ATOM     19  C   LIG d   1       5.274   1.020  -2.366  0.00  0.00    -0.061 A 
ATOM     20  C   LIG d   1       4.454   0.232  -1.585  0.00  0.00    -0.060 A 
ATOM     21  C   LIG d   1       4.042  -1.027  -1.992  0.00  0.00    -0.040 A 
ATOM     22  C   LIG d   1       4.492  -1.475  -3.235  0.00  0.00     0.040 A 
ATOM     23  N   LIG d   1       4.242  -2.675  -3.880  0.00  0.00    -0.283 N 
ATOM     24  C   LIG d   1       4.861  -2.743  -5.078  0.00  0.00     0.252 A 
ATOM     25  O   LIG d   1       4.823  -3.671  -5.858  0.00  0.00    -0.272 OA
ATOM     26  H   LIG d   1       7.790   0.269  -5.370  0.00  0.00     0.047 H 
ATOM     27  H   LIG d   1       8.925  -0.953  -5.999  0.00  0.00     0.047 H 
ATOM     28  H   LIG d   1       7.855   0.622  -7.742  0.00  0.00     0.033 H 
ATOM     29  H   LIG d   1       7.742  -1.122  -8.079  0.00  0.00     0.033 H 
ATOM     30  H   LIG d   1       6.363   1.215  -9.973  0.00  0.00     0.062 H 
ATOM     31  H   LIG d   1       4.452   2.072 -11.265  0.00  0.00     0.062 H 
ATOM     32  H   LIG d   1       2.165   1.767 -10.504  0.00  0.00     0.062 H 
ATOM     33  H   LIG d   1       1.645   0.585  -8.398  0.00  0.00     0.064 H 
ATOM     34  H   LIG d   1       6.375   1.200  -4.218  0.00  0.00     0.062 H 
ATOM     35  H   LIG d   1       5.571   1.995  -2.006  0.00  0.00     0.062 H 
ATOM     36  H   LIG d   1       4.122   0.608  -0.629  0.00  0.00     0.062 H 
ATOM     37  H   LIG d   1       3.399  -1.636  -1.374  0.00  0.00     0.064 H 
ATOM     38  H   LIG d   1       3.690  -3.382  -3.513  0.00  0.00     0.155 HD
ENDROOT
BRANCH   1  39
ATOM     39  C   LIG d   1       9.054  -3.125  -5.244  0.00  0.00     0.076 C 
ATOM     40  H   LIG d   1       9.510  -3.288  -4.269  0.00  0.00     0.052 H 
ATOM     41  H   LIG d   1       9.511  -2.257  -5.720  0.00  0.00     0.052 H 
BRANCH  39  42
ATOM     42  N   LIG d   1       9.261  -4.310  -6.087  0.00  0.00    -0.284 N 
ATOM     43  C   LIG d   1       9.047  -3.991  -7.506  0.00  0.00     0.040 C 
ATOM     44  C   LIG d   1       9.214  -5.263  -8.342  0.00  0.00    -0.019 C 
ATOM     45  H   LIG d   1       9.778  -3.248  -7.825  0.00  0.00     0.048 H 
ATOM     46  H   LIG d   1       8.041  -3.595  -7.643  0.00  0.00     0.048 H 
ATOM     47  N   LIG d   1      10.563  -5.807  -8.142  0.00  0.00     0.235 N 
ATOM     48  H   LIG d   1       9.069  -5.025  -9.396  0.00  0.00     0.083 H 
ATOM     49  H   LIG d   1       8.473  -6.001  -8.032  0.00  0.00     0.083 H 
ATOM     50  C   LIG d   1      10.751  -6.145  -6.724  0.00  0.00    -0.019 C 
ATOM     51  H   LIG d   1      11.248  -5.120  -8.418  0.00  0.00     0.203 HD
ATOM     52  C   LIG d   1      10.598  -4.880  -5.875  0.00  0.00     0.040 C 
ATOM     53  H   LIG d   1      10.003  -6.877  -6.423  0.00  0.00     0.083 H 
ATOM     54  H   LIG d   1      11.748  -6.560  -6.579  0.00  0.00     0.083 H 
ATOM     55  H   LIG d   1      11.354  -4.152  -6.168  0.00  0.00     0.048 H 
ATOM     56  H   LIG d   1      10.724  -5.132  -4.822  0.00  0.00     0.048 H 
BRANCH  47  57
ATOM     57  C   LIG d   1      10.728  -7.018  -8.958  0.00  0.00    -0.043 C 
ATOM     58  H   LIG d   1      11.186  -6.753  -9.911  0.00  0.00     0.078 H 
ATOM     59  H   LIG d   1      11.367  -7.727  -8.432  0.00  0.00     0.078 H 
ATOM     60  H   LIG d   1       9.752  -7.470  -9.138  0.00  0.00     0.078 H 
ENDBRANCH  47  57
ENDBRANCH  39  42
ENDBRANCH   1  39
TORSDOF 3
ENDMDL
MODEL 5
REMARK VINA RESULT:      -7.4      3.266      5.744
REMARK  3 active torsions:
REMARK  status: ('A' for Active; 'I' for Inactive)
REMARK    1  A    between atoms: C_1  and  N_2 
REMARK    2  A    between atoms: N_5  and  C_8 
REMARK    3  A    between atoms: C_8  and  C_9 
REMARK       I    between atoms: C_9  and  N_11 
ROOT
ATOM      1  C   LIG d   1       6.274   0.207  -9.668  0.00  0.00     0.231 C 
ATOM      2  O   LIG d   1       5.661   1.143 -10.135  0.00  0.00    -0.274 OA
ATOM      3  N   LIG d   1       5.687  -0.599  -8.762  0.00  0.00    -0.277 N 
ATOM      4  C   LIG d   1       6.417  -1.737  -8.180  0.00  0.00     0.020 C 
ATOM      5  C   LIG d   1       6.557  -1.519  -6.668  0.00  0.00    -0.009 C 
ATOM      6  C   LIG d   1       5.231  -1.076  -6.105  0.00  0.00    -0.015 A 
ATOM      7  C   LIG d   1       4.780  -1.111  -4.730  0.00  0.00     0.003 A 
ATOM      8  C   LIG d   1       5.383  -1.542  -3.544  0.00  0.00    -0.052 A 
ATOM      9  C   LIG d   1       4.643  -1.426  -2.394  0.00  0.00    -0.061 A 
ATOM     10  C   LIG d   1       3.358  -0.908  -2.393  0.00  0.00    -0.060 A 
ATOM     11  C   LIG d   1       2.737  -0.474  -3.552  0.00  0.00    -0.038 A 
ATOM     12  C   LIG d   1       3.464  -0.580  -4.735  0.00  0.00     0.047 A 
ATOM     13  N   LIG d   1       3.164  -0.253  -6.026  0.00  0.00    -0.355 N 
ATOM     14  H   LIG d   1       2.325   0.135  -6.322  0.00  0.00     0.166 HD
ATOM     15  C   LIG d   1       4.223  -0.555  -6.839  0.00  0.00     0.058 A 
ATOM     16  C   LIG d   1       4.307  -0.360  -8.328  0.00  0.00     0.181 A 
ATOM     17  C   LIG d   1       3.346  -1.251  -9.042  0.00  0.00     0.012 A 
ATOM     18  C   LIG d   1       3.234  -2.625  -9.098  0.00  0.00    -0.054 A 
ATOM     19  C   LIG d   1       2.201  -3.144  -9.871  0.00  0.00    -0.061 A 
ATOM     20  C   LIG d   1       1.330  -2.321 -10.554  0.00  0.00    -0.060 A 
ATOM     21  C   LIG d   1       1.436  -0.939 -10.506  0.00  0.00    -0.040 A 
ATOM     22  C   LIG d   1       2.468  -0.405  -9.732  0.00  0.00     0.040 A 
ATOM     23  N   LIG d   1       2.803   0.920  -9.510  0.00  0.00    -0.283 N 
ATOM     24  C   LIG d   1       3.876   1.040  -8.697  0.00  0.00     0.252 A 
ATOM     25  O   LIG d   1       4.392   2.075  -8.333  0.00  0.00    -0.272 OA
ATOM     26  H   LIG d   1       5.864  -2.657  -8.365  0.00  0.00     0.047 H 
ATOM     27  H   LIG d   1       7.406  -1.805  -8.632  0.00  0.00     0.047 H 
ATOM     28  H   LIG d   1       6.861  -2.452  -6.193  0.00  0.00     0.033 H 
ATOM     29  H   LIG d   1       7.309  -0.753  -6.479  0.00  0.00     0.033 H 
ATOM     30  H   LIG d   1       6.384  -1.946  -3.534  0.00  0.00     0.062 H 
ATOM     31  H   LIG d   1       5.076  -1.749  -1.458  0.00  0.00     0.062 H 
ATOM     32  H   LIG d   1       2.823  -0.841  -1.458  0.00  0.00     0.062 H 
ATOM     33  H   LIG d   1       1.734  -0.072  -3.538  0.00  0.00     0.064 H 
ATOM     34  H   LIG d   1       3.918  -3.268  -8.563  0.00  0.00     0.062 H 
ATOM     35  H   LIG d   1       2.080  -4.215  -9.940  0.00  0.00     0.062 H 
ATOM     36  H   LIG d   1       0.543  -2.765 -11.143  0.00  0.00     0.062 H 
ATOM     37  H   LIG d   1       0.749  -0.303 -11.044  0.00  0.00     0.064 H 
ATOM     38  H   LIG d   1       2.326   1.672  -9.894  0.00  0.00     0.155 HD
ENDROOT
BRANCH   1  39
ATOM     39  C   LIG d   1       7.693  -0.056 -10.102  0.00  0.00     0.076 C 
ATOM     40  H   LIG d   1       8.095  -0.898  -9.540  0.00  0.00     0.052 H 
ATOM     41  H   LIG d   1       8.300   0.830  -9.914  0.00  0.00     0.052 H 
BRANCH  39  42
ATOM     42  N   LIG d   1       7.716  -0.368 -11.538  0.00  0.00    -0.284 N 
ATOM     43  C   LIG d   1       9.057  -0.154 -12.101  0.00  0.00     0.040 C 
ATOM     44  C   LIG d   1       9.024  -0.433 -13.606  0.00  0.00    -0.019 C 
ATOM     45  H   LIG d   1       9.765  -0.830 -11.622  0.00  0.00     0.048 H 
ATOM     46  H   LIG d   1       9.364   0.878 -11.929  0.00  0.00     0.048 H 
ATOM     47  N   LIG d   1       8.591  -1.817 -13.839  0.00  0.00     0.235 N 
ATOM     48  H   LIG d   1      10.020  -0.288 -14.024  0.00  0.00     0.083 H 
ATOM     49  H   LIG d   1       8.326   0.253 -14.087  0.00  0.00     0.083 H 
ATOM     50  C   LIG d   1       7.241  -2.008 -13.292  0.00  0.00    -0.019 C 
ATOM     51  H   LIG d   1       9.231  -2.451 -13.383  0.00  0.00     0.203 HD
ATOM     52  C   LIG d   1       7.259  -1.743 -11.784  0.00  0.00     0.040 C 
ATOM     53  H   LIG d   1       6.553  -1.315 -13.775  0.00  0.00     0.083 H 
ATOM     54  H   LIG d   1       6.916  -3.032 -13.476  0.00  0.00     0.083 H 
ATOM     55  H   LIG d   1       7.938  -2.444 -11.300  0.00  0.00     0.048 H 
ATOM     56  H   LIG d   1       6.255  -1.870 -11.381  0.00  0.00     0.048 H 
BRANCH  47  57
ATOM     57  C   LIG d   1       8.578  -2.089 -15.282  0.00  0.00    -0.043 C 
ATOM     58  H   LIG d   1       8.964  -1.222 -15.819  0.00  0.00     0.078 H 
ATOM     59  H   LIG d   1       9.203  -2.956 -15.494  0.00  0.00     0.078 H 
ATOM     60  H   LIG d   1       7.556  -2.290 -15.604  0.00  0.00     0.078 H 
ENDBRANCH  47  57
ENDBRANCH  39  42
ENDBRANCH   1  39
TORSDOF 3
ENDMDL
MODEL 6
REMARK VINA RESULT:      -7.2      3.089      5.418
REMARK  3 active torsions:
REMARK  status: ('A' for Active; 'I' for Inactive)
REMARK    1  A    between atoms: C_1  and  N_2 
REMARK    2  A    between atoms: N_5  and  C_8 
REMARK    3  A    between atoms: C_8  and  C_9 
REMARK       I    between atoms: C_9  and  N_11 
ROOT
ATOM      1  C   LIG d   1       4.069  -1.061 -10.139  0.00  0.00     0.231 C 
ATOM      2  O   LIG d   1       4.804  -1.940 -10.539  0.00  0.00    -0.274 OA
ATOM      3  N   LIG d   1       4.329  -0.446  -8.969  0.00  0.00    -0.277 N 
ATOM      4  C   LIG d   1       3.445   0.618  -8.464  0.00  0.00     0.020 C 
ATOM      5  C   LIG d   1       2.822   0.164  -7.138  0.00  0.00    -0.009 C 
ATOM      6  C   LIG d   1       3.895  -0.436  -6.265  0.00  0.00    -0.015 A 
ATOM      7  C   LIG d   1       3.876  -0.650  -4.833  0.00  0.00     0.003 A 
ATOM      8  C   LIG d   1       2.919  -0.388  -3.848  0.00  0.00    -0.052 A 
ATOM      9  C   LIG d   1       3.246  -0.729  -2.559  0.00  0.00    -0.061 A 
ATOM     10  C   LIG d   1       4.463  -1.308  -2.236  0.00  0.00    -0.060 A 
ATOM     11  C   LIG d   1       5.428  -1.578  -3.192  0.00  0.00    -0.038 A 
ATOM     12  C   LIG d   1       5.123  -1.242  -4.508  0.00  0.00     0.047 A 
ATOM     13  N   LIG d   1       5.828  -1.369  -5.671  0.00  0.00    -0.355 N 
ATOM     14  H   LIG d   1       6.718  -1.747  -5.745  0.00  0.00     0.166 HD
ATOM     15  C   LIG d   1       5.089  -0.882  -6.716  0.00  0.00     0.058 A 
ATOM     16  C   LIG d   1       5.494  -0.826  -8.163  0.00  0.00     0.181 A 
ATOM     17  C   LIG d   1       6.632   0.118  -8.368  0.00  0.00     0.012 A 
ATOM     18  C   LIG d   1       6.752   1.474  -8.147  0.00  0.00    -0.054 A 
ATOM     19  C   LIG d   1       7.977   2.057  -8.448  0.00  0.00    -0.061 A 
ATOM     20  C   LIG d   1       9.026   1.312  -8.947  0.00  0.00    -0.060 A 
ATOM     21  C   LIG d   1       8.914  -0.051  -9.173  0.00  0.00    -0.040 A 
ATOM     22  C   LIG d   1       7.689  -0.650  -8.874  0.00  0.00     0.040 A 
ATOM     23  N   LIG d   1       7.303  -1.973  -9.003  0.00  0.00    -0.283 N 
ATOM     24  C   LIG d   1       6.026  -2.168  -8.610  0.00  0.00     0.252 A 
ATOM     25  O   LIG d   1       5.422  -3.220  -8.614  0.00  0.00    -0.272 OA
ATOM     26  H   LIG d   1       4.026   1.526  -8.302  0.00  0.00     0.047 H 
ATOM     27  H   LIG d   1       2.656   0.812  -9.191  0.00  0.00     0.047 H 
ATOM     28  H   LIG d   1       2.378   1.021  -6.633  0.00  0.00     0.033 H 
ATOM     29  H   LIG d   1       2.052  -0.583  -7.334  0.00  0.00     0.033 H 
ATOM     30  H   LIG d   1       1.968   0.062  -4.089  0.00  0.00     0.062 H 
ATOM     31  H   LIG d   1       2.532  -0.541  -1.771  0.00  0.00     0.062 H 
ATOM     32  H   LIG d   1       4.666  -1.555  -1.205  0.00  0.00     0.062 H 
ATOM     33  H   LIG d   1       6.373  -2.029  -2.927  0.00  0.00     0.064 H 
ATOM     34  H   LIG d   1       5.929   2.056  -7.758  0.00  0.00     0.062 H 
ATOM     35  H   LIG d   1       8.111   3.118  -8.289  0.00  0.00     0.062 H 
ATOM     36  H   LIG d   1       9.960   1.804  -9.167  0.00  0.00     0.062 H 
ATOM     37  H   LIG d   1       9.740  -0.626  -9.563  0.00  0.00     0.064 H 
ATOM     38  H   LIG d   1       7.882  -2.677  -9.337  0.00  0.00     0.155 HD
ENDROOT
BRANCH   1  39
ATOM     39  C   LIG d   1       2.867  -0.656 -10.953  0.00  0.00     0.076 C 
ATOM     40  H   LIG d   1       3.197  -0.145 -11.857  0.00  0.00     0.052 H 
ATOM     41  H   LIG d   1       2.240   0.014 -10.365  0.00  0.00     0.052 H 
BRANCH  39  42
ATOM     42  N   LIG d   1       2.098  -1.853 -11.318  0.00  0.00    -0.284 N 
ATOM     43  C   LIG d   1       1.456  -2.446 -10.137  0.00  0.00     0.040 C 
ATOM     44  C   LIG d   1       0.715  -3.721 -10.549  0.00  0.00    -0.019 C 
ATOM     45  H   LIG d   1       0.747  -1.735  -9.713  0.00  0.00     0.048 H 
ATOM     46  H   LIG d   1       2.215  -2.691  -9.394  0.00  0.00     0.048 H 
ATOM     47  N   LIG d   1      -0.295  -3.394 -11.564  0.00  0.00     0.235 N 
ATOM     48  H   LIG d   1       0.226  -4.155  -9.677  0.00  0.00     0.083 H 
ATOM     49  H   LIG d   1       1.426  -4.437 -10.960  0.00  0.00     0.083 H 
ATOM     50  C   LIG d   1       0.365  -2.826 -12.748  0.00  0.00    -0.019 C 
ATOM     51  H   LIG d   1      -0.946  -2.722 -11.187  0.00  0.00     0.203 HD
ATOM     52  C   LIG d   1       1.102  -1.543 -12.354  0.00  0.00     0.040 C 
ATOM     53  H   LIG d   1       1.078  -3.546 -13.147  0.00  0.00     0.083 H 
ATOM     54  H   LIG d   1      -0.384  -2.595 -13.506  0.00  0.00     0.083 H 
ATOM     55  H   LIG d   1       0.388  -0.818 -11.966  0.00  0.00     0.048 H 
ATOM     56  H   LIG d   1       1.604  -1.129 -13.228  0.00  0.00     0.048 H 
BRANCH  47  57
ATOM     57  C   LIG d   1      -1.017  -4.615 -11.946  0.00  0.00    -0.043 C 
ATOM     58  H   LIG d   1      -1.644  -4.409 -12.815  0.00  0.00     0.078 H 
ATOM     59  H   LIG d   1      -0.302  -5.399 -12.193  0.00  0.00     0.078 H 
ATOM     60  H   LIG d   1      -1.643  -4.941 -11.116  0.00  0.00     0.078 H 
ENDBRANCH  47  57
ENDBRANCH  39  42
ENDBRANCH   1  39
TORSDOF 3
ENDMDL
MODEL 7
REMARK VINA RESULT:      -7.1      3.871      7.176
REMARK  3 active torsions:
REMARK  status: ('A' for Active; 'I' for Inactive)
REMARK    1  A    between atoms: C_1  and  N_2 
REMARK    2  A    between atoms: N_5  and  C_8 
REMARK    3  A    between atoms: C_8  and  C_9 
REMARK       I    between atoms: C_9  and  N_11 
ROOT
ATOM      1  C   LIG d   1       8.444  -5.596  -5.224  0.00  0.00     0.231 C 
ATOM      2  O   LIG d   1       9.457  -5.632  -4.556  0.00  0.00    -0.274 OA
ATOM      3  N   LIG d   1       7.775  -4.436  -5.371  0.00  0.00    -0.277 N 
ATOM      4  C   LIG d   1       6.542  -4.374  -6.172  0.00  0.00     0.020 C 
ATOM      5  C   LIG d   1       5.374  -3.974  -5.262  0.00  0.00    -0.009 C 
ATOM      6  C   LIG d   1       5.796  -2.817  -4.393  0.00  0.00    -0.015 A 
ATOM      7  C   LIG d   1       4.959  -1.881  -3.671  0.00  0.00     0.003 A 
ATOM      8  C   LIG d   1       3.573  -1.746  -3.550  0.00  0.00    -0.052 A 
ATOM      9  C   LIG d   1       3.116  -0.717  -2.765  0.00  0.00    -0.061 A 
ATOM     10  C   LIG d   1       3.976   0.153  -2.117  0.00  0.00    -0.060 A 
ATOM     11  C   LIG d   1       5.353   0.043  -2.219  0.00  0.00    -0.038 A 
ATOM     12  C   LIG d   1       5.845  -0.992  -3.010  0.00  0.00     0.047 A 
ATOM     13  N   LIG d   1       7.117  -1.381  -3.320  0.00  0.00    -0.355 N 
ATOM     14  H   LIG d   1       7.925  -0.950  -3.001  0.00  0.00     0.166 HD
ATOM     15  C   LIG d   1       7.079  -2.470  -4.149  0.00  0.00     0.058 A 
ATOM     16  C   LIG d   1       8.254  -3.206  -4.731  0.00  0.00     0.181 A 
ATOM     17  C   LIG d   1       9.006  -2.346  -5.693  0.00  0.00     0.012 A 
ATOM     18  C   LIG d   1       8.630  -1.746  -6.876  0.00  0.00    -0.054 A 
ATOM     19  C   LIG d   1       9.595  -0.994  -7.537  0.00  0.00    -0.061 A 
ATOM     20  C   LIG d   1      10.871  -0.857  -7.031  0.00  0.00    -0.060 A 
ATOM     21  C   LIG d   1      11.258  -1.458  -5.844  0.00  0.00    -0.040 A 
ATOM     22  C   LIG d   1      10.299  -2.216  -5.170  0.00  0.00     0.040 A 
ATOM     23  N   LIG d   1      10.410  -2.918  -3.981  0.00  0.00    -0.283 N 
ATOM     24  C   LIG d   1       9.255  -3.534  -3.648  0.00  0.00     0.252 A 
ATOM     25  O   LIG d   1       9.059  -4.218  -2.666  0.00  0.00    -0.272 OA
ATOM     26  H   LIG d   1       6.658  -3.633  -6.962  0.00  0.00     0.047 H 
ATOM     27  H   LIG d   1       6.343  -5.351  -6.612  0.00  0.00     0.047 H 
ATOM     28  H   LIG d   1       4.521  -3.679  -5.873  0.00  0.00     0.033 H 
ATOM     29  H   LIG d   1       5.096  -4.820  -4.633  0.00  0.00     0.033 H 
ATOM     30  H   LIG d   1       2.893  -2.419  -4.051  0.00  0.00     0.062 H 
ATOM     31  H   LIG d   1       2.050  -0.581  -2.648  0.00  0.00     0.062 H 
ATOM     32  H   LIG d   1       3.561   0.945  -1.512  0.00  0.00     0.062 H 
ATOM     33  H   LIG d   1       6.014   0.729  -1.709  0.00  0.00     0.064 H 
ATOM     34  H   LIG d   1       7.630  -1.856  -7.271  0.00  0.00     0.062 H 
ATOM     35  H   LIG d   1       9.339  -0.507  -8.467  0.00  0.00     0.062 H 
ATOM     36  H   LIG d   1      11.589  -0.264  -7.576  0.00  0.00     0.062 H 
ATOM     37  H   LIG d   1      12.260  -1.345  -5.456  0.00  0.00     0.064 H 
ATOM     38  H   LIG d   1      11.221  -2.962  -3.452  0.00  0.00     0.155 HD
ENDROOT
BRANCH   1  39
ATOM     39  C   LIG d   1       7.937  -6.849  -5.889  0.00  0.00     0.076 C 
ATOM     40  H   LIG d   1       8.781  -7.473  -6.179  0.00  0.00     0.052 H 
ATOM     41  H   LIG d   1       7.361  -6.582  -6.775  0.00  0.00     0.052 H 
BRANCH  39  42
ATOM     42  N   LIG d   1       7.079  -7.588  -4.953  0.00  0.00    -0.284 N 
ATOM     43  C   LIG d   1       5.853  -8.053  -5.617  0.00  0.00     0.040 C 
ATOM     44  C   LIG d   1       4.963  -8.765  -4.596  0.00  0.00    -0.019 C 
ATOM     45  H   LIG d   1       6.114  -8.747  -6.417  0.00  0.00     0.048 H 
ATOM     46  H   LIG d   1       5.318  -7.200  -6.034  0.00  0.00     0.048 H 
ATOM     47  N   LIG d   1       5.690  -9.903  -4.019  0.00  0.00     0.235 N 
ATOM     48  H   LIG d   1       4.059  -9.123  -5.089  0.00  0.00     0.083 H 
ATOM     49  H   LIG d   1       4.690  -8.067  -3.803  0.00  0.00     0.083 H 
ATOM     50  C   LIG d   1       6.898  -9.419  -3.338  0.00  0.00    -0.019 C 
ATOM     51  H   LIG d   1       5.952 -10.542  -4.755  0.00  0.00     0.203 HD
ATOM     52  C   LIG d   1       7.806  -8.713  -4.349  0.00  0.00     0.040 C 
ATOM     53  H   LIG d   1       6.617  -8.718  -2.552  0.00  0.00     0.083 H 
ATOM     54  H   LIG d   1       7.431 -10.263  -2.900  0.00  0.00     0.083 H 
ATOM     55  H   LIG d   1       8.098  -9.417  -5.128  0.00  0.00     0.048 H 
ATOM     56  H   LIG d   1       8.696  -8.341  -3.841  0.00  0.00     0.048 H 
BRANCH  47  57
ATOM     57  C   LIG d   1       4.828 -10.596  -3.052  0.00  0.00    -0.043 C 
ATOM     58  H   LIG d   1       5.193 -10.410  -2.042  0.00  0.00     0.078 H 
ATOM     59  H   LIG d   1       3.808 -10.224  -3.144  0.00  0.00     0.078 H 
ATOM     60  H   LIG d   1       4.845 -11.667  -3.254  0.00  0.00     0.078 H 
ENDBRANCH  47  57
ENDBRANCH  39  42
ENDBRANCH   1  39
TORSDOF 3
ENDMDL
MODEL 8
REMARK VINA RESULT:      -7.1      3.020      7.106
REMARK  3 active torsions:
REMARK  status: ('A' for Active; 'I' for Inactive)
REMARK    1  A    between atoms: C_1  and  N_2 
REMARK    2  A    between atoms: N_5  and  C_8 
REMARK    3  A    between atoms: C_8  and  C_9 
REMARK       I    between atoms: C_9  and  N_11 
ROOT
ATOM      1  C   LIG d   1       7.361  -0.678  -6.648  0.00  0.00     0.231 C 
ATOM      2  O   LIG d   1       7.589  -1.705  -6.044  0.00  0.00    -0.274 OA
ATOM      3  N   LIG d   1       6.109  -0.407  -7.067  0.00  0.00    -0.277 N 
ATOM      4  C   LIG d   1       5.814   0.831  -7.806  0.00  0.00     0.020 C 
ATOM      5  C   LIG d   1       5.318   0.468  -9.212  0.00  0.00    -0.009 C 
ATOM      6  C   LIG d   1       4.299  -0.638  -9.108  0.00  0.00    -0.015 A 
ATOM      7  C   LIG d   1       3.307  -1.043 -10.082  0.00  0.00     0.003 A 
ATOM      8  C   LIG d   1       2.984  -0.573 -11.359  0.00  0.00    -0.052 A 
ATOM      9  C   LIG d   1       1.960  -1.210 -12.014  0.00  0.00    -0.061 A 
ATOM     10  C   LIG d   1       1.271  -2.271 -11.449  0.00  0.00    -0.060 A 
ATOM     11  C   LIG d   1       1.570  -2.756 -10.187  0.00  0.00    -0.038 A 
ATOM     12  C   LIG d   1       2.605  -2.128  -9.498  0.00  0.00     0.047 A 
ATOM     13  N   LIG d   1       3.148  -2.348  -8.265  0.00  0.00    -0.355 N 
ATOM     14  H   LIG d   1       2.861  -3.035  -7.644  0.00  0.00     0.166 HD
ATOM     15  C   LIG d   1       4.157  -1.451  -8.037  0.00  0.00     0.058 A 
ATOM     16  C   LIG d   1       5.010  -1.341  -6.804  0.00  0.00     0.181 A 
ATOM     17  C   LIG d   1       4.199  -0.914  -5.625  0.00  0.00     0.012 A 
ATOM     18  C   LIG d   1       3.467   0.228  -5.379  0.00  0.00    -0.054 A 
ATOM     19  C   LIG d   1       2.815   0.308  -4.153  0.00  0.00    -0.061 A 
ATOM     20  C   LIG d   1       2.899  -0.709  -3.226  0.00  0.00    -0.060 A 
ATOM     21  C   LIG d   1       3.634  -1.860  -3.464  0.00  0.00    -0.040 A 
ATOM     22  C   LIG d   1       4.293  -1.954  -4.691  0.00  0.00     0.040 A 
ATOM     23  N   LIG d   1       5.088  -2.975  -5.185  0.00  0.00    -0.283 N 
ATOM     24  C   LIG d   1       5.555  -2.698  -6.422  0.00  0.00     0.252 A 
ATOM     25  O   LIG d   1       6.273  -3.404  -7.097  0.00  0.00    -0.272 OA
ATOM     26  H   LIG d   1       5.041   1.393  -7.281  0.00  0.00     0.047 H 
ATOM     27  H   LIG d   1       6.718   1.435  -7.883  0.00  0.00     0.047 H 
ATOM     28  H   LIG d   1       4.860   1.343  -9.673  0.00  0.00     0.033 H 
ATOM     29  H   LIG d   1       6.159   0.134  -9.819  0.00  0.00     0.033 H 
ATOM     30  H   LIG d   1       3.516   0.253 -11.808  0.00  0.00     0.062 H 
ATOM     31  H   LIG d   1       1.682  -0.874 -13.003  0.00  0.00     0.062 H 
ATOM     32  H   LIG d   1       0.474  -2.734 -12.010  0.00  0.00     0.062 H 
ATOM     33  H   LIG d   1       1.024  -3.584  -9.757  0.00  0.00     0.064 H 
ATOM     34  H   LIG d   1       3.404   1.024  -6.106  0.00  0.00     0.062 H 
ATOM     35  H   LIG d   1       2.231   1.188  -3.922  0.00  0.00     0.062 H 
ATOM     36  H   LIG d   1       2.377  -0.606  -2.287  0.00  0.00     0.062 H 
ATOM     37  H   LIG d   1       3.693  -2.652  -2.732  0.00  0.00     0.064 H 
ATOM     38  H   LIG d   1       5.286  -3.791  -4.700  0.00  0.00     0.155 HD
ENDROOT
BRANCH   1  39
ATOM     39  C   LIG d   1       8.477   0.295  -6.927  0.00  0.00     0.076 C 
ATOM     40  H   LIG d   1       8.093   1.128  -7.516  0.00  0.00     0.052 H 
ATOM     41  H   LIG d   1       9.268  -0.209  -7.483  0.00  0.00     0.052 H 
BRANCH  39  42
ATOM     42  N   LIG d   1       9.016   0.800  -5.657  0.00  0.00    -0.284 N 
ATOM     43  C   LIG d   1      10.436   1.155  -5.793  0.00  0.00     0.040 C 
ATOM     44  C   LIG d   1      10.973   1.619  -4.436  0.00  0.00    -0.019 C 
ATOM     45  H   LIG d   1      10.541   1.961  -6.520  0.00  0.00     0.048 H 
ATOM     46  H   LIG d   1      10.999   0.284  -6.129  0.00  0.00     0.048 H 
ATOM     47  N   LIG d   1      10.202   2.780  -3.975  0.00  0.00     0.235 N 
ATOM     48  H   LIG d   1      12.023   1.897  -4.538  0.00  0.00     0.083 H 
ATOM     49  H   LIG d   1      10.881   0.809  -3.713  0.00  0.00     0.083 H 
ATOM     50  C   LIG d   1       8.791   2.402  -3.820  0.00  0.00    -0.019 C 
ATOM     51  H   LIG d   1      10.278   3.526  -4.651  0.00  0.00     0.203 HD
ATOM     52  C   LIG d   1       8.234   1.946  -5.172  0.00  0.00     0.040 C 
ATOM     53  H   LIG d   1       8.709   1.589  -3.100  0.00  0.00     0.083 H 
ATOM     54  H   LIG d   1       8.221   3.261  -3.466  0.00  0.00     0.083 H 
ATOM     55  H   LIG d   1       8.304   2.764  -5.888  0.00  0.00     0.048 H 
ATOM     56  H   LIG d   1       7.192   1.651  -5.055  0.00  0.00     0.048 H 
BRANCH  47  57
ATOM     57  C   LIG d   1      10.730   3.236  -2.682  0.00  0.00    -0.043 C 
ATOM     58  H   LIG d   1      11.321   2.439  -2.229  0.00  0.00     0.078 H 
ATOM     59  H   LIG d   1      11.361   4.112  -2.835  0.00  0.00     0.078 H 
ATOM     60  H   LIG d   1       9.902   3.495  -2.022  0.00  0.00     0.078 H 
ENDBRANCH  47  57
ENDBRANCH  39  42
ENDBRANCH   1  39
TORSDOF 3
ENDMDL
MODEL 9
REMARK VINA RESULT:      -7.1      3.168      5.415
REMARK  3 active torsions:
REMARK  status: ('A' for Active; 'I' for Inactive)
REMARK    1  A    between atoms: C_1  and  N_2 
REMARK    2  A    between atoms: N_5  and  C_8 
REMARK    3  A    between atoms: C_8  and  C_9 
REMARK       I    between atoms: C_9  and  N_11 
ROOT
ATOM      1  C   LIG d   1       3.066  -2.278  -9.232  0.00  0.00     0.231 C 
ATOM      2  O   LIG d   1       3.384  -3.448  -9.284  0.00  0.00    -0.274 OA
ATOM      3  N   LIG d   1       3.693  -1.447  -8.377  0.00  0.00    -0.277 N 
ATOM      4  C   LIG d   1       3.316  -0.026  -8.295  0.00  0.00     0.020 C 
ATOM      5  C   LIG d   1       2.779   0.269  -6.890  0.00  0.00    -0.009 C 
ATOM      6  C   LIG d   1       3.696  -0.352  -5.867  0.00  0.00    -0.015 A 
ATOM      7  C   LIG d   1       3.817  -0.041  -4.458  0.00  0.00     0.003 A 
ATOM      8  C   LIG d   1       3.167   0.881  -3.632  0.00  0.00    -0.052 A 
ATOM      9  C   LIG d   1       3.544   0.904  -2.312  0.00  0.00    -0.061 A 
ATOM     10  C   LIG d   1       4.519   0.059  -1.809  0.00  0.00    -0.060 A 
ATOM     11  C   LIG d   1       5.178  -0.863  -2.605  0.00  0.00    -0.038 A 
ATOM     12  C   LIG d   1       4.817  -0.909  -3.949  0.00  0.00     0.047 A 
ATOM     13  N   LIG d   1       5.253  -1.680  -4.988  0.00  0.00    -0.355 N 
ATOM     14  H   LIG d   1       5.936  -2.365  -4.925  0.00  0.00     0.166 HD
ATOM     15  C   LIG d   1       4.581  -1.339  -6.131  0.00  0.00     0.058 A 
ATOM     16  C   LIG d   1       4.761  -1.937  -7.499  0.00  0.00     0.181 A 
ATOM     17  C   LIG d   1       6.111  -1.621  -8.052  0.00  0.00     0.012 A 
ATOM     18  C   LIG d   1       6.723  -0.422  -8.353  0.00  0.00    -0.054 A 
ATOM     19  C   LIG d   1       8.015  -0.483  -8.862  0.00  0.00    -0.061 A 
ATOM     20  C   LIG d   1       8.655  -1.690  -9.058  0.00  0.00    -0.060 A 
ATOM     21  C   LIG d   1       8.048  -2.899  -8.760  0.00  0.00    -0.040 A 
ATOM     22  C   LIG d   1       6.750  -2.852  -8.248  0.00  0.00     0.040 A 
ATOM     23  N   LIG d   1       5.916  -3.892  -7.871  0.00  0.00    -0.283 N 
ATOM     24  C   LIG d   1       4.724  -3.445  -7.421  0.00  0.00     0.252 A 
ATOM     25  O   LIG d   1       3.801  -4.126  -7.026  0.00  0.00    -0.272 OA
ATOM     26  H   LIG d   1       4.192   0.594  -8.488  0.00  0.00     0.047 H 
ATOM     27  H   LIG d   1       2.544   0.189  -9.034  0.00  0.00     0.047 H 
ATOM     28  H   LIG d   1       2.739   1.347  -6.735  0.00  0.00     0.033 H 
ATOM     29  H   LIG d   1       1.779  -0.151  -6.786  0.00  0.00     0.033 H 
ATOM     30  H   LIG d   1       2.405   1.544  -4.014  0.00  0.00     0.062 H 
ATOM     31  H   LIG d   1       3.064   1.604  -1.643  0.00  0.00     0.062 H 
ATOM     32  H   LIG d   1       4.775   0.121  -0.762  0.00  0.00     0.062 H 
ATOM     33  H   LIG d   1       5.938  -1.516  -2.201  0.00  0.00     0.064 H 
ATOM     34  H   LIG d   1       6.219   0.521  -8.200  0.00  0.00     0.062 H 
ATOM     35  H   LIG d   1       8.529   0.435  -9.111  0.00  0.00     0.062 H 
ATOM     36  H   LIG d   1       9.659  -1.691  -9.455  0.00  0.00     0.062 H 
ATOM     37  H   LIG d   1       8.557  -3.838  -8.917  0.00  0.00     0.064 H 
ATOM     38  H   LIG d   1       6.160  -4.829  -7.924  0.00  0.00     0.155 HD
ENDROOT
BRANCH   1  39
ATOM     39  C   LIG d   1       1.971  -1.756 -10.126  0.00  0.00     0.076 C 
ATOM     40  H   LIG d   1       1.896  -0.675 -10.014  0.00  0.00     0.052 H 
ATOM     41  H   LIG d   1       1.023  -2.217  -9.846  0.00  0.00     0.052 H 
BRANCH  39  42
ATOM     42  N   LIG d   1       2.282  -2.084 -11.524  0.00  0.00    -0.284 N 
ATOM     43  C   LIG d   1       1.053  -2.194 -12.323  0.00  0.00     0.040 C 
ATOM     44  C   LIG d   1       1.416  -2.594 -13.756  0.00  0.00    -0.019 C 
ATOM     45  H   LIG d   1       0.540  -1.233 -12.334  0.00  0.00     0.048 H 
ATOM     46  H   LIG d   1       0.402  -2.951 -11.888  0.00  0.00     0.048 H 
ATOM     47  N   LIG d   1       2.310  -1.584 -14.336  0.00  0.00     0.235 N 
ATOM     48  H   LIG d   1       0.508  -2.663 -14.355  0.00  0.00     0.083 H 
ATOM     49  H   LIG d   1       1.918  -3.562 -13.747  0.00  0.00     0.083 H 
ATOM     50  C   LIG d   1       3.543  -1.504 -13.540  0.00  0.00    -0.019 C 
ATOM     51  H   LIG d   1       1.850  -0.686 -14.333  0.00  0.00     0.203 HD
ATOM     52  C   LIG d   1       3.198  -1.094 -12.106  0.00  0.00     0.040 C 
ATOM     53  H   LIG d   1       4.033  -2.477 -13.532  0.00  0.00     0.083 H 
ATOM     54  H   LIG d   1       4.211  -0.763 -13.978  0.00  0.00     0.083 H 
ATOM     55  H   LIG d   1       2.719  -0.115 -12.113  0.00  0.00     0.048 H 
ATOM     56  H   LIG d   1       4.110  -1.049 -11.511  0.00  0.00     0.048 H 
BRANCH  47  57
ATOM     57  C   LIG d   1       2.643  -1.959 -15.717  0.00  0.00    -0.043 C 
ATOM     58  H   LIG d   1       2.214  -1.231 -16.404  0.00  0.00     0.078 H 
ATOM     59  H   LIG d   1       3.726  -1.979 -15.837  0.00  0.00     0.078 H 
ATOM     60  H   LIG d   1       2.235  -2.947 -15.932  0.00  0.00     0.078 H 
ENDBRANCH  47  57
ENDBRANCH  39  42
ENDBRANCH   1  39
TORSDOF 3
ENDMDL
