MODEL 1
REMARK VINA RESULT:      -8.2      0.000      0.000
REMARK  6 active torsions:
REMARK  status: ('A' for Active; 'I' for Inactive)
REMARK    1  A    between atoms: C_1  and  O_2 
REMARK    2  A    between atoms: O_2  and  C_3 
REMARK    3  A    between atoms: C_6  and  C_9 
REMARK    4  A    between atoms: C_9  and  N_10 
REMARK    5  A    between atoms: C_30  and  C_32 
REMARK    6  A    between atoms: C_36  and  N_38 
ROOT
ATOM      1  N   LIG d   1      10.769   3.821  -4.631  0.00  0.00    -0.287 N 
ATOM      2  C   LIG d   1      11.649   2.665  -4.697  0.00  0.00     0.092 A 
ATOM      3  C   LIG d   1      10.902   1.407  -4.999  0.00  0.00     0.234 A 
ATOM      4  O   LIG d   1      11.540   0.382  -5.108  0.00  0.00    -0.274 OA
ATOM      5  N   LIG d   1       9.578   1.335  -5.155  0.00  0.00    -0.276 N 
ATOM      6  C   LIG d   1       8.688   2.481  -4.973  0.00  0.00     0.107 A 
ATOM      7  H   LIG d   1       8.066   2.590  -5.861  0.00  0.00     0.060 H 
ATOM      8  C   LIG d   1       9.446   3.752  -4.755  0.00  0.00     0.237 A 
ATOM      9  O   LIG d   1       8.815   4.785  -4.689  0.00  0.00    -0.274 OA
ATOM     10  C   LIG d   1       7.770   2.218  -3.771  0.00  0.00     0.002 C 
ATOM     11  C   LIG d   1       7.234   0.812  -3.866  0.00  0.00    -0.015 A 
ATOM     12  C   LIG d   1       6.097   0.236  -3.178  0.00  0.00     0.003 A 
ATOM     13  C   LIG d   1       5.179   0.760  -2.263  0.00  0.00    -0.052 A 
ATOM     14  C   LIG d   1       4.206  -0.093  -1.803  0.00  0.00    -0.061 A 
ATOM     15  C   LIG d   1       4.128  -1.413  -2.217  0.00  0.00    -0.060 A 
ATOM     16  C   LIG d   1       5.023  -1.956  -3.122  0.00  0.00    -0.038 A 
ATOM     17  C   LIG d   1       6.021  -1.113  -3.607  0.00  0.00     0.047 A 
ATOM     18  N   LIG d   1       7.042  -1.317  -4.490  0.00  0.00    -0.356 N 
ATOM     19  H   LIG d   1       7.230  -2.154  -4.943  0.00  0.00     0.166 HD
ATOM     20  C   LIG d   1       7.762  -0.163  -4.641  0.00  0.00     0.046 A 
ATOM     21  C   LIG d   1       8.969   0.041  -5.528  0.00  0.00     0.093 C 
ATOM     22  H   LIG d   1       9.685  -0.765  -5.369  0.00  0.00     0.062 H 
ATOM     23  H   LIG d   1      12.393   2.830  -5.477  0.00  0.00     0.056 H 
ATOM     24  H   LIG d   1      12.159   2.552  -3.740  0.00  0.00     0.056 H 
ATOM     25  H   LIG d   1       8.335   2.332  -2.847  0.00  0.00     0.034 H 
ATOM     26  H   LIG d   1       6.940   2.926  -3.783  0.00  0.00     0.034 H 
ATOM     27  H   LIG d   1       5.232   1.787  -1.932  0.00  0.00     0.062 H 
ATOM     28  H   LIG d   1       3.479   0.277  -1.095  0.00  0.00     0.062 H 
ATOM     29  H   LIG d   1       3.342  -2.038  -1.821  0.00  0.00     0.062 H 
ATOM     30  H   LIG d   1       4.951  -2.987  -3.436  0.00  0.00     0.064 H 
ENDROOT
BRANCH   1  31
ATOM     31  C   LIG d   1      11.374   5.136  -4.413  0.00  0.00     0.040 C 
ATOM     32  H   LIG d   1      12.441   5.087  -4.632  0.00  0.00     0.051 H 
ATOM     33  H   LIG d   1      10.902   5.867  -5.069  0.00  0.00     0.051 H 
BRANCH  31  34
ATOM     34  C   LIG d   1      11.177   5.549  -2.976  0.00  0.00    -0.030 A 
ATOM     35  C   LIG d   1      11.734   4.797  -1.959  0.00  0.00    -0.054 A 
ATOM     36  C   LIG d   1      11.554   5.174  -0.642  0.00  0.00    -0.020 A 
ATOM     37  H   LIG d   1      12.312   3.916  -2.194  0.00  0.00     0.062 H 
ATOM     38  C   LIG d   1      10.813   6.307  -0.340  0.00  0.00     0.120 A 
ATOM     39  H   LIG d   1      11.991   4.586   0.152  0.00  0.00     0.065 H 
ATOM     40  C   LIG d   1      10.253   7.059  -1.363  0.00  0.00    -0.020 A 
ATOM     41  C   LIG d   1      10.441   6.682  -2.679  0.00  0.00    -0.054 A 
ATOM     42  H   LIG d   1       9.675   7.941  -1.132  0.00  0.00     0.065 H 
ATOM     43  H   LIG d   1      10.011   7.269  -3.476  0.00  0.00     0.062 H 
BRANCH  38  44
ATOM     44  O   LIG d   1      10.635   6.679   0.954  0.00  0.00    -0.495 OA
BRANCH  44  45
ATOM     45  C   LIG d   1      10.956   5.713   1.957  0.00  0.00     0.079 C 
ATOM     46  H   LIG d   1      11.097   6.216   2.913  0.00  0.00     0.066 H 
ATOM     47  H   LIG d   1      10.142   4.992   2.041  0.00  0.00     0.066 H 
ATOM     48  H   LIG d   1      11.873   5.193   1.680  0.00  0.00     0.066 H 
ENDBRANCH  44  45
ENDBRANCH  38  44
ENDBRANCH  31  34
ENDBRANCH   1  31
BRANCH  21  49
ATOM     49  C   LIG d   1       8.544   0.072  -6.973  0.00  0.00    -0.015 A 
ATOM     50  C   LIG d   1       7.318   0.607  -7.322  0.00  0.00     0.021 A 
ATOM     51  C   LIG d   1       6.928   0.634  -8.649  0.00  0.00     0.274 A 
ATOM     52  H   LIG d   1       6.665   1.003  -6.559  0.00  0.00     0.069 H 
ATOM     53  C   LIG d   1       7.761   0.122  -9.624  0.00  0.00     0.016 A 
ATOM     54  C   LIG d   1       8.990  -0.409  -9.276  0.00  0.00    -0.055 A 
ATOM     55  H   LIG d   1       7.455   0.138 -10.660  0.00  0.00     0.069 H 
ATOM     56  C   LIG d   1       9.380  -0.436  -7.950  0.00  0.00    -0.056 A 
ATOM     57  H   LIG d   1       9.643  -0.805 -10.039  0.00  0.00     0.062 H 
ATOM     58  H   LIG d   1      10.338  -0.855  -7.678  0.00  0.00     0.062 H 
BRANCH  51  59
ATOM     59  N   LIG d   1       5.616   1.206  -9.022  0.00  0.00     0.080 N 
ATOM     60  O   LIG d   1       4.789   1.447  -8.161  0.00  0.00     0.041 OA
ATOM     61  O   LIG d   1       5.364   1.441 -10.190  0.00  0.00    -0.576 OA
ENDBRANCH  51  59
ENDBRANCH  21  49
TORSDOF 6
ENDMDL
MODEL 2
REMARK VINA RESULT:      -8.2      4.253     10.160
REMARK  6 active torsions:
REMARK  status: ('A' for Active; 'I' for Inactive)
REMARK    1  A    between atoms: C_1  and  O_2 
REMARK    2  A    between atoms: O_2  and  C_3 
REMARK    3  A    between atoms: C_6  and  C_9 
REMARK    4  A    between atoms: C_9  and  N_10 
REMARK    5  A    between atoms: C_30  and  C_32 
REMARK    6  A    between atoms: C_36  and  N_38 
ROOT
ATOM      1  N   LIG d   1       2.614  -1.141  -9.052  0.00  0.00    -0.287 N 
ATOM      2  C   LIG d   1       3.082  -2.508  -8.884  0.00  0.00     0.092 A 
ATOM      3  C   LIG d   1       4.170  -2.607  -7.866  0.00  0.00     0.234 A 
ATOM      4  O   LIG d   1       4.617  -3.707  -7.621  0.00  0.00    -0.274 OA
ATOM      5  N   LIG d   1       4.685  -1.566  -7.208  0.00  0.00    -0.276 N 
ATOM      6  C   LIG d   1       4.290  -0.182  -7.466  0.00  0.00     0.107 A 
ATOM      7  H   LIG d   1       3.999   0.284  -6.525  0.00  0.00     0.060 H 
ATOM      8  C   LIG d   1       3.144  -0.095  -8.423  0.00  0.00     0.237 A 
ATOM      9  O   LIG d   1       2.665   0.998  -8.638  0.00  0.00    -0.274 OA
ATOM     10  C   LIG d   1       5.492   0.587  -8.033  0.00  0.00     0.002 C 
ATOM     11  C   LIG d   1       6.712   0.257  -7.212  0.00  0.00    -0.015 A 
ATOM     12  C   LIG d   1       7.969   0.974  -7.143  0.00  0.00     0.003 A 
ATOM     13  C   LIG d   1       8.433   2.134  -7.770  0.00  0.00    -0.052 A 
ATOM     14  C   LIG d   1       9.710   2.536  -7.465  0.00  0.00    -0.061 A 
ATOM     15  C   LIG d   1      10.511   1.833  -6.579  0.00  0.00    -0.060 A 
ATOM     16  C   LIG d   1      10.077   0.683  -5.945  0.00  0.00    -0.038 A 
ATOM     17  C   LIG d   1       8.784   0.252  -6.235  0.00  0.00     0.047 A 
ATOM     18  N   LIG d   1       8.055  -0.816  -5.796  0.00  0.00    -0.356 N 
ATOM     19  H   LIG d   1       8.366  -1.483  -5.164  0.00  0.00     0.166 HD
ATOM     20  C   LIG d   1       6.818  -0.806  -6.383  0.00  0.00     0.046 A 
ATOM     21  C   LIG d   1       5.707  -1.808  -6.168  0.00  0.00     0.093 C 
ATOM     22  H   LIG d   1       6.099  -2.822  -6.262  0.00  0.00     0.062 H 
ATOM     23  H   LIG d   1       2.245  -3.132  -8.570  0.00  0.00     0.056 H 
ATOM     24  H   LIG d   1       3.457  -2.874  -9.840  0.00  0.00     0.056 H 
ATOM     25  H   LIG d   1       5.658   0.293  -9.069  0.00  0.00     0.034 H 
ATOM     26  H   LIG d   1       5.297   1.658  -7.982  0.00  0.00     0.034 H 
ATOM     27  H   LIG d   1       7.817   2.688  -8.463  0.00  0.00     0.062 H 
ATOM     28  H   LIG d   1      10.102   3.429  -7.930  0.00  0.00     0.062 H 
ATOM     29  H   LIG d   1      11.508   2.196  -6.378  0.00  0.00     0.062 H 
ATOM     30  H   LIG d   1      10.711   0.144  -5.257  0.00  0.00     0.064 H 
ENDROOT
BRANCH   1  31
ATOM     31  C   LIG d   1       1.497  -0.903  -9.969  0.00  0.00     0.040 C 
ATOM     32  H   LIG d   1       0.660  -1.547  -9.698  0.00  0.00     0.051 H 
ATOM     33  H   LIG d   1       1.189   0.141  -9.902  0.00  0.00     0.051 H 
BRANCH  31  34
ATOM     34  C   LIG d   1       1.930  -1.209 -11.380  0.00  0.00    -0.030 A 
ATOM     35  C   LIG d   1       1.146  -2.017 -12.183  0.00  0.00    -0.054 A 
ATOM     36  C   LIG d   1       1.541  -2.299 -13.476  0.00  0.00    -0.020 A 
ATOM     37  H   LIG d   1       0.223  -2.426 -11.798  0.00  0.00     0.062 H 
ATOM     38  C   LIG d   1       2.725  -1.772 -13.970  0.00  0.00     0.120 A 
ATOM     39  H   LIG d   1       0.927  -2.930 -14.102  0.00  0.00     0.065 H 
ATOM     40  C   LIG d   1       3.511  -0.963 -13.162  0.00  0.00    -0.020 A 
ATOM     41  C   LIG d   1       3.109  -0.678 -11.870  0.00  0.00    -0.054 A 
ATOM     42  H   LIG d   1       4.434  -0.552 -13.543  0.00  0.00     0.065 H 
ATOM     43  H   LIG d   1       3.717  -0.044 -11.243  0.00  0.00     0.062 H 
BRANCH  38  44
ATOM     44  O   LIG d   1       3.115  -2.048 -15.241  0.00  0.00    -0.495 OA
BRANCH  44  45
ATOM     45  C   LIG d   1       3.608  -0.957 -16.020  0.00  0.00     0.079 C 
ATOM     46  H   LIG d   1       2.912  -0.121 -15.956  0.00  0.00     0.066 H 
ATOM     47  H   LIG d   1       4.582  -0.649 -15.639  0.00  0.00     0.066 H 
ATOM     48  H   LIG d   1       3.708  -1.268 -17.060  0.00  0.00     0.066 H 
ENDBRANCH  44  45
ENDBRANCH  38  44
ENDBRANCH  31  34
ENDBRANCH   1  31
BRANCH  21  49
ATOM     49  C   LIG d   1       5.102  -1.617  -4.800  0.00  0.00    -0.015 A 
ATOM     50  C   LIG d   1       5.005  -0.350  -4.259  0.00  0.00     0.021 A 
ATOM     51  C   LIG d   1       4.451  -0.175  -3.004  0.00  0.00     0.274 A 
ATOM     52  H   LIG d   1       5.362   0.504  -4.815  0.00  0.00     0.069 H 
ATOM     53  C   LIG d   1       4.000  -1.268  -2.290  0.00  0.00     0.016 A 
ATOM     54  C   LIG d   1       4.092  -2.536  -2.834  0.00  0.00    -0.055 A 
ATOM     55  H   LIG d   1       3.571  -1.133  -1.308  0.00  0.00     0.069 H 
ATOM     56  C   LIG d   1       4.645  -2.711  -4.089  0.00  0.00    -0.056 A 
ATOM     57  H   LIG d   1       3.735  -3.390  -2.278  0.00  0.00     0.062 H 
ATOM     58  H   LIG d   1       4.722  -3.702  -4.512  0.00  0.00     0.062 H 
BRANCH  51  59
ATOM     59  N   LIG d   1       4.347   1.182  -2.424  0.00  0.00     0.080 N 
ATOM     60  O   LIG d   1       4.728   1.389  -1.286  0.00  0.00     0.041 OA
ATOM     61  O   LIG d   1       3.885   2.094  -3.086  0.00  0.00    -0.576 OA
ENDBRANCH  51  59
ENDBRANCH  21  49
TORSDOF 6
ENDMDL
MODEL 3
REMARK VINA RESULT:      -8.2      5.715     10.200
REMARK  6 active torsions:
REMARK  status: ('A' for Active; 'I' for Inactive)
REMARK    1  A    between atoms: C_1  and  O_2 
REMARK    2  A    between atoms: O_2  and  C_3 
REMARK    3  A    between atoms: C_6  and  C_9 
REMARK    4  A    between atoms: C_9  and  N_10 
REMARK    5  A    between atoms: C_30  and  C_32 
REMARK    6  A    between atoms: C_36  and  N_38 
ROOT
ATOM      1  N   LIG d   1       5.703  -6.096  -6.875  0.00  0.00    -0.287 N 
ATOM      2  C   LIG d   1       7.010  -5.604  -6.469  0.00  0.00     0.092 A 
ATOM      3  C   LIG d   1       6.998  -4.135  -6.199  0.00  0.00     0.234 A 
ATOM      4  O   LIG d   1       8.029  -3.620  -5.823  0.00  0.00    -0.274 OA
ATOM      5  N   LIG d   1       5.928  -3.350  -6.345  0.00  0.00    -0.276 N 
ATOM      6  C   LIG d   1       4.648  -3.831  -6.865  0.00  0.00     0.107 A 
ATOM      7  H   LIG d   1       3.859  -3.560  -6.164  0.00  0.00     0.060 H 
ATOM      8  C   LIG d   1       4.640  -5.314  -7.052  0.00  0.00     0.237 A 
ATOM      9  O   LIG d   1       3.599  -5.839  -7.386  0.00  0.00    -0.274 OA
ATOM     10  C   LIG d   1       4.359  -3.141  -8.206  0.00  0.00     0.002 C 
ATOM     11  C   LIG d   1       4.650  -1.668  -8.069  0.00  0.00    -0.015 A 
ATOM     12  C   LIG d   1       4.218  -0.584  -8.928  0.00  0.00     0.003 A 
ATOM     13  C   LIG d   1       3.437  -0.547 -10.086  0.00  0.00    -0.052 A 
ATOM     14  C   LIG d   1       3.225   0.685 -10.653  0.00  0.00    -0.061 A 
ATOM     15  C   LIG d   1       3.756   1.845 -10.112  0.00  0.00    -0.060 A 
ATOM     16  C   LIG d   1       4.532   1.837  -8.967  0.00  0.00    -0.038 A 
ATOM     17  C   LIG d   1       4.763   0.600  -8.368  0.00  0.00     0.047 A 
ATOM     18  N   LIG d   1       5.466   0.237  -7.256  0.00  0.00    -0.356 N 
ATOM     19  H   LIG d   1       5.945   0.848  -6.675  0.00  0.00     0.166 HD
ATOM     20  C   LIG d   1       5.393  -1.118  -7.082  0.00  0.00     0.046 A 
ATOM     21  C   LIG d   1       6.028  -1.923  -5.971  0.00  0.00     0.093 C 
ATOM     22  H   LIG d   1       7.076  -1.641  -5.862  0.00  0.00     0.062 H 
ATOM     23  H   LIG d   1       7.319  -6.127  -5.563  0.00  0.00     0.056 H 
ATOM     24  H   LIG d   1       7.729  -5.812  -7.261  0.00  0.00     0.056 H 
ATOM     25  H   LIG d   1       4.994  -3.569  -8.981  0.00  0.00     0.034 H 
ATOM     26  H   LIG d   1       3.311  -3.283  -8.471  0.00  0.00     0.034 H 
ATOM     27  H   LIG d   1       3.019  -1.447 -10.516  0.00  0.00     0.062 H 
ATOM     28  H   LIG d   1       2.625   0.752 -11.549  0.00  0.00     0.062 H 
ATOM     29  H   LIG d   1       3.557   2.787 -10.601  0.00  0.00     0.062 H 
ATOM     30  H   LIG d   1       4.941   2.748  -8.556  0.00  0.00     0.064 H 
ENDROOT
BRANCH   1  31
ATOM     31  C   LIG d   1       5.548  -7.534  -7.103  0.00  0.00     0.040 C 
ATOM     32  H   LIG d   1       4.543  -7.737  -7.475  0.00  0.00     0.051 H 
ATOM     33  H   LIG d   1       6.281  -7.866  -7.838  0.00  0.00     0.051 H 
BRANCH  31  34
ATOM     34  C   LIG d   1       5.763  -8.275  -5.809  0.00  0.00    -0.030 A 
ATOM     35  C   LIG d   1       7.040  -8.417  -5.298  0.00  0.00    -0.054 A 
ATOM     36  C   LIG d   1       7.240  -9.097  -4.112  0.00  0.00    -0.020 A 
ATOM     37  H   LIG d   1       7.882  -7.996  -5.828  0.00  0.00     0.062 H 
ATOM     38  C   LIG d   1       6.158  -9.637  -3.433  0.00  0.00     0.120 A 
ATOM     39  H   LIG d   1       8.238  -9.207  -3.715  0.00  0.00     0.065 H 
ATOM     40  C   LIG d   1       4.877  -9.493  -3.947  0.00  0.00    -0.020 A 
ATOM     41  C   LIG d   1       4.682  -8.808  -5.131  0.00  0.00    -0.054 A 
ATOM     42  H   LIG d   1       4.033  -9.913  -3.421  0.00  0.00     0.065 H 
ATOM     43  H   LIG d   1       3.685  -8.691  -5.529  0.00  0.00     0.062 H 
BRANCH  38  44
ATOM     44  O   LIG d   1       6.351 -10.304  -2.266  0.00  0.00    -0.495 OA
BRANCH  44  45
ATOM     45  C   LIG d   1       7.428  -9.863  -1.437  0.00  0.00     0.079 C 
ATOM     46  H   LIG d   1       7.546 -10.549  -0.598  0.00  0.00     0.066 H 
ATOM     47  H   LIG d   1       8.349  -9.840  -2.019  0.00  0.00     0.066 H 
ATOM     48  H   LIG d   1       7.212  -8.863  -1.062  0.00  0.00     0.066 H 
ENDBRANCH  44  45
ENDBRANCH  38  44
ENDBRANCH  31  34
ENDBRANCH   1  31
BRANCH  21  49
ATOM     49  C   LIG d   1       5.295  -1.680  -4.677  0.00  0.00    -0.015 A 
ATOM     50  C   LIG d   1       5.187  -0.396  -4.176  0.00  0.00     0.021 A 
ATOM     51  C   LIG d   1       4.514  -0.173  -2.988  0.00  0.00     0.274 A 
ATOM     52  H   LIG d   1       5.628   0.432  -4.710  0.00  0.00     0.069 H 
ATOM     53  C   LIG d   1       3.955  -1.233  -2.302  0.00  0.00     0.016 A 
ATOM     54  C   LIG d   1       4.057  -2.516  -2.807  0.00  0.00    -0.055 A 
ATOM     55  H   LIG d   1       3.433  -1.060  -1.371  0.00  0.00     0.069 H 
ATOM     56  C   LIG d   1       4.730  -2.740  -3.993  0.00  0.00    -0.056 A 
ATOM     57  H   LIG d   1       3.616  -3.344  -2.272  0.00  0.00     0.062 H 
ATOM     58  H   LIG d   1       4.814  -3.742  -4.385  0.00  0.00     0.062 H 
BRANCH  51  59
ATOM     59  N   LIG d   1       4.399   1.201  -2.451  0.00  0.00     0.080 N 
ATOM     60  O   LIG d   1       3.959   2.094  -3.151  0.00  0.00     0.041 OA
ATOM     61  O   LIG d   1       4.740   1.437  -1.306  0.00  0.00    -0.576 OA
ENDBRANCH  51  59
ENDBRANCH  21  49
TORSDOF 6
ENDMDL
MODEL 4
REMARK VINA RESULT:      -8.0      3.277      5.178
REMARK  6 active torsions:
REMARK  status: ('A' for Active; 'I' for Inactive)
REMARK    1  A    between atoms: C_1  and  O_2 
REMARK    2  A    between atoms: O_2  and  C_3 
REMARK    3  A    between atoms: C_6  and  C_9 
REMARK    4  A    between atoms: C_9  and  N_10 
REMARK    5  A    between atoms: C_30  and  C_32 
REMARK    6  A    between atoms: C_36  and  N_38 
ROOT
ATOM      1  N   LIG d   1       9.059   1.594  -4.958  0.00  0.00    -0.287 N 
ATOM      2  C   LIG d   1       8.166   1.623  -3.812  0.00  0.00     0.092 A 
ATOM      3  C   LIG d   1       6.956   0.771  -4.022  0.00  0.00     0.234 A 
ATOM      4  O   LIG d   1       6.153   0.695  -3.116  0.00  0.00    -0.274 OA
ATOM      5  N   LIG d   1       6.698   0.089  -5.140  0.00  0.00    -0.276 N 
ATOM      6  C   LIG d   1       7.544   0.157  -6.331  0.00  0.00     0.107 A 
ATOM      7  H   LIG d   1       7.815  -0.855  -6.629  0.00  0.00     0.060 H 
ATOM      8  C   LIG d   1       8.794   0.941  -6.088  0.00  0.00     0.237 A 
ATOM      9  O   LIG d   1       9.619   0.984  -6.975  0.00  0.00    -0.274 OA
ATOM     10  C   LIG d   1       6.748   0.800  -7.476  0.00  0.00     0.002 C 
ATOM     11  C   LIG d   1       5.374   0.183  -7.520  0.00  0.00    -0.015 A 
ATOM     12  C   LIG d   1       4.412   0.211  -8.603  0.00  0.00     0.003 A 
ATOM     13  C   LIG d   1       4.439   0.778  -9.881  0.00  0.00    -0.052 A 
ATOM     14  C   LIG d   1       3.323   0.606 -10.660  0.00  0.00    -0.061 A 
ATOM     15  C   LIG d   1       2.213  -0.094 -10.213  0.00  0.00    -0.060 A 
ATOM     16  C   LIG d   1       2.159  -0.665  -8.954  0.00  0.00    -0.038 A 
ATOM     17  C   LIG d   1       3.280  -0.508  -8.141  0.00  0.00     0.047 A 
ATOM     18  N   LIG d   1       3.558  -0.932  -6.873  0.00  0.00    -0.356 N 
ATOM     19  H   LIG d   1       2.958  -1.450  -6.314  0.00  0.00     0.166 HD
ATOM     20  C   LIG d   1       4.811  -0.517  -6.510  0.00  0.00     0.046 A 
ATOM     21  C   LIG d   1       5.503  -0.779  -5.191  0.00  0.00     0.093 C 
ATOM     22  H   LIG d   1       4.832  -0.536  -4.367  0.00  0.00     0.062 H 
ATOM     23  H   LIG d   1       8.703   1.263  -2.934  0.00  0.00     0.056 H 
ATOM     24  H   LIG d   1       7.847   2.651  -3.636  0.00  0.00     0.056 H 
ATOM     25  H   LIG d   1       6.662   1.872  -7.304  0.00  0.00     0.034 H 
ATOM     26  H   LIG d   1       7.260   0.620  -8.422  0.00  0.00     0.034 H 
ATOM     27  H   LIG d   1       5.299   1.326 -10.238  0.00  0.00     0.062 H 
ATOM     28  H   LIG d   1       3.308   1.029 -11.654  0.00  0.00     0.062 H 
ATOM     29  H   LIG d   1       1.363  -0.197 -10.870  0.00  0.00     0.062 H 
ATOM     30  H   LIG d   1       1.288  -1.207  -8.617  0.00  0.00     0.064 H 
ENDROOT
BRANCH   1  31
ATOM     31  C   LIG d   1      10.323   2.328  -4.866  0.00  0.00     0.040 C 
ATOM     32  H   LIG d   1      11.036   1.752  -4.275  0.00  0.00     0.051 H 
ATOM     33  H   LIG d   1      10.725   2.487  -5.867  0.00  0.00     0.051 H 
BRANCH  31  34
ATOM     34  C   LIG d   1      10.084   3.661  -4.203  0.00  0.00    -0.030 A 
ATOM     35  C   LIG d   1       9.503   4.692  -4.917  0.00  0.00    -0.054 A 
ATOM     36  C   LIG d   1       9.283   5.915  -4.312  0.00  0.00    -0.020 A 
ATOM     37  H   LIG d   1       9.220   4.542  -5.949  0.00  0.00     0.062 H 
ATOM     38  C   LIG d   1       9.645   6.107  -2.987  0.00  0.00     0.120 A 
ATOM     39  H   LIG d   1       8.829   6.720  -4.871  0.00  0.00     0.065 H 
ATOM     40  C   LIG d   1      10.229   5.070  -2.272  0.00  0.00    -0.020 A 
ATOM     41  C   LIG d   1      10.441   3.847  -2.881  0.00  0.00    -0.054 A 
ATOM     42  H   LIG d   1      10.512   5.216  -1.241  0.00  0.00     0.065 H 
ATOM     43  H   LIG d   1      10.890   3.038  -2.324  0.00  0.00     0.062 H 
BRANCH  38  44
ATOM     44  O   LIG d   1       9.430   7.307  -2.389  0.00  0.00    -0.495 OA
BRANCH  44  45
ATOM     45  C   LIG d   1       9.921   7.467  -1.057  0.00  0.00     0.079 C 
ATOM     46  H   LIG d   1       9.085   7.455  -0.358  0.00  0.00     0.066 H 
ATOM     47  H   LIG d   1      10.603   6.650  -0.821  0.00  0.00     0.066 H 
ATOM     48  H   LIG d   1      10.450   8.416  -0.976  0.00  0.00     0.066 H 
ENDBRANCH  44  45
ENDBRANCH  38  44
ENDBRANCH  31  34
ENDBRANCH   1  31
BRANCH  21  49
ATOM     49  C   LIG d   1       5.915  -2.226  -5.107  0.00  0.00    -0.015 A 
ATOM     50  C   LIG d   1       5.001  -3.223  -5.390  0.00  0.00     0.021 A 
ATOM     51  C   LIG d   1       5.380  -4.551  -5.312  0.00  0.00     0.274 A 
ATOM     52  H   LIG d   1       3.991  -2.965  -5.672  0.00  0.00     0.069 H 
ATOM     53  C   LIG d   1       6.670  -4.880  -4.947  0.00  0.00     0.016 A 
ATOM     54  C   LIG d   1       7.587  -3.883  -4.669  0.00  0.00    -0.055 A 
ATOM     55  H   LIG d   1       6.965  -5.917  -4.881  0.00  0.00     0.069 H 
ATOM     56  C   LIG d   1       7.209  -2.556  -4.747  0.00  0.00    -0.056 A 
ATOM     57  H   LIG d   1       8.597  -4.140  -4.388  0.00  0.00     0.062 H 
ATOM     58  H   LIG d   1       7.923  -1.777  -4.525  0.00  0.00     0.062 H 
BRANCH  51  59
ATOM     59  N   LIG d   1       4.400  -5.618  -5.615  0.00  0.00     0.080 N 
ATOM     60  O   LIG d   1       3.328  -5.336  -6.118  0.00  0.00     0.041 OA
ATOM     61  O   LIG d   1       4.669  -6.779  -5.365  0.00  0.00    -0.576 OA
ENDBRANCH  51  59
ENDBRANCH  21  49
TORSDOF 6
ENDMDL
MODEL 5
REMARK VINA RESULT:      -7.8      4.374      9.393
REMARK  6 active torsions:
REMARK  status: ('A' for Active; 'I' for Inactive)
REMARK    1  A    between atoms: C_1  and  O_2 
REMARK    2  A    between atoms: O_2  and  C_3 
REMARK    3  A    between atoms: C_6  and  C_9 
REMARK    4  A    between atoms: C_9  and  N_10 
REMARK    5  A    between atoms: C_30  and  C_32 
REMARK    6  A    between atoms: C_36  and  N_38 
ROOT
ATOM      1  N   LIG d   1       7.891  -4.724  -5.920  0.00  0.00    -0.287 N 
ATOM      2  C   LIG d   1       8.291  -4.729  -4.523  0.00  0.00     0.092 A 
ATOM      3  C   LIG d   1       8.054  -3.408  -3.866  0.00  0.00     0.234 A 
ATOM      4  O   LIG d   1       8.324  -3.305  -2.688  0.00  0.00    -0.274 OA
ATOM      5  N   LIG d   1       7.567  -2.332  -4.489  0.00  0.00    -0.276 N 
ATOM      6  C   LIG d   1       7.276  -2.302  -5.922  0.00  0.00     0.107 A 
ATOM      7  H   LIG d   1       6.251  -1.962  -6.067  0.00  0.00     0.060 H 
ATOM      8  C   LIG d   1       7.434  -3.647  -6.556  0.00  0.00     0.237 A 
ATOM      9  O   LIG d   1       7.125  -3.765  -7.722  0.00  0.00    -0.274 OA
ATOM     10  C   LIG d   1       8.217  -1.298  -6.605  0.00  0.00     0.002 C 
ATOM     11  C   LIG d   1       8.261  -0.035  -5.783  0.00  0.00    -0.015 A 
ATOM     12  C   LIG d   1       8.720   1.280  -6.182  0.00  0.00     0.003 A 
ATOM     13  C   LIG d   1       9.235   1.780  -7.381  0.00  0.00    -0.052 A 
ATOM     14  C   LIG d   1       9.577   3.109  -7.404  0.00  0.00    -0.061 A 
ATOM     15  C   LIG d   1       9.425   3.927  -6.295  0.00  0.00    -0.060 A 
ATOM     16  C   LIG d   1       8.917   3.458  -5.096  0.00  0.00    -0.038 A 
ATOM     17  C   LIG d   1       8.560   2.112  -5.045  0.00  0.00     0.047 A 
ATOM     18  N   LIG d   1       8.040   1.341  -4.046  0.00  0.00    -0.356 N 
ATOM     19  H   LIG d   1       7.828   1.653  -3.152  0.00  0.00     0.166 HD
ATOM     20  C   LIG d   1       7.863   0.060  -4.494  0.00  0.00     0.046 A 
ATOM     21  C   LIG d   1       7.308  -1.106  -3.707  0.00  0.00     0.093 C 
ATOM     22  H   LIG d   1       7.808  -1.170  -2.740  0.00  0.00     0.062 H 
ATOM     23  H   LIG d   1       7.721  -5.493  -3.994  0.00  0.00     0.056 H 
ATOM     24  H   LIG d   1       9.352  -4.970  -4.458  0.00  0.00     0.056 H 
ATOM     25  H   LIG d   1       9.217  -1.724  -6.674  0.00  0.00     0.034 H 
ATOM     26  H   LIG d   1       7.845  -1.071  -7.604  0.00  0.00     0.034 H 
ATOM     27  H   LIG d   1       9.359   1.150  -8.250  0.00  0.00     0.062 H 
ATOM     28  H   LIG d   1       9.978   3.531  -8.313  0.00  0.00     0.062 H 
ATOM     29  H   LIG d   1       9.712   4.965  -6.370  0.00  0.00     0.062 H 
ATOM     30  H   LIG d   1       8.804   4.106  -4.240  0.00  0.00     0.064 H 
ENDROOT
BRANCH   1  31
ATOM     31  C   LIG d   1       8.000  -5.975  -6.673  0.00  0.00     0.040 C 
ATOM     32  H   LIG d   1       7.874  -5.772  -7.737  0.00  0.00     0.051 H 
ATOM     33  H   LIG d   1       8.980  -6.419  -6.501  0.00  0.00     0.051 H 
BRANCH  31  34
ATOM     34  C   LIG d   1       6.929  -6.932  -6.215  0.00  0.00    -0.030 A 
ATOM     35  C   LIG d   1       5.655  -6.848  -6.746  0.00  0.00    -0.054 A 
ATOM     36  C   LIG d   1       4.672  -7.724  -6.328  0.00  0.00    -0.020 A 
ATOM     37  H   LIG d   1       5.429  -6.098  -7.489  0.00  0.00     0.062 H 
ATOM     38  C   LIG d   1       4.963  -8.688  -5.374  0.00  0.00     0.120 A 
ATOM     39  H   LIG d   1       3.678  -7.658  -6.743  0.00  0.00     0.065 H 
ATOM     40  C   LIG d   1       6.242  -8.770  -4.842  0.00  0.00    -0.020 A 
ATOM     41  C   LIG d   1       7.224  -7.895  -5.268  0.00  0.00    -0.054 A 
ATOM     42  H   LIG d   1       6.472  -9.519  -4.099  0.00  0.00     0.065 H 
ATOM     43  H   LIG d   1       8.221  -7.961  -4.859  0.00  0.00     0.062 H 
BRANCH  38  44
ATOM     44  O   LIG d   1       3.999  -9.551  -4.961  0.00  0.00    -0.495 OA
BRANCH  44  45
ATOM     45  C   LIG d   1       4.079 -10.018  -3.613  0.00  0.00     0.079 C 
ATOM     46  H   LIG d   1       3.193 -10.608  -3.380  0.00  0.00     0.066 H 
ATOM     47  H   LIG d   1       4.969 -10.636  -3.496  0.00  0.00     0.066 H 
ATOM     48  H   LIG d   1       4.138  -9.165  -2.936  0.00  0.00     0.066 H 
ENDBRANCH  44  45
ENDBRANCH  38  44
ENDBRANCH  31  34
ENDBRANCH   1  31
BRANCH  21  49
ATOM     49  C   LIG d   1       5.825  -0.929  -3.506  0.00  0.00    -0.015 A 
ATOM     50  C   LIG d   1       5.077  -0.244  -4.445  0.00  0.00     0.021 A 
ATOM     51  C   LIG d   1       3.716  -0.082  -4.261  0.00  0.00     0.274 A 
ATOM     52  H   LIG d   1       5.555   0.165  -5.323  0.00  0.00     0.069 H 
ATOM     53  C   LIG d   1       3.105  -0.600  -3.135  0.00  0.00     0.016 A 
ATOM     54  C   LIG d   1       3.852  -1.291  -2.198  0.00  0.00    -0.055 A 
ATOM     55  H   LIG d   1       2.043  -0.470  -2.988  0.00  0.00     0.069 H 
ATOM     56  C   LIG d   1       5.212  -1.453  -2.382  0.00  0.00    -0.056 A 
ATOM     57  H   LIG d   1       3.374  -1.700  -1.321  0.00  0.00     0.062 H 
ATOM     58  H   LIG d   1       5.797  -1.988  -1.649  0.00  0.00     0.062 H 
BRANCH  51  59
ATOM     59  N   LIG d   1       2.916   0.652  -5.265  0.00  0.00     0.080 N 
ATOM     60  O   LIG d   1       2.694   0.150  -6.352  0.00  0.00     0.041 OA
ATOM     61  O   LIG d   1       2.475   1.757  -5.004  0.00  0.00    -0.576 OA
ENDBRANCH  51  59
ENDBRANCH  21  49
TORSDOF 6
ENDMDL
MODEL 6
REMARK VINA RESULT:      -7.7      5.668      8.937
REMARK  6 active torsions:
REMARK  status: ('A' for Active; 'I' for Inactive)
REMARK    1  A    between atoms: C_1  and  O_2 
REMARK    2  A    between atoms: O_2  and  C_3 
REMARK    3  A    between atoms: C_6  and  C_9 
REMARK    4  A    between atoms: C_9  and  N_10 
REMARK    5  A    between atoms: C_30  and  C_32 
REMARK    6  A    between atoms: C_36  and  N_38 
ROOT
ATOM      1  N   LIG d   1       7.480  -6.040  -5.707  0.00  0.00    -0.287 N 
ATOM      2  C   LIG d   1       6.188  -6.511  -6.177  0.00  0.00     0.092 A 
ATOM      3  C   LIG d   1       5.243  -5.385  -6.443  0.00  0.00     0.234 A 
ATOM      4  O   LIG d   1       4.141  -5.660  -6.869  0.00  0.00    -0.274 OA
ATOM      5  N   LIG d   1       5.528  -4.097  -6.241  0.00  0.00    -0.276 N 
ATOM      6  C   LIG d   1       6.789  -3.639  -5.660  0.00  0.00     0.107 A 
ATOM      7  H   LIG d   1       7.232  -2.893  -6.319  0.00  0.00     0.060 H 
ATOM      8  C   LIG d   1       7.762  -4.759  -5.475  0.00  0.00     0.237 A 
ATOM      9  O   LIG d   1       8.879  -4.485  -5.091  0.00  0.00    -0.274 OA
ATOM     10  C   LIG d   1       6.506  -2.975  -4.304  0.00  0.00     0.002 C 
ATOM     11  C   LIG d   1       5.325  -2.050  -4.452  0.00  0.00    -0.015 A 
ATOM     12  C   LIG d   1       4.908  -0.979  -3.571  0.00  0.00     0.003 A 
ATOM     13  C   LIG d   1       5.431  -0.479  -2.374  0.00  0.00    -0.052 A 
ATOM     14  C   LIG d   1       4.761   0.570  -1.795  0.00  0.00    -0.061 A 
ATOM     15  C   LIG d   1       3.619   1.116  -2.359  0.00  0.00    -0.060 A 
ATOM     16  C   LIG d   1       3.081   0.641  -3.542  0.00  0.00    -0.038 A 
ATOM     17  C   LIG d   1       3.741  -0.423  -4.154  0.00  0.00     0.047 A 
ATOM     18  N   LIG d   1       3.490  -1.118  -5.301  0.00  0.00    -0.356 N 
ATOM     19  H   LIG d   1       2.748  -0.952  -5.904  0.00  0.00     0.166 HD
ATOM     20  C   LIG d   1       4.440  -2.088  -5.474  0.00  0.00     0.046 A 
ATOM     21  C   LIG d   1       4.530  -3.073  -6.617  0.00  0.00     0.093 C 
ATOM     22  H   LIG d   1       3.559  -3.543  -6.778  0.00  0.00     0.062 H 
ATOM     23  H   LIG d   1       6.331  -7.077  -7.098  0.00  0.00     0.056 H 
ATOM     24  H   LIG d   1       5.754  -7.166  -5.422  0.00  0.00     0.056 H 
ATOM     25  H   LIG d   1       6.280  -3.741  -3.562  0.00  0.00     0.034 H 
ATOM     26  H   LIG d   1       7.379  -2.405  -3.987  0.00  0.00     0.034 H 
ATOM     27  H   LIG d   1       6.320  -0.898  -1.926  0.00  0.00     0.062 H 
ATOM     28  H   LIG d   1       5.136   0.983  -0.870  0.00  0.00     0.062 H 
ATOM     29  H   LIG d   1       3.133   1.940  -1.859  0.00  0.00     0.062 H 
ATOM     30  H   LIG d   1       2.190   1.075  -3.971  0.00  0.00     0.064 H 
ENDROOT
BRANCH   1  31
ATOM     31  C   LIG d   1       8.533  -7.031  -5.474  0.00  0.00     0.040 C 
ATOM     32  H   LIG d   1       8.591  -7.708  -6.327  0.00  0.00     0.051 H 
ATOM     33  H   LIG d   1       9.489  -6.523  -5.347  0.00  0.00     0.051 H 
BRANCH  31  34
ATOM     34  C   LIG d   1       8.214  -7.819  -4.230  0.00  0.00    -0.030 A 
ATOM     35  C   LIG d   1       8.947  -7.613  -3.075  0.00  0.00    -0.054 A 
ATOM     36  C   LIG d   1       8.657  -8.335  -1.933  0.00  0.00    -0.020 A 
ATOM     37  H   LIG d   1       9.746  -6.886  -3.066  0.00  0.00     0.062 H 
ATOM     38  C   LIG d   1       7.630  -9.268  -1.946  0.00  0.00     0.120 A 
ATOM     39  H   LIG d   1       9.230  -8.173  -1.033  0.00  0.00     0.065 H 
ATOM     40  C   LIG d   1       6.897  -9.473  -3.106  0.00  0.00    -0.020 A 
ATOM     41  C   LIG d   1       7.187  -8.745  -4.244  0.00  0.00    -0.054 A 
ATOM     42  H   LIG d   1       6.098 -10.199  -3.118  0.00  0.00     0.065 H 
ATOM     43  H   LIG d   1       6.613  -8.900  -5.145  0.00  0.00     0.062 H 
BRANCH  38  44
ATOM     44  O   LIG d   1       7.343  -9.978  -0.824  0.00  0.00    -0.495 OA
BRANCH  44  45
ATOM     45  C   LIG d   1       7.970 -11.254  -0.686  0.00  0.00     0.079 C 
ATOM     46  H   LIG d   1       8.324 -11.593  -1.660  0.00  0.00     0.066 H 
ATOM     47  H   LIG d   1       8.815 -11.172  -0.001  0.00  0.00     0.066 H 
ATOM     48  H   LIG d   1       7.251 -11.972  -0.290  0.00  0.00     0.066 H 
ENDBRANCH  44  45
ENDBRANCH  38  44
ENDBRANCH  31  34
ENDBRANCH   1  31
BRANCH  21  49
ATOM     49  C   LIG d   1       4.970  -2.364  -7.872  0.00  0.00    -0.015 A 
ATOM     50  C   LIG d   1       4.691  -1.021  -8.040  0.00  0.00     0.021 A 
ATOM     51  C   LIG d   1       5.095  -0.370  -9.192  0.00  0.00     0.274 A 
ATOM     52  H   LIG d   1       4.158  -0.479  -7.273  0.00  0.00     0.069 H 
ATOM     53  C   LIG d   1       5.772  -1.064 -10.176  0.00  0.00     0.016 A 
ATOM     54  C   LIG d   1       6.056  -2.407 -10.005  0.00  0.00    -0.055 A 
ATOM     55  H   LIG d   1       6.083  -0.558 -11.078  0.00  0.00     0.069 H 
ATOM     56  C   LIG d   1       5.653  -3.057  -8.854  0.00  0.00    -0.056 A 
ATOM     57  H   LIG d   1       6.589  -2.948 -10.772  0.00  0.00     0.062 H 
ATOM     58  H   LIG d   1       5.870  -4.107  -8.723  0.00  0.00     0.062 H 
BRANCH  51  59
ATOM     59  N   LIG d   1       4.796   1.068  -9.372  0.00  0.00     0.080 N 
ATOM     60  O   LIG d   1       4.738   1.542 -10.492  0.00  0.00     0.041 OA
ATOM     61  O   LIG d   1       4.602   1.776  -8.401  0.00  0.00    -0.576 OA
ENDBRANCH  51  59
ENDBRANCH  21  49
TORSDOF 6
ENDMDL
MODEL 7
REMARK VINA RESULT:      -7.7      3.407      6.092
REMARK  6 active torsions:
REMARK  status: ('A' for Active; 'I' for Inactive)
REMARK    1  A    between atoms: C_1  and  O_2 
REMARK    2  A    between atoms: O_2  and  C_3 
REMARK    3  A    between atoms: C_6  and  C_9 
REMARK    4  A    between atoms: C_9  and  N_10 
REMARK    5  A    between atoms: C_30  and  C_32 
REMARK    6  A    between atoms: C_36  and  N_38 
ROOT
ATOM      1  N   LIG d   1       8.949  -0.290  -6.535  0.00  0.00    -0.287 N 
ATOM      2  C   LIG d   1       7.838   0.013  -7.423  0.00  0.00     0.092 A 
ATOM      3  C   LIG d   1       6.634  -0.818  -7.119  0.00  0.00     0.234 A 
ATOM      4  O   LIG d   1       5.635  -0.628  -7.780  0.00  0.00    -0.274 OA
ATOM      5  N   LIG d   1       6.584  -1.756  -6.171  0.00  0.00    -0.276 N 
ATOM      6  C   LIG d   1       7.740  -2.135  -5.360  0.00  0.00     0.107 A 
ATOM      7  H   LIG d   1       7.468  -2.073  -4.307  0.00  0.00     0.060 H 
ATOM      8  C   LIG d   1       8.916  -1.245  -5.608  0.00  0.00     0.237 A 
ATOM      9  O   LIG d   1       9.903  -1.403  -4.921  0.00  0.00    -0.274 OA
ATOM     10  C   LIG d   1       8.120  -3.589  -5.675  0.00  0.00     0.002 C 
ATOM     11  C   LIG d   1       6.866  -4.426  -5.699  0.00  0.00    -0.015 A 
ATOM     12  C   LIG d   1       6.747  -5.867  -5.614  0.00  0.00     0.003 A 
ATOM     13  C   LIG d   1       7.692  -6.890  -5.485  0.00  0.00    -0.052 A 
ATOM     14  C   LIG d   1       7.212  -8.175  -5.436  0.00  0.00    -0.061 A 
ATOM     15  C   LIG d   1       5.857  -8.459  -5.510  0.00  0.00    -0.060 A 
ATOM     16  C   LIG d   1       4.902  -7.466  -5.637  0.00  0.00    -0.038 A 
ATOM     17  C   LIG d   1       5.360  -6.151  -5.688  0.00  0.00     0.047 A 
ATOM     18  N   LIG d   1       4.707  -4.958  -5.806  0.00  0.00    -0.356 N 
ATOM     19  H   LIG d   1       3.745  -4.852  -5.877  0.00  0.00     0.166 HD
ATOM     20  C   LIG d   1       5.613  -3.932  -5.811  0.00  0.00     0.046 A 
ATOM     21  C   LIG d   1       5.307  -2.455  -5.920  0.00  0.00     0.093 C 
ATOM     22  H   LIG d   1       4.619  -2.280  -6.749  0.00  0.00     0.062 H 
ATOM     23  H   LIG d   1       7.577   1.066  -7.316  0.00  0.00     0.056 H 
ATOM     24  H   LIG d   1       8.146  -0.173  -8.452  0.00  0.00     0.056 H 
ATOM     25  H   LIG d   1       8.610  -3.637  -6.647  0.00  0.00     0.034 H 
ATOM     26  H   LIG d   1       8.795  -3.965  -4.906  0.00  0.00     0.034 H 
ATOM     27  H   LIG d   1       8.750  -6.679  -5.428  0.00  0.00     0.062 H 
ATOM     28  H   LIG d   1       7.912  -8.991  -5.336  0.00  0.00     0.062 H 
ATOM     29  H   LIG d   1       5.537  -9.489  -5.466  0.00  0.00     0.062 H 
ATOM     30  H   LIG d   1       3.849  -7.700  -5.694  0.00  0.00     0.064 H 
ENDROOT
BRANCH   1  31
ATOM     31  C   LIG d   1      10.175   0.499  -6.669  0.00  0.00     0.040 C 
ATOM     32  H   LIG d   1      10.962   0.057  -6.058  0.00  0.00     0.051 H 
ATOM     33  H   LIG d   1      10.488   0.509  -7.713  0.00  0.00     0.051 H 
BRANCH  31  34
ATOM     34  C   LIG d   1       9.917   1.911  -6.209  0.00  0.00    -0.030 A 
ATOM     35  C   LIG d   1      10.055   2.962  -7.097  0.00  0.00    -0.054 A 
ATOM     36  C   LIG d   1       9.819   4.258  -6.677  0.00  0.00    -0.020 A 
ATOM     37  H   LIG d   1      10.346   2.771  -8.119  0.00  0.00     0.062 H 
ATOM     38  C   LIG d   1       9.444   4.503  -5.364  0.00  0.00     0.120 A 
ATOM     39  H   LIG d   1       9.927   5.078  -7.371  0.00  0.00     0.065 H 
ATOM     40  C   LIG d   1       9.306   3.446  -4.475  0.00  0.00    -0.020 A 
ATOM     41  C   LIG d   1       9.538   2.152  -4.902  0.00  0.00    -0.054 A 
ATOM     42  H   LIG d   1       9.015   3.634  -3.453  0.00  0.00     0.065 H 
ATOM     43  H   LIG d   1       9.426   1.329  -4.212  0.00  0.00     0.062 H 
BRANCH  38  44
ATOM     44  O   LIG d   1       9.211   5.775  -4.950  0.00  0.00    -0.495 OA
BRANCH  44  45
ATOM     45  C   LIG d   1       9.553   6.091  -3.599  0.00  0.00     0.079 C 
ATOM     46  H   LIG d   1      10.601   5.847  -3.423  0.00  0.00     0.066 H 
ATOM     47  H   LIG d   1       9.393   7.155  -3.423  0.00  0.00     0.066 H 
ATOM     48  H   LIG d   1       8.926   5.512  -2.921  0.00  0.00     0.066 H 
ENDBRANCH  44  45
ENDBRANCH  38  44
ENDBRANCH  31  34
ENDBRANCH   1  31
BRANCH  21  49
ATOM     49  C   LIG d   1       4.695  -1.962  -4.634  0.00  0.00    -0.015 A 
ATOM     50  C   LIG d   1       4.333  -0.634  -4.506  0.00  0.00     0.021 A 
ATOM     51  C   LIG d   1       3.772  -0.182  -3.326  0.00  0.00     0.274 A 
ATOM     52  H   LIG d   1       4.487   0.049  -5.327  0.00  0.00     0.069 H 
ATOM     53  C   LIG d   1       3.580  -1.055  -2.273  0.00  0.00     0.016 A 
ATOM     54  C   LIG d   1       3.937  -2.385  -2.403  0.00  0.00    -0.055 A 
ATOM     55  H   LIG d   1       3.147  -0.701  -1.349  0.00  0.00     0.069 H 
ATOM     56  C   LIG d   1       4.498  -2.838  -3.583  0.00  0.00    -0.056 A 
ATOM     57  H   LIG d   1       3.783  -3.069  -1.582  0.00  0.00     0.062 H 
ATOM     58  H   LIG d   1       4.781  -3.875  -3.683  0.00  0.00     0.062 H 
BRANCH  51  59
ATOM     59  N   LIG d   1       3.385   1.240  -3.188  0.00  0.00     0.080 N 
ATOM     60  O   LIG d   1       3.385   1.768  -2.091  0.00  0.00     0.041 OA
ATOM     61  O   LIG d   1       3.070   1.883  -4.173  0.00  0.00    -0.576 OA
ENDBRANCH  51  59
ENDBRANCH  21  49
TORSDOF 6
ENDMDL
MODEL 8
REMARK VINA RESULT:      -7.5      2.952      8.561
REMARK  6 active torsions:
REMARK  status: ('A' for Active; 'I' for Inactive)
REMARK    1  A    between atoms: C_1  and  O_2 
REMARK    2  A    between atoms: O_2  and  C_3 
REMARK    3  A    between atoms: C_6  and  C_9 
REMARK    4  A    between atoms: C_9  and  N_10 
REMARK    5  A    between atoms: C_30  and  C_32 
REMARK    6  A    between atoms: C_36  and  N_38 
ROOT
ATOM      1  N   LIG d   1       7.321  -0.061  -8.927  0.00  0.00    -0.287 N 
ATOM      2  C   LIG d   1       7.981  -1.208  -8.326  0.00  0.00     0.092 A 
ATOM      3  C   LIG d   1       8.260  -0.998  -6.874  0.00  0.00     0.234 A 
ATOM      4  O   LIG d   1       8.783  -1.904  -6.261  0.00  0.00    -0.274 OA
ATOM      5  N   LIG d   1       7.974   0.121  -6.205  0.00  0.00    -0.276 N 
ATOM      6  C   LIG d   1       7.416   1.313  -6.842  0.00  0.00     0.107 A 
ATOM      7  H   LIG d   1       6.518   1.614  -6.303  0.00  0.00     0.060 H 
ATOM      8  C   LIG d   1       7.060   1.069  -8.274  0.00  0.00     0.237 A 
ATOM      9  O   LIG d   1       6.498   1.957  -8.879  0.00  0.00    -0.274 OA
ATOM     10  C   LIG d   1       8.437   2.456  -6.753  0.00  0.00     0.002 C 
ATOM     11  C   LIG d   1       8.997   2.501  -5.354  0.00  0.00    -0.015 A 
ATOM     12  C   LIG d   1       9.711   3.583  -4.708  0.00  0.00     0.003 A 
ATOM     13  C   LIG d   1      10.088   4.859  -5.136  0.00  0.00    -0.052 A 
ATOM     14  C   LIG d   1      10.773   5.638  -4.238  0.00  0.00    -0.061 A 
ATOM     15  C   LIG d   1      11.085   5.191  -2.963  0.00  0.00    -0.060 A 
ATOM     16  C   LIG d   1      10.724   3.934  -2.513  0.00  0.00    -0.038 A 
ATOM     17  C   LIG d   1      10.025   3.121  -3.404  0.00  0.00     0.047 A 
ATOM     18  N   LIG d   1       9.528   1.855  -3.291  0.00  0.00    -0.356 N 
ATOM     19  H   LIG d   1       9.598   1.295  -2.501  0.00  0.00     0.166 HD
ATOM     20  C   LIG d   1       8.914   1.491  -4.459  0.00  0.00     0.046 A 
ATOM     21  C   LIG d   1       8.231   0.174  -4.750  0.00  0.00     0.093 C 
ATOM     22  H   LIG d   1       8.881  -0.652  -4.459  0.00  0.00     0.062 H 
ATOM     23  H   LIG d   1       7.343  -2.085  -8.440  0.00  0.00     0.056 H 
ATOM     24  H   LIG d   1       8.923  -1.387  -8.844  0.00  0.00     0.056 H 
ATOM     25  H   LIG d   1       9.244   2.282  -7.465  0.00  0.00     0.034 H 
ATOM     26  H   LIG d   1       7.946   3.403  -6.980  0.00  0.00     0.034 H 
ATOM     27  H   LIG d   1       9.851   5.216  -6.128  0.00  0.00     0.062 H 
ATOM     28  H   LIG d   1      11.080   6.631  -4.533  0.00  0.00     0.062 H 
ATOM     29  H   LIG d   1      11.626   5.848  -2.299  0.00  0.00     0.062 H 
ATOM     30  H   LIG d   1      10.973   3.597  -1.518  0.00  0.00     0.064 H 
ENDROOT
BRANCH   1  31
ATOM     31  C   LIG d   1       6.921  -0.154 -10.333  0.00  0.00     0.040 C 
ATOM     32  H   LIG d   1       7.121   0.795 -10.832  0.00  0.00     0.051 H 
ATOM     33  H   LIG d   1       7.488  -0.947 -10.820  0.00  0.00     0.051 H 
BRANCH  31  34
ATOM     34  C   LIG d   1       5.449  -0.464 -10.417  0.00  0.00    -0.030 A 
ATOM     35  C   LIG d   1       4.940  -1.578  -9.776  0.00  0.00    -0.054 A 
ATOM     36  C   LIG d   1       3.590  -1.865  -9.853  0.00  0.00    -0.020 A 
ATOM     37  H   LIG d   1       5.598  -2.225  -9.214  0.00  0.00     0.062 H 
ATOM     38  C   LIG d   1       2.745  -1.033 -10.574  0.00  0.00     0.120 A 
ATOM     39  H   LIG d   1       3.194  -2.735  -9.351  0.00  0.00     0.065 H 
ATOM     40  C   LIG d   1       3.259   0.084 -11.217  0.00  0.00    -0.020 A 
ATOM     41  C   LIG d   1       4.608   0.369 -11.133  0.00  0.00    -0.054 A 
ATOM     42  H   LIG d   1       2.604   0.732 -11.780  0.00  0.00     0.065 H 
ATOM     43  H   LIG d   1       5.008   1.241 -11.629  0.00  0.00     0.062 H 
BRANCH  38  44
ATOM     44  O   LIG d   1       1.418  -1.313 -10.650  0.00  0.00    -0.495 OA
BRANCH  44  45
ATOM     45  C   LIG d   1       0.886  -1.586 -11.947  0.00  0.00     0.079 C 
ATOM     46  H   LIG d   1       0.944  -0.687 -12.561  0.00  0.00     0.066 H 
ATOM     47  H   LIG d   1       1.462  -2.384 -12.416  0.00  0.00     0.066 H 
ATOM     48  H   LIG d   1      -0.155  -1.897 -11.855  0.00  0.00     0.066 H 
ENDBRANCH  44  45
ENDBRANCH  38  44
ENDBRANCH  31  34
ENDBRANCH   1  31
BRANCH  21  49
ATOM     49  C   LIG d   1       6.929   0.093  -3.996  0.00  0.00    -0.015 A 
ATOM     50  C   LIG d   1       6.230  -1.098  -3.949  0.00  0.00     0.021 A 
ATOM     51  C   LIG d   1       5.035  -1.172  -3.257  0.00  0.00     0.274 A 
ATOM     52  H   LIG d   1       6.617  -1.971  -4.453  0.00  0.00     0.069 H 
ATOM     53  C   LIG d   1       4.538  -0.053  -2.617  0.00  0.00     0.016 A 
ATOM     54  C   LIG d   1       5.241   1.138  -2.658  0.00  0.00    -0.055 A 
ATOM     55  H   LIG d   1       3.602  -0.109  -2.080  0.00  0.00     0.069 H 
ATOM     56  C   LIG d   1       6.435   1.212  -3.350  0.00  0.00    -0.056 A 
ATOM     57  H   LIG d   1       4.854   2.011  -2.154  0.00  0.00     0.062 H 
ATOM     58  H   LIG d   1       6.981   2.142  -3.387  0.00  0.00     0.062 H 
BRANCH  51  59
ATOM     59  N   LIG d   1       4.287  -2.447  -3.207  0.00  0.00     0.080 N 
ATOM     60  O   LIG d   1       4.407  -3.259  -4.107  0.00  0.00     0.041 OA
ATOM     61  O   LIG d   1       3.555  -2.687  -2.264  0.00  0.00    -0.576 OA
ENDBRANCH  51  59
ENDBRANCH  21  49
TORSDOF 6
ENDMDL
MODEL 9
REMARK VINA RESULT:      -7.5      5.523      8.224
REMARK  6 active torsions:
REMARK  status: ('A' for Active; 'I' for Inactive)
REMARK    1  A    between atoms: C_1  and  O_2 
REMARK    2  A    between atoms: O_2  and  C_3 
REMARK    3  A    between atoms: C_6  and  C_9 
REMARK    4  A    between atoms: C_9  and  N_10 
REMARK    5  A    between atoms: C_30  and  C_32 
REMARK    6  A    between atoms: C_36  and  N_38 
ROOT
ATOM      1  N   LIG d   1       8.595  -5.508  -5.421  0.00  0.00    -0.287 N 
ATOM      2  C   LIG d   1       7.462  -6.415  -5.340  0.00  0.00     0.092 A 
ATOM      3  C   LIG d   1       6.158  -5.694  -5.456  0.00  0.00     0.234 A 
ATOM      4  O   LIG d   1       5.142  -6.356  -5.432  0.00  0.00    -0.274 OA
ATOM      5  N   LIG d   1       6.036  -4.371  -5.584  0.00  0.00    -0.276 N 
ATOM      6  C   LIG d   1       7.176  -3.456  -5.550  0.00  0.00     0.107 A 
ATOM      7  H   LIG d   1       7.147  -2.823  -6.436  0.00  0.00     0.060 H 
ATOM      8  C   LIG d   1       8.480  -4.185  -5.518  0.00  0.00     0.237 A 
ATOM      9  O   LIG d   1       9.499  -3.531  -5.586  0.00  0.00    -0.274 OA
ATOM     10  C   LIG d   1       7.060  -2.556  -4.311  0.00  0.00     0.002 C 
ATOM     11  C   LIG d   1       5.642  -2.053  -4.206  0.00  0.00    -0.015 A 
ATOM     12  C   LIG d   1       5.141  -0.936  -3.430  0.00  0.00     0.003 A 
ATOM     13  C   LIG d   1       5.765  -0.015  -2.584  0.00  0.00    -0.052 A 
ATOM     14  C   LIG d   1       4.963   0.932  -1.999  0.00  0.00    -0.061 A 
ATOM     15  C   LIG d   1       3.596   0.983  -2.227  0.00  0.00    -0.060 A 
ATOM     16  C   LIG d   1       2.954   0.084  -3.060  0.00  0.00    -0.038 A 
ATOM     17  C   LIG d   1       3.744  -0.888  -3.670  0.00  0.00     0.047 A 
ATOM     18  N   LIG d   1       3.444  -1.905  -4.529  0.00  0.00    -0.356 N 
ATOM     19  H   LIG d   1       2.557  -2.109  -4.865  0.00  0.00     0.166 HD
ATOM     20  C   LIG d   1       4.583  -2.596  -4.846  0.00  0.00     0.046 A 
ATOM     21  C   LIG d   1       4.690  -3.789  -5.768  0.00  0.00     0.093 C 
ATOM     22  H   LIG d   1       3.929  -4.526  -5.509  0.00  0.00     0.062 H 
ATOM     23  H   LIG d   1       7.534  -7.146  -6.145  0.00  0.00     0.056 H 
ATOM     24  H   LIG d   1       7.493  -6.936  -4.383  0.00  0.00     0.056 H 
ATOM     25  H   LIG d   1       7.312  -3.127  -3.419  0.00  0.00     0.034 H 
ATOM     26  H   LIG d   1       7.740  -1.710  -4.410  0.00  0.00     0.034 H 
ATOM     27  H   LIG d   1       6.829  -0.047  -2.398  0.00  0.00     0.062 H 
ATOM     28  H   LIG d   1       5.410   1.662  -1.339  0.00  0.00     0.062 H 
ATOM     29  H   LIG d   1       3.015   1.750  -1.739  0.00  0.00     0.062 H 
ATOM     30  H   LIG d   1       1.889   0.134  -3.230  0.00  0.00     0.064 H 
ENDROOT
BRANCH   1  31
ATOM     31  C   LIG d   1       9.941  -6.084  -5.393  0.00  0.00     0.040 C 
ATOM     32  H   LIG d   1      10.052  -6.792  -6.214  0.00  0.00     0.051 H 
ATOM     33  H   LIG d   1      10.679  -5.288  -5.498  0.00  0.00     0.051 H 
BRANCH  31  34
ATOM     34  C   LIG d   1      10.156  -6.797  -4.083  0.00  0.00    -0.030 A 
ATOM     35  C   LIG d   1      10.383  -8.161  -4.069  0.00  0.00    -0.054 A 
ATOM     36  C   LIG d   1      10.580  -8.818  -2.869  0.00  0.00    -0.020 A 
ATOM     37  H   LIG d   1      10.406  -8.714  -4.996  0.00  0.00     0.062 H 
ATOM     38  C   LIG d   1      10.550  -8.107  -1.678  0.00  0.00     0.120 A 
ATOM     39  H   LIG d   1      10.757  -9.883  -2.859  0.00  0.00     0.065 H 
ATOM     40  C   LIG d   1      10.322  -6.739  -1.694  0.00  0.00    -0.020 A 
ATOM     41  C   LIG d   1      10.132  -6.086  -2.898  0.00  0.00    -0.054 A 
ATOM     42  H   LIG d   1      10.298  -6.183  -0.769  0.00  0.00     0.065 H 
ATOM     43  H   LIG d   1       9.959  -5.020  -2.912  0.00  0.00     0.062 H 
BRANCH  38  44
ATOM     44  O   LIG d   1      10.744  -8.750  -0.497  0.00  0.00    -0.495 OA
BRANCH  44  45
ATOM     45  C   LIG d   1      11.364  -8.006   0.553  0.00  0.00     0.079 C 
ATOM     46  H   LIG d   1      11.157  -8.485   1.510  0.00  0.00     0.066 H 
ATOM     47  H   LIG d   1      12.441  -7.973   0.388  0.00  0.00     0.066 H 
ATOM     48  H   LIG d   1      10.968  -6.990   0.562  0.00  0.00     0.066 H 
ENDBRANCH  44  45
ENDBRANCH  38  44
ENDBRANCH  31  34
ENDBRANCH   1  31
BRANCH  21  49
ATOM     49  C   LIG d   1       4.512  -3.350  -7.199  0.00  0.00    -0.015 A 
ATOM     50  C   LIG d   1       4.682  -2.021  -7.540  0.00  0.00     0.021 A 
ATOM     51  C   LIG d   1       4.518  -1.618  -8.852  0.00  0.00     0.274 A 
ATOM     52  H   LIG d   1       4.943  -1.298  -6.781  0.00  0.00     0.069 H 
ATOM     53  C   LIG d   1       4.179  -2.542  -9.821  0.00  0.00     0.016 A 
ATOM     54  C   LIG d   1       4.014  -3.872  -9.481  0.00  0.00    -0.055 A 
ATOM     55  H   LIG d   1       4.046  -2.227 -10.846  0.00  0.00     0.069 H 
ATOM     56  C   LIG d   1       4.178  -4.276  -8.170  0.00  0.00    -0.056 A 
ATOM     57  H   LIG d   1       3.753  -4.595 -10.240  0.00  0.00     0.062 H 
ATOM     58  H   LIG d   1       4.044  -5.313  -7.903  0.00  0.00     0.062 H 
BRANCH  51  59
ATOM     59  N   LIG d   1       4.700  -0.195  -9.217  0.00  0.00     0.080 N 
ATOM     60  O   LIG d   1       4.825   0.646  -8.345  0.00  0.00     0.041 OA
ATOM     61  O   LIG d   1       4.730   0.134 -10.389  0.00  0.00    -0.576 OA
ENDBRANCH  51  59
ENDBRANCH  21  49
TORSDOF 6
ENDMDL
