MODEL 1
REMARK VINA RESULT:      -6.0      0.000      0.000
REMARK  3 active torsions:
REMARK  status: ('A' for Active; 'I' for Inactive)
REMARK    1  A    between atoms: C_1  and  C_2 
REMARK    2  A    between atoms: C_5  and  C_8 
REMARK    3  A    between atoms: C_12  and  C_17 
ROOT
ATOM      1  C   LIG d   1       3.459  -0.272  -7.256  0.00  0.00     0.232 A 
ATOM      2  C   LIG d   1       4.388  -0.327  -8.250  0.00  0.00     0.087 A 
ATOM      3  N   LIG d   1       3.711  -0.512  -9.422  0.00  0.00    -0.264 N 
ATOM      4  C   LIG d   1       4.130  -0.638 -10.716  0.00  0.00     0.018 A 
ATOM      5  C   LIG d   1       3.238  -0.817 -11.712  0.00  0.00    -0.034 A 
ATOM      6  C   LIG d   1       1.863  -0.877 -11.432  0.00  0.00    -0.050 A 
ATOM      7  C   LIG d   1       1.432  -0.753 -10.147  0.00  0.00     0.029 A 
ATOM      8  C   LIG d   1       2.376  -0.566  -9.117  0.00  0.00     0.288 A 
ATOM      9  N   LIG d   1       2.243  -0.425  -7.805  0.00  0.00    -0.188 N 
ATOM     10  H   LIG d   1       5.458  -0.240  -8.132  0.00  0.00     0.088 H 
ATOM     11  H   LIG d   1       5.185  -0.593 -10.944  0.00  0.00     0.082 H 
ATOM     12  H   LIG d   1       1.151  -1.019 -12.231  0.00  0.00     0.062 H 
ATOM     13  H   LIG d   1       0.377  -0.796  -9.920  0.00  0.00     0.070 H 
ATOM     14  H   LIG d   1       1.403  -0.430  -7.321  0.00  0.00     0.455 HD
ENDROOT
BRANCH   1  15
ATOM     15  C   LIG d   1       3.741  -0.081  -5.811  0.00  0.00     0.048 A 
ATOM     16  C   LIG d   1       2.763   0.451  -4.973  0.00  0.00    -0.048 A 
ATOM     17  C   LIG d   1       3.032   0.627  -3.629  0.00  0.00    -0.058 A 
ATOM     18  H   LIG d   1       1.799   0.728  -5.371  0.00  0.00     0.063 H 
ATOM     19  C   LIG d   1       4.266   0.273  -3.116  0.00  0.00    -0.050 A 
ATOM     20  H   LIG d   1       2.275   1.040  -2.979  0.00  0.00     0.062 H 
ATOM     21  C   LIG d   1       5.242  -0.252  -3.946  0.00  0.00    -0.058 A 
ATOM     22  C   LIG d   1       4.983  -0.435  -5.289  0.00  0.00    -0.048 A 
ATOM     23  H   LIG d   1       6.205  -0.522  -3.541  0.00  0.00     0.062 H 
ATOM     24  H   LIG d   1       5.743  -0.849  -5.935  0.00  0.00     0.063 H 
BRANCH  19  25
ATOM     25  C   LIG d   1       4.552   0.466  -1.649  0.00  0.00    -0.040 C 
ATOM     26  H   LIG d   1       5.142   1.372  -1.510  0.00  0.00     0.028 H 
ATOM     27  H   LIG d   1       3.613   0.557  -1.104  0.00  0.00     0.028 H 
ATOM     28  H   LIG d   1       5.110  -0.392  -1.272  0.00  0.00     0.028 H 
ENDBRANCH  19  25
ENDBRANCH   1  15
BRANCH   5  29
ATOM     29  C   LIG d   1       3.719  -0.952 -13.134  0.00  0.00    -0.038 C 
ATOM     30  H   LIG d   1       3.856   0.038 -13.567  0.00  0.00     0.028 H 
ATOM     31  H   LIG d   1       4.668  -1.488 -13.148  0.00  0.00     0.028 H 
ATOM     32  H   LIG d   1       2.982  -1.505 -13.716  0.00  0.00     0.028 H 
ENDBRANCH   5  29
TORSDOF 3
ENDMDL
MODEL 2
REMARK VINA RESULT:      -5.8      1.544      6.988
REMARK  3 active torsions:
REMARK  status: ('A' for Active; 'I' for Inactive)
REMARK    1  A    between atoms: C_1  and  C_2 
REMARK    2  A    between atoms: C_5  and  C_8 
REMARK    3  A    between atoms: C_12  and  C_17 
ROOT
ATOM      1  C   LIG d   1       3.599  -1.085  -7.035  0.00  0.00     0.232 A 
ATOM      2  C   LIG d   1       3.423   0.019  -6.258  0.00  0.00     0.087 A 
ATOM      3  N   LIG d   1       3.906  -0.283  -5.016  0.00  0.00    -0.264 N 
ATOM      4  C   LIG d   1       3.984   0.438  -3.858  0.00  0.00     0.018 A 
ATOM      5  C   LIG d   1       4.517  -0.105  -2.745  0.00  0.00    -0.034 A 
ATOM      6  C   LIG d   1       5.001  -1.424  -2.761  0.00  0.00    -0.050 A 
ATOM      7  C   LIG d   1       4.929  -2.154  -3.907  0.00  0.00     0.029 A 
ATOM      8  C   LIG d   1       4.369  -1.572  -5.063  0.00  0.00     0.288 A 
ATOM      9  N   LIG d   1       4.170  -2.041  -6.286  0.00  0.00    -0.188 N 
ATOM     10  H   LIG d   1       2.983   0.957  -6.566  0.00  0.00     0.088 H 
ATOM     11  H   LIG d   1       3.615   1.453  -3.835  0.00  0.00     0.082 H 
ATOM     12  H   LIG d   1       5.428  -1.856  -1.868  0.00  0.00     0.062 H 
ATOM     13  H   LIG d   1       5.298  -3.168  -3.931  0.00  0.00     0.070 H 
ATOM     14  H   LIG d   1       4.403  -2.932  -6.592  0.00  0.00     0.455 HD
ENDROOT
BRANCH   1  15
ATOM     15  C   LIG d   1       3.218  -1.212  -8.464  0.00  0.00     0.048 A 
ATOM     16  C   LIG d   1       3.967  -2.021  -9.317  0.00  0.00    -0.048 A 
ATOM     17  C   LIG d   1       3.608  -2.135 -10.646  0.00  0.00    -0.058 A 
ATOM     18  H   LIG d   1       4.825  -2.557  -8.941  0.00  0.00     0.063 H 
ATOM     19  C   LIG d   1       2.508  -1.450 -11.129  0.00  0.00    -0.050 A 
ATOM     20  H   LIG d   1       4.188  -2.762 -11.308  0.00  0.00     0.062 H 
ATOM     21  C   LIG d   1       1.765  -0.641 -10.287  0.00  0.00    -0.058 A 
ATOM     22  C   LIG d   1       2.112  -0.523  -8.957  0.00  0.00    -0.048 A 
ATOM     23  H   LIG d   1       0.911  -0.105 -10.671  0.00  0.00     0.062 H 
ATOM     24  H   LIG d   1       1.529   0.105  -8.300  0.00  0.00     0.063 H 
BRANCH  19  25
ATOM     25  C   LIG d   1       2.122  -1.579 -12.581  0.00  0.00    -0.040 C 
ATOM     26  H   LIG d   1       1.789  -2.597 -12.779  0.00  0.00     0.028 H 
ATOM     27  H   LIG d   1       1.315  -0.882 -12.805  0.00  0.00     0.028 H 
ATOM     28  H   LIG d   1       2.985  -1.351 -13.207  0.00  0.00     0.028 H 
ENDBRANCH  19  25
ENDBRANCH   1  15
BRANCH   5  29
ATOM     29  C   LIG d   1       4.596   0.707  -1.478  0.00  0.00    -0.038 C 
ATOM     30  H   LIG d   1       5.606   1.099  -1.360  0.00  0.00     0.028 H 
ATOM     31  H   LIG d   1       3.890   1.535  -1.532  0.00  0.00     0.028 H 
ATOM     32  H   LIG d   1       4.350   0.074  -0.626  0.00  0.00     0.028 H 
ENDBRANCH   5  29
TORSDOF 3
ENDMDL
MODEL 3
REMARK VINA RESULT:      -5.7      1.526      6.771
REMARK  3 active torsions:
REMARK  status: ('A' for Active; 'I' for Inactive)
REMARK    1  A    between atoms: C_1  and  C_2 
REMARK    2  A    between atoms: C_5  and  C_8 
REMARK    3  A    between atoms: C_12  and  C_17 
ROOT
ATOM      1  C   LIG d   1       3.803  -0.504  -7.775  0.00  0.00     0.232 A 
ATOM      2  C   LIG d   1       4.518  -1.290  -6.923  0.00  0.00     0.087 A 
ATOM      3  N   LIG d   1       4.096  -0.998  -5.657  0.00  0.00    -0.264 N 
ATOM      4  C   LIG d   1       4.464  -1.476  -4.431  0.00  0.00     0.018 A 
ATOM      5  C   LIG d   1       3.879  -1.010  -3.308  0.00  0.00    -0.034 A 
ATOM      6  C   LIG d   1       2.882  -0.023  -3.385  0.00  0.00    -0.050 A 
ATOM      7  C   LIG d   1       2.507   0.462  -4.599  0.00  0.00     0.029 A 
ATOM      8  C   LIG d   1       3.127  -0.035  -5.764  0.00  0.00     0.288 A 
ATOM      9  N   LIG d   1       2.968   0.254  -7.047  0.00  0.00    -0.188 N 
ATOM     10  H   LIG d   1       5.277  -2.009  -7.198  0.00  0.00     0.088 H 
ATOM     11  H   LIG d   1       5.229  -2.235  -4.360  0.00  0.00     0.082 H 
ATOM     12  H   LIG d   1       2.415   0.348  -2.484  0.00  0.00     0.062 H 
ATOM     13  H   LIG d   1       1.741   1.221  -4.670  0.00  0.00     0.070 H 
ATOM     14  H   LIG d   1       2.346   0.908  -7.404  0.00  0.00     0.455 HD
ENDROOT
BRANCH   1  15
ATOM     15  C   LIG d   1       3.929  -0.485  -9.253  0.00  0.00     0.048 A 
ATOM     16  C   LIG d   1       4.086  -1.677  -9.957  0.00  0.00    -0.048 A 
ATOM     17  C   LIG d   1       4.203  -1.652 -11.333  0.00  0.00    -0.058 A 
ATOM     18  H   LIG d   1       4.117  -2.618  -9.429  0.00  0.00     0.063 H 
ATOM     19  C   LIG d   1       4.164  -0.448 -12.011  0.00  0.00    -0.050 A 
ATOM     20  H   LIG d   1       4.325  -2.576 -11.879  0.00  0.00     0.062 H 
ATOM     21  C   LIG d   1       4.013   0.739 -11.316  0.00  0.00    -0.058 A 
ATOM     22  C   LIG d   1       3.891   0.726  -9.942  0.00  0.00    -0.048 A 
ATOM     23  H   LIG d   1       3.988   1.677 -11.851  0.00  0.00     0.062 H 
ATOM     24  H   LIG d   1       3.769   1.652  -9.401  0.00  0.00     0.063 H 
BRANCH  19  25
ATOM     25  C   LIG d   1       4.292  -0.428 -13.513  0.00  0.00    -0.040 C 
ATOM     26  H   LIG d   1       3.442  -0.944 -13.957  0.00  0.00     0.028 H 
ATOM     27  H   LIG d   1       4.315   0.604 -13.862  0.00  0.00     0.028 H 
ATOM     28  H   LIG d   1       5.215  -0.930 -13.805  0.00  0.00     0.028 H 
ENDBRANCH  19  25
ENDBRANCH   1  15
BRANCH   5  29
ATOM     29  C   LIG d   1       4.296  -1.551  -1.965  0.00  0.00    -0.038 C 
ATOM     30  H   LIG d   1       5.382  -1.636  -1.930  0.00  0.00     0.028 H 
ATOM     31  H   LIG d   1       3.960  -0.875  -1.180  0.00  0.00     0.028 H 
ATOM     32  H   LIG d   1       3.850  -2.533  -1.814  0.00  0.00     0.028 H 
ENDBRANCH   5  29
TORSDOF 3
ENDMDL
MODEL 4
REMARK VINA RESULT:      -5.6      5.365      5.759
REMARK  3 active torsions:
REMARK  status: ('A' for Active; 'I' for Inactive)
REMARK    1  A    between atoms: C_1  and  C_2 
REMARK    2  A    between atoms: C_5  and  C_8 
REMARK    3  A    between atoms: C_12  and  C_17 
ROOT
ATOM      1  C   LIG d   1       5.449  -3.703  -4.690  0.00  0.00     0.232 A 
ATOM      2  C   LIG d   1       6.639  -4.089  -5.228  0.00  0.00     0.087 A 
ATOM      3  N   LIG d   1       6.416  -5.259  -5.899  0.00  0.00    -0.264 N 
ATOM      4  C   LIG d   1       7.240  -6.081  -6.614  0.00  0.00     0.018 A 
ATOM      5  C   LIG d   1       6.760  -7.202  -7.191  0.00  0.00    -0.034 A 
ATOM      6  C   LIG d   1       5.403  -7.541  -7.061  0.00  0.00    -0.050 A 
ATOM      7  C   LIG d   1       4.571  -6.731  -6.351  0.00  0.00     0.029 A 
ATOM      8  C   LIG d   1       5.087  -5.563  -5.755  0.00  0.00     0.288 A 
ATOM      9  N   LIG d   1       4.521  -4.617  -5.019  0.00  0.00    -0.188 N 
ATOM     10  H   LIG d   1       7.581  -3.568  -5.140  0.00  0.00     0.088 H 
ATOM     11  H   LIG d   1       8.285  -5.829  -6.720  0.00  0.00     0.082 H 
ATOM     12  H   LIG d   1       5.021  -8.439  -7.525  0.00  0.00     0.062 H 
ATOM     13  H   LIG d   1       3.526  -6.982  -6.246  0.00  0.00     0.070 H 
ATOM     14  H   LIG d   1       3.587  -4.588  -4.760  0.00  0.00     0.455 HD
ENDROOT
BRANCH   1  15
ATOM     15  C   LIG d   1       5.217  -2.485  -3.875  0.00  0.00     0.048 A 
ATOM     16  C   LIG d   1       4.074  -2.380  -3.085  0.00  0.00    -0.048 A 
ATOM     17  C   LIG d   1       3.863  -1.243  -2.329  0.00  0.00    -0.058 A 
ATOM     18  H   LIG d   1       3.353  -3.183  -3.065  0.00  0.00     0.063 H 
ATOM     19  C   LIG d   1       4.785  -0.213  -2.354  0.00  0.00    -0.050 A 
ATOM     20  H   LIG d   1       2.977  -1.160  -1.717  0.00  0.00     0.062 H 
ATOM     21  C   LIG d   1       5.920  -0.311  -3.140  0.00  0.00    -0.058 A 
ATOM     22  C   LIG d   1       6.142  -1.443  -3.897  0.00  0.00    -0.048 A 
ATOM     23  H   LIG d   1       6.634   0.499  -3.159  0.00  0.00     0.062 H 
ATOM     24  H   LIG d   1       7.030  -1.521  -4.507  0.00  0.00     0.063 H 
BRANCH  19  25
ATOM     25  C   LIG d   1       4.550   1.025  -1.526  0.00  0.00    -0.040 C 
ATOM     26  H   LIG d   1       3.899   0.782  -0.687  0.00  0.00     0.028 H 
ATOM     27  H   LIG d   1       5.503   1.398  -1.151  0.00  0.00     0.028 H 
ATOM     28  H   LIG d   1       4.078   1.790  -2.143  0.00  0.00     0.028 H 
ENDBRANCH  19  25
ENDBRANCH   1  15
BRANCH   5  29
ATOM     29  C   LIG d   1       7.684  -8.095  -7.977  0.00  0.00    -0.038 C 
ATOM     30  H   LIG d   1       7.719  -7.759  -9.013  0.00  0.00     0.028 H 
ATOM     31  H   LIG d   1       8.684  -8.053  -7.548  0.00  0.00     0.028 H 
ATOM     32  H   LIG d   1       7.316  -9.120  -7.940  0.00  0.00     0.028 H 
ENDBRANCH   5  29
TORSDOF 3
ENDMDL
MODEL 5
REMARK VINA RESULT:      -5.5      5.445      7.648
REMARK  3 active torsions:
REMARK  status: ('A' for Active; 'I' for Inactive)
REMARK    1  A    between atoms: C_1  and  C_2 
REMARK    2  A    between atoms: C_5  and  C_8 
REMARK    3  A    between atoms: C_12  and  C_17 
ROOT
ATOM      1  C   LIG d   1       7.574   1.474  -4.524  0.00  0.00     0.232 A 
ATOM      2  C   LIG d   1       7.217   0.172  -4.705  0.00  0.00     0.087 A 
ATOM      3  N   LIG d   1       6.220  -0.099  -3.812  0.00  0.00    -0.264 N 
ATOM      4  C   LIG d   1       5.499  -1.230  -3.552  0.00  0.00     0.018 A 
ATOM      5  C   LIG d   1       4.549  -1.235  -2.595  0.00  0.00    -0.034 A 
ATOM      6  C   LIG d   1       4.288  -0.073  -1.849  0.00  0.00    -0.050 A 
ATOM      7  C   LIG d   1       4.999   1.060  -2.096  0.00  0.00     0.029 A 
ATOM      8  C   LIG d   1       5.988   1.050  -3.100  0.00  0.00     0.288 A 
ATOM      9  N   LIG d   1       6.818   1.985  -3.540  0.00  0.00    -0.188 N 
ATOM     10  H   LIG d   1       7.643  -0.516  -5.421  0.00  0.00     0.088 H 
ATOM     11  H   LIG d   1       5.691  -2.129  -4.120  0.00  0.00     0.082 H 
ATOM     12  H   LIG d   1       3.526  -0.079  -1.083  0.00  0.00     0.062 H 
ATOM     13  H   LIG d   1       4.806   1.959  -1.529  0.00  0.00     0.070 H 
ATOM     14  H   LIG d   1       6.869   2.894  -3.205  0.00  0.00     0.455 HD
ENDROOT
BRANCH   1  15
ATOM     15  C   LIG d   1       8.623   2.201  -5.281  0.00  0.00     0.048 A 
ATOM     16  C   LIG d   1       9.510   3.043  -4.612  0.00  0.00    -0.048 A 
ATOM     17  C   LIG d   1      10.484   3.718  -5.322  0.00  0.00    -0.058 A 
ATOM     18  H   LIG d   1       9.435   3.170  -3.542  0.00  0.00     0.063 H 
ATOM     19  C   LIG d   1      10.581   3.558  -6.692  0.00  0.00    -0.050 A 
ATOM     20  H   LIG d   1      11.171   4.371  -4.804  0.00  0.00     0.062 H 
ATOM     21  C   LIG d   1       9.700   2.726  -7.361  0.00  0.00    -0.058 A 
ATOM     22  C   LIG d   1       8.725   2.044  -6.661  0.00  0.00    -0.048 A 
ATOM     23  H   LIG d   1       9.779   2.608  -8.431  0.00  0.00     0.062 H 
ATOM     24  H   LIG d   1       8.041   1.392  -7.184  0.00  0.00     0.063 H 
BRANCH  19  25
ATOM     25  C   LIG d   1      11.647   4.297  -7.460  0.00  0.00    -0.040 C 
ATOM     26  H   LIG d   1      11.461   4.195  -8.528  0.00  0.00     0.028 H 
ATOM     27  H   LIG d   1      11.627   5.351  -7.185  0.00  0.00     0.028 H 
ATOM     28  H   LIG d   1      12.624   3.877  -7.219  0.00  0.00     0.028 H 
ENDBRANCH  19  25
ENDBRANCH   1  15
BRANCH   5  29
ATOM     29  C   LIG d   1       3.762  -2.492  -2.324  0.00  0.00    -0.038 C 
ATOM     30  H   LIG d   1       2.994  -2.285  -1.580  0.00  0.00     0.028 H 
ATOM     31  H   LIG d   1       3.293  -2.833  -3.247  0.00  0.00     0.028 H 
ATOM     32  H   LIG d   1       4.432  -3.265  -1.950  0.00  0.00     0.028 H 
ENDBRANCH   5  29
TORSDOF 3
ENDMDL
MODEL 6
REMARK VINA RESULT:      -5.5      5.955      7.567
REMARK  3 active torsions:
REMARK  status: ('A' for Active; 'I' for Inactive)
REMARK    1  A    between atoms: C_1  and  C_2 
REMARK    2  A    between atoms: C_5  and  C_8 
REMARK    3  A    between atoms: C_12  and  C_17 
ROOT
ATOM      1  C   LIG d   1       7.930   1.591  -4.248  0.00  0.00     0.232 A 
ATOM      2  C   LIG d   1       8.972   2.139  -3.563  0.00  0.00     0.087 A 
ATOM      3  N   LIG d   1       9.668   2.916  -4.446  0.00  0.00    -0.264 N 
ATOM      4  C   LIG d   1      10.787   3.687  -4.309  0.00  0.00     0.018 A 
ATOM      5  C   LIG d   1      11.283   4.371  -5.360  0.00  0.00    -0.034 A 
ATOM      6  C   LIG d   1      10.655   4.298  -6.615  0.00  0.00    -0.050 A 
ATOM      7  C   LIG d   1       9.539   3.533  -6.765  0.00  0.00     0.029 A 
ATOM      8  C   LIG d   1       9.032   2.825  -5.657  0.00  0.00     0.288 A 
ATOM      9  N   LIG d   1       7.990   2.018  -5.520  0.00  0.00    -0.188 N 
ATOM     10  H   LIG d   1       9.204   1.988  -2.519  0.00  0.00     0.088 H 
ATOM     11  H   LIG d   1      11.279   3.751  -3.349  0.00  0.00     0.082 H 
ATOM     12  H   LIG d   1      11.054   4.847  -7.455  0.00  0.00     0.062 H 
ATOM     13  H   LIG d   1       9.047   3.471  -7.725  0.00  0.00     0.070 H 
ATOM     14  H   LIG d   1       7.369   1.775  -6.225  0.00  0.00     0.455 HD
ENDROOT
BRANCH   1  15
ATOM     15  C   LIG d   1       6.906   0.674  -3.687  0.00  0.00     0.048 A 
ATOM     16  C   LIG d   1       7.054  -0.705  -3.823  0.00  0.00    -0.048 A 
ATOM     17  C   LIG d   1       6.098  -1.553  -3.299  0.00  0.00    -0.058 A 
ATOM     18  H   LIG d   1       7.913  -1.110  -4.337  0.00  0.00     0.063 H 
ATOM     19  C   LIG d   1       4.998  -1.036  -2.640  0.00  0.00    -0.050 A 
ATOM     20  H   LIG d   1       6.212  -2.622  -3.404  0.00  0.00     0.062 H 
ATOM     21  C   LIG d   1       4.845   0.333  -2.507  0.00  0.00    -0.058 A 
ATOM     22  C   LIG d   1       5.796   1.190  -3.023  0.00  0.00    -0.048 A 
ATOM     23  H   LIG d   1       3.981   0.731  -1.995  0.00  0.00     0.062 H 
ATOM     24  H   LIG d   1       5.677   2.258  -2.915  0.00  0.00     0.063 H 
BRANCH  19  25
ATOM     25  C   LIG d   1       3.959  -1.967  -2.070  0.00  0.00    -0.040 C 
ATOM     26  H   LIG d   1       4.448  -2.738  -1.477  0.00  0.00     0.028 H 
ATOM     27  H   LIG d   1       3.272  -1.403  -1.439  0.00  0.00     0.028 H 
ATOM     28  H   LIG d   1       3.404  -2.433  -2.885  0.00  0.00     0.028 H 
ENDBRANCH  19  25
ENDBRANCH   1  15
BRANCH   5  29
ATOM     29  C   LIG d   1      12.519   5.217  -5.190  0.00  0.00    -0.038 C 
ATOM     30  H   LIG d   1      12.263   6.266  -5.341  0.00  0.00     0.028 H 
ATOM     31  H   LIG d   1      12.916   5.083  -4.184  0.00  0.00     0.028 H 
ATOM     32  H   LIG d   1      13.269   4.916  -5.920  0.00  0.00     0.028 H 
ENDBRANCH   5  29
TORSDOF 3
ENDMDL
MODEL 7
REMARK VINA RESULT:      -5.1      3.874      5.648
REMARK  3 active torsions:
REMARK  status: ('A' for Active; 'I' for Inactive)
REMARK    1  A    between atoms: C_1  and  C_2 
REMARK    2  A    between atoms: C_5  and  C_8 
REMARK    3  A    between atoms: C_12  and  C_17 
ROOT
ATOM      1  C   LIG d   1       1.834  -2.350 -10.087  0.00  0.00     0.232 A 
ATOM      2  C   LIG d   1       2.501  -3.525  -9.915  0.00  0.00     0.087 A 
ATOM      3  N   LIG d   1       1.622  -4.531 -10.205  0.00  0.00    -0.264 N 
ATOM      4  C   LIG d   1       1.746  -5.891 -10.200  0.00  0.00     0.018 A 
ATOM      5  C   LIG d   1       0.702  -6.678 -10.533  0.00  0.00    -0.034 A 
ATOM      6  C   LIG d   1      -0.531  -6.107 -10.889  0.00  0.00    -0.050 A 
ATOM      7  C   LIG d   1      -0.669  -4.753 -10.898  0.00  0.00     0.029 A 
ATOM      8  C   LIG d   1       0.431  -3.944 -10.548  0.00  0.00     0.288 A 
ATOM      9  N   LIG d   1       0.577  -2.630 -10.466  0.00  0.00    -0.188 N 
ATOM     10  H   LIG d   1       3.530  -3.640  -9.609  0.00  0.00     0.088 H 
ATOM     11  H   LIG d   1       2.690  -6.341  -9.927  0.00  0.00     0.082 H 
ATOM     12  H   LIG d   1      -1.365  -6.739 -11.157  0.00  0.00     0.062 H 
ATOM     13  H   LIG d   1      -1.612  -4.303 -11.171  0.00  0.00     0.070 H 
ATOM     14  H   LIG d   1      -0.114  -1.974 -10.651  0.00  0.00     0.455 HD
ENDROOT
BRANCH   1  15
ATOM     15  C   LIG d   1       2.399  -0.992  -9.883  0.00  0.00     0.048 A 
ATOM     16  C   LIG d   1       3.055  -0.345 -10.928  0.00  0.00    -0.048 A 
ATOM     17  C   LIG d   1       3.579   0.918 -10.732  0.00  0.00    -0.058 A 
ATOM     18  H   LIG d   1       3.155  -0.829 -11.888  0.00  0.00     0.063 H 
ATOM     19  C   LIG d   1       3.451   1.540  -9.503  0.00  0.00    -0.050 A 
ATOM     20  H   LIG d   1       4.088   1.421 -11.541  0.00  0.00     0.062 H 
ATOM     21  C   LIG d   1       2.804   0.898  -8.461  0.00  0.00    -0.058 A 
ATOM     22  C   LIG d   1       2.274  -0.362  -8.647  0.00  0.00    -0.048 A 
ATOM     23  H   LIG d   1       2.711   1.387  -7.503  0.00  0.00     0.062 H 
ATOM     24  H   LIG d   1       1.766  -0.860  -7.835  0.00  0.00     0.063 H 
BRANCH  19  25
ATOM     25  C   LIG d   1       4.024   2.918  -9.297  0.00  0.00    -0.040 C 
ATOM     26  H   LIG d   1       5.112   2.867  -9.320  0.00  0.00     0.028 H 
ATOM     27  H   LIG d   1       3.674   3.580 -10.089  0.00  0.00     0.028 H 
ATOM     28  H   LIG d   1       3.699   3.305  -8.330  0.00  0.00     0.028 H 
ENDBRANCH  19  25
ENDBRANCH   1  15
BRANCH   5  29
ATOM     29  C   LIG d   1       0.859  -8.177 -10.523  0.00  0.00    -0.038 C 
ATOM     30  H   LIG d   1       0.895  -8.544 -11.548  0.00  0.00     0.028 H 
ATOM     31  H   LIG d   1       1.783  -8.443 -10.010  0.00  0.00     0.028 H 
ATOM     32  H   LIG d   1       0.013  -8.627 -10.004  0.00  0.00     0.028 H 
ENDBRANCH   5  29
TORSDOF 3
ENDMDL
MODEL 8
REMARK VINA RESULT:      -5.1      8.350     11.845
REMARK  3 active torsions:
REMARK  status: ('A' for Active; 'I' for Inactive)
REMARK    1  A    between atoms: C_1  and  C_2 
REMARK    2  A    between atoms: C_5  and  C_8 
REMARK    3  A    between atoms: C_12  and  C_17 
ROOT
ATOM      1  C   LIG d   1       9.987   5.029  -2.741  0.00  0.00     0.232 A 
ATOM      2  C   LIG d   1       9.817   6.380  -2.760  0.00  0.00     0.087 A 
ATOM      3  N   LIG d   1      10.267   6.858  -1.562  0.00  0.00    -0.264 N 
ATOM      4  C   LIG d   1      10.335   8.119  -1.041  0.00  0.00     0.018 A 
ATOM      5  C   LIG d   1      10.832   8.327   0.195  0.00  0.00    -0.034 A 
ATOM      6  C   LIG d   1      11.288   7.245   0.967  0.00  0.00    -0.050 A 
ATOM      7  C   LIG d   1      11.226   5.983   0.461  0.00  0.00     0.029 A 
ATOM      8  C   LIG d   1      10.704   5.783  -0.833  0.00  0.00     0.288 A 
ATOM      9  N   LIG d   1      10.522   4.688  -1.557  0.00  0.00    -0.188 N 
ATOM     10  H   LIG d   1       9.405   6.963  -3.571  0.00  0.00     0.088 H 
ATOM     11  H   LIG d   1       9.987   8.959  -1.626  0.00  0.00     0.082 H 
ATOM     12  H   LIG d   1      11.687   7.414   1.956  0.00  0.00     0.062 H 
ATOM     13  H   LIG d   1      11.575   5.144   1.045  0.00  0.00     0.070 H 
ATOM     14  H   LIG d   1      10.742   3.785  -1.278  0.00  0.00     0.455 HD
ENDROOT
BRANCH   1  15
ATOM     15  C   LIG d   1       9.635   4.092  -3.837  0.00  0.00     0.048 A 
ATOM     16  C   LIG d   1       9.126   2.829  -3.541  0.00  0.00    -0.048 A 
ATOM     17  C   LIG d   1       8.801   1.962  -4.565  0.00  0.00    -0.058 A 
ATOM     18  H   LIG d   1       8.987   2.529  -2.513  0.00  0.00     0.063 H 
ATOM     19  C   LIG d   1       8.979   2.346  -5.882  0.00  0.00    -0.050 A 
ATOM     20  H   LIG d   1       8.406   0.983  -4.336  0.00  0.00     0.062 H 
ATOM     21  C   LIG d   1       9.489   3.597  -6.181  0.00  0.00    -0.058 A 
ATOM     22  C   LIG d   1       9.813   4.473  -5.165  0.00  0.00    -0.048 A 
ATOM     23  H   LIG d   1       9.630   3.889  -7.211  0.00  0.00     0.062 H 
ATOM     24  H   LIG d   1      10.208   5.451  -5.400  0.00  0.00     0.063 H 
BRANCH  19  25
ATOM     25  C   LIG d   1       8.622   1.394  -6.995  0.00  0.00    -0.040 C 
ATOM     26  H   LIG d   1       8.142   1.945  -7.804  0.00  0.00     0.028 H 
ATOM     27  H   LIG d   1       9.527   0.915  -7.368  0.00  0.00     0.028 H 
ATOM     28  H   LIG d   1       7.938   0.634  -6.617  0.00  0.00     0.028 H 
ENDBRANCH  19  25
ENDBRANCH   1  15
BRANCH   5  29
ATOM     29  C   LIG d   1      10.901   9.726   0.752  0.00  0.00    -0.038 C 
ATOM     30  H   LIG d   1      11.849   9.864   1.270  0.00  0.00     0.028 H 
ATOM     31  H   LIG d   1      10.824  10.445  -0.063  0.00  0.00     0.028 H 
ATOM     32  H   LIG d   1      10.078   9.879   1.450  0.00  0.00     0.028 H 
ENDBRANCH   5  29
TORSDOF 3
ENDMDL
MODEL 9
REMARK VINA RESULT:      -5.0      9.351     12.276
REMARK  3 active torsions:
REMARK  status: ('A' for Active; 'I' for Inactive)
REMARK    1  A    between atoms: C_1  and  C_2 
REMARK    2  A    between atoms: C_5  and  C_8 
REMARK    3  A    between atoms: C_12  and  C_17 
ROOT
ATOM      1  C   LIG d   1       9.936   6.924  -4.465  0.00  0.00     0.232 A 
ATOM      2  C   LIG d   1      10.302   5.901  -3.644  0.00  0.00     0.087 A 
ATOM      3  N   LIG d   1      10.379   6.411  -2.378  0.00  0.00    -0.264 N 
ATOM      4  C   LIG d   1      10.699   5.845  -1.176  0.00  0.00     0.018 A 
ATOM      5  C   LIG d   1      10.701   6.584  -0.048  0.00  0.00    -0.034 A 
ATOM      6  C   LIG d   1      10.376   7.950  -0.094  0.00  0.00    -0.050 A 
ATOM      7  C   LIG d   1      10.056   8.526  -1.284  0.00  0.00     0.029 A 
ATOM      8  C   LIG d   1      10.057   7.741  -2.455  0.00  0.00     0.288 A 
ATOM      9  N   LIG d   1       9.799   8.034  -3.721  0.00  0.00    -0.188 N 
ATOM     10  H   LIG d   1      10.495   4.880  -3.938  0.00  0.00     0.088 H 
ATOM     11  H   LIG d   1      10.950   4.796  -1.129  0.00  0.00     0.082 H 
ATOM     12  H   LIG d   1      10.378   8.539   0.811  0.00  0.00     0.062 H 
ATOM     13  H   LIG d   1       9.803   9.575  -1.331  0.00  0.00     0.070 H 
ATOM     14  H   LIG d   1       9.548   8.909  -4.057  0.00  0.00     0.455 HD
ENDROOT
BRANCH   1  15
ATOM     15  C   LIG d   1       9.731   6.831  -5.932  0.00  0.00     0.048 A 
ATOM     16  C   LIG d   1       9.396   7.968  -6.664  0.00  0.00    -0.048 A 
ATOM     17  C   LIG d   1       9.205   7.875  -8.029  0.00  0.00    -0.058 A 
ATOM     18  H   LIG d   1       9.284   8.920  -6.167  0.00  0.00     0.063 H 
ATOM     19  C   LIG d   1       9.349   6.657  -8.668  0.00  0.00    -0.050 A 
ATOM     20  H   LIG d   1       8.945   8.755  -8.597  0.00  0.00     0.062 H 
ATOM     21  C   LIG d   1       9.677   5.524  -7.944  0.00  0.00    -0.058 A 
ATOM     22  C   LIG d   1       9.873   5.606  -6.581  0.00  0.00    -0.048 A 
ATOM     23  H   LIG d   1       9.783   4.575  -8.448  0.00  0.00     0.062 H 
ATOM     24  H   LIG d   1      10.133   4.722  -6.017  0.00  0.00     0.063 H 
BRANCH  19  25
ATOM     25  C   LIG d   1       9.140   6.562 -10.158  0.00  0.00    -0.040 C 
ATOM     26  H   LIG d   1       9.893   7.161 -10.669  0.00  0.00     0.028 H 
ATOM     27  H   LIG d   1       9.228   5.522 -10.472  0.00  0.00     0.028 H 
ATOM     28  H   LIG d   1       8.147   6.935 -10.409  0.00  0.00     0.028 H 
ENDBRANCH  19  25
ENDBRANCH   1  15
BRANCH   5  29
ATOM     29  C   LIG d   1      11.055   5.942   1.269  0.00  0.00    -0.038 C 
ATOM     30  H   LIG d   1      10.931   6.668   2.071  0.00  0.00     0.028 H 
ATOM     31  H   LIG d   1      10.398   5.090   1.446  0.00  0.00     0.028 H 
ATOM     32  H   LIG d   1      12.090   5.603   1.241  0.00  0.00     0.028 H 
ENDBRANCH   5  29
TORSDOF 3
ENDMDL
MODEL 10
REMARK VINA RESULT:      -5.0      5.125      7.753
REMARK  3 active torsions:
REMARK  status: ('A' for Active; 'I' for Inactive)
REMARK    1  A    between atoms: C_1  and  C_2 
REMARK    2  A    between atoms: C_5  and  C_8 
REMARK    3  A    between atoms: C_12  and  C_17 
ROOT
ATOM      1  C   LIG d   1       5.986  -3.574  -4.707  0.00  0.00     0.232 A 
ATOM      2  C   LIG d   1       6.612  -2.485  -4.180  0.00  0.00     0.087 A 
ATOM      3  N   LIG d   1       5.656  -1.737  -3.552  0.00  0.00    -0.264 N 
ATOM      4  C   LIG d   1       5.715  -0.558  -2.864  0.00  0.00     0.018 A 
ATOM      5  C   LIG d   1       4.601  -0.019  -2.330  0.00  0.00    -0.034 A 
ATOM      6  C   LIG d   1       3.360  -0.662  -2.475  0.00  0.00    -0.050 A 
ATOM      7  C   LIG d   1       3.287  -1.837  -3.158  0.00  0.00     0.029 A 
ATOM      8  C   LIG d   1       4.461  -2.389  -3.710  0.00  0.00     0.288 A 
ATOM      9  N   LIG d   1       4.678  -3.491  -4.414  0.00  0.00    -0.188 N 
ATOM     10  H   LIG d   1       7.665  -2.257  -4.246  0.00  0.00     0.088 H 
ATOM     11  H   LIG d   1       6.663  -0.055  -2.746  0.00  0.00     0.082 H 
ATOM     12  H   LIG d   1       2.470  -0.228  -2.045  0.00  0.00     0.062 H 
ATOM     13  H   LIG d   1       2.339  -2.341  -3.274  0.00  0.00     0.070 H 
ATOM     14  H   LIG d   1       4.001  -4.136  -4.673  0.00  0.00     0.455 HD
ENDROOT
BRANCH   1  15
ATOM     15  C   LIG d   1       6.636  -4.662  -5.479  0.00  0.00     0.048 A 
ATOM     16  C   LIG d   1       7.898  -5.122  -5.110  0.00  0.00    -0.048 A 
ATOM     17  C   LIG d   1       8.498  -6.135  -5.833  0.00  0.00    -0.058 A 
ATOM     18  H   LIG d   1       8.408  -4.687  -4.263  0.00  0.00     0.063 H 
ATOM     19  C   LIG d   1       7.847  -6.693  -6.918  0.00  0.00    -0.050 A 
ATOM     20  H   LIG d   1       9.477  -6.491  -5.548  0.00  0.00     0.062 H 
ATOM     21  C   LIG d   1       6.595  -6.236  -7.290  0.00  0.00    -0.058 A 
ATOM     22  C   LIG d   1       5.985  -5.227  -6.573  0.00  0.00    -0.048 A 
ATOM     23  H   LIG d   1       6.094  -6.673  -8.141  0.00  0.00     0.062 H 
ATOM     24  H   LIG d   1       5.006  -4.875  -6.862  0.00  0.00     0.063 H 
BRANCH  19  25
ATOM     25  C   LIG d   1       8.508  -7.798  -7.702  0.00  0.00    -0.040 C 
ATOM     26  H   LIG d   1       9.060  -8.445  -7.022  0.00  0.00     0.028 H 
ATOM     27  H   LIG d   1       7.746  -8.380  -8.221  0.00  0.00     0.028 H 
ATOM     28  H   LIG d   1       9.194  -7.365  -8.431  0.00  0.00     0.028 H 
ENDBRANCH  19  25
ENDBRANCH   1  15
BRANCH   5  29
ATOM     29  C   LIG d   1       4.686   1.282  -1.573  0.00  0.00    -0.038 C 
ATOM     30  H   LIG d   1       5.692   1.403  -1.172  0.00  0.00     0.028 H 
ATOM     31  H   LIG d   1       4.460   2.110  -2.245  0.00  0.00     0.028 H 
ATOM     32  H   LIG d   1       3.967   1.273  -0.754  0.00  0.00     0.028 H 
ENDBRANCH   5  29
TORSDOF 3
ENDMDL
