MODEL 1
REMARK VINA RESULT:      -6.6      0.000      0.000
REMARK  9 active torsions:
REMARK  status: ('A' for Active; 'I' for Inactive)
REMARK    1  A    between atoms: C_1  and  O_2 
REMARK    2  A    between atoms: O_2  and  C_3 
REMARK    3  A    between atoms: C_6  and  C_9 
REMARK    4  A    between atoms: C_9  and  N_10 
REMARK       I    between atoms: N_10  and  C_11 
REMARK    5  A    between atoms: C_11  and  C_13 
REMARK    6  A    between atoms: C_13  and  C_14 
REMARK    7  A    between atoms: C_19  and  C_21 
REMARK    8  A    between atoms: C_21  and  C_22 
REMARK    9  A    between atoms: C_24  and  C_27 
ROOT
ATOM      1  C   LIG d   1       4.038   0.271  -9.561  0.00  0.00    -0.020 C 
ATOM      2  H   LIG d   1       4.755  -0.162 -10.259  0.00  0.00     0.031 H 
ATOM      3  C   LIG d   1       2.712   0.527 -10.282  0.00  0.00    -0.009 C 
ATOM      4  C   LIG d   1       2.138  -0.804 -10.773  0.00  0.00    -0.033 C 
ATOM      5  C   LIG d   1       3.196  -1.998  -8.948  0.00  0.00    -0.030 C 
ATOM      6  C   LIG d   1       3.800  -0.703  -8.403  0.00  0.00     0.008 C 
ATOM      7  H   LIG d   1       4.749  -0.922  -7.912  0.00  0.00     0.036 H 
ATOM      8  H   LIG d   1       2.008   0.995  -9.595  0.00  0.00     0.032 H 
ATOM      9  H   LIG d   1       2.882   1.186 -11.134  0.00  0.00     0.032 H 
ATOM     10  H   LIG d   1       1.187  -0.627 -11.275  0.00  0.00     0.081 H 
ATOM     11  H   LIG d   1       2.837  -1.265 -11.471  0.00  0.00     0.081 H 
ATOM     12  H   LIG d   1       3.011  -2.688  -8.124  0.00  0.00     0.082 H 
ATOM     13  H   LIG d   1       3.888  -2.453  -9.655  0.00  0.00     0.082 H 
ATOM     14  N   LIG d   1       1.917  -1.704  -9.624  0.00  0.00     0.227 N 
ATOM     15  H   LIG d   1       1.501  -2.582  -9.958  0.00  0.00     0.201 HD
ATOM     16  H   LIG d   1       1.279  -1.253  -8.959  0.00  0.00     0.201 HD
ENDROOT
BRANCH   1  17
ATOM     17  C   LIG d   1       4.587   1.591  -9.015  0.00  0.00     0.027 C 
ATOM     18  H   LIG d   1       4.349   2.398  -9.709  0.00  0.00     0.036 H 
ATOM     19  H   LIG d   1       4.133   1.799  -8.046  0.00  0.00     0.036 H 
BRANCH  17  20
ATOM     20  C   LIG d   1       6.082   1.487  -8.859  0.00  0.00     0.214 C 
ATOM     21  N   LIG d   1       6.628   1.421  -7.629  0.00  0.00    -0.311 N 
ATOM     22  H   LIG d   1       6.059   1.441  -6.844  0.00  0.00     0.149 HD
ATOM     23  O   LIG d   1       6.794   1.462  -9.841  0.00  0.00    -0.276 OA
BRANCH  21  24
ATOM     24  C   LIG d   1       8.082   1.320  -7.478  0.00  0.00     0.037 C 
ATOM     25  H   LIG d   1       8.372   0.270  -7.453  0.00  0.00     0.051 H 
ATOM     26  H   LIG d   1       8.570   1.813  -8.319  0.00  0.00     0.051 H 
BRANCH  24  27
ATOM     27  C   LIG d   1       8.500   1.986  -6.192  0.00  0.00    -0.030 A 
ATOM     28  C   LIG d   1       8.077   1.474  -4.979  0.00  0.00    -0.054 A 
ATOM     29  C   LIG d   1       8.460   2.083  -3.801  0.00  0.00    -0.020 A 
ATOM     30  H   LIG d   1       7.446   0.599  -4.955  0.00  0.00     0.062 H 
ATOM     31  C   LIG d   1       9.270   3.209  -3.833  0.00  0.00     0.120 A 
ATOM     32  H   LIG d   1       8.128   1.684  -2.853  0.00  0.00     0.065 H 
ATOM     33  C   LIG d   1       9.694   3.721  -5.051  0.00  0.00    -0.020 A 
ATOM     34  C   LIG d   1       9.312   3.104  -6.228  0.00  0.00    -0.054 A 
ATOM     35  H   LIG d   1      10.323   4.597  -5.079  0.00  0.00     0.065 H 
ATOM     36  H   LIG d   1       9.646   3.500  -7.176  0.00  0.00     0.062 H 
BRANCH  31  37
ATOM     37  O   LIG d   1       9.648   3.810  -2.674  0.00  0.00    -0.495 OA
BRANCH  37  38
ATOM     38  C   LIG d   1       9.935   5.208  -2.732  0.00  0.00     0.079 C 
ATOM     39  H   LIG d   1       9.391   5.724  -1.940  0.00  0.00     0.066 H 
ATOM     40  H   LIG d   1      11.005   5.365  -2.601  0.00  0.00     0.066 H 
ATOM     41  H   LIG d   1       9.626   5.603  -3.700  0.00  0.00     0.066 H 
ENDBRANCH  37  38
ENDBRANCH  31  37
ENDBRANCH  24  27
ENDBRANCH  21  24
ENDBRANCH  17  20
ENDBRANCH   1  17
BRANCH   6  42
ATOM     42  C   LIG d   1       2.836  -0.072  -7.396  0.00  0.00     0.001 C 
ATOM     43  H   LIG d   1       2.561   0.928  -7.732  0.00  0.00     0.033 H 
ATOM     44  H   LIG d   1       1.940  -0.687  -7.317  0.00  0.00     0.033 H 
BRANCH  42  45
ATOM     45  C   LIG d   1       3.505   0.017  -6.048  0.00  0.00     0.085 A 
ATOM     46  N   LIG d   1       4.777  -0.108  -5.802  0.00  0.00    -0.083 NA
ATOM     47  O   LIG d   1       5.024   0.014  -4.626  0.00  0.00    -0.353 OA
ATOM     48  C   LIG d   1       3.907   0.235  -3.907  0.00  0.00     0.183 A 
ATOM     49  C   LIG d   1       2.874   0.245  -4.806  0.00  0.00     0.009 A 
ATOM     50  H   LIG d   1       1.823   0.393  -4.610  0.00  0.00     0.068 H 
BRANCH  48  51
ATOM     51  C   LIG d   1       3.815   0.428  -2.449  0.00  0.00     0.110 C 
ATOM     52  O   LIG d   1       3.291   1.428  -2.001  0.00  0.00    -0.541 OA
ATOM     53  O   LIG d   1       4.312  -0.505  -1.614  0.00  0.00    -0.541 OA
ENDBRANCH  48  51
ENDBRANCH  42  45
ENDBRANCH   6  42
TORSDOF 9
ENDMDL
MODEL 2
REMARK VINA RESULT:      -6.3      3.637      5.385
REMARK  9 active torsions:
REMARK  status: ('A' for Active; 'I' for Inactive)
REMARK    1  A    between atoms: C_1  and  O_2 
REMARK    2  A    between atoms: O_2  and  C_3 
REMARK    3  A    between atoms: C_6  and  C_9 
REMARK    4  A    between atoms: C_9  and  N_10 
REMARK       I    between atoms: N_10  and  C_11 
REMARK    5  A    between atoms: C_11  and  C_13 
REMARK    6  A    between atoms: C_13  and  C_14 
REMARK    7  A    between atoms: C_19  and  C_21 
REMARK    8  A    between atoms: C_21  and  C_22 
REMARK    9  A    between atoms: C_24  and  C_27 
ROOT
ATOM      1  C   LIG d   1       5.662   0.687  -3.528  0.00  0.00    -0.020 C 
ATOM      2  H   LIG d   1       5.553   1.639  -4.047  0.00  0.00     0.031 H 
ATOM      3  C   LIG d   1       5.039   0.789  -2.133  0.00  0.00    -0.009 C 
ATOM      4  C   LIG d   1       3.542   1.076  -2.268  0.00  0.00    -0.033 C 
ATOM      5  C   LIG d   1       3.452  -0.090  -4.391  0.00  0.00    -0.030 C 
ATOM      6  C   LIG d   1       4.945  -0.412  -4.319  0.00  0.00     0.008 C 
ATOM      7  H   LIG d   1       5.357  -0.460  -5.328  0.00  0.00     0.036 H 
ATOM      8  H   LIG d   1       5.183  -0.150  -1.600  0.00  0.00     0.032 H 
ATOM      9  H   LIG d   1       5.516   1.598  -1.580  0.00  0.00     0.032 H 
ATOM     10  H   LIG d   1       3.092   1.136  -1.277  0.00  0.00     0.081 H 
ATOM     11  H   LIG d   1       3.399   2.023  -2.789  0.00  0.00     0.081 H 
ATOM     12  H   LIG d   1       2.937  -0.878  -4.941  0.00  0.00     0.082 H 
ATOM     13  H   LIG d   1       3.309   0.863  -4.901  0.00  0.00     0.082 H 
ATOM     14  N   LIG d   1       2.894  -0.011  -3.027  0.00  0.00     0.227 N 
ATOM     15  H   LIG d   1       1.885   0.172  -3.085  0.00  0.00     0.201 HD
ATOM     16  H   LIG d   1       3.053  -0.902  -2.544  0.00  0.00     0.201 HD
ENDROOT
BRANCH   1  17
ATOM     17  C   LIG d   1       7.147   0.340  -3.401  0.00  0.00     0.027 C 
ATOM     18  H   LIG d   1       7.444   0.392  -2.353  0.00  0.00     0.036 H 
ATOM     19  H   LIG d   1       7.318  -0.668  -3.777  0.00  0.00     0.036 H 
BRANCH  17  20
ATOM     20  C   LIG d   1       7.962   1.322  -4.202  0.00  0.00     0.214 C 
ATOM     21  N   LIG d   1       9.197   1.669  -3.788  0.00  0.00    -0.311 N 
ATOM     22  H   LIG d   1       9.561   1.287  -2.974  0.00  0.00     0.149 HD
ATOM     23  O   LIG d   1       7.508   1.800  -5.220  0.00  0.00    -0.276 OA
BRANCH  21  24
ATOM     24  C   LIG d   1       9.990   2.623  -4.567  0.00  0.00     0.037 C 
ATOM     25  H   LIG d   1      11.032   2.304  -4.580  0.00  0.00     0.051 H 
ATOM     26  H   LIG d   1       9.609   2.664  -5.588  0.00  0.00     0.051 H 
BRANCH  24  27
ATOM     27  C   LIG d   1       9.890   3.989  -3.939  0.00  0.00    -0.030 A 
ATOM     28  C   LIG d   1      10.285   4.176  -2.626  0.00  0.00    -0.054 A 
ATOM     29  C   LIG d   1      10.196   5.427  -2.049  0.00  0.00    -0.020 A 
ATOM     30  H   LIG d   1      10.662   3.343  -2.054  0.00  0.00     0.062 H 
ATOM     31  C   LIG d   1       9.711   6.498  -2.786  0.00  0.00     0.120 A 
ATOM     32  H   LIG d   1      10.503   5.573  -1.024  0.00  0.00     0.065 H 
ATOM     33  C   LIG d   1       9.315   6.308  -4.103  0.00  0.00    -0.020 A 
ATOM     34  C   LIG d   1       9.412   5.056  -4.677  0.00  0.00    -0.054 A 
ATOM     35  H   LIG d   1       8.936   7.139  -4.678  0.00  0.00     0.065 H 
ATOM     36  H   LIG d   1       9.109   4.908  -5.704  0.00  0.00     0.062 H 
BRANCH  31  37
ATOM     37  O   LIG d   1       9.621   7.730  -2.220  0.00  0.00    -0.495 OA
BRANCH  37  38
ATOM     38  C   LIG d   1       9.840   7.815  -0.811  0.00  0.00     0.079 C 
ATOM     39  H   LIG d   1       9.729   8.850  -0.487  0.00  0.00     0.066 H 
ATOM     40  H   LIG d   1       9.112   7.191  -0.292  0.00  0.00     0.066 H 
ATOM     41  H   LIG d   1      10.847   7.467  -0.577  0.00  0.00     0.066 H 
ENDBRANCH  37  38
ENDBRANCH  31  37
ENDBRANCH  24  27
ENDBRANCH  21  24
ENDBRANCH  17  20
ENDBRANCH   1  17
BRANCH   6  42
ATOM     42  C   LIG d   1       5.146  -1.758  -3.619  0.00  0.00     0.001 C 
ATOM     43  H   LIG d   1       6.189  -1.860  -3.320  0.00  0.00     0.033 H 
ATOM     44  H   LIG d   1       4.509  -1.806  -2.737  0.00  0.00     0.033 H 
BRANCH  42  45
ATOM     45  C   LIG d   1       4.783  -2.874  -4.564  0.00  0.00     0.085 A 
ATOM     46  N   LIG d   1       4.414  -4.079  -4.239  0.00  0.00    -0.083 NA
ATOM     47  O   LIG d   1       4.183  -4.759  -5.210  0.00  0.00    -0.353 OA
ATOM     48  C   LIG d   1       4.384  -4.074  -6.351  0.00  0.00     0.183 A 
ATOM     49  C   LIG d   1       4.783  -2.819  -5.975  0.00  0.00     0.009 A 
ATOM     50  H   LIG d   1       5.037  -1.983  -6.609  0.00  0.00     0.068 H 
BRANCH  48  51
ATOM     51  C   LIG d   1       4.209  -4.572  -7.727  0.00  0.00     0.110 C 
ATOM     52  O   LIG d   1       4.865  -4.097  -8.633  0.00  0.00    -0.541 OA
ATOM     53  O   LIG d   1       3.322  -5.555  -7.980  0.00  0.00    -0.541 OA
ENDBRANCH  48  51
ENDBRANCH  42  45
ENDBRANCH   6  42
TORSDOF 9
ENDMDL
MODEL 3
REMARK VINA RESULT:      -6.3      3.829      5.159
REMARK  9 active torsions:
REMARK  status: ('A' for Active; 'I' for Inactive)
REMARK    1  A    between atoms: C_1  and  O_2 
REMARK    2  A    between atoms: O_2  and  C_3 
REMARK    3  A    between atoms: C_6  and  C_9 
REMARK    4  A    between atoms: C_9  and  N_10 
REMARK       I    between atoms: N_10  and  C_11 
REMARK    5  A    between atoms: C_11  and  C_13 
REMARK    6  A    between atoms: C_13  and  C_14 
REMARK    7  A    between atoms: C_19  and  C_21 
REMARK    8  A    between atoms: C_21  and  C_22 
REMARK    9  A    between atoms: C_24  and  C_27 
ROOT
ATOM      1  C   LIG d   1       3.625  -0.198  -9.780  0.00  0.00    -0.020 C 
ATOM      2  H   LIG d   1       4.294   0.615  -9.503  0.00  0.00     0.031 H 
ATOM      3  C   LIG d   1       3.241  -0.066 -11.256  0.00  0.00    -0.009 C 
ATOM      4  C   LIG d   1       4.500  -0.185 -12.118  0.00  0.00    -0.033 C 
ATOM      5  C   LIG d   1       5.560  -1.615 -10.474  0.00  0.00    -0.030 C 
ATOM      6  C   LIG d   1       4.333  -1.539  -9.563  0.00  0.00     0.008 C 
ATOM      7  H   LIG d   1       4.647  -1.621  -8.522  0.00  0.00     0.036 H 
ATOM      8  H   LIG d   1       2.541  -0.858 -11.522  0.00  0.00     0.032 H 
ATOM      9  H   LIG d   1       2.774   0.905 -11.425  0.00  0.00     0.032 H 
ATOM     10  H   LIG d   1       4.228  -0.105 -13.171  0.00  0.00     0.081 H 
ATOM     11  H   LIG d   1       5.193   0.615 -11.860  0.00  0.00     0.081 H 
ATOM     12  H   LIG d   1       6.058  -2.575 -10.333  0.00  0.00     0.082 H 
ATOM     13  H   LIG d   1       6.249  -0.808 -10.224  0.00  0.00     0.082 H 
ATOM     14  N   LIG d   1       5.141  -1.493 -11.883  0.00  0.00     0.227 N 
ATOM     15  H   LIG d   1       5.966  -1.579 -12.490  0.00  0.00     0.201 HD
ATOM     16  H   LIG d   1       4.475  -2.242 -12.104  0.00  0.00     0.201 HD
ENDROOT
BRANCH   1  17
ATOM     17  C   LIG d   1       2.363  -0.141  -8.916  0.00  0.00     0.027 C 
ATOM     18  H   LIG d   1       1.617   0.487  -9.404  0.00  0.00     0.036 H 
ATOM     19  H   LIG d   1       1.964  -1.148  -8.789  0.00  0.00     0.036 H 
BRANCH  17  20
ATOM     20  C   LIG d   1       2.703   0.439  -7.568  0.00  0.00     0.214 C 
ATOM     21  N   LIG d   1       2.581  -0.316  -6.459  0.00  0.00    -0.311 N 
ATOM     22  H   LIG d   1       2.274  -1.234  -6.528  0.00  0.00     0.149 HD
ATOM     23  O   LIG d   1       3.088   1.586  -7.481  0.00  0.00    -0.276 OA
BRANCH  21  24
ATOM     24  C   LIG d   1       2.913   0.248  -5.148  0.00  0.00     0.037 C 
ATOM     25  H   LIG d   1       3.136   1.309  -5.255  0.00  0.00     0.051 H 
ATOM     26  H   LIG d   1       2.067   0.120  -4.473  0.00  0.00     0.051 H 
BRANCH  24  27
ATOM     27  C   LIG d   1       4.117  -0.463  -4.586  0.00  0.00    -0.030 A 
ATOM     28  C   LIG d   1       4.122  -0.874  -3.265  0.00  0.00    -0.054 A 
ATOM     29  C   LIG d   1       5.224  -1.527  -2.749  0.00  0.00    -0.020 A 
ATOM     30  H   LIG d   1       3.264  -0.684  -2.639  0.00  0.00     0.062 H 
ATOM     31  C   LIG d   1       6.326  -1.770  -3.554  0.00  0.00     0.120 A 
ATOM     32  H   LIG d   1       5.228  -1.847  -1.717  0.00  0.00     0.065 H 
ATOM     33  C   LIG d   1       6.320  -1.357  -4.879  0.00  0.00    -0.020 A 
ATOM     34  C   LIG d   1       5.212  -0.710  -5.393  0.00  0.00    -0.054 A 
ATOM     35  H   LIG d   1       7.177  -1.544  -5.508  0.00  0.00     0.065 H 
ATOM     36  H   LIG d   1       5.204  -0.392  -6.425  0.00  0.00     0.062 H 
BRANCH  31  37
ATOM     37  O   LIG d   1       7.412  -2.412  -3.048  0.00  0.00    -0.495 OA
BRANCH  37  38
ATOM     38  C   LIG d   1       8.177  -3.208  -3.955  0.00  0.00     0.079 C 
ATOM     39  H   LIG d   1       9.240  -3.026  -3.791  0.00  0.00     0.066 H 
ATOM     40  H   LIG d   1       7.958  -4.262  -3.787  0.00  0.00     0.066 H 
ATOM     41  H   LIG d   1       7.918  -2.942  -4.980  0.00  0.00     0.066 H 
ENDBRANCH  37  38
ENDBRANCH  31  37
ENDBRANCH  24  27
ENDBRANCH  21  24
ENDBRANCH  17  20
ENDBRANCH   1  17
BRANCH   6  42
ATOM     42  C   LIG d   1       3.374  -2.684  -9.900  0.00  0.00     0.001 C 
ATOM     43  H   LIG d   1       2.353  -2.304  -9.931  0.00  0.00     0.033 H 
ATOM     44  H   LIG d   1       3.635  -3.102 -10.872  0.00  0.00     0.033 H 
BRANCH  42  45
ATOM     45  C   LIG d   1       3.481  -3.755  -8.846  0.00  0.00     0.085 A 
ATOM     46  N   LIG d   1       3.071  -4.986  -8.944  0.00  0.00    -0.083 NA
ATOM     47  O   LIG d   1       3.293  -5.619  -7.939  0.00  0.00    -0.353 OA
ATOM     48  C   LIG d   1       3.893  -4.861  -7.002  0.00  0.00     0.183 A 
ATOM     49  C   LIG d   1       4.039  -3.618  -7.556  0.00  0.00     0.009 A 
ATOM     50  H   LIG d   1       4.478  -2.738  -7.111  0.00  0.00     0.068 H 
BRANCH  48  51
ATOM     51  C   LIG d   1       4.310  -5.285  -5.654  0.00  0.00     0.110 C 
ATOM     52  O   LIG d   1       4.508  -4.453  -4.790  0.00  0.00    -0.541 OA
ATOM     53  O   LIG d   1       4.472  -6.594  -5.378  0.00  0.00    -0.541 OA
ENDBRANCH  48  51
ENDBRANCH  42  45
ENDBRANCH   6  42
TORSDOF 9
ENDMDL
MODEL 4
REMARK VINA RESULT:      -6.2      3.792      5.777
REMARK  9 active torsions:
REMARK  status: ('A' for Active; 'I' for Inactive)
REMARK    1  A    between atoms: C_1  and  O_2 
REMARK    2  A    between atoms: O_2  and  C_3 
REMARK    3  A    between atoms: C_6  and  C_9 
REMARK    4  A    between atoms: C_9  and  N_10 
REMARK       I    between atoms: N_10  and  C_11 
REMARK    5  A    between atoms: C_11  and  C_13 
REMARK    6  A    between atoms: C_13  and  C_14 
REMARK    7  A    between atoms: C_19  and  C_21 
REMARK    8  A    between atoms: C_21  and  C_22 
REMARK    9  A    between atoms: C_24  and  C_27 
ROOT
ATOM      1  C   LIG d   1       3.454   0.928  -7.843  0.00  0.00    -0.020 C 
ATOM      2  H   LIG d   1       4.236   1.434  -7.277  0.00  0.00     0.031 H 
ATOM      3  C   LIG d   1       2.763   1.931  -8.771  0.00  0.00    -0.009 C 
ATOM      4  C   LIG d   1       3.782   2.477  -9.773  0.00  0.00    -0.033 C 
ATOM      5  C   LIG d   1       5.056   0.417  -9.688  0.00  0.00    -0.030 C 
ATOM      6  C   LIG d   1       4.075  -0.191  -8.685  0.00  0.00     0.008 C 
ATOM      7  H   LIG d   1       4.605  -0.886  -8.032  0.00  0.00     0.036 H 
ATOM      8  H   LIG d   1       1.956   1.433  -9.308  0.00  0.00     0.032 H 
ATOM      9  H   LIG d   1       2.356   2.752  -8.181  0.00  0.00     0.032 H 
ATOM     10  H   LIG d   1       3.291   3.181 -10.445  0.00  0.00     0.081 H 
ATOM     11  H   LIG d   1       4.582   2.987  -9.236  0.00  0.00     0.081 H 
ATOM     12  H   LIG d   1       5.488  -0.376 -10.299  0.00  0.00     0.082 H 
ATOM     13  H   LIG d   1       5.850   0.937  -9.152  0.00  0.00     0.082 H 
ATOM     14  N   LIG d   1       4.345   1.367 -10.566  0.00  0.00     0.227 N 
ATOM     15  H   LIG d   1       5.003   1.745 -11.258  0.00  0.00     0.201 HD
ATOM     16  H   LIG d   1       3.584   0.877 -11.049  0.00  0.00     0.201 HD
ENDROOT
BRANCH   1  17
ATOM     17  C   LIG d   1       2.427   0.332  -6.878  0.00  0.00     0.027 C 
ATOM     18  H   LIG d   1       1.575   1.008  -6.791  0.00  0.00     0.036 H 
ATOM     19  H   LIG d   1       2.089  -0.632  -7.257  0.00  0.00     0.036 H 
BRANCH  17  20
ATOM     20  C   LIG d   1       3.059   0.147  -5.523  0.00  0.00     0.214 C 
ATOM     21  N   LIG d   1       3.483  -1.073  -5.138  0.00  0.00    -0.311 N 
ATOM     22  H   LIG d   1       3.380  -1.833  -5.734  0.00  0.00     0.149 HD
ATOM     23  O   LIG d   1       3.187   1.096  -4.779  0.00  0.00    -0.276 OA
BRANCH  21  24
ATOM     24  C   LIG d   1       4.098  -1.253  -3.821  0.00  0.00     0.037 C 
ATOM     25  H   LIG d   1       4.321  -0.278  -3.388  0.00  0.00     0.051 H 
ATOM     26  H   LIG d   1       3.411  -1.792  -3.170  0.00  0.00     0.051 H 
BRANCH  24  27
ATOM     27  C   LIG d   1       5.375  -2.041  -3.967  0.00  0.00    -0.030 A 
ATOM     28  C   LIG d   1       5.410  -3.153  -4.788  0.00  0.00    -0.054 A 
ATOM     29  C   LIG d   1       6.579  -3.876  -4.923  0.00  0.00    -0.020 A 
ATOM     30  H   LIG d   1       4.523  -3.457  -5.322  0.00  0.00     0.062 H 
ATOM     31  C   LIG d   1       7.719  -3.485  -4.237  0.00  0.00     0.120 A 
ATOM     32  H   LIG d   1       6.606  -4.745  -5.564  0.00  0.00     0.065 H 
ATOM     33  C   LIG d   1       7.682  -2.368  -3.413  0.00  0.00    -0.020 A 
ATOM     34  C   LIG d   1       6.511  -1.646  -3.286  0.00  0.00    -0.054 A 
ATOM     35  H   LIG d   1       8.567  -2.063  -2.877  0.00  0.00     0.065 H 
ATOM     36  H   LIG d   1       6.483  -0.773  -2.649  0.00  0.00     0.062 H 
BRANCH  31  37
ATOM     37  O   LIG d   1       8.871  -4.194  -4.368  0.00  0.00    -0.495 OA
BRANCH  37  38
ATOM     38  C   LIG d   1       9.575  -4.517  -3.168  0.00  0.00     0.079 C 
ATOM     39  H   LIG d   1      10.448  -3.870  -3.073  0.00  0.00     0.066 H 
ATOM     40  H   LIG d   1       8.919  -4.370  -2.311  0.00  0.00     0.066 H 
ATOM     41  H   LIG d   1       9.898  -5.558  -3.204  0.00  0.00     0.066 H 
ENDBRANCH  37  38
ENDBRANCH  31  37
ENDBRANCH  24  27
ENDBRANCH  21  24
ENDBRANCH  17  20
ENDBRANCH   1  17
BRANCH   6  42
ATOM     42  C   LIG d   1       2.970  -0.937  -9.437  0.00  0.00     0.001 C 
ATOM     43  H   LIG d   1       1.997  -0.575  -9.105  0.00  0.00     0.033 H 
ATOM     44  H   LIG d   1       3.077  -0.761 -10.507  0.00  0.00     0.033 H 
BRANCH  42  45
ATOM     45  C   LIG d   1       3.080  -2.413  -9.155  0.00  0.00     0.085 A 
ATOM     46  N   LIG d   1       2.583  -3.380  -9.871  0.00  0.00    -0.083 NA
ATOM     47  O   LIG d   1       2.832  -4.465  -9.402  0.00  0.00    -0.353 OA
ATOM     48  C   LIG d   1       3.546  -4.358  -8.265  0.00  0.00     0.183 A 
ATOM     49  C   LIG d   1       3.735  -3.017  -8.061  0.00  0.00     0.009 A 
ATOM     50  H   LIG d   1       4.261  -2.535  -7.251  0.00  0.00     0.068 H 
BRANCH  48  51
ATOM     51  C   LIG d   1       4.028  -5.461  -7.414  0.00  0.00     0.110 C 
ATOM     52  O   LIG d   1       3.560  -5.620  -6.304  0.00  0.00    -0.541 OA
ATOM     53  O   LIG d   1       4.987  -6.292  -7.867  0.00  0.00    -0.541 OA
ENDBRANCH  48  51
ENDBRANCH  42  45
ENDBRANCH   6  42
TORSDOF 9
ENDMDL
MODEL 5
REMARK VINA RESULT:      -6.1      2.532      5.448
REMARK  9 active torsions:
REMARK  status: ('A' for Active; 'I' for Inactive)
REMARK    1  A    between atoms: C_1  and  O_2 
REMARK    2  A    between atoms: O_2  and  C_3 
REMARK    3  A    between atoms: C_6  and  C_9 
REMARK    4  A    between atoms: C_9  and  N_10 
REMARK       I    between atoms: N_10  and  C_11 
REMARK    5  A    between atoms: C_11  and  C_13 
REMARK    6  A    between atoms: C_13  and  C_14 
REMARK    7  A    between atoms: C_19  and  C_21 
REMARK    8  A    between atoms: C_21  and  C_22 
REMARK    9  A    between atoms: C_24  and  C_27 
ROOT
ATOM      1  C   LIG d   1       5.405  -0.367  -3.457  0.00  0.00    -0.020 C 
ATOM      2  H   LIG d   1       5.402   0.295  -2.593  0.00  0.00     0.031 H 
ATOM      3  C   LIG d   1       5.290  -1.821  -2.990  0.00  0.00    -0.009 C 
ATOM      4  C   LIG d   1       3.958  -2.013  -2.262  0.00  0.00    -0.033 C 
ATOM      5  C   LIG d   1       2.914  -0.278  -3.593  0.00  0.00    -0.030 C 
ATOM      6  C   LIG d   1       4.214  -0.035  -4.361  0.00  0.00     0.008 C 
ATOM      7  H   LIG d   1       4.268   1.012  -4.663  0.00  0.00     0.036 H 
ATOM      8  H   LIG d   1       5.333  -2.485  -3.852  0.00  0.00     0.032 H 
ATOM      9  H   LIG d   1       6.112  -2.051  -2.312  0.00  0.00     0.032 H 
ATOM     10  H   LIG d   1       3.866  -3.050  -1.939  0.00  0.00     0.081 H 
ATOM     11  H   LIG d   1       3.922  -1.358  -1.391  0.00  0.00     0.081 H 
ATOM     12  H   LIG d   1       2.064  -0.056  -4.239  0.00  0.00     0.082 H 
ATOM     13  H   LIG d   1       2.883   0.368  -2.716  0.00  0.00     0.082 H 
ATOM     14  N   LIG d   1       2.842  -1.690  -3.172  0.00  0.00     0.227 N 
ATOM     15  H   LIG d   1       1.952  -1.854  -2.687  0.00  0.00     0.201 HD
ATOM     16  H   LIG d   1       2.897  -2.294  -4.000  0.00  0.00     0.201 HD
ENDROOT
BRANCH   1  17
ATOM     17  C   LIG d   1       6.708  -0.183  -4.239  0.00  0.00     0.027 C 
ATOM     18  H   LIG d   1       7.372  -1.026  -4.043  0.00  0.00     0.036 H 
ATOM     19  H   LIG d   1       6.487  -0.135  -5.306  0.00  0.00     0.036 H 
BRANCH  17  20
ATOM     20  C   LIG d   1       7.378   1.095  -3.805  0.00  0.00     0.214 C 
ATOM     21  N   LIG d   1       8.713   1.231  -3.930  0.00  0.00    -0.311 N 
ATOM     22  H   LIG d   1       9.243   0.506  -4.298  0.00  0.00     0.149 HD
ATOM     23  O   LIG d   1       6.716   2.000  -3.345  0.00  0.00    -0.276 OA
BRANCH  21  24
ATOM     24  C   LIG d   1       9.364   2.474  -3.508  0.00  0.00     0.037 C 
ATOM     25  H   LIG d   1       8.749   2.969  -2.757  0.00  0.00     0.051 H 
ATOM     26  H   LIG d   1      10.342   2.246  -3.085  0.00  0.00     0.051 H 
BRANCH  24  27
ATOM     27  C   LIG d   1       9.531   3.382  -4.699  0.00  0.00    -0.030 A 
ATOM     28  C   LIG d   1       9.713   2.842  -5.959  0.00  0.00    -0.054 A 
ATOM     29  C   LIG d   1       9.866   3.672  -7.052  0.00  0.00    -0.020 A 
ATOM     30  H   LIG d   1       9.737   1.770  -6.088  0.00  0.00     0.062 H 
ATOM     31  C   LIG d   1       9.835   5.049  -6.886  0.00  0.00     0.120 A 
ATOM     32  H   LIG d   1      10.009   3.250  -8.036  0.00  0.00     0.065 H 
ATOM     33  C   LIG d   1       9.653   5.589  -5.621  0.00  0.00    -0.020 A 
ATOM     34  C   LIG d   1       9.495   4.754  -4.532  0.00  0.00    -0.054 A 
ATOM     35  H   LIG d   1       9.630   6.660  -5.488  0.00  0.00     0.065 H 
ATOM     36  H   LIG d   1       9.347   5.173  -3.547  0.00  0.00     0.062 H 
BRANCH  31  37
ATOM     37  O   LIG d   1       9.985   5.869  -7.960  0.00  0.00    -0.495 OA
BRANCH  37  38
ATOM     38  C   LIG d   1       9.131   5.633  -9.081  0.00  0.00     0.079 C 
ATOM     39  H   LIG d   1       9.055   6.542  -9.677  0.00  0.00     0.066 H 
ATOM     40  H   LIG d   1       9.547   4.831  -9.691  0.00  0.00     0.066 H 
ATOM     41  H   LIG d   1       8.140   5.345  -8.729  0.00  0.00     0.066 H 
ENDBRANCH  37  38
ENDBRANCH  31  37
ENDBRANCH  24  27
ENDBRANCH  21  24
ENDBRANCH  17  20
ENDBRANCH   1  17
BRANCH   6  42
ATOM     42  C   LIG d   1       4.250  -0.928  -5.603  0.00  0.00     0.001 C 
ATOM     43  H   LIG d   1       5.262  -1.305  -5.751  0.00  0.00     0.033 H 
ATOM     44  H   LIG d   1       3.568  -1.767  -5.467  0.00  0.00     0.033 H 
BRANCH  42  45
ATOM     45  C   LIG d   1       3.831  -0.128  -6.810  0.00  0.00     0.085 A 
ATOM     46  N   LIG d   1       3.240   1.031  -6.807  0.00  0.00    -0.083 NA
ATOM     47  O   LIG d   1       3.027   1.433  -7.926  0.00  0.00    -0.353 OA
ATOM     48  C   LIG d   1       3.456   0.558  -8.854  0.00  0.00     0.183 A 
ATOM     49  C   LIG d   1       3.995  -0.494  -8.163  0.00  0.00     0.009 A 
ATOM     50  H   LIG d   1       4.442  -1.392  -8.561  0.00  0.00     0.068 H 
BRANCH  48  51
ATOM     51  C   LIG d   1       3.363   0.702 -10.318  0.00  0.00     0.110 C 
ATOM     52  O   LIG d   1       3.919   1.629 -10.873  0.00  0.00    -0.541 OA
ATOM     53  O   LIG d   1       2.662  -0.193 -11.040  0.00  0.00    -0.541 OA
ENDBRANCH  48  51
ENDBRANCH  42  45
ENDBRANCH   6  42
TORSDOF 9
ENDMDL
MODEL 6
REMARK VINA RESULT:      -6.1      2.288      6.870
REMARK  9 active torsions:
REMARK  status: ('A' for Active; 'I' for Inactive)
REMARK    1  A    between atoms: C_1  and  O_2 
REMARK    2  A    between atoms: O_2  and  C_3 
REMARK    3  A    between atoms: C_6  and  C_9 
REMARK    4  A    between atoms: C_9  and  N_10 
REMARK       I    between atoms: N_10  and  C_11 
REMARK    5  A    between atoms: C_11  and  C_13 
REMARK    6  A    between atoms: C_13  and  C_14 
REMARK    7  A    between atoms: C_19  and  C_21 
REMARK    8  A    between atoms: C_21  and  C_22 
REMARK    9  A    between atoms: C_24  and  C_27 
ROOT
ATOM      1  C   LIG d   1       8.992   1.919  -6.527  0.00  0.00    -0.020 C 
ATOM      2  H   LIG d   1       9.042   2.984  -6.749  0.00  0.00     0.031 H 
ATOM      3  C   LIG d   1      10.369   1.424  -6.076  0.00  0.00    -0.009 C 
ATOM      4  C   LIG d   1      10.769   2.149  -4.789  0.00  0.00    -0.033 C 
ATOM      5  C   LIG d   1       8.448   2.395  -4.138  0.00  0.00    -0.030 C 
ATOM      6  C   LIG d   1       7.979   1.677  -5.404  0.00  0.00     0.008 C 
ATOM      7  H   LIG d   1       7.005   2.066  -5.703  0.00  0.00     0.036 H 
ATOM      8  H   LIG d   1      10.328   0.351  -5.891  0.00  0.00     0.032 H 
ATOM      9  H   LIG d   1      11.103   1.631  -6.854  0.00  0.00     0.032 H 
ATOM     10  H   LIG d   1      11.743   1.790  -4.457  0.00  0.00     0.081 H 
ATOM     11  H   LIG d   1      10.824   3.221  -4.979  0.00  0.00     0.081 H 
ATOM     12  H   LIG d   1       7.736   2.213  -3.332  0.00  0.00     0.082 H 
ATOM     13  H   LIG d   1       8.514   3.466  -4.329  0.00  0.00     0.082 H 
ATOM     14  N   LIG d   1       9.771   1.881  -3.735  0.00  0.00     0.227 N 
ATOM     15  H   LIG d   1      10.064   2.343  -2.867  0.00  0.00     0.201 HD
ATOM     16  H   LIG d   1       9.708   0.868  -3.580  0.00  0.00     0.201 HD
ENDROOT
BRANCH   1  17
ATOM     17  C   LIG d   1       8.559   1.153  -7.780  0.00  0.00     0.027 C 
ATOM     18  H   LIG d   1       9.412   1.038  -8.449  0.00  0.00     0.036 H 
ATOM     19  H   LIG d   1       8.187   0.169  -7.493  0.00  0.00     0.036 H 
BRANCH  17  20
ATOM     20  C   LIG d   1       7.469   1.919  -8.484  0.00  0.00     0.214 C 
ATOM     21  N   LIG d   1       6.192   1.496  -8.408  0.00  0.00    -0.311 N 
ATOM     22  H   LIG d   1       5.974   0.699  -7.900  0.00  0.00     0.149 HD
ATOM     23  O   LIG d   1       7.742   2.915  -9.119  0.00  0.00    -0.276 OA
BRANCH  21  24
ATOM     24  C   LIG d   1       5.132   2.241  -9.093  0.00  0.00     0.037 C 
ATOM     25  H   LIG d   1       4.663   2.931  -8.392  0.00  0.00     0.051 H 
ATOM     26  H   LIG d   1       5.561   2.801  -9.924  0.00  0.00     0.051 H 
BRANCH  24  27
ATOM     27  C   LIG d   1       4.099   1.277  -9.616  0.00  0.00    -0.030 A 
ATOM     28  C   LIG d   1       3.069   0.855  -8.794  0.00  0.00    -0.054 A 
ATOM     29  C   LIG d   1       2.121  -0.028  -9.272  0.00  0.00    -0.020 A 
ATOM     30  H   LIG d   1       3.008   1.216  -7.779  0.00  0.00     0.062 H 
ATOM     31  C   LIG d   1       2.201  -0.492 -10.577  0.00  0.00     0.120 A 
ATOM     32  H   LIG d   1       1.317  -0.358  -8.630  0.00  0.00     0.065 H 
ATOM     33  C   LIG d   1       3.235  -0.068 -11.400  0.00  0.00    -0.020 A 
ATOM     34  C   LIG d   1       4.177   0.821 -10.919  0.00  0.00    -0.054 A 
ATOM     35  H   LIG d   1       3.299  -0.428 -12.415  0.00  0.00     0.065 H 
ATOM     36  H   LIG d   1       4.979   1.155 -11.560  0.00  0.00     0.062 H 
BRANCH  31  37
ATOM     37  O   LIG d   1       1.269  -1.361 -11.050  0.00  0.00    -0.495 OA
BRANCH  37  38
ATOM     38  C   LIG d   1       1.267  -2.677 -10.493  0.00  0.00     0.079 C 
ATOM     39  H   LIG d   1       1.634  -2.638  -9.467  0.00  0.00     0.066 H 
ATOM     40  H   LIG d   1       0.252  -3.073 -10.501  0.00  0.00     0.066 H 
ATOM     41  H   LIG d   1       1.914  -3.323 -11.086  0.00  0.00     0.066 H 
ENDBRANCH  37  38
ENDBRANCH  31  37
ENDBRANCH  24  27
ENDBRANCH  21  24
ENDBRANCH  17  20
ENDBRANCH   1  17
BRANCH   6  42
ATOM     42  C   LIG d   1       7.868   0.176  -5.130  0.00  0.00     0.001 C 
ATOM     43  H   LIG d   1       8.258  -0.379  -5.983  0.00  0.00     0.033 H 
ATOM     44  H   LIG d   1       8.445  -0.074  -4.240  0.00  0.00     0.033 H 
BRANCH  42  45
ATOM     45  C   LIG d   1       6.423  -0.190  -4.911  0.00  0.00     0.085 A 
ATOM     46  N   LIG d   1       5.446  -0.041  -5.758  0.00  0.00    -0.083 NA
ATOM     47  O   LIG d   1       4.393  -0.426  -5.308  0.00  0.00    -0.353 OA
ATOM     48  C   LIG d   1       4.535  -0.890  -4.052  0.00  0.00     0.183 A 
ATOM     49  C   LIG d   1       5.862  -0.754  -3.745  0.00  0.00     0.009 A 
ATOM     50  H   LIG d   1       6.362  -1.017  -2.825  0.00  0.00     0.068 H 
BRANCH  48  51
ATOM     51  C   LIG d   1       3.475  -1.435  -3.184  0.00  0.00     0.110 C 
ATOM     52  O   LIG d   1       2.424  -0.838  -3.062  0.00  0.00    -0.541 OA
ATOM     53  O   LIG d   1       3.673  -2.594  -2.527  0.00  0.00    -0.541 OA
ENDBRANCH  48  51
ENDBRANCH  42  45
ENDBRANCH   6  42
TORSDOF 9
ENDMDL
MODEL 7
REMARK VINA RESULT:      -5.7      3.705      8.504
REMARK  9 active torsions:
REMARK  status: ('A' for Active; 'I' for Inactive)
REMARK    1  A    between atoms: C_1  and  O_2 
REMARK    2  A    between atoms: O_2  and  C_3 
REMARK    3  A    between atoms: C_6  and  C_9 
REMARK    4  A    between atoms: C_9  and  N_10 
REMARK       I    between atoms: N_10  and  C_11 
REMARK    5  A    between atoms: C_11  and  C_13 
REMARK    6  A    between atoms: C_13  and  C_14 
REMARK    7  A    between atoms: C_19  and  C_21 
REMARK    8  A    between atoms: C_21  and  C_22 
REMARK    9  A    between atoms: C_24  and  C_27 
ROOT
ATOM      1  C   LIG d   1       9.294   4.087  -5.031  0.00  0.00    -0.020 C 
ATOM      2  H   LIG d   1       8.393   4.221  -5.628  0.00  0.00     0.031 H 
ATOM      3  C   LIG d   1      10.478   3.781  -5.952  0.00  0.00    -0.009 C 
ATOM      4  C   LIG d   1      10.711   4.969  -6.887  0.00  0.00    -0.033 C 
ATOM      5  C   LIG d   1       9.844   6.514  -5.234  0.00  0.00    -0.030 C 
ATOM      6  C   LIG d   1       9.585   5.372  -4.250  0.00  0.00     0.008 C 
ATOM      7  H   LIG d   1       8.728   5.619  -3.623  0.00  0.00     0.036 H 
ATOM      8  H   LIG d   1      11.371   3.609  -5.352  0.00  0.00     0.032 H 
ATOM      9  H   LIG d   1      10.259   2.890  -6.542  0.00  0.00     0.032 H 
ATOM     10  H   LIG d   1      11.562   4.760  -7.536  0.00  0.00     0.081 H 
ATOM     11  H   LIG d   1       9.822   5.131  -7.497  0.00  0.00     0.081 H 
ATOM     12  H   LIG d   1      10.066   7.427  -4.681  0.00  0.00     0.082 H 
ATOM     13  H   LIG d   1       8.959   6.669  -5.852  0.00  0.00     0.082 H 
ATOM     14  N   LIG d   1      10.996   6.179  -6.092  0.00  0.00     0.227 N 
ATOM     15  H   LIG d   1      11.185   6.964  -6.727  0.00  0.00     0.201 HD
ATOM     16  H   LIG d   1      11.820   6.011  -5.503  0.00  0.00     0.201 HD
ENDROOT
BRANCH   1  17
ATOM     17  C   LIG d   1       9.094   2.928  -4.052  0.00  0.00     0.027 C 
ATOM     18  H   LIG d   1      10.046   2.683  -3.579  0.00  0.00     0.036 H 
ATOM     19  H   LIG d   1       8.373   3.218  -3.288  0.00  0.00     0.036 H 
BRANCH  17  20
ATOM     20  C   LIG d   1       8.580   1.724  -4.799  0.00  0.00     0.214 C 
ATOM     21  N   LIG d   1       8.997   0.490  -4.454  0.00  0.00    -0.311 N 
ATOM     22  H   LIG d   1       9.628   0.376  -3.725  0.00  0.00     0.149 HD
ATOM     23  O   LIG d   1       7.792   1.866  -5.709  0.00  0.00    -0.276 OA
BRANCH  21  24
ATOM     24  C   LIG d   1       8.497  -0.681  -5.179  0.00  0.00     0.037 C 
ATOM     25  H   LIG d   1       8.461  -0.459  -6.246  0.00  0.00     0.051 H 
ATOM     26  H   LIG d   1       9.161  -1.527  -5.005  0.00  0.00     0.051 H 
BRANCH  24  27
ATOM     27  C   LIG d   1       7.111  -1.020  -4.691  0.00  0.00    -0.030 A 
ATOM     28  C   LIG d   1       6.888  -1.238  -3.344  0.00  0.00    -0.054 A 
ATOM     29  C   LIG d   1       5.620  -1.548  -2.895  0.00  0.00    -0.020 A 
ATOM     30  H   LIG d   1       7.707  -1.167  -2.644  0.00  0.00     0.062 H 
ATOM     31  C   LIG d   1       4.569  -1.640  -3.795  0.00  0.00     0.120 A 
ATOM     32  H   LIG d   1       5.446  -1.720  -1.842  0.00  0.00     0.065 H 
ATOM     33  C   LIG d   1       4.794  -1.421  -5.147  0.00  0.00    -0.020 A 
ATOM     34  C   LIG d   1       6.065  -1.105  -5.590  0.00  0.00    -0.054 A 
ATOM     35  H   LIG d   1       3.978  -1.493  -5.849  0.00  0.00     0.065 H 
ATOM     36  H   LIG d   1       6.240  -0.929  -6.641  0.00  0.00     0.062 H 
BRANCH  31  37
ATOM     37  O   LIG d   1       3.319  -1.945  -3.355  0.00  0.00    -0.495 OA
BRANCH  37  38
ATOM     38  C   LIG d   1       2.435  -0.852  -3.103  0.00  0.00     0.079 C 
ATOM     39  H   LIG d   1       1.840  -0.652  -3.995  0.00  0.00     0.066 H 
ATOM     40  H   LIG d   1       1.774  -1.103  -2.274  0.00  0.00     0.066 H 
ATOM     41  H   LIG d   1       3.016   0.035  -2.849  0.00  0.00     0.066 H 
ENDBRANCH  37  38
ENDBRANCH  31  37
ENDBRANCH  24  27
ENDBRANCH  21  24
ENDBRANCH  17  20
ENDBRANCH   1  17
BRANCH   6  42
ATOM     42  C   LIG d   1      10.820   5.166  -3.369  0.00  0.00     0.001 C 
ATOM     43  H   LIG d   1      10.998   4.099  -3.237  0.00  0.00     0.033 H 
ATOM     44  H   LIG d   1      11.687   5.622  -3.847  0.00  0.00     0.033 H 
BRANCH  42  45
ATOM     45  C   LIG d   1      10.591   5.807  -2.025  0.00  0.00     0.085 A 
ATOM     46  N   LIG d   1       9.660   6.664  -1.720  0.00  0.00    -0.083 NA
ATOM     47  O   LIG d   1       9.719   7.004  -0.563  0.00  0.00    -0.353 OA
ATOM     48  C   LIG d   1      10.741   6.403   0.076  0.00  0.00     0.183 A 
ATOM     49  C   LIG d   1      11.348   5.600  -0.851  0.00  0.00     0.009 A 
ATOM     50  H   LIG d   1      12.206   4.959  -0.717  0.00  0.00     0.068 H 
BRANCH  48  51
ATOM     51  C   LIG d   1      11.126   6.575   1.488  0.00  0.00     0.110 C 
ATOM     52  O   LIG d   1      11.555   7.644   1.875  0.00  0.00    -0.541 OA
ATOM     53  O   LIG d   1      11.004   5.546   2.350  0.00  0.00    -0.541 OA
ENDBRANCH  48  51
ENDBRANCH  42  45
ENDBRANCH   6  42
TORSDOF 9
ENDMDL
MODEL 8
REMARK VINA RESULT:      -5.7      2.423      5.201
REMARK  9 active torsions:
REMARK  status: ('A' for Active; 'I' for Inactive)
REMARK    1  A    between atoms: C_1  and  O_2 
REMARK    2  A    between atoms: O_2  and  C_3 
REMARK    3  A    between atoms: C_6  and  C_9 
REMARK    4  A    between atoms: C_9  and  N_10 
REMARK       I    between atoms: N_10  and  C_11 
REMARK    5  A    between atoms: C_11  and  C_13 
REMARK    6  A    between atoms: C_13  and  C_14 
REMARK    7  A    between atoms: C_19  and  C_21 
REMARK    8  A    between atoms: C_21  and  C_22 
REMARK    9  A    between atoms: C_24  and  C_27 
ROOT
ATOM      1  C   LIG d   1       3.281  -2.265  -8.658  0.00  0.00    -0.020 C 
ATOM      2  H   LIG d   1       2.598  -2.562  -7.863  0.00  0.00     0.031 H 
ATOM      3  C   LIG d   1       2.494  -2.044  -9.953  0.00  0.00    -0.009 C 
ATOM      4  C   LIG d   1       1.494  -0.904  -9.748  0.00  0.00    -0.033 C 
ATOM      5  C   LIG d   1       2.939   0.148  -8.112  0.00  0.00    -0.030 C 
ATOM      6  C   LIG d   1       3.983  -0.960  -8.269  0.00  0.00     0.008 C 
ATOM      7  H   LIG d   1       4.510  -1.099  -7.324  0.00  0.00     0.036 H 
ATOM      8  H   LIG d   1       3.182  -1.785 -10.757  0.00  0.00     0.032 H 
ATOM      9  H   LIG d   1       1.957  -2.957 -10.213  0.00  0.00     0.032 H 
ATOM     10  H   LIG d   1       0.941  -0.735 -10.673  0.00  0.00     0.081 H 
ATOM     11  H   LIG d   1       0.797  -1.171  -8.953  0.00  0.00     0.081 H 
ATOM     12  H   LIG d   1       3.438   1.081  -7.849  0.00  0.00     0.082 H 
ATOM     13  H   LIG d   1       2.236  -0.123  -7.325  0.00  0.00     0.082 H 
ATOM     14  N   LIG d   1       2.215   0.331  -9.384  0.00  0.00     0.227 N 
ATOM     15  H   LIG d   1       1.540   1.099  -9.282  0.00  0.00     0.201 HD
ATOM     16  H   LIG d   1       2.885   0.562 -10.126  0.00  0.00     0.201 HD
ENDROOT
BRANCH   1  17
ATOM     17  C   LIG d   1       4.325  -3.362  -8.875  0.00  0.00     0.027 C 
ATOM     18  H   LIG d   1       3.835  -4.259  -9.256  0.00  0.00     0.036 H 
ATOM     19  H   LIG d   1       5.067  -3.020  -9.595  0.00  0.00     0.036 H 
BRANCH  17  20
ATOM     20  C   LIG d   1       5.001  -3.678  -7.565  0.00  0.00     0.214 C 
ATOM     21  N   LIG d   1       4.269  -3.786  -6.439  0.00  0.00    -0.311 N 
ATOM     22  H   LIG d   1       3.307  -3.660  -6.470  0.00  0.00     0.149 HD
ATOM     23  O   LIG d   1       6.202  -3.835  -7.526  0.00  0.00    -0.276 OA
BRANCH  21  24
ATOM     24  C   LIG d   1       4.926  -4.093  -5.166  0.00  0.00     0.037 C 
ATOM     25  H   LIG d   1       4.354  -4.853  -4.636  0.00  0.00     0.051 H 
ATOM     26  H   LIG d   1       5.934  -4.463  -5.357  0.00  0.00     0.051 H 
BRANCH  24  27
ATOM     27  C   LIG d   1       5.001  -2.844  -4.325  0.00  0.00    -0.030 A 
ATOM     28  C   LIG d   1       5.928  -1.863  -4.627  0.00  0.00    -0.054 A 
ATOM     29  C   LIG d   1       5.997  -0.718  -3.858  0.00  0.00    -0.020 A 
ATOM     30  H   LIG d   1       6.598  -1.993  -5.463  0.00  0.00     0.062 H 
ATOM     31  C   LIG d   1       5.135  -0.550  -2.784  0.00  0.00     0.120 A 
ATOM     32  H   LIG d   1       6.722   0.048  -4.093  0.00  0.00     0.065 H 
ATOM     33  C   LIG d   1       4.206  -1.536  -2.483  0.00  0.00    -0.020 A 
ATOM     34  C   LIG d   1       4.137  -2.677  -3.259  0.00  0.00    -0.054 A 
ATOM     35  H   LIG d   1       3.535  -1.409  -1.647  0.00  0.00     0.065 H 
ATOM     36  H   LIG d   1       3.410  -3.443  -3.028  0.00  0.00     0.062 H 
BRANCH  31  37
ATOM     37  O   LIG d   1       5.201   0.576  -2.026  0.00  0.00    -0.495 OA
BRANCH  37  38
ATOM     38  C   LIG d   1       4.040   1.407  -1.996  0.00  0.00     0.079 C 
ATOM     39  H   LIG d   1       3.205   0.883  -2.463  0.00  0.00     0.066 H 
ATOM     40  H   LIG d   1       3.789   1.643  -0.962  0.00  0.00     0.066 H 
ATOM     41  H   LIG d   1       4.239   2.330  -2.541  0.00  0.00     0.066 H 
ENDBRANCH  37  38
ENDBRANCH  31  37
ENDBRANCH  24  27
ENDBRANCH  21  24
ENDBRANCH  17  20
ENDBRANCH   1  17
BRANCH   6  42
ATOM     42  C   LIG d   1       4.982  -0.572  -9.361  0.00  0.00     0.001 C 
ATOM     43  H   LIG d   1       5.514  -1.461  -9.699  0.00  0.00     0.033 H 
ATOM     44  H   LIG d   1       4.448  -0.128 -10.200  0.00  0.00     0.033 H 
BRANCH  42  45
ATOM     45  C   LIG d   1       5.968   0.425  -8.808  0.00  0.00     0.085 A 
ATOM     46  N   LIG d   1       6.322   1.552  -9.353  0.00  0.00    -0.083 NA
ATOM     47  O   LIG d   1       7.130   2.146  -8.680  0.00  0.00    -0.353 OA
ATOM     48  C   LIG d   1       7.438   1.462  -7.562  0.00  0.00     0.183 A 
ATOM     49  C   LIG d   1       6.693   0.314  -7.602  0.00  0.00     0.009 A 
ATOM     50  H   LIG d   1       6.667  -0.488  -6.880  0.00  0.00     0.068 H 
BRANCH  48  51
ATOM     51  C   LIG d   1       8.385   1.868  -6.507  0.00  0.00     0.110 C 
ATOM     52  O   LIG d   1       7.969   2.220  -5.421  0.00  0.00    -0.541 OA
ATOM     53  O   LIG d   1       9.710   1.848  -6.748  0.00  0.00    -0.541 OA
ENDBRANCH  48  51
ENDBRANCH  42  45
ENDBRANCH   6  42
TORSDOF 9
ENDMDL
MODEL 9
REMARK VINA RESULT:      -5.6      4.025      5.795
REMARK  9 active torsions:
REMARK  status: ('A' for Active; 'I' for Inactive)
REMARK    1  A    between atoms: C_1  and  O_2 
REMARK    2  A    between atoms: O_2  and  C_3 
REMARK    3  A    between atoms: C_6  and  C_9 
REMARK    4  A    between atoms: C_9  and  N_10 
REMARK       I    between atoms: N_10  and  C_11 
REMARK    5  A    between atoms: C_11  and  C_13 
REMARK    6  A    between atoms: C_13  and  C_14 
REMARK    7  A    between atoms: C_19  and  C_21 
REMARK    8  A    between atoms: C_21  and  C_22 
REMARK    9  A    between atoms: C_24  and  C_27 
ROOT
ATOM      1  C   LIG d   1       9.960   1.708  -6.512  0.00  0.00    -0.020 C 
ATOM      2  H   LIG d   1      10.469   2.650  -6.708  0.00  0.00     0.031 H 
ATOM      3  C   LIG d   1      10.960   0.553  -6.619  0.00  0.00    -0.009 C 
ATOM      4  C   LIG d   1      12.045   0.725  -5.554  0.00  0.00    -0.033 C 
ATOM      5  C   LIG d   1      10.498   1.869  -4.080  0.00  0.00    -0.030 C 
ATOM      6  C   LIG d   1       9.367   1.730  -5.100  0.00  0.00     0.008 C 
ATOM      7  H   LIG d   1       8.686   2.576  -5.005  0.00  0.00     0.036 H 
ATOM      8  H   LIG d   1      10.442  -0.393  -6.462  0.00  0.00     0.032 H 
ATOM      9  H   LIG d   1      11.416   0.557  -7.609  0.00  0.00     0.032 H 
ATOM     10  H   LIG d   1      12.752  -0.103  -5.618  0.00  0.00     0.081 H 
ATOM     11  H   LIG d   1      12.571   1.665  -5.721  0.00  0.00     0.081 H 
ATOM     12  H   LIG d   1      10.081   1.870  -3.073  0.00  0.00     0.082 H 
ATOM     13  H   LIG d   1      11.033   2.802  -4.254  0.00  0.00     0.082 H 
ATOM     14  N   LIG d   1      11.430   0.732  -4.213  0.00  0.00     0.227 N 
ATOM     15  H   LIG d   1      12.167   0.814  -3.503  0.00  0.00     0.201 HD
ATOM     16  H   LIG d   1      10.916  -0.145  -4.073  0.00  0.00     0.201 HD
ENDROOT
BRANCH   1  17
ATOM     17  C   LIG d   1       8.838   1.509  -7.534  0.00  0.00     0.027 C 
ATOM     18  H   LIG d   1       9.060   0.639  -8.153  0.00  0.00     0.036 H 
ATOM     19  H   LIG d   1       7.894   1.351  -7.012  0.00  0.00     0.036 H 
BRANCH  17  20
ATOM     20  C   LIG d   1       8.732   2.732  -8.408  0.00  0.00     0.214 C 
ATOM     21  N   LIG d   1       9.659   3.706  -8.318  0.00  0.00    -0.311 N 
ATOM     22  H   LIG d   1      10.394   3.620  -7.690  0.00  0.00     0.149 HD
ATOM     23  O   LIG d   1       7.813   2.839  -9.192  0.00  0.00    -0.276 OA
BRANCH  21  24
ATOM     24  C   LIG d   1       9.556   4.895  -9.168  0.00  0.00     0.037 C 
ATOM     25  H   LIG d   1      10.431   4.956  -9.814  0.00  0.00     0.051 H 
ATOM     26  H   LIG d   1       8.656   4.828  -9.778  0.00  0.00     0.051 H 
BRANCH  24  27
ATOM     27  C   LIG d   1       9.486   6.126  -8.301  0.00  0.00    -0.030 A 
ATOM     28  C   LIG d   1       9.086   7.333  -8.846  0.00  0.00    -0.054 A 
ATOM     29  C   LIG d   1       9.020   8.462  -8.053  0.00  0.00    -0.020 A 
ATOM     30  H   LIG d   1       8.825   7.391  -9.892  0.00  0.00     0.062 H 
ATOM     31  C   LIG d   1       9.355   8.386  -6.709  0.00  0.00     0.120 A 
ATOM     32  H   LIG d   1       8.708   9.404  -8.480  0.00  0.00     0.065 H 
ATOM     33  C   LIG d   1       9.757   7.174  -6.164  0.00  0.00    -0.020 A 
ATOM     34  C   LIG d   1       9.815   6.046  -6.961  0.00  0.00    -0.054 A 
ATOM     35  H   LIG d   1      10.019   7.112  -5.119  0.00  0.00     0.065 H 
ATOM     36  H   LIG d   1      10.122   5.102  -6.536  0.00  0.00     0.062 H 
BRANCH  31  37
ATOM     37  O   LIG d   1       9.291   9.495  -5.927  0.00  0.00    -0.495 OA
BRANCH  37  38
ATOM     38  C   LIG d   1       9.952   9.436  -4.662  0.00  0.00     0.079 C 
ATOM     39  H   LIG d   1       9.445   8.715  -4.020  0.00  0.00     0.066 H 
ATOM     40  H   LIG d   1      10.987   9.129  -4.806  0.00  0.00     0.066 H 
ATOM     41  H   LIG d   1       9.927  10.420  -4.192  0.00  0.00     0.066 H 
ENDBRANCH  37  38
ENDBRANCH  31  37
ENDBRANCH  24  27
ENDBRANCH  21  24
ENDBRANCH  17  20
ENDBRANCH   1  17
BRANCH   6  42
ATOM     42  C   LIG d   1       8.605   0.428  -4.845  0.00  0.00     0.001 C 
ATOM     43  H   LIG d   1       8.311  -0.014  -5.798  0.00  0.00     0.033 H 
ATOM     44  H   LIG d   1       9.246  -0.268  -4.305  0.00  0.00     0.033 H 
BRANCH  42  45
ATOM     45  C   LIG d   1       7.374   0.719  -4.026  0.00  0.00     0.085 A 
ATOM     46  N   LIG d   1       6.932   1.892  -3.675  0.00  0.00    -0.083 NA
ATOM     47  O   LIG d   1       5.919   1.817  -3.021  0.00  0.00    -0.353 OA
ATOM     48  C   LIG d   1       5.545   0.537  -2.836  0.00  0.00     0.183 A 
ATOM     49  C   LIG d   1       6.478  -0.228  -3.483  0.00  0.00     0.009 A 
ATOM     50  H   LIG d   1       6.519  -1.304  -3.560  0.00  0.00     0.068 H 
BRANCH  48  51
ATOM     51  C   LIG d   1       4.369   0.057  -2.089  0.00  0.00     0.110 C 
ATOM     52  O   LIG d   1       3.413   0.789  -1.926  0.00  0.00    -0.541 OA
ATOM     53  O   LIG d   1       4.354  -1.193  -1.587  0.00  0.00    -0.541 OA
ENDBRANCH  48  51
ENDBRANCH  42  45
ENDBRANCH   6  42
TORSDOF 9
ENDMDL
