MODEL 1
REMARK VINA RESULT:      -6.1      0.000      0.000
REMARK  10 active torsions:
REMARK  status: ('A' for Active; 'I' for Inactive)
REMARK    1  A    between atoms: C_1  and  O_2 
REMARK    2  A    between atoms: O_2  and  C_3 
REMARK    3  A    between atoms: C_3  and  C_4 
REMARK       I    between atoms: N_9  and  C_10 
REMARK    4  A    between atoms: C_10  and  C_12 
REMARK    5  A    between atoms: C_12  and  C_13 
REMARK    6  A    between atoms: C_15  and  O_30 
REMARK    7  A    between atoms: C_17  and  O_29 
REMARK    8  A    between atoms: C_19  and  C_22 
REMARK    9  A    between atoms: C_22  and  N_23 
REMARK       I    between atoms: N_23  and  C_24 
REMARK   10  A    between atoms: C_24  and  C_26 
ROOT
ATOM      1  C   LIG d   1       8.124   1.152  -4.580  0.00  0.00     0.096 C 
ATOM      2  H   LIG d   1       8.170   2.105  -4.053  0.00  0.00     0.063 H 
ATOM      3  C   LIG d   1       9.545   0.676  -4.956  0.00  0.00     0.110 C 
ATOM      4  H   LIG d   1       9.606  -0.413  -4.921  0.00  0.00     0.065 H 
ATOM      5  C   LIG d   1       9.741   1.182  -6.402  0.00  0.00     0.111 C 
ATOM      6  H   LIG d   1       9.897   0.347  -7.084  0.00  0.00     0.065 H 
ATOM      7  C   LIG d   1       8.416   1.905  -6.730  0.00  0.00     0.103 C 
ATOM      8  H   LIG d   1       8.507   2.973  -6.533  0.00  0.00     0.064 H 
ATOM      9  O   LIG d   1       7.442   1.311  -5.844  0.00  0.00    -0.366 OA
ENDROOT
BRANCH   1  10
ATOM     10  C   LIG d   1       7.419   0.102  -3.720  0.00  0.00     0.053 C 
ATOM     11  H   LIG d   1       7.287  -0.812  -4.299  0.00  0.00     0.038 H 
ATOM     12  H   LIG d   1       8.024  -0.111  -2.839  0.00  0.00     0.038 H 
BRANCH  10  13
ATOM     13  C   LIG d   1       6.073   0.625  -3.290  0.00  0.00     0.218 C 
ATOM     14  N   LIG d   1       5.038  -0.225  -3.134  0.00  0.00    -0.296 N 
ATOM     15  C   LIG d   1       3.679   0.148  -2.717  0.00  0.00     0.049 C 
ATOM     16  C   LIG d   1       5.084  -1.682  -3.348  0.00  0.00     0.015 C 
ATOM     17  H   LIG d   1       3.710   0.620  -1.734  0.00  0.00     0.052 H 
ATOM     18  C   LIG d   1       2.848  -1.150  -2.652  0.00  0.00    -0.031 C 
ATOM     19  C   LIG d   1       3.931  -2.247  -2.480  0.00  0.00    -0.035 C 
ATOM     20  H   LIG d   1       2.289  -1.301  -3.576  0.00  0.00     0.028 H 
ATOM     21  H   LIG d   1       2.176  -1.133  -1.793  0.00  0.00     0.028 H 
ATOM     22  H   LIG d   1       3.582  -3.204  -2.869  0.00  0.00     0.028 H 
ATOM     23  H   LIG d   1       4.234  -2.336  -1.438  0.00  0.00     0.028 H 
ATOM     24  H   LIG d   1       4.918  -1.917  -4.399  0.00  0.00     0.046 H 
ATOM     25  H   LIG d   1       6.042  -2.085  -3.017  0.00  0.00     0.046 H 
ATOM     26  O   LIG d   1       5.920   1.811  -3.086  0.00  0.00    -0.276 OA
BRANCH  15  27
ATOM     27  C   LIG d   1       3.064   1.107  -3.738  0.00  0.00     0.066 C 
ATOM     28  H   LIG d   1       2.444   1.839  -3.222  0.00  0.00     0.058 H 
ATOM     29  H   LIG d   1       3.860   1.621  -4.278  0.00  0.00     0.058 H 
BRANCH  27  30
ATOM     30  O   LIG d   1       2.262   0.368  -4.662  0.00  0.00    -0.381 OA
BRANCH  30  31
ATOM     31  C   LIG d   1       2.815   0.286  -5.976  0.00  0.00     0.036 C 
ATOM     32  H   LIG d   1       2.013   0.325  -6.712  0.00  0.00     0.052 H 
ATOM     33  H   LIG d   1       3.497   1.122  -6.137  0.00  0.00     0.052 H 
ATOM     34  H   LIG d   1       3.361  -0.652  -6.083  0.00  0.00     0.052 H 
ENDBRANCH  30  31
ENDBRANCH  27  30
ENDBRANCH  15  27
ENDBRANCH  10  13
ENDBRANCH   1  10
BRANCH   3  35
ATOM     35  O   LIG d   1      10.516   1.259  -4.085  0.00  0.00    -0.387 OA
ATOM     36  H   LIG d   1      11.428   1.025  -4.301  0.00  0.00     0.210 HD
ENDBRANCH   3  35
BRANCH   7  37
ATOM     37  C   LIG d   1       8.023   1.665  -8.189  0.00  0.00     0.040 C 
ATOM     38  H   LIG d   1       8.252   0.635  -8.462  0.00  0.00     0.049 H 
ATOM     39  H   LIG d   1       8.584   2.344  -8.832  0.00  0.00     0.049 H 
BRANCH  37  40
ATOM     40  N   LIG d   1       6.588   1.908  -8.356  0.00  0.00    -0.312 N 
ATOM     41  C   LIG d   1       5.810   0.977  -8.942  0.00  0.00     0.216 C 
ATOM     42  O   LIG d   1       6.299  -0.063  -9.331  0.00  0.00    -0.276 OA
ATOM     43  H   LIG d   1       6.198   2.740  -8.045  0.00  0.00     0.149 HD
BRANCH  41  44
ATOM     44  C   LIG d   1       4.334   1.227  -9.114  0.00  0.00     0.036 A 
ATOM     45  C   LIG d   1       3.854   1.713 -10.482  0.00  0.00    -0.041 A 
ATOM     46  C   LIG d   1       3.879   2.677  -9.292  0.00  0.00    -0.041 A 
ATOM     47  H   LIG d   1       4.606   1.854 -11.259  0.00  0.00     0.027 H 
ATOM     48  H   LIG d   1       2.882   1.365 -10.827  0.00  0.00     0.027 H 
ATOM     49  H   LIG d   1       2.922   2.961  -8.854  0.00  0.00     0.027 H 
ATOM     50  H   LIG d   1       4.647   3.449  -9.286  0.00  0.00     0.027 H 
ATOM     51  H   LIG d   1       3.677   0.557  -8.558  0.00  0.00     0.039 H 
ENDBRANCH  41  44
ENDBRANCH  37  40
ENDBRANCH   7  37
BRANCH   5  52
ATOM     52  O   LIG d   1      10.838   2.095  -6.469  0.00  0.00    -0.387 OA
ATOM     53  H   LIG d   1      11.573   1.786  -7.017  0.00  0.00     0.210 HD
ENDBRANCH   5  52
TORSDOF 10
ENDMDL
MODEL 2
REMARK VINA RESULT:      -6.0      3.457      7.337
REMARK  10 active torsions:
REMARK  status: ('A' for Active; 'I' for Inactive)
REMARK    1  A    between atoms: C_1  and  O_2 
REMARK    2  A    between atoms: O_2  and  C_3 
REMARK    3  A    between atoms: C_3  and  C_4 
REMARK       I    between atoms: N_9  and  C_10 
REMARK    4  A    between atoms: C_10  and  C_12 
REMARK    5  A    between atoms: C_12  and  C_13 
REMARK    6  A    between atoms: C_15  and  O_30 
REMARK    7  A    between atoms: C_17  and  O_29 
REMARK    8  A    between atoms: C_19  and  C_22 
REMARK    9  A    between atoms: C_22  and  N_23 
REMARK       I    between atoms: N_23  and  C_24 
REMARK   10  A    between atoms: C_24  and  C_26 
ROOT
ATOM      1  C   LIG d   1       4.929  -2.456  -7.738  0.00  0.00     0.096 C 
ATOM      2  H   LIG d   1       3.983  -1.956  -7.945  0.00  0.00     0.063 H 
ATOM      3  C   LIG d   1       4.750  -3.990  -7.790  0.00  0.00     0.110 C 
ATOM      4  H   LIG d   1       5.653  -4.469  -8.169  0.00  0.00     0.065 H 
ATOM      5  C   LIG d   1       4.503  -4.389  -6.319  0.00  0.00     0.111 C 
ATOM      6  H   LIG d   1       5.284  -5.064  -5.967  0.00  0.00     0.065 H 
ATOM      7  C   LIG d   1       4.562  -3.050  -5.551  0.00  0.00     0.103 C 
ATOM      8  H   LIG d   1       3.559  -2.642  -5.422  0.00  0.00     0.064 H 
ATOM      9  O   LIG d   1       5.357  -2.180  -6.386  0.00  0.00    -0.366 OA
ENDROOT
BRANCH   1  10
ATOM     10  C   LIG d   1       5.996  -2.010  -8.739  0.00  0.00     0.053 C 
ATOM     11  H   LIG d   1       6.645  -1.269  -8.272  0.00  0.00     0.038 H 
ATOM     12  H   LIG d   1       6.591  -2.871  -9.045  0.00  0.00     0.038 H 
BRANCH  10  13
ATOM     13  C   LIG d   1       5.330  -1.405  -9.948  0.00  0.00     0.218 C 
ATOM     14  N   LIG d   1       4.813  -0.162  -9.881  0.00  0.00    -0.296 N 
ATOM     15  C   LIG d   1       4.144   0.548 -10.980  0.00  0.00     0.049 C 
ATOM     16  C   LIG d   1       4.830   0.713  -8.694  0.00  0.00     0.015 C 
ATOM     17  H   LIG d   1       4.827   0.653 -11.823  0.00  0.00     0.052 H 
ATOM     18  C   LIG d   1       3.743   1.941 -10.450  0.00  0.00    -0.031 C 
ATOM     19  C   LIG d   1       4.716   2.151  -9.261  0.00  0.00    -0.035 C 
ATOM     20  H   LIG d   1       2.708   1.944 -10.107  0.00  0.00     0.028 H 
ATOM     21  H   LIG d   1       3.898   2.702 -11.215  0.00  0.00     0.028 H 
ATOM     22  H   LIG d   1       4.289   2.829  -8.522  0.00  0.00     0.028 H 
ATOM     23  H   LIG d   1       5.684   2.512  -9.607  0.00  0.00     0.028 H 
ATOM     24  H   LIG d   1       3.982   0.493  -8.047  0.00  0.00     0.046 H 
ATOM     25  H   LIG d   1       5.766   0.592  -8.147  0.00  0.00     0.046 H 
ATOM     26  O   LIG d   1       5.258  -2.037 -10.981  0.00  0.00    -0.276 OA
BRANCH  15  27
ATOM     27  C   LIG d   1       2.893  -0.221 -11.412  0.00  0.00     0.066 C 
ATOM     28  H   LIG d   1       2.424   0.292 -12.251  0.00  0.00     0.058 H 
ATOM     29  H   LIG d   1       3.175  -1.230 -11.714  0.00  0.00     0.058 H 
BRANCH  27  30
ATOM     30  O   LIG d   1       1.974  -0.288 -10.320  0.00  0.00    -0.381 OA
BRANCH  30  31
ATOM     31  C   LIG d   1       1.564  -1.615  -9.986  0.00  0.00     0.036 C 
ATOM     32  H   LIG d   1       1.107  -1.617  -8.997  0.00  0.00     0.052 H 
ATOM     33  H   LIG d   1       0.841  -1.967 -10.722  0.00  0.00     0.052 H 
ATOM     34  H   LIG d   1       2.433  -2.274  -9.987  0.00  0.00     0.052 H 
ENDBRANCH  30  31
ENDBRANCH  27  30
ENDBRANCH  15  27
ENDBRANCH  10  13
ENDBRANCH   1  10
BRANCH   3  35
ATOM     35  O   LIG d   1       3.623  -4.336  -8.598  0.00  0.00    -0.387 OA
ATOM     36  H   LIG d   1       3.808  -5.015  -9.260  0.00  0.00     0.210 HD
ENDBRANCH   3  35
BRANCH   7  37
ATOM     37  C   LIG d   1       5.237  -3.243  -4.191  0.00  0.00     0.040 C 
ATOM     38  H   LIG d   1       6.254  -3.605  -4.338  0.00  0.00     0.049 H 
ATOM     39  H   LIG d   1       4.674  -3.972  -3.607  0.00  0.00     0.049 H 
BRANCH  37  40
ATOM     40  N   LIG d   1       5.272  -1.966  -3.476  0.00  0.00    -0.312 N 
ATOM     41  C   LIG d   1       4.356  -1.701  -2.524  0.00  0.00     0.216 C 
ATOM     42  O   LIG d   1       3.503  -2.521  -2.258  0.00  0.00    -0.276 OA
ATOM     43  H   LIG d   1       5.954  -1.309  -3.688  0.00  0.00     0.149 HD
BRANCH  41  44
ATOM     44  C   LIG d   1       4.392  -0.386  -1.788  0.00  0.00     0.036 A 
ATOM     45  C   LIG d   1       3.642   0.793  -2.409  0.00  0.00    -0.041 A 
ATOM     46  C   LIG d   1       5.172   0.763  -2.430  0.00  0.00    -0.041 A 
ATOM     47  H   LIG d   1       3.122   0.619  -3.351  0.00  0.00     0.027 H 
ATOM     48  H   LIG d   1       3.161   1.497  -1.731  0.00  0.00     0.027 H 
ATOM     49  H   LIG d   1       5.699   1.447  -1.766  0.00  0.00     0.027 H 
ATOM     50  H   LIG d   1       5.659   0.567  -3.386  0.00  0.00     0.027 H 
ATOM     51  H   LIG d   1       4.406  -0.457  -0.700  0.00  0.00     0.039 H 
ENDBRANCH  41  44
ENDBRANCH  37  40
ENDBRANCH   7  37
BRANCH   5  52
ATOM     52  O   LIG d   1       3.217  -4.993  -6.172  0.00  0.00    -0.387 OA
ATOM     53  H   LIG d   1       2.495  -4.482  -6.566  0.00  0.00     0.210 HD
ENDBRANCH   5  52
TORSDOF 10
ENDMDL
MODEL 3
REMARK VINA RESULT:      -6.0      5.564      8.326
REMARK  10 active torsions:
REMARK  status: ('A' for Active; 'I' for Inactive)
REMARK    1  A    between atoms: C_1  and  O_2 
REMARK    2  A    between atoms: O_2  and  C_3 
REMARK    3  A    between atoms: C_3  and  C_4 
REMARK       I    between atoms: N_9  and  C_10 
REMARK    4  A    between atoms: C_10  and  C_12 
REMARK    5  A    between atoms: C_12  and  C_13 
REMARK    6  A    between atoms: C_15  and  O_30 
REMARK    7  A    between atoms: C_17  and  O_29 
REMARK    8  A    between atoms: C_19  and  C_22 
REMARK    9  A    between atoms: C_22  and  N_23 
REMARK       I    between atoms: N_23  and  C_24 
REMARK   10  A    between atoms: C_24  and  C_26 
ROOT
ATOM      1  C   LIG d   1       4.476  -4.368  -5.562  0.00  0.00     0.096 C 
ATOM      2  H   LIG d   1       3.436  -4.333  -5.236  0.00  0.00     0.063 H 
ATOM      3  C   LIG d   1       4.554  -4.432  -7.104  0.00  0.00     0.110 C 
ATOM      4  H   LIG d   1       5.434  -3.900  -7.466  0.00  0.00     0.065 H 
ATOM      5  C   LIG d   1       4.668  -5.940  -7.412  0.00  0.00     0.111 C 
ATOM      6  H   LIG d   1       5.605  -6.158  -7.925  0.00  0.00     0.065 H 
ATOM      7  C   LIG d   1       4.646  -6.611  -6.021  0.00  0.00     0.103 C 
ATOM      8  H   LIG d   1       3.633  -6.922  -5.766  0.00  0.00     0.064 H 
ATOM      9  O   LIG d   1       5.104  -5.587  -5.111  0.00  0.00    -0.366 OA
ENDROOT
BRANCH   1  10
ATOM     10  C   LIG d   1       5.237  -3.148  -5.040  0.00  0.00     0.053 C 
ATOM     11  H   LIG d   1       6.084  -3.479  -4.439  0.00  0.00     0.038 H 
ATOM     12  H   LIG d   1       5.599  -2.557  -5.882  0.00  0.00     0.038 H 
BRANCH  10  13
ATOM     13  C   LIG d   1       4.318  -2.306  -4.194  0.00  0.00     0.218 C 
ATOM     14  N   LIG d   1       3.802  -1.164  -4.690  0.00  0.00    -0.296 N 
ATOM     15  C   LIG d   1       2.893  -0.254  -3.979  0.00  0.00     0.049 C 
ATOM     16  C   LIG d   1       4.053  -0.623  -6.038  0.00  0.00     0.015 C 
ATOM     17  H   LIG d   1       1.984  -0.786  -3.696  0.00  0.00     0.052 H 
ATOM     18  C   LIG d   1       2.550   0.898  -4.945  0.00  0.00    -0.031 C 
ATOM     19  C   LIG d   1       2.827   0.276  -6.338  0.00  0.00    -0.035 C 
ATOM     20  H   LIG d   1       3.197   1.758  -4.770  0.00  0.00     0.028 H 
ATOM     21  H   LIG d   1       1.500   1.180  -4.849  0.00  0.00     0.028 H 
ATOM     22  H   LIG d   1       3.078   1.047  -7.067  0.00  0.00     0.028 H 
ATOM     23  H   LIG d   1       1.979  -0.318  -6.676  0.00  0.00     0.028 H 
ATOM     24  H   LIG d   1       4.968  -0.032  -6.046  0.00  0.00     0.046 H 
ATOM     25  H   LIG d   1       4.118  -1.433  -6.766  0.00  0.00     0.046 H 
ATOM     26  O   LIG d   1       4.042  -2.656  -3.065  0.00  0.00    -0.276 OA
BRANCH  15  27
ATOM     27  C   LIG d   1       3.583   0.303  -2.732  0.00  0.00     0.066 C 
ATOM     28  H   LIG d   1       2.830   0.646  -2.023  0.00  0.00     0.058 H 
ATOM     29  H   LIG d   1       4.185  -0.480  -2.271  0.00  0.00     0.058 H 
BRANCH  27  30
ATOM     30  O   LIG d   1       4.424   1.397  -3.102  0.00  0.00    -0.381 OA
BRANCH  30  31
ATOM     31  C   LIG d   1       5.819   1.139  -2.936  0.00  0.00     0.036 C 
ATOM     32  H   LIG d   1       6.395   1.945  -3.389  0.00  0.00     0.052 H 
ATOM     33  H   LIG d   1       6.054   1.077  -1.873  0.00  0.00     0.052 H 
ATOM     34  H   LIG d   1       6.074   0.195  -3.419  0.00  0.00     0.052 H 
ENDBRANCH  30  31
ENDBRANCH  27  30
ENDBRANCH  15  27
ENDBRANCH  10  13
ENDBRANCH   1  10
BRANCH   3  35
ATOM     35  O   LIG d   1       3.367  -3.889  -7.689  0.00  0.00    -0.387 OA
ATOM     36  H   LIG d   1       3.114  -4.308  -8.521  0.00  0.00     0.210 HD
ENDBRANCH   3  35
BRANCH   7  37
ATOM     37  C   LIG d   1       5.594  -7.812  -5.992  0.00  0.00     0.040 C 
ATOM     38  H   LIG d   1       6.599  -7.475  -5.739  0.00  0.00     0.049 H 
ATOM     39  H   LIG d   1       5.607  -8.288  -6.973  0.00  0.00     0.049 H 
BRANCH  37  40
ATOM     40  N   LIG d   1       5.135  -8.774  -4.988  0.00  0.00    -0.312 N 
ATOM     41  C   LIG d   1       4.480  -9.887  -5.370  0.00  0.00     0.216 C 
ATOM     42  O   LIG d   1       4.272 -10.093  -6.548  0.00  0.00    -0.276 OA
ATOM     43  H   LIG d   1       5.301  -8.609  -4.046  0.00  0.00     0.149 HD
BRANCH  41  44
ATOM     44  C   LIG d   1       4.008 -10.878  -4.337  0.00  0.00     0.036 A 
ATOM     45  C   LIG d   1       3.240 -10.330  -3.133  0.00  0.00    -0.041 A 
ATOM     46  C   LIG d   1       4.675 -10.835  -2.961  0.00  0.00    -0.041 A 
ATOM     47  H   LIG d   1       3.077  -9.254  -3.087  0.00  0.00     0.027 H 
ATOM     48  H   LIG d   1       2.438 -10.945  -2.726  0.00  0.00     0.027 H 
ATOM     49  H   LIG d   1       4.816 -11.783  -2.441  0.00  0.00     0.027 H 
ATOM     50  H   LIG d   1       5.455 -10.091  -2.803  0.00  0.00     0.027 H 
ATOM     51  H   LIG d   1       3.711 -11.853  -4.723  0.00  0.00     0.039 H 
ENDBRANCH  41  44
ENDBRANCH  37  40
ENDBRANCH   7  37
BRANCH   5  52
ATOM     52  O   LIG d   1       3.556  -6.378  -8.196  0.00  0.00    -0.387 OA
ATOM     53  H   LIG d   1       3.697  -6.308  -9.151  0.00  0.00     0.210 HD
ENDBRANCH   5  52
TORSDOF 10
ENDMDL
MODEL 4
REMARK VINA RESULT:      -5.9      3.913      6.212
REMARK  10 active torsions:
REMARK  status: ('A' for Active; 'I' for Inactive)
REMARK    1  A    between atoms: C_1  and  O_2 
REMARK    2  A    between atoms: O_2  and  C_3 
REMARK    3  A    between atoms: C_3  and  C_4 
REMARK       I    between atoms: N_9  and  C_10 
REMARK    4  A    between atoms: C_10  and  C_12 
REMARK    5  A    between atoms: C_12  and  C_13 
REMARK    6  A    between atoms: C_15  and  O_30 
REMARK    7  A    between atoms: C_17  and  O_29 
REMARK    8  A    between atoms: C_19  and  C_22 
REMARK    9  A    between atoms: C_22  and  N_23 
REMARK       I    between atoms: N_23  and  C_24 
REMARK   10  A    between atoms: C_24  and  C_26 
ROOT
ATOM      1  C   LIG d   1       8.551   1.231  -3.753  0.00  0.00     0.096 C 
ATOM      2  H   LIG d   1       8.619   0.464  -2.981  0.00  0.00     0.063 H 
ATOM      3  C   LIG d   1       9.682   1.052  -4.790  0.00  0.00     0.110 C 
ATOM      4  H   LIG d   1       9.342   1.345  -5.784  0.00  0.00     0.065 H 
ATOM      5  C   LIG d   1      10.796   2.002  -4.298  0.00  0.00     0.111 C 
ATOM      6  H   LIG d   1      11.007   2.767  -5.046  0.00  0.00     0.065 H 
ATOM      7  C   LIG d   1      10.207   2.643  -3.022  0.00  0.00     0.103 C 
ATOM      8  H   LIG d   1      10.531   2.094  -2.138  0.00  0.00     0.064 H 
ATOM      9  O   LIG d   1       8.775   2.539  -3.184  0.00  0.00    -0.366 OA
ENDROOT
BRANCH   1  10
ATOM     10  C   LIG d   1       7.185   1.173  -4.439  0.00  0.00     0.053 C 
ATOM     11  H   LIG d   1       6.944   2.152  -4.853  0.00  0.00     0.038 H 
ATOM     12  H   LIG d   1       7.212   0.437  -5.243  0.00  0.00     0.038 H 
BRANCH  10  13
ATOM     13  C   LIG d   1       6.134   0.779  -3.434  0.00  0.00     0.218 C 
ATOM     14  N   LIG d   1       5.529  -0.422  -3.526  0.00  0.00    -0.296 N 
ATOM     15  C   LIG d   1       4.496  -0.934  -2.615  0.00  0.00     0.049 C 
ATOM     16  C   LIG d   1       5.799  -1.443  -4.556  0.00  0.00     0.015 C 
ATOM     17  H   LIG d   1       4.887  -0.977  -1.598  0.00  0.00     0.052 H 
ATOM     18  C   LIG d   1       4.121  -2.351  -3.096  0.00  0.00    -0.031 C 
ATOM     19  C   LIG d   1       5.371  -2.783  -3.906  0.00  0.00    -0.035 C 
ATOM     20  H   LIG d   1       3.238  -2.325  -3.734  0.00  0.00     0.028 H 
ATOM     21  H   LIG d   1       3.963  -3.015  -2.245  0.00  0.00     0.028 H 
ATOM     22  H   LIG d   1       5.109  -3.519  -4.666  0.00  0.00     0.028 H 
ATOM     23  H   LIG d   1       6.151  -3.164  -3.247  0.00  0.00     0.028 H 
ATOM     24  H   LIG d   1       5.205  -1.248  -5.448  0.00  0.00     0.046 H 
ATOM     25  H   LIG d   1       6.861  -1.461  -4.803  0.00  0.00     0.046 H 
ATOM     26  O   LIG d   1       5.832   1.543  -2.542  0.00  0.00    -0.276 OA
BRANCH  15  27
ATOM     27  C   LIG d   1       3.264  -0.028  -2.663  0.00  0.00     0.066 C 
ATOM     28  H   LIG d   1       2.704  -0.126  -1.733  0.00  0.00     0.058 H 
ATOM     29  H   LIG d   1       3.580   1.008  -2.789  0.00  0.00     0.058 H 
BRANCH  27  30
ATOM     30  O   LIG d   1       2.434  -0.411  -3.762  0.00  0.00    -0.381 OA
BRANCH  30  31
ATOM     31  C   LIG d   1       2.418   0.533  -4.834  0.00  0.00     0.036 C 
ATOM     32  H   LIG d   1       3.036   0.165  -5.652  0.00  0.00     0.052 H 
ATOM     33  H   LIG d   1       1.394   0.668  -5.184  0.00  0.00     0.052 H 
ATOM     34  H   LIG d   1       2.810   1.488  -4.483  0.00  0.00     0.052 H 
ENDBRANCH  30  31
ENDBRANCH  27  30
ENDBRANCH  15  27
ENDBRANCH  10  13
ENDBRANCH   1  10
BRANCH   3  35
ATOM     35  O   LIG d   1      10.145  -0.300  -4.799  0.00  0.00    -0.387 OA
ATOM     36  H   LIG d   1      10.613  -0.560  -3.995  0.00  0.00     0.210 HD
ENDBRANCH   3  35
BRANCH   7  37
ATOM     37  C   LIG d   1      10.625   4.111  -2.920  0.00  0.00     0.040 C 
ATOM     38  H   LIG d   1       9.781   4.748  -3.182  0.00  0.00     0.049 H 
ATOM     39  H   LIG d   1      11.451   4.302  -3.606  0.00  0.00     0.049 H 
BRANCH  37  40
ATOM     40  N   LIG d   1      11.052   4.404  -1.550  0.00  0.00    -0.312 N 
ATOM     41  C   LIG d   1      11.526   5.626  -1.237  0.00  0.00     0.216 C 
ATOM     42  O   LIG d   1      11.598   6.484  -2.092  0.00  0.00    -0.276 OA
ATOM     43  H   LIG d   1      10.995   3.717  -0.867  0.00  0.00     0.149 HD
BRANCH  41  44
ATOM     44  C   LIG d   1      11.965   5.927   0.172  0.00  0.00     0.036 A 
ATOM     45  C   LIG d   1      10.997   5.578   1.304  0.00  0.00    -0.041 A 
ATOM     46  C   LIG d   1      11.228   7.042   0.919  0.00  0.00    -0.041 A 
ATOM     47  H   LIG d   1      10.041   5.131   1.030  0.00  0.00     0.027 H 
ATOM     48  H   LIG d   1      11.425   5.231   2.243  0.00  0.00     0.027 H 
ATOM     49  H   LIG d   1      11.810   7.657   1.605  0.00  0.00     0.027 H 
ATOM     50  H   LIG d   1      10.426   7.556   0.390  0.00  0.00     0.027 H 
ATOM     51  H   LIG d   1      13.031   5.810   0.368  0.00  0.00     0.039 H 
ENDBRANCH  41  44
ENDBRANCH  37  40
ENDBRANCH   7  37
BRANCH   5  52
ATOM     52  O   LIG d   1      11.981   1.266  -3.987  0.00  0.00    -0.387 OA
ATOM     53  H   LIG d   1      12.077   0.445  -4.490  0.00  0.00     0.210 HD
ENDBRANCH   5  52
TORSDOF 10
ENDMDL
MODEL 5
REMARK VINA RESULT:      -5.8      3.251      5.227
REMARK  10 active torsions:
REMARK  status: ('A' for Active; 'I' for Inactive)
REMARK    1  A    between atoms: C_1  and  O_2 
REMARK    2  A    between atoms: O_2  and  C_3 
REMARK    3  A    between atoms: C_3  and  C_4 
REMARK       I    between atoms: N_9  and  C_10 
REMARK    4  A    between atoms: C_10  and  C_12 
REMARK    5  A    between atoms: C_12  and  C_13 
REMARK    6  A    between atoms: C_15  and  O_30 
REMARK    7  A    between atoms: C_17  and  O_29 
REMARK    8  A    between atoms: C_19  and  C_22 
REMARK    9  A    between atoms: C_22  and  N_23 
REMARK       I    between atoms: N_23  and  C_24 
REMARK   10  A    between atoms: C_24  and  C_26 
ROOT
ATOM      1  C   LIG d   1       4.976  -3.741  -5.602  0.00  0.00     0.096 C 
ATOM      2  H   LIG d   1       6.042  -3.939  -5.718  0.00  0.00     0.063 H 
ATOM      3  C   LIG d   1       4.153  -4.994  -5.977  0.00  0.00     0.110 C 
ATOM      4  H   LIG d   1       3.255  -5.060  -5.363  0.00  0.00     0.065 H 
ATOM      5  C   LIG d   1       3.779  -4.767  -7.459  0.00  0.00     0.111 C 
ATOM      6  H   LIG d   1       2.697  -4.720  -7.579  0.00  0.00     0.065 H 
ATOM      7  C   LIG d   1       4.421  -3.405  -7.805  0.00  0.00     0.103 C 
ATOM      8  H   LIG d   1       5.400  -3.552  -8.259  0.00  0.00     0.064 H 
ATOM      9  O   LIG d   1       4.549  -2.726  -6.536  0.00  0.00    -0.366 OA
ENDROOT
BRANCH   1  10
ATOM     10  C   LIG d   1       4.668  -3.311  -4.167  0.00  0.00     0.053 C 
ATOM     11  H   LIG d   1       3.647  -2.935  -4.111  0.00  0.00     0.038 H 
ATOM     12  H   LIG d   1       4.777  -4.166  -3.500  0.00  0.00     0.038 H 
BRANCH  10  13
ATOM     13  C   LIG d   1       5.627  -2.225  -3.751  0.00  0.00     0.218 C 
ATOM     14  N   LIG d   1       5.158  -1.011  -3.400  0.00  0.00    -0.296 N 
ATOM     15  C   LIG d   1       5.977   0.132  -2.971  0.00  0.00     0.049 C 
ATOM     16  C   LIG d   1       3.740  -0.611  -3.377  0.00  0.00     0.015 C 
ATOM     17  H   LIG d   1       6.548  -0.135  -2.082  0.00  0.00     0.052 H 
ATOM     18  C   LIG d   1       5.012   1.292  -2.649  0.00  0.00    -0.031 C 
ATOM     19  C   LIG d   1       3.674   0.560  -2.365  0.00  0.00    -0.035 C 
ATOM     20  H   LIG d   1       4.911   1.963  -3.503  0.00  0.00     0.028 H 
ATOM     21  H   LIG d   1       5.349   1.838  -1.767  0.00  0.00     0.028 H 
ATOM     22  H   LIG d   1       2.823   1.208  -2.572  0.00  0.00     0.028 H 
ATOM     23  H   LIG d   1       3.642   0.190  -1.340  0.00  0.00     0.028 H 
ATOM     24  H   LIG d   1       3.423  -0.276  -4.365  0.00  0.00     0.046 H 
ATOM     25  H   LIG d   1       3.117  -1.441  -3.040  0.00  0.00     0.046 H 
ATOM     26  O   LIG d   1       6.820  -2.443  -3.733  0.00  0.00    -0.276 OA
BRANCH  15  27
ATOM     27  C   LIG d   1       6.926   0.545  -4.098  0.00  0.00     0.066 C 
ATOM     28  H   LIG d   1       7.852  -0.023  -4.019  0.00  0.00     0.058 H 
ATOM     29  H   LIG d   1       6.456   0.344  -5.060  0.00  0.00     0.058 H 
BRANCH  27  30
ATOM     30  O   LIG d   1       7.213   1.941  -3.990  0.00  0.00    -0.381 OA
BRANCH  30  31
ATOM     31  C   LIG d   1       8.595   2.236  -3.782  0.00  0.00     0.036 C 
ATOM     32  H   LIG d   1       9.113   2.248  -4.740  0.00  0.00     0.052 H 
ATOM     33  H   LIG d   1       8.691   3.212  -3.305  0.00  0.00     0.052 H 
ATOM     34  H   LIG d   1       9.037   1.474  -3.139  0.00  0.00     0.052 H 
ENDBRANCH  30  31
ENDBRANCH  27  30
ENDBRANCH  15  27
ENDBRANCH  10  13
ENDBRANCH   1  10
BRANCH   3  35
ATOM     35  O   LIG d   1       4.945  -6.175  -5.835  0.00  0.00    -0.387 OA
ATOM     36  H   LIG d   1       4.685  -6.735  -5.092  0.00  0.00     0.210 HD
ENDBRANCH   3  35
BRANCH   7  37
ATOM     37  C   LIG d   1       3.512  -2.610  -8.744  0.00  0.00     0.040 C 
ATOM     38  H   LIG d   1       2.519  -2.524  -8.302  0.00  0.00     0.049 H 
ATOM     39  H   LIG d   1       3.439  -3.127  -9.702  0.00  0.00     0.049 H 
BRANCH  37  40
ATOM     40  N   LIG d   1       4.072  -1.273  -8.952  0.00  0.00    -0.312 N 
ATOM     41  C   LIG d   1       3.397  -0.186  -8.531  0.00  0.00     0.216 C 
ATOM     42  O   LIG d   1       2.324  -0.315  -7.979  0.00  0.00    -0.276 OA
ATOM     43  H   LIG d   1       4.930  -1.170  -9.393  0.00  0.00     0.149 HD
BRANCH  41  44
ATOM     44  C   LIG d   1       3.974   1.190  -8.744  0.00  0.00     0.036 A 
ATOM     45  C   LIG d   1       2.993   2.358  -8.855  0.00  0.00    -0.041 A 
ATOM     46  C   LIG d   1       3.730   1.856 -10.100  0.00  0.00    -0.041 A 
ATOM     47  H   LIG d   1       1.930   2.132  -8.775  0.00  0.00     0.027 H 
ATOM     48  H   LIG d   1       3.302   3.316  -8.439  0.00  0.00     0.027 H 
ATOM     49  H   LIG d   1       4.525   2.483 -10.502  0.00  0.00     0.027 H 
ATOM     50  H   LIG d   1       3.152   1.299 -10.837  0.00  0.00     0.027 H 
ATOM     51  H   LIG d   1       4.930   1.380  -8.255  0.00  0.00     0.039 H 
ENDBRANCH  41  44
ENDBRANCH  37  40
ENDBRANCH   7  37
BRANCH   5  52
ATOM     52  O   LIG d   1       4.329  -5.801  -8.278  0.00  0.00    -0.387 OA
ATOM     53  H   LIG d   1       4.601  -5.503  -9.157  0.00  0.00     0.210 HD
ENDBRANCH   5  52
TORSDOF 10
ENDMDL
MODEL 6
REMARK VINA RESULT:      -5.7      5.376      7.595
REMARK  10 active torsions:
REMARK  status: ('A' for Active; 'I' for Inactive)
REMARK    1  A    between atoms: C_1  and  O_2 
REMARK    2  A    between atoms: O_2  and  C_3 
REMARK    3  A    between atoms: C_3  and  C_4 
REMARK       I    between atoms: N_9  and  C_10 
REMARK    4  A    between atoms: C_10  and  C_12 
REMARK    5  A    between atoms: C_12  and  C_13 
REMARK    6  A    between atoms: C_15  and  O_30 
REMARK    7  A    between atoms: C_17  and  O_29 
REMARK    8  A    between atoms: C_19  and  C_22 
REMARK    9  A    between atoms: C_22  and  N_23 
REMARK       I    between atoms: N_23  and  C_24 
REMARK   10  A    between atoms: C_24  and  C_26 
ROOT
ATOM      1  C   LIG d   1       9.297   3.976  -3.691  0.00  0.00     0.096 C 
ATOM      2  H   LIG d   1       8.525   4.716  -3.902  0.00  0.00     0.063 H 
ATOM      3  C   LIG d   1      10.156   3.720  -4.950  0.00  0.00     0.110 C 
ATOM      4  H   LIG d   1      11.188   3.504  -4.673  0.00  0.00     0.065 H 
ATOM      5  C   LIG d   1       9.502   2.484  -5.605  0.00  0.00     0.111 C 
ATOM      6  H   LIG d   1      10.208   1.655  -5.652  0.00  0.00     0.065 H 
ATOM      7  C   LIG d   1       8.325   2.138  -4.666  0.00  0.00     0.103 C 
ATOM      8  H   LIG d   1       7.404   2.596  -5.027  0.00  0.00     0.064 H 
ATOM      9  O   LIG d   1       8.698   2.697  -3.387  0.00  0.00    -0.366 OA
ENDROOT
BRANCH   1  10
ATOM     10  C   LIG d   1      10.178   4.443  -2.531  0.00  0.00     0.053 C 
ATOM     11  H   LIG d   1       9.867   3.942  -1.614  0.00  0.00     0.038 H 
ATOM     12  H   LIG d   1      11.219   4.197  -2.742  0.00  0.00     0.038 H 
BRANCH  10  13
ATOM     13  C   LIG d   1      10.038   5.934  -2.362  0.00  0.00     0.218 C 
ATOM     14  N   LIG d   1      10.423   6.521  -1.211  0.00  0.00    -0.296 N 
ATOM     15  C   LIG d   1      10.347   7.959  -0.916  0.00  0.00     0.049 C 
ATOM     16  C   LIG d   1      10.993   5.828  -0.042  0.00  0.00     0.015 C 
ATOM     17  H   LIG d   1      10.939   8.517  -1.642  0.00  0.00     0.052 H 
ATOM     18  C   LIG d   1      10.918   8.166   0.502  0.00  0.00    -0.031 C 
ATOM     19  C   LIG d   1      11.810   6.914   0.702  0.00  0.00    -0.035 C 
ATOM     20  H   LIG d   1      10.119   8.193   1.243  0.00  0.00     0.028 H 
ATOM     21  H   LIG d   1      11.515   9.077   0.546  0.00  0.00     0.028 H 
ATOM     22  H   LIG d   1      11.910   6.670   1.760  0.00  0.00     0.028 H 
ATOM     23  H   LIG d   1      12.788   7.053   0.240  0.00  0.00     0.028 H 
ATOM     24  H   LIG d   1      10.199   5.446   0.598  0.00  0.00     0.046 H 
ATOM     25  H   LIG d   1      11.645   5.015  -0.364  0.00  0.00     0.046 H 
ATOM     26  O   LIG d   1       9.579   6.605  -3.262  0.00  0.00    -0.276 OA
BRANCH  15  27
ATOM     27  C   LIG d   1       8.890   8.424  -0.962  0.00  0.00     0.066 C 
ATOM     28  H   LIG d   1       8.368   7.905  -1.764  0.00  0.00     0.058 H 
ATOM     29  H   LIG d   1       8.408   8.201  -0.010  0.00  0.00     0.058 H 
BRANCH  27  30
ATOM     30  O   LIG d   1       8.848   9.833  -1.199  0.00  0.00    -0.381 OA
BRANCH  30  31
ATOM     31  C   LIG d   1       9.687  10.267  -2.271  0.00  0.00     0.036 C 
ATOM     32  H   LIG d   1      10.081   9.400  -2.798  0.00  0.00     0.052 H 
ATOM     33  H   LIG d   1       9.107  10.880  -2.961  0.00  0.00     0.052 H 
ATOM     34  H   LIG d   1      10.513  10.856  -1.869  0.00  0.00     0.052 H 
ENDBRANCH  30  31
ENDBRANCH  27  30
ENDBRANCH  15  27
ENDBRANCH  10  13
ENDBRANCH   1  10
BRANCH   3  35
ATOM     35  O   LIG d   1      10.100   4.843  -5.832  0.00  0.00    -0.387 OA
ATOM     36  H   LIG d   1      10.580   5.618  -5.512  0.00  0.00     0.210 HD
ENDBRANCH   3  35
BRANCH   7  37
ATOM     37  C   LIG d   1       8.158   0.621  -4.555  0.00  0.00     0.040 C 
ATOM     38  H   LIG d   1       9.135   0.158  -4.417  0.00  0.00     0.049 H 
ATOM     39  H   LIG d   1       7.701   0.239  -5.468  0.00  0.00     0.049 H 
BRANCH  37  40
ATOM     40  N   LIG d   1       7.301   0.306  -3.410  0.00  0.00    -0.312 N 
ATOM     41  C   LIG d   1       5.977   0.131  -3.587  0.00  0.00     0.216 C 
ATOM     42  O   LIG d   1       5.495   0.236  -4.695  0.00  0.00    -0.276 OA
ATOM     43  H   LIG d   1       7.687   0.222  -2.524  0.00  0.00     0.149 HD
BRANCH  41  44
ATOM     44  C   LIG d   1       5.095  -0.194  -2.409  0.00  0.00     0.036 A 
ATOM     45  C   LIG d   1       3.608   0.144  -2.526  0.00  0.00    -0.041 A 
ATOM     46  C   LIG d   1       4.514   0.979  -1.617  0.00  0.00    -0.041 A 
ATOM     47  H   LIG d   1       3.267   0.602  -3.453  0.00  0.00     0.027 H 
ATOM     48  H   LIG d   1       2.899  -0.531  -2.047  0.00  0.00     0.027 H 
ATOM     49  H   LIG d   1       4.402   0.852  -0.540  0.00  0.00     0.027 H 
ATOM     50  H   LIG d   1       4.769   1.985  -1.948  0.00  0.00     0.027 H 
ATOM     51  H   LIG d   1       5.365  -1.092  -1.854  0.00  0.00     0.039 H 
ENDBRANCH  41  44
ENDBRANCH  37  40
ENDBRANCH   7  37
BRANCH   5  52
ATOM     52  O   LIG d   1       9.021   2.805  -6.912  0.00  0.00    -0.387 OA
ATOM     53  H   LIG d   1       9.679   3.231  -7.479  0.00  0.00     0.210 HD
ENDBRANCH   5  52
TORSDOF 10
ENDMDL
MODEL 7
REMARK VINA RESULT:      -5.7      5.303      8.004
REMARK  10 active torsions:
REMARK  status: ('A' for Active; 'I' for Inactive)
REMARK    1  A    between atoms: C_1  and  O_2 
REMARK    2  A    between atoms: O_2  and  C_3 
REMARK    3  A    between atoms: C_3  and  C_4 
REMARK       I    between atoms: N_9  and  C_10 
REMARK    4  A    between atoms: C_10  and  C_12 
REMARK    5  A    between atoms: C_12  and  C_13 
REMARK    6  A    between atoms: C_15  and  O_30 
REMARK    7  A    between atoms: C_17  and  O_29 
REMARK    8  A    between atoms: C_19  and  C_22 
REMARK    9  A    between atoms: C_22  and  N_23 
REMARK       I    between atoms: N_23  and  C_24 
REMARK   10  A    between atoms: C_24  and  C_26 
ROOT
ATOM      1  C   LIG d   1       9.839   3.876  -3.586  0.00  0.00     0.096 C 
ATOM      2  H   LIG d   1       9.380   4.836  -3.820  0.00  0.00     0.063 H 
ATOM      3  C   LIG d   1      10.545   3.299  -4.834  0.00  0.00     0.110 C 
ATOM      4  H   LIG d   1      11.435   2.738  -4.546  0.00  0.00     0.065 H 
ATOM      5  C   LIG d   1       9.492   2.360  -5.461  0.00  0.00     0.111 C 
ATOM      6  H   LIG d   1       9.857   1.333  -5.483  0.00  0.00     0.065 H 
ATOM      7  C   LIG d   1       8.273   2.479  -4.519  0.00  0.00     0.103 C 
ATOM      8  H   LIG d   1       7.573   3.224  -4.896  0.00  0.00     0.064 H 
ATOM      9  O   LIG d   1       8.826   2.902  -3.253  0.00  0.00    -0.366 OA
ENDROOT
BRANCH   1  10
ATOM     10  C   LIG d   1      10.833   4.029  -2.434  0.00  0.00     0.053 C 
ATOM     11  H   LIG d   1      10.590   3.316  -1.647  0.00  0.00     0.038 H 
ATOM     12  H   LIG d   1      11.843   3.838  -2.797  0.00  0.00     0.038 H 
BRANCH  10  13
ATOM     13  C   LIG d   1      10.754   5.431  -1.885  0.00  0.00     0.218 C 
ATOM     14  N   LIG d   1      11.848   6.006  -1.347  0.00  0.00    -0.296 N 
ATOM     15  C   LIG d   1      11.913   7.362  -0.783  0.00  0.00     0.049 C 
ATOM     16  C   LIG d   1      13.178   5.382  -1.232  0.00  0.00     0.015 C 
ATOM     17  H   LIG d   1      11.648   8.094  -1.546  0.00  0.00     0.052 H 
ATOM     18  C   LIG d   1      13.363   7.593  -0.311  0.00  0.00    -0.031 C 
ATOM     19  C   LIG d   1      14.169   6.572  -1.156  0.00  0.00    -0.035 C 
ATOM     20  H   LIG d   1      13.465   7.380   0.753  0.00  0.00     0.028 H 
ATOM     21  H   LIG d   1      13.680   8.613  -0.532  0.00  0.00     0.028 H 
ATOM     22  H   LIG d   1      15.088   6.283  -0.647  0.00  0.00     0.028 H 
ATOM     23  H   LIG d   1      14.381   6.968  -2.149  0.00  0.00     0.028 H 
ATOM     24  H   LIG d   1      13.239   4.781  -0.325  0.00  0.00     0.046 H 
ATOM     25  H   LIG d   1      13.387   4.769  -2.109  0.00  0.00     0.046 H 
ATOM     26  O   LIG d   1       9.707   6.040  -1.928  0.00  0.00    -0.276 OA
BRANCH  15  27
ATOM     27  C   LIG d   1      10.956   7.478   0.407  0.00  0.00     0.066 C 
ATOM     28  H   LIG d   1      10.748   8.529   0.603  0.00  0.00     0.058 H 
ATOM     29  H   LIG d   1      10.026   6.959   0.176  0.00  0.00     0.058 H 
BRANCH  27  30
ATOM     30  O   LIG d   1      11.558   6.887   1.560  0.00  0.00    -0.381 OA
BRANCH  30  31
ATOM     31  C   LIG d   1      10.919   5.687   1.999  0.00  0.00     0.036 C 
ATOM     32  H   LIG d   1      10.967   4.939   1.209  0.00  0.00     0.052 H 
ATOM     33  H   LIG d   1      11.425   5.310   2.888  0.00  0.00     0.052 H 
ATOM     34  H   LIG d   1       9.876   5.898   2.238  0.00  0.00     0.052 H 
ENDBRANCH  30  31
ENDBRANCH  27  30
ENDBRANCH  15  27
ENDBRANCH  10  13
ENDBRANCH   1  10
BRANCH   3  35
ATOM     35  O   LIG d   1      10.888   4.346  -5.745  0.00  0.00    -0.387 OA
ATOM     36  H   LIG d   1      11.446   4.060  -6.479  0.00  0.00     0.210 HD
ENDBRANCH   3  35
BRANCH   7  37
ATOM     37  C   LIG d   1       7.579   1.124  -4.370  0.00  0.00     0.040 C 
ATOM     38  H   LIG d   1       8.268   0.410  -3.920  0.00  0.00     0.049 H 
ATOM     39  H   LIG d   1       7.273   0.763  -5.352  0.00  0.00     0.049 H 
BRANCH  37  40
ATOM     40  N   LIG d   1       6.399   1.270  -3.514  0.00  0.00    -0.312 N 
ATOM     41  C   LIG d   1       5.889   0.197  -2.880  0.00  0.00     0.216 C 
ATOM     42  O   LIG d   1       6.408  -0.891  -3.016  0.00  0.00    -0.276 OA
ATOM     43  H   LIG d   1       5.984   2.141  -3.405  0.00  0.00     0.149 HD
BRANCH  41  44
ATOM     44  C   LIG d   1       4.675   0.348  -1.999  0.00  0.00     0.036 A 
ATOM     45  C   LIG d   1       3.326  -0.082  -2.577  0.00  0.00    -0.041 A 
ATOM     46  C   LIG d   1       3.642   1.405  -2.394  0.00  0.00    -0.041 A 
ATOM     47  H   LIG d   1       3.315  -0.472  -3.594  0.00  0.00     0.027 H 
ATOM     48  H   LIG d   1       2.606  -0.531  -1.894  0.00  0.00     0.027 H 
ATOM     49  H   LIG d   1       3.131   1.934  -1.590  0.00  0.00     0.027 H 
ATOM     50  H   LIG d   1       3.841   1.991  -3.291  0.00  0.00     0.027 H 
ATOM     51  H   LIG d   1       4.843   0.181  -0.935  0.00  0.00     0.039 H 
ENDBRANCH  41  44
ENDBRANCH  37  40
ENDBRANCH   7  37
BRANCH   5  52
ATOM     52  O   LIG d   1       9.151   2.798  -6.778  0.00  0.00    -0.387 OA
ATOM     53  H   LIG d   1       8.962   2.076  -7.395  0.00  0.00     0.210 HD
ENDBRANCH   5  52
TORSDOF 10
ENDMDL
MODEL 8
REMARK VINA RESULT:      -5.7      4.276      8.005
REMARK  10 active torsions:
REMARK  status: ('A' for Active; 'I' for Inactive)
REMARK    1  A    between atoms: C_1  and  O_2 
REMARK    2  A    between atoms: O_2  and  C_3 
REMARK    3  A    between atoms: C_3  and  C_4 
REMARK       I    between atoms: N_9  and  C_10 
REMARK    4  A    between atoms: C_10  and  C_12 
REMARK    5  A    between atoms: C_12  and  C_13 
REMARK    6  A    between atoms: C_15  and  O_30 
REMARK    7  A    between atoms: C_17  and  O_29 
REMARK    8  A    between atoms: C_19  and  C_22 
REMARK    9  A    between atoms: C_22  and  N_23 
REMARK       I    between atoms: N_23  and  C_24 
REMARK   10  A    between atoms: C_24  and  C_26 
ROOT
ATOM      1  C   LIG d   1       3.109  -0.779  -8.794  0.00  0.00     0.096 C 
ATOM      2  H   LIG d   1       3.859  -0.390  -9.483  0.00  0.00     0.063 H 
ATOM      3  C   LIG d   1       3.018   0.116  -7.538  0.00  0.00     0.110 C 
ATOM      4  H   LIG d   1       1.995   0.146  -7.161  0.00  0.00     0.065 H 
ATOM      5  C   LIG d   1       3.950  -0.574  -6.518  0.00  0.00     0.111 C 
ATOM      6  H   LIG d   1       3.391  -0.888  -5.637  0.00  0.00     0.065 H 
ATOM      7  C   LIG d   1       4.495  -1.804  -7.278  0.00  0.00     0.103 C 
ATOM      8  H   LIG d   1       5.458  -1.573  -7.733  0.00  0.00     0.064 H 
ATOM      9  O   LIG d   1       3.507  -2.075  -8.297  0.00  0.00    -0.366 OA
ENDROOT
BRANCH   1  10
ATOM     10  C   LIG d   1       1.747  -0.866  -9.485  0.00  0.00     0.053 C 
ATOM     11  H   LIG d   1       1.133  -1.615  -8.985  0.00  0.00     0.038 H 
ATOM     12  H   LIG d   1       1.251   0.103  -9.435  0.00  0.00     0.038 H 
BRANCH  10  13
ATOM     13  C   LIG d   1       1.940  -1.257 -10.928  0.00  0.00     0.218 C 
ATOM     14  N   LIG d   1       1.536  -2.469 -11.358  0.00  0.00    -0.296 N 
ATOM     15  C   LIG d   1       1.657  -2.975 -12.732  0.00  0.00     0.049 C 
ATOM     16  C   LIG d   1       0.894  -3.504 -10.528  0.00  0.00     0.015 C 
ATOM     17  H   LIG d   1       1.116  -2.322 -13.417  0.00  0.00     0.052 H 
ATOM     18  C   LIG d   1       1.042  -4.389 -12.756  0.00  0.00    -0.031 C 
ATOM     19  C   LIG d   1       0.093  -4.374 -11.530  0.00  0.00    -0.035 C 
ATOM     20  H   LIG d   1       1.812  -5.152 -12.639  0.00  0.00     0.028 H 
ATOM     21  H   LIG d   1       0.480  -4.548 -13.678  0.00  0.00     0.028 H 
ATOM     22  H   LIG d   1      -0.057  -5.381 -11.139  0.00  0.00     0.028 H 
ATOM     23  H   LIG d   1      -0.860  -3.907 -11.779  0.00  0.00     0.028 H 
ATOM     24  H   LIG d   1       1.647  -4.107 -10.021  0.00  0.00     0.046 H 
ATOM     25  H   LIG d   1       0.223  -3.046  -9.801  0.00  0.00     0.046 H 
ATOM     26  O   LIG d   1       2.459  -0.481 -11.703  0.00  0.00    -0.276 OA
BRANCH  15  27
ATOM     27  C   LIG d   1       3.133  -3.045 -13.133  0.00  0.00     0.066 C 
ATOM     28  H   LIG d   1       3.210  -3.287 -14.193  0.00  0.00     0.058 H 
ATOM     29  H   LIG d   1       3.606  -2.082 -12.944  0.00  0.00     0.058 H 
BRANCH  27  30
ATOM     30  O   LIG d   1       3.787  -4.057 -12.365  0.00  0.00    -0.381 OA
BRANCH  30  31
ATOM     31  C   LIG d   1       4.879  -3.575 -11.580  0.00  0.00     0.036 C 
ATOM     32  H   LIG d   1       5.198  -4.352 -10.885  0.00  0.00     0.052 H 
ATOM     33  H   LIG d   1       5.709  -3.311 -12.235  0.00  0.00     0.052 H 
ATOM     34  H   LIG d   1       4.563  -2.694 -11.020  0.00  0.00     0.052 H 
ENDBRANCH  30  31
ENDBRANCH  27  30
ENDBRANCH  15  27
ENDBRANCH  10  13
ENDBRANCH   1  10
BRANCH   3  35
ATOM     35  O   LIG d   1       3.483   1.436  -7.827  0.00  0.00    -0.387 OA
ATOM     36  H   LIG d   1       3.427   1.676  -8.762  0.00  0.00     0.210 HD
ENDBRANCH   3  35
BRANCH   7  37
ATOM     37  C   LIG d   1       4.626  -3.001  -6.333  0.00  0.00     0.040 C 
ATOM     38  H   LIG d   1       5.680  -3.203  -6.147  0.00  0.00     0.049 H 
ATOM     39  H   LIG d   1       4.163  -3.876  -6.791  0.00  0.00     0.049 H 
BRANCH  37  40
ATOM     40  N   LIG d   1       3.955  -2.700  -5.067  0.00  0.00    -0.312 N 
ATOM     41  C   LIG d   1       4.675  -2.570  -3.936  0.00  0.00     0.216 C 
ATOM     42  O   LIG d   1       5.881  -2.702  -3.967  0.00  0.00    -0.276 OA
ATOM     43  H   LIG d   1       2.990  -2.594  -5.042  0.00  0.00     0.149 HD
BRANCH  41  44
ATOM     44  C   LIG d   1       3.985  -2.260  -2.633  0.00  0.00     0.036 A 
ATOM     45  C   LIG d   1       3.024  -1.070  -2.607  0.00  0.00    -0.041 A 
ATOM     46  C   LIG d   1       4.384  -0.972  -1.910  0.00  0.00    -0.041 A 
ATOM     47  H   LIG d   1       2.892  -0.510  -3.533  0.00  0.00     0.027 H 
ATOM     48  H   LIG d   1       2.140  -1.151  -1.976  0.00  0.00     0.027 H 
ATOM     49  H   LIG d   1       4.394  -0.989  -0.821  0.00  0.00     0.027 H 
ATOM     50  H   LIG d   1       5.145  -0.349  -2.378  0.00  0.00     0.027 H 
ATOM     51  H   LIG d   1       3.732  -3.124  -2.018  0.00  0.00     0.039 H 
ENDBRANCH  41  44
ENDBRANCH  37  40
ENDBRANCH   7  37
BRANCH   5  52
ATOM     52  O   LIG d   1       5.020   0.298  -6.147  0.00  0.00    -0.387 OA
ATOM     53  H   LIG d   1       5.888  -0.131  -6.128  0.00  0.00     0.210 HD
ENDBRANCH   5  52
TORSDOF 10
ENDMDL
MODEL 9
REMARK VINA RESULT:      -5.7      1.563      2.317
REMARK  10 active torsions:
REMARK  status: ('A' for Active; 'I' for Inactive)
REMARK    1  A    between atoms: C_1  and  O_2 
REMARK    2  A    between atoms: O_2  and  C_3 
REMARK    3  A    between atoms: C_3  and  C_4 
REMARK       I    between atoms: N_9  and  C_10 
REMARK    4  A    between atoms: C_10  and  C_12 
REMARK    5  A    between atoms: C_12  and  C_13 
REMARK    6  A    between atoms: C_15  and  O_30 
REMARK    7  A    between atoms: C_17  and  O_29 
REMARK    8  A    between atoms: C_19  and  C_22 
REMARK    9  A    between atoms: C_22  and  N_23 
REMARK       I    between atoms: N_23  and  C_24 
REMARK   10  A    between atoms: C_24  and  C_26 
ROOT
ATOM      1  C   LIG d   1       8.256   1.755  -5.114  0.00  0.00     0.096 C 
ATOM      2  H   LIG d   1       8.463   2.817  -4.983  0.00  0.00     0.063 H 
ATOM      3  C   LIG d   1       9.490   1.036  -5.705  0.00  0.00     0.110 C 
ATOM      4  H   LIG d   1       9.562   0.018  -5.318  0.00  0.00     0.065 H 
ATOM      5  C   LIG d   1       9.222   1.019  -7.225  0.00  0.00     0.111 C 
ATOM      6  H   LIG d   1       9.160  -0.005  -7.594  0.00  0.00     0.065 H 
ATOM      7  C   LIG d   1       7.858   1.730  -7.375  0.00  0.00     0.103 C 
ATOM      8  H   LIG d   1       8.004   2.788  -7.592  0.00  0.00     0.064 H 
ATOM      9  O   LIG d   1       7.213   1.563  -6.093  0.00  0.00    -0.366 OA
ENDROOT
BRANCH   1  10
ATOM     10  C   LIG d   1       7.860   1.123  -3.779  0.00  0.00     0.053 C 
ATOM     11  H   LIG d   1       8.734   0.657  -3.323  0.00  0.00     0.038 H 
ATOM     12  H   LIG d   1       7.471   1.893  -3.112  0.00  0.00     0.038 H 
BRANCH  10  13
ATOM     13  C   LIG d   1       6.798   0.079  -4.012  0.00  0.00     0.218 C 
ATOM     14  N   LIG d   1       5.579   0.220  -3.454  0.00  0.00    -0.296 N 
ATOM     15  C   LIG d   1       4.455  -0.715  -3.603  0.00  0.00     0.049 C 
ATOM     16  C   LIG d   1       5.151   1.341  -2.598  0.00  0.00     0.015 C 
ATOM     17  H   LIG d   1       4.191  -0.812  -4.656  0.00  0.00     0.052 H 
ATOM     18  C   LIG d   1       3.266  -0.132  -2.813  0.00  0.00    -0.031 C 
ATOM     19  C   LIG d   1       3.608   1.379  -2.737  0.00  0.00    -0.035 C 
ATOM     20  H   LIG d   1       3.212  -0.565  -1.814  0.00  0.00     0.028 H 
ATOM     21  H   LIG d   1       2.332  -0.290  -3.353  0.00  0.00     0.028 H 
ATOM     22  H   LIG d   1       3.149   1.841  -1.863  0.00  0.00     0.028 H 
ATOM     23  H   LIG d   1       3.311   1.893  -3.651  0.00  0.00     0.028 H 
ATOM     24  H   LIG d   1       5.434   1.157  -1.562  0.00  0.00     0.046 H 
ATOM     25  H   LIG d   1       5.588   2.276  -2.951  0.00  0.00     0.046 H 
ATOM     26  O   LIG d   1       7.041  -0.889  -4.702  0.00  0.00    -0.276 OA
BRANCH  15  27
ATOM     27  C   LIG d   1       4.836  -2.083  -3.032  0.00  0.00     0.066 C 
ATOM     28  H   LIG d   1       5.914  -2.220  -3.106  0.00  0.00     0.058 H 
ATOM     29  H   LIG d   1       4.533  -2.136  -1.986  0.00  0.00     0.058 H 
BRANCH  27  30
ATOM     30  O   LIG d   1       4.173  -3.109  -3.774  0.00  0.00    -0.381 OA
BRANCH  30  31
ATOM     31  C   LIG d   1       4.937  -3.623  -4.865  0.00  0.00     0.036 C 
ATOM     32  H   LIG d   1       5.999  -3.499  -4.656  0.00  0.00     0.052 H 
ATOM     33  H   LIG d   1       4.714  -4.682  -4.998  0.00  0.00     0.052 H 
ATOM     34  H   LIG d   1       4.680  -3.081  -5.776  0.00  0.00     0.052 H 
ENDBRANCH  30  31
ENDBRANCH  27  30
ENDBRANCH  15  27
ENDBRANCH  10  13
ENDBRANCH   1  10
BRANCH   3  35
ATOM     35  O   LIG d   1      10.683   1.767  -5.414  0.00  0.00    -0.387 OA
ATOM     36  H   LIG d   1      11.211   1.388  -4.699  0.00  0.00     0.210 HD
ENDBRANCH   3  35
BRANCH   7  37
ATOM     37  C   LIG d   1       7.030   1.069  -8.478  0.00  0.00     0.040 C 
ATOM     38  H   LIG d   1       7.408   0.064  -8.665  0.00  0.00     0.049 H 
ATOM     39  H   LIG d   1       7.104   1.660  -9.391  0.00  0.00     0.049 H 
BRANCH  37  40
ATOM     40  N   LIG d   1       5.628   0.993  -8.058  0.00  0.00    -0.312 N 
ATOM     41  C   LIG d   1       4.655   1.441  -8.874  0.00  0.00     0.216 C 
ATOM     42  O   LIG d   1       4.939   1.909  -9.957  0.00  0.00    -0.276 OA
ATOM     43  H   LIG d   1       5.401   0.619  -7.192  0.00  0.00     0.149 HD
BRANCH  41  44
ATOM     44  C   LIG d   1       3.213   1.363  -8.442  0.00  0.00     0.036 A 
ATOM     45  C   LIG d   1       2.852   0.335  -7.369  0.00  0.00    -0.041 A 
ATOM     46  C   LIG d   1       2.429   0.105  -8.822  0.00  0.00    -0.041 A 
ATOM     47  H   LIG d   1       3.656  -0.286  -6.975  0.00  0.00     0.027 H 
ATOM     48  H   LIG d   1       2.074   0.605  -6.655  0.00  0.00     0.027 H 
ATOM     49  H   LIG d   1       1.374   0.224  -9.065  0.00  0.00     0.027 H 
ATOM     50  H   LIG d   1       2.957  -0.666  -9.384  0.00  0.00     0.027 H 
ATOM     51  H   LIG d   1       2.673   2.309  -8.435  0.00  0.00     0.039 H 
ENDBRANCH  41  44
ENDBRANCH  37  40
ENDBRANCH   7  37
BRANCH   5  52
ATOM     52  O   LIG d   1      10.240   1.740  -7.922  0.00  0.00    -0.387 OA
ATOM     53  H   LIG d   1      10.643   2.451  -7.403  0.00  0.00     0.210 HD
ENDBRANCH   5  52
TORSDOF 10
ENDMDL
