MODEL 1
REMARK VINA RESULT:      -3.4      0.000      0.000
REMARK  6 active torsions:
REMARK  status: ('A' for Active; 'I' for Inactive)
REMARK    1  A    between atoms: C_1  and  C_2 
REMARK    2  A    between atoms: C_2  and  C_3 
REMARK    3  A    between atoms: C_3  and  O_4 
REMARK    4  A    between atoms: C_3  and  O_6 
REMARK    5  A    between atoms: O_4  and  C_5 
REMARK    6  A    between atoms: O_6  and  C_7 
ROOT
ATOM      1  C   LIG d   1       3.445   0.384  -2.627  0.00  0.00     0.158 C 
ATOM      2  H   LIG d   1       2.811   0.889  -1.898  0.00  0.00     0.091 H 
ENDROOT
BRANCH   1   3
ATOM      3  C   LIG d   1       4.293  -0.675  -1.919  0.00  0.00    -0.004 C 
ATOM      4  H   LIG d   1       5.342  -0.534  -2.181  0.00  0.00     0.031 H 
ATOM      5  H   LIG d   1       4.171  -0.577  -0.841  0.00  0.00     0.031 H 
BRANCH   3   6
ATOM      6  C   LIG d   1       3.841  -2.068  -2.361  0.00  0.00    -0.061 C 
ATOM      7  H   LIG d   1       3.478  -2.623  -1.496  0.00  0.00     0.023 H 
ATOM      8  H   LIG d   1       3.040  -1.975  -3.094  0.00  0.00     0.023 H 
ATOM      9  H   LIG d   1       4.681  -2.600  -2.807  0.00  0.00     0.023 H 
ENDBRANCH   3   6
ENDBRANCH   1   3
BRANCH   1  10
ATOM     10  O   LIG d   1       2.627  -0.243  -3.617  0.00  0.00    -0.354 OA
BRANCH  10  11
ATOM     11  C   LIG d   1       2.492   0.511  -4.822  0.00  0.00     0.039 C 
ATOM     12  H   LIG d   1       3.381   0.375  -5.437  0.00  0.00     0.052 H 
ATOM     13  H   LIG d   1       1.615   0.166  -5.370  0.00  0.00     0.052 H 
ATOM     14  H   LIG d   1       2.376   1.568  -4.580  0.00  0.00     0.052 H 
ENDBRANCH  10  11
ENDBRANCH   1  10
BRANCH   1  15
ATOM     15  O   LIG d   1       4.304   1.339  -3.254  0.00  0.00    -0.354 OA
BRANCH  15  16
ATOM     16  C   LIG d   1       5.692   1.148  -2.971  0.00  0.00     0.039 C 
ATOM     17  H   LIG d   1       6.053   0.270  -3.506  0.00  0.00     0.052 H 
ATOM     18  H   LIG d   1       6.252   2.026  -3.292  0.00  0.00     0.052 H 
ATOM     19  H   LIG d   1       5.828   1.001  -1.900  0.00  0.00     0.052 H 
ENDBRANCH  15  16
ENDBRANCH   1  15
TORSDOF 6
ENDMDL
MODEL 2
REMARK VINA RESULT:      -3.3      1.124      2.734
REMARK  6 active torsions:
REMARK  status: ('A' for Active; 'I' for Inactive)
REMARK    1  A    between atoms: C_1  and  C_2 
REMARK    2  A    between atoms: C_2  and  C_3 
REMARK    3  A    between atoms: C_3  and  O_4 
REMARK    4  A    between atoms: C_3  and  O_6 
REMARK    5  A    between atoms: O_4  and  C_5 
REMARK    6  A    between atoms: O_6  and  C_7 
ROOT
ATOM      1  C   LIG d   1       4.760   0.704  -3.168  0.00  0.00     0.158 C 
ATOM      2  H   LIG d   1       5.036  -0.098  -3.853  0.00  0.00     0.091 H 
ENDROOT
BRANCH   1   3
ATOM      3  C   LIG d   1       4.432   0.112  -1.795  0.00  0.00    -0.004 C 
ATOM      4  H   LIG d   1       5.198   0.409  -1.080  0.00  0.00     0.031 H 
ATOM      5  H   LIG d   1       3.462   0.479  -1.463  0.00  0.00     0.031 H 
BRANCH   3   6
ATOM      6  C   LIG d   1       4.393  -1.414  -1.896  0.00  0.00    -0.061 C 
ATOM      7  H   LIG d   1       3.789  -1.707  -2.754  0.00  0.00     0.023 H 
ATOM      8  H   LIG d   1       5.406  -1.797  -2.018  0.00  0.00     0.023 H 
ATOM      9  H   LIG d   1       3.956  -1.828  -0.987  0.00  0.00     0.023 H 
ENDBRANCH   3   6
ENDBRANCH   1   3
BRANCH   1  10
ATOM     10  O   LIG d   1       5.849   1.621  -3.044  0.00  0.00    -0.354 OA
BRANCH  10  11
ATOM     11  C   LIG d   1       7.054   1.180  -3.672  0.00  0.00     0.039 C 
ATOM     12  H   LIG d   1       6.878   0.225  -4.166  0.00  0.00     0.052 H 
ATOM     13  H   LIG d   1       7.369   1.918  -4.410  0.00  0.00     0.052 H 
ATOM     14  H   LIG d   1       7.835   1.063  -2.920  0.00  0.00     0.052 H 
ENDBRANCH  10  11
ENDBRANCH   1  10
BRANCH   1  15
ATOM     15  O   LIG d   1       3.615   1.391  -3.675  0.00  0.00    -0.354 OA
BRANCH  15  16
ATOM     16  C   LIG d   1       2.775   0.587  -4.507  0.00  0.00     0.039 C 
ATOM     17  H   LIG d   1       3.179   0.567  -5.519  0.00  0.00     0.052 H 
ATOM     18  H   LIG d   1       2.737  -0.428  -4.111  0.00  0.00     0.052 H 
ATOM     19  H   LIG d   1       1.770   1.008  -4.525  0.00  0.00     0.052 H 
ENDBRANCH  15  16
ENDBRANCH   1  15
TORSDOF 6
ENDMDL
MODEL 3
REMARK VINA RESULT:      -3.3      1.438      2.657
REMARK  6 active torsions:
REMARK  status: ('A' for Active; 'I' for Inactive)
REMARK    1  A    between atoms: C_1  and  C_2 
REMARK    2  A    between atoms: C_2  and  C_3 
REMARK    3  A    between atoms: C_3  and  O_4 
REMARK    4  A    between atoms: C_3  and  O_6 
REMARK    5  A    between atoms: O_4  and  C_5 
REMARK    6  A    between atoms: O_6  and  C_7 
ROOT
ATOM      1  C   LIG d   1       3.379  -0.945  -2.980  0.00  0.00     0.158 C 
ATOM      2  H   LIG d   1       2.355  -0.806  -2.630  0.00  0.00     0.091 H 
ENDROOT
BRANCH   1   3
ATOM      3  C   LIG d   1       4.353  -0.643  -1.838  0.00  0.00    -0.004 C 
ATOM      4  H   LIG d   1       3.949  -1.034  -0.904  0.00  0.00     0.031 H 
ATOM      5  H   LIG d   1       5.312  -1.116  -2.045  0.00  0.00     0.031 H 
BRANCH   3   6
ATOM      6  C   LIG d   1       4.543   0.870  -1.718  0.00  0.00    -0.061 C 
ATOM      7  H   LIG d   1       3.768   1.284  -1.074  0.00  0.00     0.023 H 
ATOM      8  H   LIG d   1       5.523   1.080  -1.288  0.00  0.00     0.023 H 
ATOM      9  H   LIG d   1       4.476   1.325  -2.706  0.00  0.00     0.023 H 
ENDBRANCH   3   6
ENDBRANCH   1   3
BRANCH   1  10
ATOM     10  O   LIG d   1       3.555  -2.294  -3.414  0.00  0.00    -0.354 OA
BRANCH  10  11
ATOM     11  C   LIG d   1       4.824  -2.551  -4.016  0.00  0.00     0.039 C 
ATOM     12  H   LIG d   1       5.574  -1.892  -3.579  0.00  0.00     0.052 H 
ATOM     13  H   LIG d   1       5.106  -3.589  -3.841  0.00  0.00     0.052 H 
ATOM     14  H   LIG d   1       4.761  -2.368  -5.089  0.00  0.00     0.052 H 
ENDBRANCH  10  11
ENDBRANCH   1  10
BRANCH   1  15
ATOM     15  O   LIG d   1       3.634  -0.056  -4.070  0.00  0.00    -0.354 OA
BRANCH  15  16
ATOM     16  C   LIG d   1       2.459   0.355  -4.772  0.00  0.00     0.039 C 
ATOM     17  H   LIG d   1       2.489  -0.036  -5.789  0.00  0.00     0.052 H 
ATOM     18  H   LIG d   1       1.577  -0.030  -4.260  0.00  0.00     0.052 H 
ATOM     19  H   LIG d   1       2.416   1.443  -4.803  0.00  0.00     0.052 H 
ENDBRANCH  15  16
ENDBRANCH   1  15
TORSDOF 6
ENDMDL
MODEL 4
REMARK VINA RESULT:      -3.3      1.501      2.534
REMARK  6 active torsions:
REMARK  status: ('A' for Active; 'I' for Inactive)
REMARK    1  A    between atoms: C_1  and  C_2 
REMARK    2  A    between atoms: C_2  and  C_3 
REMARK    3  A    between atoms: C_3  and  O_4 
REMARK    4  A    between atoms: C_3  and  O_6 
REMARK    5  A    between atoms: O_4  and  C_5 
REMARK    6  A    between atoms: O_6  and  C_7 
ROOT
ATOM      1  C   LIG d   1       3.824  -0.973  -3.315  0.00  0.00     0.158 C 
ATOM      2  H   LIG d   1       4.532  -0.535  -4.019  0.00  0.00     0.091 H 
ENDROOT
BRANCH   1   3
ATOM      3  C   LIG d   1       4.281  -0.680  -1.884  0.00  0.00    -0.004 C 
ATOM      4  H   LIG d   1       3.500  -0.978  -1.186  0.00  0.00     0.031 H 
ATOM      5  H   LIG d   1       5.192  -1.240  -1.672  0.00  0.00     0.031 H 
BRANCH   3   6
ATOM      6  C   LIG d   1       4.555   0.818  -1.734  0.00  0.00    -0.061 C 
ATOM      7  H   LIG d   1       3.682   1.305  -1.302  0.00  0.00     0.023 H 
ATOM      8  H   LIG d   1       5.415   0.966  -1.080  0.00  0.00     0.023 H 
ATOM      9  H   LIG d   1       4.765   1.249  -2.712  0.00  0.00     0.023 H 
ENDBRANCH   3   6
ENDBRANCH   1   3
BRANCH   1  10
ATOM     10  O   LIG d   1       2.530  -0.407  -3.528  0.00  0.00    -0.354 OA
BRANCH  10  11
ATOM     11  C   LIG d   1       2.414   0.341  -4.739  0.00  0.00     0.039 C 
ATOM     12  H   LIG d   1       1.399   0.253  -5.125  0.00  0.00     0.052 H 
ATOM     13  H   LIG d   1       2.638   1.389  -4.542  0.00  0.00     0.052 H 
ATOM     14  H   LIG d   1       3.117  -0.049  -5.476  0.00  0.00     0.052 H 
ENDBRANCH  10  11
ENDBRANCH   1  10
BRANCH   1  15
ATOM     15  O   LIG d   1       3.765  -2.387  -3.516  0.00  0.00    -0.354 OA
BRANCH  15  16
ATOM     16  C   LIG d   1       4.845  -2.909  -4.294  0.00  0.00     0.039 C 
ATOM     17  H   LIG d   1       4.445  -3.474  -5.136  0.00  0.00     0.052 H 
ATOM     18  H   LIG d   1       5.456  -2.085  -4.666  0.00  0.00     0.052 H 
ATOM     19  H   LIG d   1       5.456  -3.564  -3.674  0.00  0.00     0.052 H 
ENDBRANCH  15  16
ENDBRANCH   1  15
TORSDOF 6
ENDMDL
MODEL 5
REMARK VINA RESULT:      -3.0      1.054      2.923
REMARK  6 active torsions:
REMARK  status: ('A' for Active; 'I' for Inactive)
REMARK    1  A    between atoms: C_1  and  C_2 
REMARK    2  A    between atoms: C_2  and  C_3 
REMARK    3  A    between atoms: C_3  and  O_4 
REMARK    4  A    between atoms: C_3  and  O_6 
REMARK    5  A    between atoms: O_4  and  C_5 
REMARK    6  A    between atoms: O_6  and  C_7 
ROOT
ATOM      1  C   LIG d   1       3.421   0.294  -2.631  0.00  0.00     0.158 C 
ATOM      2  H   LIG d   1       2.820   0.856  -1.915  0.00  0.00     0.091 H 
ENDROOT
BRANCH   1   3
ATOM      3  C   LIG d   1       2.498  -0.399  -3.637  0.00  0.00    -0.004 C 
ATOM      4  H   LIG d   1       2.912  -1.372  -3.898  0.00  0.00     0.031 H 
ATOM      5  H   LIG d   1       1.511  -0.530  -3.194  0.00  0.00     0.031 H 
BRANCH   3   6
ATOM      6  C   LIG d   1       2.382   0.460  -4.897  0.00  0.00    -0.061 C 
ATOM      7  H   LIG d   1       3.111   0.125  -5.634  0.00  0.00     0.023 H 
ATOM      8  H   LIG d   1       1.378   0.365  -5.310  0.00  0.00     0.023 H 
ATOM      9  H   LIG d   1       2.573   1.503  -4.646  0.00  0.00     0.023 H 
ENDBRANCH   3   6
ENDBRANCH   1   3
BRANCH   1  10
ATOM     10  O   LIG d   1       4.296   1.186  -3.323  0.00  0.00    -0.354 OA
BRANCH  10  11
ATOM     11  C   LIG d   1       5.653   1.128  -2.881  0.00  0.00     0.039 C 
ATOM     12  H   LIG d   1       5.699   0.632  -1.913  0.00  0.00     0.052 H 
ATOM     13  H   LIG d   1       6.247   0.570  -3.605  0.00  0.00     0.052 H 
ATOM     14  H   LIG d   1       6.049   2.140  -2.790  0.00  0.00     0.052 H 
ENDBRANCH  10  11
ENDBRANCH   1  10
BRANCH   1  15
ATOM     15  O   LIG d   1       4.193  -0.689  -1.938  0.00  0.00    -0.354 OA
BRANCH  15  16
ATOM     16  C   LIG d   1       3.911  -2.034  -2.333  0.00  0.00     0.039 C 
ATOM     17  H   LIG d   1       3.038  -2.045  -2.986  0.00  0.00     0.052 H 
ATOM     18  H   LIG d   1       4.769  -2.443  -2.866  0.00  0.00     0.052 H 
ATOM     19  H   LIG d   1       3.710  -2.638  -1.448  0.00  0.00     0.052 H 
ENDBRANCH  15  16
ENDBRANCH   1  15
TORSDOF 6
ENDMDL
MODEL 6
REMARK VINA RESULT:      -3.0      1.872      2.807
REMARK  6 active torsions:
REMARK  status: ('A' for Active; 'I' for Inactive)
REMARK    1  A    between atoms: C_1  and  C_2 
REMARK    2  A    between atoms: C_2  and  C_3 
REMARK    3  A    between atoms: C_3  and  O_4 
REMARK    4  A    between atoms: C_3  and  O_6 
REMARK    5  A    between atoms: O_4  and  C_5 
REMARK    6  A    between atoms: O_6  and  C_7 
ROOT
ATOM      1  C   LIG d   1       3.899  -1.104  -3.091  0.00  0.00     0.158 C 
ATOM      2  H   LIG d   1       4.563  -0.683  -3.847  0.00  0.00     0.091 H 
ENDROOT
BRANCH   1   3
ATOM      3  C   LIG d   1       2.477  -0.587  -3.315  0.00  0.00    -0.004 C 
ATOM      4  H   LIG d   1       1.795  -1.431  -3.412  0.00  0.00     0.031 H 
ATOM      5  H   LIG d   1       2.176   0.029  -2.468  0.00  0.00     0.031 H 
BRANCH   3   6
ATOM      6  C   LIG d   1       2.436   0.251  -4.595  0.00  0.00    -0.061 C 
ATOM      7  H   LIG d   1       1.402   0.500  -4.833  0.00  0.00     0.023 H 
ATOM      8  H   LIG d   1       3.006   1.168  -4.448  0.00  0.00     0.023 H 
ATOM      9  H   LIG d   1       2.870  -0.319  -5.416  0.00  0.00     0.023 H 
ENDBRANCH   3   6
ENDBRANCH   1   3
BRANCH   1  10
ATOM     10  O   LIG d   1       3.910  -2.529  -3.189  0.00  0.00    -0.354 OA
BRANCH  10  11
ATOM     11  C   LIG d   1       4.815  -3.037  -4.170  0.00  0.00     0.039 C 
ATOM     12  H   LIG d   1       4.747  -2.434  -5.075  0.00  0.00     0.052 H 
ATOM     13  H   LIG d   1       5.832  -2.996  -3.781  0.00  0.00     0.052 H 
ATOM     14  H   LIG d   1       4.557  -4.071  -4.402  0.00  0.00     0.052 H 
ENDBRANCH  10  11
ENDBRANCH   1  10
BRANCH   1  15
ATOM     15  O   LIG d   1       4.348  -0.713  -1.792  0.00  0.00    -0.354 OA
BRANCH  15  16
ATOM     16  C   LIG d   1       4.614   0.686  -1.665  0.00  0.00     0.039 C 
ATOM     17  H   LIG d   1       3.673   1.228  -1.573  0.00  0.00     0.052 H 
ATOM     18  H   LIG d   1       5.223   0.861  -0.778  0.00  0.00     0.052 H 
ATOM     19  H   LIG d   1       5.150   1.035  -2.548  0.00  0.00     0.052 H 
ENDBRANCH  15  16
ENDBRANCH   1  15
TORSDOF 6
ENDMDL
MODEL 7
REMARK VINA RESULT:      -3.0      1.688      2.199
REMARK  6 active torsions:
REMARK  status: ('A' for Active; 'I' for Inactive)
REMARK    1  A    between atoms: C_1  and  C_2 
REMARK    2  A    between atoms: C_2  and  C_3 
REMARK    3  A    between atoms: C_3  and  O_4 
REMARK    4  A    between atoms: C_3  and  O_6 
REMARK    5  A    between atoms: O_4  and  C_5 
REMARK    6  A    between atoms: O_6  and  C_7 
ROOT
ATOM      1  C   LIG d   1       5.363  -0.203  -2.908  0.00  0.00     0.158 C 
ATOM      2  H   LIG d   1       6.313  -0.019  -2.406  0.00  0.00     0.091 H 
ENDROOT
BRANCH   1   3
ATOM      3  C   LIG d   1       4.361  -0.782  -1.906  0.00  0.00    -0.004 C 
ATOM      4  H   LIG d   1       4.848  -0.911  -0.940  0.00  0.00     0.031 H 
ATOM      5  H   LIG d   1       3.517  -0.101  -1.801  0.00  0.00     0.031 H 
BRANCH   3   6
ATOM      6  C   LIG d   1       3.862  -2.138  -2.410  0.00  0.00    -0.061 C 
ATOM      7  H   LIG d   1       3.285  -2.627  -1.627  0.00  0.00     0.023 H 
ATOM      8  H   LIG d   1       3.232  -1.990  -3.288  0.00  0.00     0.023 H 
ATOM      9  H   LIG d   1       4.714  -2.763  -2.677  0.00  0.00     0.023 H 
ENDBRANCH   3   6
ENDBRANCH   1   3
BRANCH   1  10
ATOM     10  O   LIG d   1       4.857   1.025  -3.433  0.00  0.00    -0.354 OA
BRANCH  10  11
ATOM     11  C   LIG d   1       3.730   1.541  -2.723  0.00  0.00     0.039 C 
ATOM     12  H   LIG d   1       4.006   2.471  -2.229  0.00  0.00     0.052 H 
ATOM     13  H   LIG d   1       2.915   1.730  -3.423  0.00  0.00     0.052 H 
ATOM     14  H   LIG d   1       3.406   0.815  -1.977  0.00  0.00     0.052 H 
ENDBRANCH  10  11
ENDBRANCH   1  10
BRANCH   1  15
ATOM     15  O   LIG d   1       5.559  -1.133  -3.975  0.00  0.00    -0.354 OA
BRANCH  15  16
ATOM     16  C   LIG d   1       5.873  -0.522  -5.228  0.00  0.00     0.039 C 
ATOM     17  H   LIG d   1       6.818   0.015  -5.144  0.00  0.00     0.052 H 
ATOM     18  H   LIG d   1       5.959  -1.291  -5.996  0.00  0.00     0.052 H 
ATOM     19  H   LIG d   1       5.082   0.177  -5.501  0.00  0.00     0.052 H 
ENDBRANCH  15  16
ENDBRANCH   1  15
TORSDOF 6
ENDMDL
MODEL 8
REMARK VINA RESULT:      -2.7      4.049      5.698
REMARK  6 active torsions:
REMARK  status: ('A' for Active; 'I' for Inactive)
REMARK    1  A    between atoms: C_1  and  C_2 
REMARK    2  A    between atoms: C_2  and  C_3 
REMARK    3  A    between atoms: C_3  and  O_4 
REMARK    4  A    between atoms: C_3  and  O_6 
REMARK    5  A    between atoms: O_4  and  C_5 
REMARK    6  A    between atoms: O_6  and  C_7 
ROOT
ATOM      1  C   LIG d   1       3.154   0.652  -8.005  0.00  0.00     0.158 C 
ATOM      2  H   LIG d   1       4.102   0.317  -8.428  0.00  0.00     0.091 H 
ENDROOT
BRANCH   1   3
ATOM      3  C   LIG d   1       2.753   1.983  -8.645  0.00  0.00    -0.004 C 
ATOM      4  H   LIG d   1       1.996   1.805  -9.408  0.00  0.00     0.031 H 
ATOM      5  H   LIG d   1       2.351   2.647  -7.881  0.00  0.00     0.031 H 
BRANCH   3   6
ATOM      6  C   LIG d   1       3.982   2.629  -9.288  0.00  0.00    -0.061 C 
ATOM      7  H   LIG d   1       4.734   2.820  -8.524  0.00  0.00     0.023 H 
ATOM      8  H   LIG d   1       4.392   1.958 -10.043  0.00  0.00     0.023 H 
ATOM      9  H   LIG d   1       3.694   3.570  -9.757  0.00  0.00     0.023 H 
ENDBRANCH   3   6
ENDBRANCH   1   3
BRANCH   1  10
ATOM     10  O   LIG d   1       2.145  -0.325  -8.264  0.00  0.00    -0.354 OA
BRANCH  10  11
ATOM     11  C   LIG d   1       1.864  -0.518  -9.651  0.00  0.00     0.039 C 
ATOM     12  H   LIG d   1       2.737  -0.944 -10.143  0.00  0.00     0.052 H 
ATOM     13  H   LIG d   1       1.018  -1.196  -9.759  0.00  0.00     0.052 H 
ATOM     14  H   LIG d   1       1.621   0.441 -10.109  0.00  0.00     0.052 H 
ENDBRANCH  10  11
ENDBRANCH   1  10
BRANCH   1  15
ATOM     15  O   LIG d   1       3.297   0.827  -6.594  0.00  0.00    -0.354 OA
BRANCH  15  16
ATOM     16  C   LIG d   1       3.805  -0.323  -5.914  0.00  0.00     0.039 C 
ATOM     17  H   LIG d   1       4.876  -0.408  -6.096  0.00  0.00     0.052 H 
ATOM     18  H   LIG d   1       3.625  -0.221  -4.843  0.00  0.00     0.052 H 
ATOM     19  H   LIG d   1       3.302  -1.216  -6.284  0.00  0.00     0.052 H 
ENDBRANCH  15  16
ENDBRANCH   1  15
TORSDOF 6
ENDMDL
MODEL 9
REMARK VINA RESULT:      -2.6      8.699      9.797
REMARK  6 active torsions:
REMARK  status: ('A' for Active; 'I' for Inactive)
REMARK    1  A    between atoms: C_1  and  C_2 
REMARK    2  A    between atoms: C_2  and  C_3 
REMARK    3  A    between atoms: C_3  and  O_4 
REMARK    4  A    between atoms: C_3  and  O_6 
REMARK    5  A    between atoms: O_4  and  C_5 
REMARK    6  A    between atoms: O_6  and  C_7 
ROOT
ATOM      1  C   LIG d   1       9.804   7.292  -1.168  0.00  0.00     0.158 C 
ATOM      2  H   LIG d   1      10.607   8.020  -1.292  0.00  0.00     0.091 H 
ENDROOT
BRANCH   1   3
ATOM      3  C   LIG d   1       9.608   6.521  -2.475  0.00  0.00    -0.004 C 
ATOM      4  H   LIG d   1       8.544   6.459  -2.703  0.00  0.00     0.031 H 
ATOM      5  H   LIG d   1      10.123   7.039  -3.283  0.00  0.00     0.031 H 
BRANCH   3   6
ATOM      6  C   LIG d   1      10.181   5.110  -2.325  0.00  0.00    -0.061 C 
ATOM      7  H   LIG d   1      11.182   5.077  -2.753  0.00  0.00     0.023 H 
ATOM      8  H   LIG d   1      10.228   4.848  -1.268  0.00  0.00     0.023 H 
ATOM      9  H   LIG d   1       9.540   4.400  -2.847  0.00  0.00     0.023 H 
ENDBRANCH   3   6
ENDBRANCH   1   3
BRANCH   1  10
ATOM     10  O   LIG d   1      10.147   6.380  -0.123  0.00  0.00    -0.354 OA
BRANCH  10  11
ATOM     11  C   LIG d   1      11.084   6.903   0.821  0.00  0.00     0.039 C 
ATOM     12  H   LIG d   1      10.574   7.588   1.497  0.00  0.00     0.052 H 
ATOM     13  H   LIG d   1      11.518   6.083   1.393  0.00  0.00     0.052 H 
ATOM     14  H   LIG d   1      11.874   7.435   0.292  0.00  0.00     0.052 H 
ENDBRANCH  10  11
ENDBRANCH   1  10
BRANCH   1  15
ATOM     15  O   LIG d   1       8.593   7.971  -0.829  0.00  0.00    -0.354 OA
BRANCH  15  16
ATOM     16  C   LIG d   1       8.723   9.393  -0.762  0.00  0.00     0.039 C 
ATOM     17  H   LIG d   1       7.767   9.832  -0.478  0.00  0.00     0.052 H 
ATOM     18  H   LIG d   1       9.478   9.654  -0.019  0.00  0.00     0.052 H 
ATOM     19  H   LIG d   1       9.024   9.777  -1.736  0.00  0.00     0.052 H 
ENDBRANCH  15  16
ENDBRANCH   1  15
TORSDOF 6
ENDMDL
MODEL 10
REMARK VINA RESULT:      -2.5      4.339      6.281
REMARK  6 active torsions:
REMARK  status: ('A' for Active; 'I' for Inactive)
REMARK    1  A    between atoms: C_1  and  C_2 
REMARK    2  A    between atoms: C_2  and  C_3 
REMARK    3  A    between atoms: C_3  and  O_4 
REMARK    4  A    between atoms: C_3  and  O_6 
REMARK    5  A    between atoms: O_4  and  C_5 
REMARK    6  A    between atoms: O_6  and  C_7 
ROOT
ATOM      1  C   LIG d   1       2.973   0.759  -8.024  0.00  0.00     0.158 C 
ATOM      2  H   LIG d   1       2.103   0.492  -7.422  0.00  0.00     0.091 H 
ENDROOT
BRANCH   1   3
ATOM      3  C   LIG d   1       2.838   2.207  -8.499  0.00  0.00    -0.004 C 
ATOM      4  H   LIG d   1       1.950   2.303  -9.123  0.00  0.00     0.031 H 
ATOM      5  H   LIG d   1       2.750   2.866  -7.636  0.00  0.00     0.031 H 
BRANCH   3   6
ATOM      6  C   LIG d   1       4.076   2.594  -9.311  0.00  0.00    -0.061 C 
ATOM      7  H   LIG d   1       3.770   2.946 -10.295  0.00  0.00     0.023 H 
ATOM      8  H   LIG d   1       4.617   3.386  -8.793  0.00  0.00     0.023 H 
ATOM      9  H   LIG d   1       4.724   1.725  -9.422  0.00  0.00     0.023 H 
ENDBRANCH   3   6
ENDBRANCH   1   3
BRANCH   1  10
ATOM     10  O   LIG d   1       4.157   0.622  -7.237  0.00  0.00    -0.354 OA
BRANCH  10  11
ATOM     11  C   LIG d   1       4.186  -0.555  -6.429  0.00  0.00     0.039 C 
ATOM     12  H   LIG d   1       5.118  -0.587  -5.866  0.00  0.00     0.052 H 
ATOM     13  H   LIG d   1       3.344  -0.541  -5.736  0.00  0.00     0.052 H 
ATOM     14  H   LIG d   1       4.116  -1.436  -7.067  0.00  0.00     0.052 H 
ENDBRANCH  10  11
ENDBRANCH   1  10
BRANCH   1  15
ATOM     15  O   LIG d   1       3.051  -0.108  -9.157  0.00  0.00    -0.354 OA
BRANCH  15  16
ATOM     16  C   LIG d   1       1.801  -0.693  -9.529  0.00  0.00     0.039 C 
ATOM     17  H   LIG d   1       1.701  -1.669  -9.053  0.00  0.00     0.052 H 
ATOM     18  H   LIG d   1       0.986  -0.045  -9.206  0.00  0.00     0.052 H 
ATOM     19  H   LIG d   1       1.764  -0.813 -10.612  0.00  0.00     0.052 H 
ENDBRANCH  15  16
ENDBRANCH   1  15
TORSDOF 6
ENDMDL
