MODEL 1
REMARK VINA RESULT:      -6.7      0.000      0.000
REMARK  6 active torsions:
REMARK  status: ('A' for Active; 'I' for Inactive)
REMARK    1  A    between atoms: C_1  and  C_2 
REMARK    2  A    between atoms: C_7  and  C_8 
REMARK    3  A    between atoms: C_15  and  O_19 
REMARK    4  A    between atoms: O_19  and  C_20 
REMARK       I    between atoms: C_20  and  N_22 
REMARK    5  A    between atoms: N_22  and  C_23 
REMARK    6  A    between atoms: N_22  and  C_24 
ROOT
ATOM      1  C   LIG d   1       7.034   0.376  -4.761  0.00  0.00    -0.008 C 
ATOM      2  C   LIG d   1       7.957   1.366  -4.665  0.00  0.00     0.176 A 
ATOM      3  C   LIG d   1       8.858   1.822  -5.736  0.00  0.00     0.232 A 
ATOM      4  O   LIG d   1       8.933   1.403  -6.877  0.00  0.00    -0.283 OA
ATOM      5  C   LIG d   1       9.648   2.903  -5.117  0.00  0.00     0.068 A 
ATOM      6  C   LIG d   1      10.661   3.736  -5.592  0.00  0.00    -0.044 A 
ATOM      7  C   LIG d   1      11.219   4.670  -4.765  0.00  0.00    -0.018 A 
ATOM      8  C   LIG d   1      10.779   4.791  -3.451  0.00  0.00     0.137 A 
ATOM      9  C   LIG d   1       9.777   3.968  -2.964  0.00  0.00     0.024 A 
ATOM     10  C   LIG d   1       9.195   3.017  -3.793  0.00  0.00     0.143 A 
ATOM     11  O   LIG d   1       8.218   2.112  -3.567  0.00  0.00    -0.451 OA
ATOM     12  H   LIG d   1       6.985  -0.231  -5.653  0.00  0.00     0.066 H 
ATOM     13  H   LIG d   1      11.004   3.643  -6.612  0.00  0.00     0.063 H 
ATOM     14  H   LIG d   1      12.005   5.314  -5.133  0.00  0.00     0.065 H 
ATOM     15  H   LIG d   1       9.446   4.067  -1.941  0.00  0.00     0.069 H 
ENDROOT
BRANCH   1  16
ATOM     16  C   LIG d   1       6.102   0.130  -3.653  0.00  0.00    -0.018 A 
ATOM     17  C   LIG d   1       5.800  -1.180  -3.265  0.00  0.00    -0.043 A 
ATOM     18  C   LIG d   1       4.929  -1.402  -2.220  0.00  0.00    -0.058 A 
ATOM     19  C   LIG d   1       4.343  -0.333  -1.562  0.00  0.00    -0.061 A 
ATOM     20  H   LIG d   1       4.698  -2.413  -1.917  0.00  0.00     0.062 H 
ATOM     21  C   LIG d   1       4.632   0.965  -1.944  0.00  0.00    -0.061 A 
ATOM     22  H   LIG d   1       3.658  -0.515  -0.748  0.00  0.00     0.062 H 
ATOM     23  C   LIG d   1       5.506   1.205  -2.983  0.00  0.00    -0.054 A 
ATOM     24  H   LIG d   1       4.172   1.794  -1.426  0.00  0.00     0.062 H 
ATOM     25  H   LIG d   1       5.730   2.220  -3.279  0.00  0.00     0.062 H 
BRANCH  17  26
ATOM     26  C   LIG d   1       6.430  -2.344  -3.984  0.00  0.00    -0.039 C 
ATOM     27  H   LIG d   1       7.459  -2.096  -4.246  0.00  0.00     0.028 H 
ATOM     28  H   LIG d   1       6.422  -3.220  -3.335  0.00  0.00     0.028 H 
ATOM     29  H   LIG d   1       5.866  -2.560  -4.891  0.00  0.00     0.028 H 
ENDBRANCH  17  26
ENDBRANCH   1  16
BRANCH   8  30
ATOM     30  O   LIG d   1      11.340   5.721  -2.636  0.00  0.00    -0.411 OA
BRANCH  30  31
ATOM     31  C   LIG d   1      10.604   6.815  -2.358  0.00  0.00     0.408 C 
ATOM     32  O   LIG d   1      10.223   7.535  -3.260  0.00  0.00    -0.226 OA
ATOM     33  N   LIG d   1      10.294   7.112  -1.081  0.00  0.00    -0.273 N 
BRANCH  33  34
ATOM     34  C   LIG d   1       9.494   8.301  -0.780  0.00  0.00     0.006 C 
ATOM     35  H   LIG d   1      10.099   9.013  -0.217  0.00  0.00     0.043 H 
ATOM     36  H   LIG d   1       9.163   8.763  -1.711  0.00  0.00     0.043 H 
ATOM     37  H   LIG d   1       8.625   8.014  -0.189  0.00  0.00     0.043 H 
ENDBRANCH  33  34
BRANCH  33  38
ATOM     38  C   LIG d   1      10.751   6.241   0.005  0.00  0.00     0.006 C 
ATOM     39  H   LIG d   1      11.023   6.848   0.868  0.00  0.00     0.043 H 
ATOM     40  H   LIG d   1       9.950   5.555   0.281  0.00  0.00     0.043 H 
ATOM     41  H   LIG d   1      11.619   5.672  -0.327  0.00  0.00     0.043 H 
ENDBRANCH  33  38
ENDBRANCH  30  31
ENDBRANCH   8  30
TORSDOF 6
ENDMDL
MODEL 2
REMARK VINA RESULT:      -6.5      6.261     10.735
REMARK  6 active torsions:
REMARK  status: ('A' for Active; 'I' for Inactive)
REMARK    1  A    between atoms: C_1  and  C_2 
REMARK    2  A    between atoms: C_7  and  C_8 
REMARK    3  A    between atoms: C_15  and  O_19 
REMARK    4  A    between atoms: O_19  and  C_20 
REMARK       I    between atoms: C_20  and  N_22 
REMARK    5  A    between atoms: N_22  and  C_23 
REMARK    6  A    between atoms: N_22  and  C_24 
ROOT
ATOM      1  C   LIG d   1       7.175  -1.494  -3.484  0.00  0.00    -0.008 C 
ATOM      2  C   LIG d   1       7.015  -2.670  -4.141  0.00  0.00     0.176 A 
ATOM      3  C   LIG d   1       8.084  -3.611  -4.513  0.00  0.00     0.232 A 
ATOM      4  O   LIG d   1       9.279  -3.504  -4.301  0.00  0.00    -0.283 OA
ATOM      5  C   LIG d   1       7.384  -4.712  -5.200  0.00  0.00     0.068 A 
ATOM      6  C   LIG d   1       7.820  -5.900  -5.787  0.00  0.00    -0.044 A 
ATOM      7  C   LIG d   1       6.915  -6.748  -6.362  0.00  0.00    -0.018 A 
ATOM      8  C   LIG d   1       5.560  -6.427  -6.363  0.00  0.00     0.137 A 
ATOM      9  C   LIG d   1       5.114  -5.249  -5.788  0.00  0.00     0.024 A 
ATOM     10  C   LIG d   1       6.020  -4.379  -5.194  0.00  0.00     0.143 A 
ATOM     11  O   LIG d   1       5.844  -3.191  -4.574  0.00  0.00    -0.451 OA
ATOM     12  H   LIG d   1       8.167  -1.119  -3.282  0.00  0.00     0.066 H 
ATOM     13  H   LIG d   1       8.870  -6.150  -5.787  0.00  0.00     0.063 H 
ATOM     14  H   LIG d   1       7.252  -7.667  -6.818  0.00  0.00     0.065 H 
ATOM     15  H   LIG d   1       4.062  -5.007  -5.798  0.00  0.00     0.069 H 
ENDROOT
BRANCH   1  16
ATOM     16  C   LIG d   1       5.997  -0.730  -3.048  0.00  0.00    -0.018 A 
ATOM     17  C   LIG d   1       5.987   0.665  -3.152  0.00  0.00    -0.043 A 
ATOM     18  C   LIG d   1       4.876   1.374  -2.747  0.00  0.00    -0.058 A 
ATOM     19  C   LIG d   1       3.778   0.710  -2.226  0.00  0.00    -0.061 A 
ATOM     20  H   LIG d   1       4.865   2.451  -2.831  0.00  0.00     0.062 H 
ATOM     21  C   LIG d   1       3.784  -0.669  -2.114  0.00  0.00    -0.061 A 
ATOM     22  H   LIG d   1       2.914   1.273  -1.906  0.00  0.00     0.062 H 
ATOM     23  C   LIG d   1       4.884  -1.393  -2.520  0.00  0.00    -0.054 A 
ATOM     24  H   LIG d   1       2.923  -1.180  -1.707  0.00  0.00     0.062 H 
ATOM     25  H   LIG d   1       4.886  -2.470  -2.432  0.00  0.00     0.062 H 
BRANCH  17  26
ATOM     26  C   LIG d   1       7.183   1.390  -3.712  0.00  0.00    -0.039 C 
ATOM     27  H   LIG d   1       7.203   2.410  -3.326  0.00  0.00     0.028 H 
ATOM     28  H   LIG d   1       8.094   0.872  -3.415  0.00  0.00     0.028 H 
ATOM     29  H   LIG d   1       7.116   1.416  -4.799  0.00  0.00     0.028 H 
ENDBRANCH  17  26
ENDBRANCH   1  16
BRANCH   8  30
ATOM     30  O   LIG d   1       4.669  -7.275  -6.938  0.00  0.00    -0.411 OA
BRANCH  30  31
ATOM     31  C   LIG d   1       4.573  -8.512  -6.411  0.00  0.00     0.408 C 
ATOM     32  O   LIG d   1       4.327  -8.650  -5.229  0.00  0.00    -0.226 OA
ATOM     33  N   LIG d   1       4.751  -9.593  -7.194  0.00  0.00    -0.273 N 
BRANCH  33  34
ATOM     34  C   LIG d   1       4.647 -10.937  -6.620  0.00  0.00     0.006 C 
ATOM     35  H   LIG d   1       5.624 -11.253  -6.254  0.00  0.00     0.043 H 
ATOM     36  H   LIG d   1       3.936 -10.925  -5.793  0.00  0.00     0.043 H 
ATOM     37  H   LIG d   1       4.302 -11.633  -7.385  0.00  0.00     0.043 H 
ENDBRANCH  33  34
BRANCH  33  38
ATOM     38  C   LIG d   1       5.043  -9.426  -8.620  0.00  0.00     0.006 C 
ATOM     39  H   LIG d   1       5.233  -8.374  -8.831  0.00  0.00     0.043 H 
ATOM     40  H   LIG d   1       5.922 -10.014  -8.882  0.00  0.00     0.043 H 
ATOM     41  H   LIG d   1       4.190  -9.766  -9.207  0.00  0.00     0.043 H 
ENDBRANCH  33  38
ENDBRANCH  30  31
ENDBRANCH   8  30
TORSDOF 6
ENDMDL
MODEL 3
REMARK VINA RESULT:      -6.5      5.031      6.427
REMARK  6 active torsions:
REMARK  status: ('A' for Active; 'I' for Inactive)
REMARK    1  A    between atoms: C_1  and  C_2 
REMARK    2  A    between atoms: C_7  and  C_8 
REMARK    3  A    between atoms: C_15  and  O_19 
REMARK    4  A    between atoms: O_19  and  C_20 
REMARK       I    between atoms: C_20  and  N_22 
REMARK    5  A    between atoms: N_22  and  C_23 
REMARK    6  A    between atoms: N_22  and  C_24 
ROOT
ATOM      1  C   LIG d   1       3.022  -0.405  -5.311  0.00  0.00    -0.008 C 
ATOM      2  C   LIG d   1       3.809  -0.200  -6.398  0.00  0.00     0.176 A 
ATOM      3  C   LIG d   1       3.393  -0.310  -7.805  0.00  0.00     0.232 A 
ATOM      4  O   LIG d   1       2.291  -0.599  -8.238  0.00  0.00    -0.283 OA
ATOM      5  C   LIG d   1       4.610   0.009  -8.575  0.00  0.00     0.068 A 
ATOM      6  C   LIG d   1       4.883   0.079  -9.941  0.00  0.00    -0.044 A 
ATOM      7  C   LIG d   1       6.139   0.409 -10.369  0.00  0.00    -0.018 A 
ATOM      8  C   LIG d   1       7.144   0.673  -9.444  0.00  0.00     0.137 A 
ATOM      9  C   LIG d   1       6.889   0.602  -8.084  0.00  0.00     0.024 A 
ATOM     10  C   LIG d   1       5.616   0.274  -7.633  0.00  0.00     0.143 A 
ATOM     11  O   LIG d   1       5.117   0.144  -6.384  0.00  0.00    -0.451 OA
ATOM     12  H   LIG d   1       2.019  -0.785  -5.435  0.00  0.00     0.066 H 
ATOM     13  H   LIG d   1       4.104  -0.126 -10.660  0.00  0.00     0.063 H 
ATOM     14  H   LIG d   1       6.351   0.463 -11.427  0.00  0.00     0.065 H 
ATOM     15  H   LIG d   1       7.677   0.805  -7.375  0.00  0.00     0.069 H 
ENDROOT
BRANCH   1  16
ATOM     16  C   LIG d   1       3.536  -0.112  -3.966  0.00  0.00    -0.018 A 
ATOM     17  C   LIG d   1       4.116  -1.128  -3.198  0.00  0.00    -0.043 A 
ATOM     18  C   LIG d   1       4.601  -0.844  -1.939  0.00  0.00    -0.058 A 
ATOM     19  C   LIG d   1       4.505   0.440  -1.430  0.00  0.00    -0.061 A 
ATOM     20  H   LIG d   1       5.052  -1.626  -1.347  0.00  0.00     0.062 H 
ATOM     21  C   LIG d   1       3.927   1.449  -2.181  0.00  0.00    -0.061 A 
ATOM     22  H   LIG d   1       4.882   0.654  -0.441  0.00  0.00     0.062 H 
ATOM     23  C   LIG d   1       3.442   1.183  -3.444  0.00  0.00    -0.054 A 
ATOM     24  H   LIG d   1       3.855   2.448  -1.777  0.00  0.00     0.062 H 
ATOM     25  H   LIG d   1       2.992   1.972  -4.029  0.00  0.00     0.062 H 
BRANCH  17  26
ATOM     26  C   LIG d   1       4.215  -2.527  -3.747  0.00  0.00    -0.039 C 
ATOM     27  H   LIG d   1       3.656  -2.591  -4.682  0.00  0.00     0.028 H 
ATOM     28  H   LIG d   1       5.261  -2.772  -3.932  0.00  0.00     0.028 H 
ATOM     29  H   LIG d   1       3.799  -3.231  -3.027  0.00  0.00     0.028 H 
ENDBRANCH  17  26
ENDBRANCH   1  16
BRANCH   8  30
ATOM     30  O   LIG d   1       8.389   0.999  -9.878  0.00  0.00    -0.411 OA
BRANCH  30  31
ATOM     31  C   LIG d   1       8.899   2.171  -9.452  0.00  0.00     0.408 C 
ATOM     32  O   LIG d   1       8.310   3.209  -9.684  0.00  0.00    -0.226 OA
ATOM     33  N   LIG d   1      10.061   2.193  -8.771  0.00  0.00    -0.273 N 
BRANCH  33  34
ATOM     34  C   LIG d   1      10.614   3.468  -8.308  0.00  0.00     0.006 C 
ATOM     35  H   LIG d   1       9.805   4.116  -7.973  0.00  0.00     0.043 H 
ATOM     36  H   LIG d   1      11.301   3.286  -7.480  0.00  0.00     0.043 H 
ATOM     37  H   LIG d   1      11.151   3.949  -9.126  0.00  0.00     0.043 H 
ENDBRANCH  33  34
BRANCH  33  38
ATOM     38  C   LIG d   1      10.767   0.941  -8.487  0.00  0.00     0.006 C 
ATOM     39  H   LIG d   1      11.619   0.844  -9.159  0.00  0.00     0.043 H 
ATOM     40  H   LIG d   1      11.118   0.948  -7.455  0.00  0.00     0.043 H 
ATOM     41  H   LIG d   1      10.090   0.101  -8.635  0.00  0.00     0.043 H 
ENDBRANCH  33  38
ENDBRANCH  30  31
ENDBRANCH   8  30
TORSDOF 6
ENDMDL
MODEL 4
REMARK VINA RESULT:      -6.4      1.868      2.440
REMARK  6 active torsions:
REMARK  status: ('A' for Active; 'I' for Inactive)
REMARK    1  A    between atoms: C_1  and  C_2 
REMARK    2  A    between atoms: C_7  and  C_8 
REMARK    3  A    between atoms: C_15  and  O_19 
REMARK    4  A    between atoms: O_19  and  C_20 
REMARK       I    between atoms: C_20  and  N_22 
REMARK    5  A    between atoms: N_22  and  C_23 
REMARK    6  A    between atoms: N_22  and  C_24 
ROOT
ATOM      1  C   LIG d   1       5.616  -0.641  -5.957  0.00  0.00    -0.008 C 
ATOM      2  C   LIG d   1       6.591   0.302  -5.969  0.00  0.00     0.176 A 
ATOM      3  C   LIG d   1       7.328   0.775  -7.153  0.00  0.00     0.232 A 
ATOM      4  O   LIG d   1       7.197   0.412  -8.308  0.00  0.00    -0.283 OA
ATOM      5  C   LIG d   1       8.262   1.788  -6.625  0.00  0.00     0.068 A 
ATOM      6  C   LIG d   1       9.225   2.600  -7.223  0.00  0.00    -0.044 A 
ATOM      7  C   LIG d   1       9.956   3.466  -6.458  0.00  0.00    -0.018 A 
ATOM      8  C   LIG d   1       9.741   3.537  -5.085  0.00  0.00     0.137 A 
ATOM      9  C   LIG d   1       8.791   2.733  -4.477  0.00  0.00     0.024 A 
ATOM     10  C   LIG d   1       8.035   1.852  -5.241  0.00  0.00     0.143 A 
ATOM     11  O   LIG d   1       7.063   0.979  -4.897  0.00  0.00    -0.451 OA
ATOM     12  H   LIG d   1       5.393  -1.198  -6.854  0.00  0.00     0.066 H 
ATOM     13  H   LIG d   1       9.394   2.546  -8.288  0.00  0.00     0.063 H 
ATOM     14  H   LIG d   1      10.703   4.094  -6.921  0.00  0.00     0.065 H 
ATOM     15  H   LIG d   1       8.635   2.793  -3.410  0.00  0.00     0.069 H 
ENDROOT
BRANCH   1  16
ATOM     16  C   LIG d   1       4.864  -0.904  -4.722  0.00  0.00    -0.018 A 
ATOM     17  C   LIG d   1       3.547  -0.452  -4.590  0.00  0.00    -0.043 A 
ATOM     18  C   LIG d   1       2.846  -0.708  -3.431  0.00  0.00    -0.058 A 
ATOM     19  C   LIG d   1       3.448  -1.400  -2.393  0.00  0.00    -0.061 A 
ATOM     20  H   LIG d   1       1.828  -0.363  -3.330  0.00  0.00     0.062 H 
ATOM     21  C   LIG d   1       4.753  -1.845  -2.514  0.00  0.00    -0.061 A 
ATOM     22  H   LIG d   1       2.895  -1.593  -1.486  0.00  0.00     0.062 H 
ATOM     23  C   LIG d   1       5.465  -1.603  -3.668  0.00  0.00    -0.054 A 
ATOM     24  H   LIG d   1       5.215  -2.385  -1.699  0.00  0.00     0.062 H 
ATOM     25  H   LIG d   1       6.483  -1.952  -3.760  0.00  0.00     0.062 H 
BRANCH  17  26
ATOM     26  C   LIG d   1       2.893   0.308  -5.715  0.00  0.00    -0.039 C 
ATOM     27  H   LIG d   1       3.649   0.597  -6.446  0.00  0.00     0.028 H 
ATOM     28  H   LIG d   1       2.147  -0.325  -6.196  0.00  0.00     0.028 H 
ATOM     29  H   LIG d   1       2.411   1.201  -5.319  0.00  0.00     0.028 H 
ENDBRANCH  17  26
ENDBRANCH   1  16
BRANCH   8  30
ATOM     30  O   LIG d   1      10.473   4.400  -4.334  0.00  0.00    -0.411 OA
BRANCH  30  31
ATOM     31  C   LIG d   1       9.824   5.458  -3.810  0.00  0.00     0.408 C 
ATOM     32  O   LIG d   1       9.069   6.110  -4.504  0.00  0.00    -0.226 OA
ATOM     33  N   LIG d   1      10.014   5.794  -2.520  0.00  0.00    -0.273 N 
BRANCH  33  34
ATOM     34  C   LIG d   1       9.308   6.945  -1.951  0.00  0.00     0.006 C 
ATOM     35  H   LIG d   1       8.318   6.636  -1.618  0.00  0.00     0.043 H 
ATOM     36  H   LIG d   1       9.873   7.335  -1.103  0.00  0.00     0.043 H 
ATOM     37  H   LIG d   1       9.212   7.723  -2.709  0.00  0.00     0.043 H 
ENDBRANCH  33  34
BRANCH  33  38
ATOM     38  C   LIG d   1      10.921   5.005  -1.683  0.00  0.00     0.006 C 
ATOM     39  H   LIG d   1      11.209   4.098  -2.214  0.00  0.00     0.043 H 
ATOM     40  H   LIG d   1      11.811   5.592  -1.457  0.00  0.00     0.043 H 
ATOM     41  H   LIG d   1      10.417   4.737  -0.754  0.00  0.00     0.043 H 
ENDBRANCH  33  38
ENDBRANCH  30  31
ENDBRANCH   8  30
TORSDOF 6
ENDMDL
MODEL 5
REMARK VINA RESULT:      -6.4      6.262      9.723
REMARK  6 active torsions:
REMARK  status: ('A' for Active; 'I' for Inactive)
REMARK    1  A    between atoms: C_1  and  C_2 
REMARK    2  A    between atoms: C_7  and  C_8 
REMARK    3  A    between atoms: C_15  and  O_19 
REMARK    4  A    between atoms: O_19  and  C_20 
REMARK       I    between atoms: C_20  and  N_22 
REMARK    5  A    between atoms: N_22  and  C_23 
REMARK    6  A    between atoms: N_22  and  C_24 
ROOT
ATOM      1  C   LIG d   1       5.557  -2.382  -4.394  0.00  0.00    -0.008 C 
ATOM      2  C   LIG d   1       5.034  -2.445  -5.644  0.00  0.00     0.176 A 
ATOM      3  C   LIG d   1       4.994  -3.634  -6.511  0.00  0.00     0.232 A 
ATOM      4  O   LIG d   1       5.414  -4.751  -6.267  0.00  0.00    -0.283 OA
ATOM      5  C   LIG d   1       4.331  -3.168  -7.744  0.00  0.00     0.068 A 
ATOM      6  C   LIG d   1       3.991  -3.799  -8.940  0.00  0.00    -0.044 A 
ATOM      7  C   LIG d   1       3.364  -3.093  -9.929  0.00  0.00    -0.018 A 
ATOM      8  C   LIG d   1       3.065  -1.747  -9.743  0.00  0.00     0.137 A 
ATOM      9  C   LIG d   1       3.401  -1.106  -8.562  0.00  0.00     0.024 A 
ATOM     10  C   LIG d   1       4.033  -1.811  -7.545  0.00  0.00     0.143 A 
ATOM     11  O   LIG d   1       4.455  -1.426  -6.320  0.00  0.00    -0.451 OA
ATOM     12  H   LIG d   1       6.096  -3.227  -3.991  0.00  0.00     0.066 H 
ATOM     13  H   LIG d   1       4.223  -4.844  -9.086  0.00  0.00     0.063 H 
ATOM     14  H   LIG d   1       3.103  -3.581 -10.856  0.00  0.00     0.065 H 
ATOM     15  H   LIG d   1       3.168  -0.060  -8.430  0.00  0.00     0.069 H 
ENDROOT
BRANCH   1  16
ATOM     16  C   LIG d   1       5.391  -1.165  -3.588  0.00  0.00    -0.018 A 
ATOM     17  C   LIG d   1       4.451  -1.128  -2.553  0.00  0.00    -0.043 A 
ATOM     18  C   LIG d   1       4.306   0.016  -1.797  0.00  0.00    -0.058 A 
ATOM     19  C   LIG d   1       5.080   1.132  -2.069  0.00  0.00    -0.061 A 
ATOM     20  H   LIG d   1       3.583   0.043  -0.995  0.00  0.00     0.062 H 
ATOM     21  C   LIG d   1       6.008   1.105  -3.096  0.00  0.00    -0.061 A 
ATOM     22  H   LIG d   1       4.957   2.026  -1.477  0.00  0.00     0.062 H 
ATOM     23  C   LIG d   1       6.169  -0.032  -3.856  0.00  0.00    -0.054 A 
ATOM     24  H   LIG d   1       6.608   1.980  -3.302  0.00  0.00     0.062 H 
ATOM     25  H   LIG d   1       6.895  -0.051  -4.657  0.00  0.00     0.062 H 
BRANCH  17  26
ATOM     26  C   LIG d   1       3.603  -2.339  -2.260  0.00  0.00    -0.039 C 
ATOM     27  H   LIG d   1       3.997  -3.199  -2.803  0.00  0.00     0.028 H 
ATOM     28  H   LIG d   1       3.622  -2.546  -1.190  0.00  0.00     0.028 H 
ATOM     29  H   LIG d   1       2.577  -2.149  -2.575  0.00  0.00     0.028 H 
ENDBRANCH  17  26
ENDBRANCH   1  16
BRANCH   8  30
ATOM     30  O   LIG d   1       2.443  -1.054 -10.731  0.00  0.00    -0.411 OA
BRANCH  30  31
ATOM     31  C   LIG d   1       3.189  -0.706 -11.798  0.00  0.00     0.408 C 
ATOM     32  O   LIG d   1       4.078   0.114 -11.675  0.00  0.00    -0.226 OA
ATOM     33  N   LIG d   1       2.949  -1.265 -13.000  0.00  0.00    -0.273 N 
BRANCH  33  34
ATOM     34  C   LIG d   1       3.760  -0.885 -14.159  0.00  0.00     0.006 C 
ATOM     35  H   LIG d   1       3.106  -0.636 -14.995  0.00  0.00     0.043 H 
ATOM     36  H   LIG d   1       4.373  -0.019 -13.906  0.00  0.00     0.043 H 
ATOM     37  H   LIG d   1       4.406  -1.717 -14.438  0.00  0.00     0.043 H 
ENDBRANCH  33  34
BRANCH  33  38
ATOM     38  C   LIG d   1       1.880  -2.257 -13.146  0.00  0.00     0.006 C 
ATOM     39  H   LIG d   1       2.258  -3.119 -13.695  0.00  0.00     0.043 H 
ATOM     40  H   LIG d   1       1.542  -2.574 -12.160  0.00  0.00     0.043 H 
ATOM     41  H   LIG d   1       1.047  -1.815 -13.692  0.00  0.00     0.043 H 
ENDBRANCH  33  38
ENDBRANCH  30  31
ENDBRANCH   8  30
TORSDOF 6
ENDMDL
MODEL 6
REMARK VINA RESULT:      -6.3      6.535      8.691
REMARK  6 active torsions:
REMARK  status: ('A' for Active; 'I' for Inactive)
REMARK    1  A    between atoms: C_1  and  C_2 
REMARK    2  A    between atoms: C_7  and  C_8 
REMARK    3  A    between atoms: C_15  and  O_19 
REMARK    4  A    between atoms: O_19  and  C_20 
REMARK       I    between atoms: C_20  and  N_22 
REMARK    5  A    between atoms: N_22  and  C_23 
REMARK    6  A    between atoms: N_22  and  C_24 
ROOT
ATOM      1  C   LIG d   1       2.758   0.416  -7.559  0.00  0.00    -0.008 C 
ATOM      2  C   LIG d   1       3.614  -0.105  -6.644  0.00  0.00     0.176 A 
ATOM      3  C   LIG d   1       3.419  -0.126  -5.185  0.00  0.00     0.232 A 
ATOM      4  O   LIG d   1       2.474   0.309  -4.551  0.00  0.00    -0.283 OA
ATOM      5  C   LIG d   1       4.626  -0.795  -4.663  0.00  0.00     0.068 A 
ATOM      6  C   LIG d   1       5.052  -1.124  -3.376  0.00  0.00    -0.044 A 
ATOM      7  C   LIG d   1       6.249  -1.759  -3.196  0.00  0.00    -0.018 A 
ATOM      8  C   LIG d   1       7.042  -2.077  -4.294  0.00  0.00     0.137 A 
ATOM      9  C   LIG d   1       6.634  -1.752  -5.578  0.00  0.00     0.024 A 
ATOM     10  C   LIG d   1       5.417  -1.112  -5.778  0.00  0.00     0.143 A 
ATOM     11  O   LIG d   1       4.801  -0.697  -6.907  0.00  0.00    -0.451 OA
ATOM     12  H   LIG d   1       1.888   0.966  -7.233  0.00  0.00     0.066 H 
ATOM     13  H   LIG d   1       4.438  -0.877  -2.523  0.00  0.00     0.063 H 
ATOM     14  H   LIG d   1       6.580  -2.013  -2.200  0.00  0.00     0.065 H 
ATOM     15  H   LIG d   1       7.259  -2.000  -6.423  0.00  0.00     0.069 H 
ENDROOT
BRANCH   1  16
ATOM     16  C   LIG d   1       3.015   0.232  -8.994  0.00  0.00    -0.018 A 
ATOM     17  C   LIG d   1       3.575   1.270  -9.747  0.00  0.00    -0.043 A 
ATOM     18  C   LIG d   1       3.819   1.088 -11.092  0.00  0.00    -0.058 A 
ATOM     19  C   LIG d   1       3.500  -0.115 -11.700  0.00  0.00    -0.061 A 
ATOM     20  H   LIG d   1       4.255   1.887 -11.673  0.00  0.00     0.062 H 
ATOM     21  C   LIG d   1       2.939  -1.144 -10.963  0.00  0.00    -0.061 A 
ATOM     22  H   LIG d   1       3.688  -0.249 -12.755  0.00  0.00     0.062 H 
ATOM     23  C   LIG d   1       2.695  -0.980  -9.617  0.00  0.00    -0.054 A 
ATOM     24  H   LIG d   1       2.694  -2.079 -11.445  0.00  0.00     0.062 H 
ATOM     25  H   LIG d   1       2.258  -1.785  -9.043  0.00  0.00     0.062 H 
BRANCH  17  26
ATOM     26  C   LIG d   1       3.916   2.581  -9.089  0.00  0.00    -0.039 C 
ATOM     27  H   LIG d   1       3.226   2.765  -8.265  0.00  0.00     0.028 H 
ATOM     28  H   LIG d   1       4.936   2.542  -8.706  0.00  0.00     0.028 H 
ATOM     29  H   LIG d   1       3.833   3.387  -9.818  0.00  0.00     0.028 H 
ENDBRANCH  17  26
ENDBRANCH   1  16
BRANCH   8  30
ATOM     30  O   LIG d   1       8.230  -2.708  -4.106  0.00  0.00    -0.411 OA
BRANCH  30  31
ATOM     31  C   LIG d   1       8.237  -4.050  -4.224  0.00  0.00     0.408 C 
ATOM     32  O   LIG d   1       7.400  -4.602  -4.911  0.00  0.00    -0.226 OA
ATOM     33  N   LIG d   1       9.169  -4.779  -3.581  0.00  0.00    -0.273 N 
BRANCH  33  34
ATOM     34  C   LIG d   1       9.175  -6.238  -3.710  0.00  0.00     0.006 C 
ATOM     35  H   LIG d   1       8.854  -6.515  -4.714  0.00  0.00     0.043 H 
ATOM     36  H   LIG d   1      10.184  -6.614  -3.533  0.00  0.00     0.043 H 
ATOM     37  H   LIG d   1       8.494  -6.670  -2.977  0.00  0.00     0.043 H 
ENDBRANCH  33  34
BRANCH  33  38
ATOM     38  C   LIG d   1      10.181  -4.112  -2.757  0.00  0.00     0.006 C 
ATOM     39  H   LIG d   1      11.035  -3.842  -3.378  0.00  0.00     0.043 H 
ATOM     40  H   LIG d   1       9.754  -3.211  -2.316  0.00  0.00     0.043 H 
ATOM     41  H   LIG d   1      10.505  -4.786  -1.965  0.00  0.00     0.043 H 
ENDBRANCH  33  38
ENDBRANCH  30  31
ENDBRANCH   8  30
TORSDOF 6
ENDMDL
MODEL 7
REMARK VINA RESULT:      -6.3      1.577      1.887
REMARK  6 active torsions:
REMARK  status: ('A' for Active; 'I' for Inactive)
REMARK    1  A    between atoms: C_1  and  C_2 
REMARK    2  A    between atoms: C_7  and  C_8 
REMARK    3  A    between atoms: C_15  and  O_19 
REMARK    4  A    between atoms: O_19  and  C_20 
REMARK       I    between atoms: C_20  and  N_22 
REMARK    5  A    between atoms: N_22  and  C_23 
REMARK    6  A    between atoms: N_22  and  C_24 
ROOT
ATOM      1  C   LIG d   1       5.679  -0.563  -5.855  0.00  0.00    -0.008 C 
ATOM      2  C   LIG d   1       6.663   0.367  -5.773  0.00  0.00     0.176 A 
ATOM      3  C   LIG d   1       7.498   0.851  -6.885  0.00  0.00     0.232 A 
ATOM      4  O   LIG d   1       7.455   0.510  -8.054  0.00  0.00    -0.283 OA
ATOM      5  C   LIG d   1       8.398   1.842  -6.266  0.00  0.00     0.068 A 
ATOM      6  C   LIG d   1       9.415   2.652  -6.770  0.00  0.00    -0.044 A 
ATOM      7  C   LIG d   1      10.093   3.495  -5.934  0.00  0.00    -0.018 A 
ATOM      8  C   LIG d   1       9.770   3.545  -4.582  0.00  0.00     0.137 A 
ATOM      9  C   LIG d   1       8.765   2.743  -4.066  0.00  0.00     0.024 A 
ATOM     10  C   LIG d   1       8.062   1.885  -4.904  0.00  0.00     0.143 A 
ATOM     11  O   LIG d   1       7.056   1.019  -4.654  0.00  0.00    -0.451 OA
ATOM     12  H   LIG d   1       5.522  -1.103  -6.777  0.00  0.00     0.066 H 
ATOM     13  H   LIG d   1       9.667   2.614  -7.820  0.00  0.00     0.063 H 
ATOM     14  H   LIG d   1      10.882   4.121  -6.324  0.00  0.00     0.065 H 
ATOM     15  H   LIG d   1       8.525   2.786  -3.014  0.00  0.00     0.069 H 
ENDROOT
BRANCH   1  16
ATOM     16  C   LIG d   1       4.828  -0.838  -4.689  0.00  0.00    -0.018 A 
ATOM     17  C   LIG d   1       5.211  -1.803  -3.751  0.00  0.00    -0.043 A 
ATOM     18  C   LIG d   1       4.410  -2.051  -2.656  0.00  0.00    -0.058 A 
ATOM     19  C   LIG d   1       3.223  -1.357  -2.491  0.00  0.00    -0.061 A 
ATOM     20  H   LIG d   1       4.706  -2.793  -1.929  0.00  0.00     0.062 H 
ATOM     21  C   LIG d   1       2.835  -0.405  -3.418  0.00  0.00    -0.061 A 
ATOM     22  H   LIG d   1       2.598  -1.559  -1.634  0.00  0.00     0.062 H 
ATOM     23  C   LIG d   1       3.627  -0.141  -4.514  0.00  0.00    -0.054 A 
ATOM     24  H   LIG d   1       1.908   0.133  -3.282  0.00  0.00     0.062 H 
ATOM     25  H   LIG d   1       3.323   0.602  -5.237  0.00  0.00     0.062 H 
BRANCH  17  26
ATOM     26  C   LIG d   1       6.498  -2.565  -3.933  0.00  0.00    -0.039 C 
ATOM     27  H   LIG d   1       6.514  -3.021  -4.924  0.00  0.00     0.028 H 
ATOM     28  H   LIG d   1       7.341  -1.883  -3.834  0.00  0.00     0.028 H 
ATOM     29  H   LIG d   1       6.569  -3.345  -3.174  0.00  0.00     0.028 H 
ENDBRANCH  17  26
ENDBRANCH   1  16
BRANCH   8  30
ATOM     30  O   LIG d   1      10.449   4.385  -3.759  0.00  0.00    -0.411 OA
BRANCH  30  31
ATOM     31  C   LIG d   1       9.820   5.516  -3.383  0.00  0.00     0.408 C 
ATOM     32  O   LIG d   1       9.098   6.097  -4.168  0.00  0.00    -0.226 OA
ATOM     33  N   LIG d   1       9.993   6.002  -2.139  0.00  0.00    -0.273 N 
BRANCH  33  34
ATOM     34  C   LIG d   1       9.310   7.231  -1.731  0.00  0.00     0.006 C 
ATOM     35  H   LIG d   1       9.383   7.347  -0.650  0.00  0.00     0.043 H 
ATOM     36  H   LIG d   1       9.777   8.087  -2.222  0.00  0.00     0.043 H 
ATOM     37  H   LIG d   1       8.260   7.177  -2.021  0.00  0.00     0.043 H 
ENDBRANCH  33  34
BRANCH  33  38
ATOM     38  C   LIG d   1      10.861   5.297  -1.191  0.00  0.00     0.006 C 
ATOM     39  H   LIG d   1      11.571   4.679  -1.739  0.00  0.00     0.043 H 
ATOM     40  H   LIG d   1      11.402   6.023  -0.585  0.00  0.00     0.043 H 
ATOM     41  H   LIG d   1      10.253   4.665  -0.544  0.00  0.00     0.043 H 
ENDBRANCH  33  38
ENDBRANCH  30  31
ENDBRANCH   8  30
TORSDOF 6
ENDMDL
MODEL 8
REMARK VINA RESULT:      -6.0      2.864      7.238
REMARK  6 active torsions:
REMARK  status: ('A' for Active; 'I' for Inactive)
REMARK    1  A    between atoms: C_1  and  C_2 
REMARK    2  A    between atoms: C_7  and  C_8 
REMARK    3  A    between atoms: C_15  and  O_19 
REMARK    4  A    between atoms: O_19  and  C_20 
REMARK       I    between atoms: C_20  and  N_22 
REMARK    5  A    between atoms: N_22  and  C_23 
REMARK    6  A    between atoms: N_22  and  C_24 
ROOT
ATOM      1  C   LIG d   1      11.022   4.188  -3.637  0.00  0.00    -0.008 C 
ATOM      2  C   LIG d   1      10.228   3.115  -3.883  0.00  0.00     0.176 A 
ATOM      3  C   LIG d   1      10.570   1.954  -4.721  0.00  0.00     0.232 A 
ATOM      4  O   LIG d   1      11.606   1.751  -5.329  0.00  0.00    -0.283 OA
ATOM      5  C   LIG d   1       9.377   1.089  -4.657  0.00  0.00     0.068 A 
ATOM      6  C   LIG d   1       9.062  -0.145  -5.224  0.00  0.00    -0.044 A 
ATOM      7  C   LIG d   1       7.845  -0.718  -4.979  0.00  0.00    -0.018 A 
ATOM      8  C   LIG d   1       6.921  -0.071  -4.165  0.00  0.00     0.137 A 
ATOM      9  C   LIG d   1       7.217   1.158  -3.598  0.00  0.00     0.024 A 
ATOM     10  C   LIG d   1       8.452   1.751  -3.833  0.00  0.00     0.143 A 
ATOM     11  O   LIG d   1       8.978   2.919  -3.404  0.00  0.00    -0.451 OA
ATOM     12  H   LIG d   1      11.960   4.296  -4.161  0.00  0.00     0.066 H 
ATOM     13  H   LIG d   1       9.778  -0.649  -5.857  0.00  0.00     0.063 H 
ATOM     14  H   LIG d   1       7.601  -1.673  -5.419  0.00  0.00     0.065 H 
ATOM     15  H   LIG d   1       6.491   1.654  -2.971  0.00  0.00     0.069 H 
ENDROOT
BRANCH   1  16
ATOM     16  C   LIG d   1      10.604   5.203  -2.660  0.00  0.00    -0.018 A 
ATOM     17  C   LIG d   1       9.786   6.266  -3.057  0.00  0.00    -0.043 A 
ATOM     18  C   LIG d   1       9.393   7.211  -2.132  0.00  0.00    -0.058 A 
ATOM     19  C   LIG d   1       9.818   7.116  -0.817  0.00  0.00    -0.061 A 
ATOM     20  H   LIG d   1       8.758   8.030  -2.436  0.00  0.00     0.062 H 
ATOM     21  C   LIG d   1      10.632   6.070  -0.420  0.00  0.00    -0.061 A 
ATOM     22  H   LIG d   1       9.511   7.862  -0.100  0.00  0.00     0.062 H 
ATOM     23  C   LIG d   1      11.028   5.114  -1.329  0.00  0.00    -0.054 A 
ATOM     24  H   LIG d   1      10.959   6.003   0.609  0.00  0.00     0.062 H 
ATOM     25  H   LIG d   1      11.664   4.299  -1.016  0.00  0.00     0.062 H 
BRANCH  17  26
ATOM     26  C   LIG d   1       9.329   6.375  -4.488  0.00  0.00    -0.039 C 
ATOM     27  H   LIG d   1       8.827   7.332  -4.637  0.00  0.00     0.028 H 
ATOM     28  H   LIG d   1      10.192   6.311  -5.151  0.00  0.00     0.028 H 
ATOM     29  H   LIG d   1       8.637   5.563  -4.712  0.00  0.00     0.028 H 
ENDBRANCH  17  26
ENDBRANCH   1  16
BRANCH   8  30
ATOM     30  O   LIG d   1       5.714  -0.647  -3.927  0.00  0.00    -0.411 OA
BRANCH  30  31
ATOM     31  C   LIG d   1       4.670  -0.202  -4.653  0.00  0.00     0.408 C 
ATOM     32  O   LIG d   1       4.771  -0.094  -5.858  0.00  0.00    -0.226 OA
ATOM     33  N   LIG d   1       3.515   0.125  -4.041  0.00  0.00    -0.273 N 
BRANCH  33  34
ATOM     34  C   LIG d   1       2.380   0.610  -4.830  0.00  0.00     0.006 C 
ATOM     35  H   LIG d   1       2.265   1.683  -4.680  0.00  0.00     0.043 H 
ATOM     36  H   LIG d   1       2.559   0.407  -5.886  0.00  0.00     0.043 H 
ATOM     37  H   LIG d   1       1.471   0.099  -4.511  0.00  0.00     0.043 H 
ENDBRANCH  33  34
BRANCH  33  38
ATOM     38  C   LIG d   1       3.392  -0.010  -2.587  0.00  0.00     0.006 C 
ATOM     39  H   LIG d   1       2.379   0.249  -2.282  0.00  0.00     0.043 H 
ATOM     40  H   LIG d   1       3.606  -1.039  -2.299  0.00  0.00     0.043 H 
ATOM     41  H   LIG d   1       4.100   0.659  -2.099  0.00  0.00     0.043 H 
ENDBRANCH  33  38
ENDBRANCH  30  31
ENDBRANCH   8  30
TORSDOF 6
ENDMDL
MODEL 9
REMARK VINA RESULT:      -5.9      3.036      4.409
REMARK  6 active torsions:
REMARK  status: ('A' for Active; 'I' for Inactive)
REMARK    1  A    between atoms: C_1  and  C_2 
REMARK    2  A    between atoms: C_7  and  C_8 
REMARK    3  A    between atoms: C_15  and  O_19 
REMARK    4  A    between atoms: O_19  and  C_20 
REMARK       I    between atoms: C_20  and  N_22 
REMARK    5  A    between atoms: N_22  and  C_23 
REMARK    6  A    between atoms: N_22  and  C_24 
ROOT
ATOM      1  C   LIG d   1       4.449  -0.955  -6.232  0.00  0.00    -0.008 C 
ATOM      2  C   LIG d   1       5.435  -0.209  -6.792  0.00  0.00     0.176 A 
ATOM      3  C   LIG d   1       5.615   0.057  -8.229  0.00  0.00     0.232 A 
ATOM      4  O   LIG d   1       4.926  -0.336  -9.153  0.00  0.00    -0.283 OA
ATOM      5  C   LIG d   1       6.818   0.907  -8.298  0.00  0.00     0.068 A 
ATOM      6  C   LIG d   1       7.511   1.495  -9.356  0.00  0.00    -0.044 A 
ATOM      7  C   LIG d   1       8.622   2.251  -9.106  0.00  0.00    -0.018 A 
ATOM      8  C   LIG d   1       9.063   2.434  -7.799  0.00  0.00     0.137 A 
ATOM      9  C   LIG d   1       8.389   1.851  -6.739  0.00  0.00     0.024 A 
ATOM     10  C   LIG d   1       7.254   1.085  -6.975  0.00  0.00     0.143 A 
ATOM     11  O   LIG d   1       6.430   0.425  -6.131  0.00  0.00    -0.451 OA
ATOM     12  H   LIG d   1       3.768  -1.509  -6.861  0.00  0.00     0.066 H 
ATOM     13  H   LIG d   1       7.170   1.354 -10.371  0.00  0.00     0.063 H 
ATOM     14  H   LIG d   1       9.159   2.706  -9.926  0.00  0.00     0.065 H 
ATOM     15  H   LIG d   1       8.742   1.995  -5.729  0.00  0.00     0.069 H 
ENDROOT
BRANCH   1  16
ATOM     16  C   LIG d   1       4.308  -1.010  -4.771  0.00  0.00    -0.018 A 
ATOM     17  C   LIG d   1       3.334  -0.238  -4.128  0.00  0.00    -0.043 A 
ATOM     18  C   LIG d   1       3.204  -0.300  -2.757  0.00  0.00    -0.058 A 
ATOM     19  C   LIG d   1       4.044  -1.113  -2.015  0.00  0.00    -0.061 A 
ATOM     20  H   LIG d   1       2.450   0.292  -2.260  0.00  0.00     0.062 H 
ATOM     21  C   LIG d   1       5.015  -1.874  -2.643  0.00  0.00    -0.061 A 
ATOM     22  H   LIG d   1       3.941  -1.153  -0.941  0.00  0.00     0.062 H 
ATOM     23  C   LIG d   1       5.153  -1.829  -4.013  0.00  0.00    -0.054 A 
ATOM     24  H   LIG d   1       5.666  -2.507  -2.056  0.00  0.00     0.062 H 
ATOM     25  H   LIG d   1       5.911  -2.424  -4.501  0.00  0.00     0.062 H 
BRANCH  17  26
ATOM     26  C   LIG d   1       2.424   0.653  -4.933  0.00  0.00    -0.039 C 
ATOM     27  H   LIG d   1       2.430   1.657  -4.509  0.00  0.00     0.028 H 
ATOM     28  H   LIG d   1       2.773   0.692  -5.965  0.00  0.00     0.028 H 
ATOM     29  H   LIG d   1       1.410   0.254  -4.908  0.00  0.00     0.028 H 
ENDBRANCH  17  26
ENDBRANCH   1  16
BRANCH   8  30
ATOM     30  O   LIG d   1      10.169   3.185  -7.562  0.00  0.00    -0.411 OA
BRANCH  30  31
ATOM     31  C   LIG d   1       9.971   4.442  -7.118  0.00  0.00     0.408 C 
ATOM     32  O   LIG d   1       9.428   5.260  -7.834  0.00  0.00    -0.226 OA
ATOM     33  N   LIG d   1      10.376   4.791  -5.881  0.00  0.00    -0.273 N 
BRANCH  33  34
ATOM     34  C   LIG d   1      10.161   6.158  -5.400  0.00  0.00     0.006 C 
ATOM     35  H   LIG d   1      10.591   6.866  -6.109  0.00  0.00     0.043 H 
ATOM     36  H   LIG d   1       9.091   6.345  -5.303  0.00  0.00     0.043 H 
ATOM     37  H   LIG d   1      10.640   6.280  -4.428  0.00  0.00     0.043 H 
ENDBRANCH  33  34
BRANCH  33  38
ATOM     38  C   LIG d   1      11.027   3.803  -5.017  0.00  0.00     0.006 C 
ATOM     39  H   LIG d   1      12.054   3.653  -5.346  0.00  0.00     0.043 H 
ATOM     40  H   LIG d   1      11.023   4.163  -3.988  0.00  0.00     0.043 H 
ATOM     41  H   LIG d   1      10.485   2.859  -5.074  0.00  0.00     0.043 H 
ENDBRANCH  33  38
ENDBRANCH  30  31
ENDBRANCH   8  30
TORSDOF 6
ENDMDL
MODEL 10
REMARK VINA RESULT:      -5.8      6.309     10.545
REMARK  6 active torsions:
REMARK  status: ('A' for Active; 'I' for Inactive)
REMARK    1  A    between atoms: C_1  and  C_2 
REMARK    2  A    between atoms: C_7  and  C_8 
REMARK    3  A    between atoms: C_15  and  O_19 
REMARK    4  A    between atoms: O_19  and  C_20 
REMARK       I    between atoms: C_20  and  N_22 
REMARK    5  A    between atoms: N_22  and  C_23 
REMARK    6  A    between atoms: N_22  and  C_24 
ROOT
ATOM      1  C   LIG d   1       6.762  -2.279  -3.668  0.00  0.00    -0.008 C 
ATOM      2  C   LIG d   1       6.376  -2.908  -4.807  0.00  0.00     0.176 A 
ATOM      3  C   LIG d   1       7.013  -4.092  -5.405  0.00  0.00     0.232 A 
ATOM      4  O   LIG d   1       7.980  -4.707  -4.993  0.00  0.00    -0.283 OA
ATOM      5  C   LIG d   1       6.216  -4.368  -6.615  0.00  0.00     0.068 A 
ATOM      6  C   LIG d   1       6.297  -5.343  -7.609  0.00  0.00    -0.044 A 
ATOM      7  C   LIG d   1       5.395  -5.347  -8.635  0.00  0.00    -0.018 A 
ATOM      8  C   LIG d   1       4.396  -4.380  -8.690  0.00  0.00     0.137 A 
ATOM      9  C   LIG d   1       4.305  -3.402  -7.713  0.00  0.00     0.024 A 
ATOM     10  C   LIG d   1       5.212  -3.387  -6.659  0.00  0.00     0.143 A 
ATOM     11  O   LIG d   1       5.335  -2.560  -5.599  0.00  0.00    -0.451 OA
ATOM     12  H   LIG d   1       7.675  -2.573  -3.173  0.00  0.00     0.066 H 
ATOM     13  H   LIG d   1       7.073  -6.094  -7.568  0.00  0.00     0.063 H 
ATOM     14  H   LIG d   1       5.458  -6.101  -9.406  0.00  0.00     0.065 H 
ATOM     15  H   LIG d   1       3.529  -2.653  -7.767  0.00  0.00     0.069 H 
ENDROOT
BRANCH   1  16
ATOM     16  C   LIG d   1       5.939  -1.196  -3.111  0.00  0.00    -0.018 A 
ATOM     17  C   LIG d   1       6.308   0.139  -3.303  0.00  0.00    -0.043 A 
ATOM     18  C   LIG d   1       5.527   1.149  -2.782  0.00  0.00    -0.058 A 
ATOM     19  C   LIG d   1       4.386   0.843  -2.059  0.00  0.00    -0.061 A 
ATOM     20  H   LIG d   1       5.809   2.180  -2.933  0.00  0.00     0.062 H 
ATOM     21  C   LIG d   1       4.018  -0.476  -1.860  0.00  0.00    -0.061 A 
ATOM     22  H   LIG d   1       3.782   1.639  -1.650  0.00  0.00     0.062 H 
ATOM     23  C   LIG d   1       4.784  -1.497  -2.379  0.00  0.00    -0.054 A 
ATOM     24  H   LIG d   1       3.125  -0.706  -1.295  0.00  0.00     0.062 H 
ATOM     25  H   LIG d   1       4.494  -2.526  -2.223  0.00  0.00     0.062 H 
BRANCH  17  26
ATOM     26  C   LIG d   1       7.553   0.474  -4.082  0.00  0.00    -0.039 C 
ATOM     27  H   LIG d   1       8.298  -0.310  -3.932  0.00  0.00     0.028 H 
ATOM     28  H   LIG d   1       7.311   0.545  -5.142  0.00  0.00     0.028 H 
ATOM     29  H   LIG d   1       7.954   1.426  -3.736  0.00  0.00     0.028 H 
ENDBRANCH  17  26
ENDBRANCH   1  16
BRANCH   8  30
ATOM     30  O   LIG d   1       3.504  -4.391  -9.714  0.00  0.00    -0.411 OA
BRANCH  30  31
ATOM     31  C   LIG d   1       2.872  -5.555  -9.963  0.00  0.00     0.408 C 
ATOM     32  O   LIG d   1       2.196  -6.075  -9.098  0.00  0.00    -0.226 OA
ATOM     33  N   LIG d   1       2.992  -6.142 -11.169  0.00  0.00    -0.273 N 
BRANCH  33  34
ATOM     34  C   LIG d   1       2.306  -7.408 -11.439  0.00  0.00     0.006 C 
ATOM     35  H   LIG d   1       2.789  -7.913 -12.275  0.00  0.00     0.043 H 
ATOM     36  H   LIG d   1       2.354  -8.043 -10.553  0.00  0.00     0.043 H 
ATOM     37  H   LIG d   1       1.263  -7.210 -11.686  0.00  0.00     0.043 H 
ENDBRANCH  33  34
BRANCH  33  38
ATOM     38  C   LIG d   1       3.804  -5.512 -12.214  0.00  0.00     0.006 C 
ATOM     39  H   LIG d   1       3.498  -4.474 -12.335  0.00  0.00     0.043 H 
ATOM     40  H   LIG d   1       4.855  -5.550 -11.929  0.00  0.00     0.043 H 
ATOM     41  H   LIG d   1       3.663  -6.045 -13.154  0.00  0.00     0.043 H 
ENDBRANCH  33  38
ENDBRANCH  30  31
ENDBRANCH   8  30
TORSDOF 6
ENDMDL
