MODEL 1
REMARK VINA RESULT:      -6.4      0.000      0.000
REMARK  13 active torsions:
REMARK  status: ('A' for Active; 'I' for Inactive)
REMARK    1  A    between atoms: C_1  and  C_2 
REMARK    2  A    between atoms: C_2  and  C_32 
REMARK    3  A    between atoms: C_4  and  C_9 
REMARK    4  A    between atoms: C_9  and  C_11 
REMARK    5  A    between atoms: C_9  and  C_24 
REMARK    6  A    between atoms: C_11  and  C_12 
REMARK    7  A    between atoms: C_12  and  N_13 
REMARK    8  A    between atoms: C_14  and  C_15 
REMARK    9  A    between atoms: C_18  and  N_21 
REMARK   10  A    between atoms: N_21  and  C_22 
REMARK   11  A    between atoms: N_21  and  C_23 
REMARK   12  A    between atoms: C_29  and  O_30 
REMARK   13  A    between atoms: O_30  and  C_31 
ROOT
ATOM      1  C   LIG d   1       5.352  -1.663  -5.695  0.00  0.00    -0.004 C 
ATOM      2  H   LIG d   1       6.258  -1.135  -5.992  0.00  0.00     0.035 H 
ENDROOT
BRANCH   1   3
ATOM      3  C   LIG d   1       5.579  -3.171  -5.816  0.00  0.00    -0.029 C 
ATOM      4  C   LIG d   1       4.577  -3.763  -6.812  0.00  0.00    -0.021 C 
ATOM      5  C   LIG d   1       4.861  -5.257  -6.983  0.00  0.00     0.064 C 
ATOM      6  H   LIG d   1       4.680  -3.260  -7.774  0.00  0.00     0.030 H 
ATOM      7  H   LIG d   1       3.563  -3.626  -6.434  0.00  0.00     0.030 H 
ATOM      8  O   LIG d   1       6.209  -5.437  -7.424  0.00  0.00    -0.374 OA
ATOM      9  C   LIG d   1       7.191  -4.945  -6.510  0.00  0.00     0.049 C 
ATOM     10  C   LIG d   1       7.001  -3.439  -6.320  0.00  0.00    -0.026 C 
ATOM     11  H   LIG d   1       8.188  -5.138  -6.909  0.00  0.00     0.056 H 
ATOM     12  H   LIG d   1       7.080  -5.451  -5.550  0.00  0.00     0.056 H 
ATOM     13  H   LIG d   1       7.152  -2.929  -7.271  0.00  0.00     0.029 H 
ATOM     14  H   LIG d   1       7.722  -3.070  -5.589  0.00  0.00     0.029 H 
ATOM     15  H   LIG d   1       5.444  -3.639  -4.840  0.00  0.00     0.031 H 
BRANCH   5  16
ATOM     16  C   LIG d   1       3.903  -5.843  -8.022  0.00  0.00    -0.036 C 
ATOM     17  H   LIG d   1       4.240  -5.571  -9.022  0.00  0.00     0.026 H 
ATOM     18  H   LIG d   1       3.884  -6.928  -7.928  0.00  0.00     0.026 H 
ATOM     19  H   LIG d   1       2.901  -5.446  -7.857  0.00  0.00     0.026 H 
ENDBRANCH   5  16
BRANCH   5  20
ATOM     20  C   LIG d   1       4.662  -5.972  -5.646  0.00  0.00    -0.036 C 
ATOM     21  H   LIG d   1       5.096  -6.970  -5.699  0.00  0.00     0.026 H 
ATOM     22  H   LIG d   1       5.152  -5.404  -4.854  0.00  0.00     0.026 H 
ATOM     23  H   LIG d   1       3.596  -6.049  -5.430  0.00  0.00     0.026 H 
ENDBRANCH   5  20
ENDBRANCH   1   3
BRANCH   1  24
ATOM     24  C   LIG d   1       4.197  -1.246  -6.607  0.00  0.00     0.014 C 
ATOM     25  H   LIG d   1       3.971  -2.057  -7.301  0.00  0.00     0.033 H 
ATOM     26  H   LIG d   1       3.317  -1.031  -6.003  0.00  0.00     0.033 H 
BRANCH  24  27
ATOM     27  C   LIG d   1       4.594   0.004  -7.395  0.00  0.00     0.144 C 
ATOM     28  H   LIG d   1       5.535   0.393  -7.007  0.00  0.00     0.102 H 
ATOM     29  H   LIG d   1       4.714  -0.254  -8.448  0.00  0.00     0.102 H 
BRANCH  27  30
ATOM     30  N   LIG d   1       3.550   1.022  -7.256  0.00  0.00    -0.247 N 
ATOM     31  C   LIG d   1       2.999   1.531  -8.310  0.00  0.00     0.172 C 
ATOM     32  H   LIG d   1       2.540   2.508  -8.261  0.00  0.00     0.138 H 
ATOM     33  H   LIG d   1       3.271   1.313  -6.374  0.00  0.00     0.445 HD
BRANCH  31  34
ATOM     34  C   LIG d   1       2.996   0.779  -9.577  0.00  0.00     0.038 A 
ATOM     35  C   LIG d   1       3.943   1.066 -10.564  0.00  0.00    -0.047 A 
ATOM     36  C   LIG d   1       3.942   0.357 -11.744  0.00  0.00    -0.040 A 
ATOM     37  H   LIG d   1       4.679   1.840 -10.400  0.00  0.00     0.063 H 
ATOM     38  C   LIG d   1       2.992  -0.636 -11.961  0.00  0.00     0.029 A 
ATOM     39  H   LIG d   1       4.676   0.575 -12.506  0.00  0.00     0.064 H 
ATOM     40  C   LIG d   1       2.043  -0.920 -10.982  0.00  0.00    -0.040 A 
ATOM     41  C   LIG d   1       2.043  -0.220  -9.797  0.00  0.00    -0.047 A 
ATOM     42  H   LIG d   1       1.307  -1.692 -11.153  0.00  0.00     0.064 H 
ATOM     43  H   LIG d   1       1.308  -0.442  -9.039  0.00  0.00     0.063 H 
BRANCH  38  44
ATOM     44  N   LIG d   1       2.988  -1.346 -13.158  0.00  0.00    -0.336 N 
BRANCH  44  45
ATOM     45  C   LIG d   1       2.039  -2.444 -13.356  0.00  0.00     0.000 C 
ATOM     46  H   LIG d   1       1.815  -2.907 -12.395  0.00  0.00     0.043 H 
ATOM     47  H   LIG d   1       1.121  -2.056 -13.795  0.00  0.00     0.043 H 
ATOM     48  H   LIG d   1       2.476  -3.186 -14.024  0.00  0.00     0.043 H 
ENDBRANCH  44  45
BRANCH  44  49
ATOM     49  C   LIG d   1       3.935  -0.996 -14.220  0.00  0.00     0.000 C 
ATOM     50  H   LIG d   1       4.134   0.075 -14.190  0.00  0.00     0.043 H 
ATOM     51  H   LIG d   1       4.866  -1.542 -14.071  0.00  0.00     0.043 H 
ATOM     52  H   LIG d   1       3.509  -1.259 -15.188  0.00  0.00     0.043 H 
ENDBRANCH  44  49
ENDBRANCH  38  44
ENDBRANCH  31  34
ENDBRANCH  27  30
ENDBRANCH  24  27
ENDBRANCH   1  24
BRANCH   1  53
ATOM     53  C   LIG d   1       5.014  -1.319  -4.267  0.00  0.00    -0.002 A 
ATOM     54  C   LIG d   1       5.452  -0.122  -3.720  0.00  0.00     0.123 A 
ATOM     55  C   LIG d   1       5.134   0.194  -2.406  0.00  0.00    -0.020 A 
ATOM     56  C   LIG d   1       4.392  -0.687  -1.645  0.00  0.00    -0.058 A 
ATOM     57  H   LIG d   1       5.470   1.129  -1.980  0.00  0.00     0.065 H 
ATOM     58  C   LIG d   1       3.962  -1.882  -2.192  0.00  0.00    -0.061 A 
ATOM     59  H   LIG d   1       4.148  -0.442  -0.622  0.00  0.00     0.062 H 
ATOM     60  C   LIG d   1       4.273  -2.197  -3.501  0.00  0.00    -0.055 A 
ATOM     61  H   LIG d   1       3.382  -2.570  -1.595  0.00  0.00     0.062 H 
ATOM     62  H   LIG d   1       3.936  -3.132  -3.926  0.00  0.00     0.062 H 
BRANCH  54  63
ATOM     63  O   LIG d   1       6.187   0.741  -4.469  0.00  0.00    -0.495 OA
BRANCH  63  64
ATOM     64  C   LIG d   1       7.395   1.237  -3.890  0.00  0.00     0.079 C 
ATOM     65  H   LIG d   1       7.399   1.026  -2.820  0.00  0.00     0.066 H 
ATOM     66  H   LIG d   1       8.250   0.749  -4.359  0.00  0.00     0.066 H 
ATOM     67  H   LIG d   1       7.460   2.313  -4.048  0.00  0.00     0.066 H 
ENDBRANCH  63  64
ENDBRANCH  54  63
ENDBRANCH   1  53
TORSDOF 13
ENDMDL
MODEL 2
REMARK VINA RESULT:      -6.4      0.049      1.099
REMARK  13 active torsions:
REMARK  status: ('A' for Active; 'I' for Inactive)
REMARK    1  A    between atoms: C_1  and  C_2 
REMARK    2  A    between atoms: C_2  and  C_32 
REMARK    3  A    between atoms: C_4  and  C_9 
REMARK    4  A    between atoms: C_9  and  C_11 
REMARK    5  A    between atoms: C_9  and  C_24 
REMARK    6  A    between atoms: C_11  and  C_12 
REMARK    7  A    between atoms: C_12  and  N_13 
REMARK    8  A    between atoms: C_14  and  C_15 
REMARK    9  A    between atoms: C_18  and  N_21 
REMARK   10  A    between atoms: N_21  and  C_22 
REMARK   11  A    between atoms: N_21  and  C_23 
REMARK   12  A    between atoms: C_29  and  O_30 
REMARK   13  A    between atoms: O_30  and  C_31 
ROOT
ATOM      1  C   LIG d   1       5.354  -1.644  -5.723  0.00  0.00    -0.004 C 
ATOM      2  H   LIG d   1       6.256  -1.111  -6.023  0.00  0.00     0.035 H 
ENDROOT
BRANCH   1   3
ATOM      3  C   LIG d   1       5.586  -3.151  -5.853  0.00  0.00    -0.029 C 
ATOM      4  C   LIG d   1       4.588  -3.740  -6.855  0.00  0.00    -0.021 C 
ATOM      5  C   LIG d   1       4.878  -5.232  -7.034  0.00  0.00     0.064 C 
ATOM      6  H   LIG d   1       4.692  -3.231  -7.813  0.00  0.00     0.030 H 
ATOM      7  H   LIG d   1       3.573  -3.608  -6.479  0.00  0.00     0.030 H 
ATOM      8  O   LIG d   1       6.228  -5.405  -7.472  0.00  0.00    -0.374 OA
ATOM      9  C   LIG d   1       7.206  -4.916  -6.552  0.00  0.00     0.049 C 
ATOM     10  C   LIG d   1       7.010  -3.411  -6.354  0.00  0.00    -0.026 C 
ATOM     11  H   LIG d   1       8.204  -5.103  -6.949  0.00  0.00     0.056 H 
ATOM     12  H   LIG d   1       7.093  -5.427  -5.596  0.00  0.00     0.056 H 
ATOM     13  H   LIG d   1       7.162  -2.895  -7.302  0.00  0.00     0.029 H 
ATOM     14  H   LIG d   1       7.727  -3.044  -5.618  0.00  0.00     0.029 H 
ATOM     15  H   LIG d   1       5.450  -3.625  -4.880  0.00  0.00     0.031 H 
BRANCH   5  16
ATOM     16  C   LIG d   1       3.924  -5.815  -8.079  0.00  0.00    -0.036 C 
ATOM     17  H   LIG d   1       3.808  -5.107  -8.900  0.00  0.00     0.026 H 
ATOM     18  H   LIG d   1       4.332  -6.751  -8.461  0.00  0.00     0.026 H 
ATOM     19  H   LIG d   1       2.953  -6.002  -7.621  0.00  0.00     0.026 H 
ENDBRANCH   5  16
BRANCH   5  20
ATOM     20  C   LIG d   1       4.677  -5.955  -5.701  0.00  0.00    -0.036 C 
ATOM     21  H   LIG d   1       4.400  -6.992  -5.888  0.00  0.00     0.026 H 
ATOM     22  H   LIG d   1       5.605  -5.925  -5.129  0.00  0.00     0.026 H 
ATOM     23  H   LIG d   1       3.886  -5.463  -5.136  0.00  0.00     0.026 H 
ENDBRANCH   5  20
ENDBRANCH   1   3
BRANCH   1  24
ATOM     24  C   LIG d   1       4.191  -1.228  -6.626  0.00  0.00     0.014 C 
ATOM     25  H   LIG d   1       3.952  -2.043  -7.310  0.00  0.00     0.033 H 
ATOM     26  H   LIG d   1       3.319  -1.000  -6.014  0.00  0.00     0.033 H 
BRANCH  24  27
ATOM     27  C   LIG d   1       4.588   0.012  -7.431  0.00  0.00     0.144 C 
ATOM     28  H   LIG d   1       5.534   0.401  -7.054  0.00  0.00     0.102 H 
ATOM     29  H   LIG d   1       4.698  -0.257  -8.481  0.00  0.00     0.102 H 
BRANCH  27  30
ATOM     30  N   LIG d   1       3.550   1.036  -7.294  0.00  0.00    -0.247 N 
ATOM     31  C   LIG d   1       2.999   1.543  -8.350  0.00  0.00     0.172 C 
ATOM     32  H   LIG d   1       2.546   2.522  -8.304  0.00  0.00     0.138 H 
ATOM     33  H   LIG d   1       3.276   1.334  -6.413  0.00  0.00     0.445 HD
BRANCH  31  34
ATOM     34  C   LIG d   1       2.989   0.784  -9.613  0.00  0.00     0.038 A 
ATOM     35  C   LIG d   1       2.027  -0.207  -9.827  0.00  0.00    -0.047 A 
ATOM     36  C   LIG d   1       2.017  -0.909 -11.011  0.00  0.00    -0.040 A 
ATOM     37  H   LIG d   1       1.289  -0.418  -9.067  0.00  0.00     0.063 H 
ATOM     38  C   LIG d   1       2.970  -0.642 -11.989  0.00  0.00     0.029 A 
ATOM     39  H   LIG d   1       1.271  -1.672 -11.180  0.00  0.00     0.064 H 
ATOM     40  C   LIG d   1       3.933   0.340 -11.776  0.00  0.00    -0.040 A 
ATOM     41  C   LIG d   1       3.945   1.051 -10.597  0.00  0.00    -0.047 A 
ATOM     42  H   LIG d   1       4.672   0.546 -12.537  0.00  0.00     0.064 H 
ATOM     43  H   LIG d   1       4.692   1.813 -10.433  0.00  0.00     0.063 H 
BRANCH  38  44
ATOM     44  N   LIG d   1       2.962  -1.359 -13.182  0.00  0.00    -0.336 N 
BRANCH  44  45
ATOM     45  C   LIG d   1       3.972  -1.086 -14.208  0.00  0.00     0.000 C 
ATOM     46  H   LIG d   1       4.614  -1.959 -14.324  0.00  0.00     0.043 H 
ATOM     47  H   LIG d   1       3.478  -0.869 -15.155  0.00  0.00     0.043 H 
ATOM     48  H   LIG d   1       4.573  -0.229 -13.907  0.00  0.00     0.043 H 
ENDBRANCH  44  45
BRANCH  44  49
ATOM     49  C   LIG d   1       1.942  -2.385 -13.413  0.00  0.00     0.000 C 
ATOM     50  H   LIG d   1       1.017  -1.911 -13.742  0.00  0.00     0.043 H 
ATOM     51  H   LIG d   1       2.289  -3.076 -14.180  0.00  0.00     0.043 H 
ATOM     52  H   LIG d   1       1.760  -2.931 -12.487  0.00  0.00     0.043 H 
ENDBRANCH  44  49
ENDBRANCH  38  44
ENDBRANCH  31  34
ENDBRANCH  27  30
ENDBRANCH  24  27
ENDBRANCH   1  24
BRANCH   1  53
ATOM     53  C   LIG d   1       5.023  -1.308  -4.292  0.00  0.00    -0.002 A 
ATOM     54  C   LIG d   1       5.469  -0.117  -3.739  0.00  0.00     0.123 A 
ATOM     55  C   LIG d   1       5.158   0.193  -2.422  0.00  0.00    -0.020 A 
ATOM     56  C   LIG d   1       4.414  -0.690  -1.663  0.00  0.00    -0.058 A 
ATOM     57  H   LIG d   1       5.500   1.122  -1.990  0.00  0.00     0.065 H 
ATOM     58  C   LIG d   1       3.976  -1.879  -2.217  0.00  0.00    -0.061 A 
ATOM     59  H   LIG d   1       4.175  -0.451  -0.637  0.00  0.00     0.062 H 
ATOM     60  C   LIG d   1       4.280  -2.187  -3.529  0.00  0.00    -0.055 A 
ATOM     61  H   LIG d   1       3.395  -2.569  -1.621  0.00  0.00     0.062 H 
ATOM     62  H   LIG d   1       3.937  -3.117  -3.958  0.00  0.00     0.062 H 
BRANCH  54  63
ATOM     63  O   LIG d   1       6.206   0.748  -4.485  0.00  0.00    -0.495 OA
BRANCH  63  64
ATOM     64  C   LIG d   1       7.413   1.241  -3.903  0.00  0.00     0.079 C 
ATOM     65  H   LIG d   1       8.078   1.596  -4.691  0.00  0.00     0.066 H 
ATOM     66  H   LIG d   1       7.182   2.064  -3.227  0.00  0.00     0.066 H 
ATOM     67  H   LIG d   1       7.903   0.442  -3.348  0.00  0.00     0.066 H 
ENDBRANCH  63  64
ENDBRANCH  54  63
ENDBRANCH   1  53
TORSDOF 13
ENDMDL
MODEL 3
REMARK VINA RESULT:      -6.3      1.654      4.758
REMARK  13 active torsions:
REMARK  status: ('A' for Active; 'I' for Inactive)
REMARK    1  A    between atoms: C_1  and  C_2 
REMARK    2  A    between atoms: C_2  and  C_32 
REMARK    3  A    between atoms: C_4  and  C_9 
REMARK    4  A    between atoms: C_9  and  C_11 
REMARK    5  A    between atoms: C_9  and  C_24 
REMARK    6  A    between atoms: C_11  and  C_12 
REMARK    7  A    between atoms: C_12  and  N_13 
REMARK    8  A    between atoms: C_14  and  C_15 
REMARK    9  A    between atoms: C_18  and  N_21 
REMARK   10  A    between atoms: N_21  and  C_22 
REMARK   11  A    between atoms: N_21  and  C_23 
REMARK   12  A    between atoms: C_29  and  O_30 
REMARK   13  A    between atoms: O_30  and  C_31 
ROOT
ATOM      1  C   LIG d   1       4.449  -1.492  -6.822  0.00  0.00    -0.004 C 
ATOM      2  H   LIG d   1       3.831  -1.194  -7.668  0.00  0.00     0.035 H 
ENDROOT
BRANCH   1   3
ATOM      3  C   LIG d   1       3.879  -0.888  -5.537  0.00  0.00    -0.029 C 
ATOM      4  C   LIG d   1       5.015  -0.281  -4.707  0.00  0.00    -0.021 C 
ATOM      5  C   LIG d   1       4.427   0.387  -3.462  0.00  0.00     0.064 C 
ATOM      6  H   LIG d   1       5.545   0.462  -5.304  0.00  0.00     0.030 H 
ATOM      7  H   LIG d   1       5.707  -1.069  -4.406  0.00  0.00     0.030 H 
ATOM      8  O   LIG d   1       3.477   1.379  -3.859  0.00  0.00    -0.374 OA
ATOM      9  C   LIG d   1       2.368   0.863  -4.598  0.00  0.00     0.049 C 
ATOM     10  C   LIG d   1       2.874   0.214  -5.888  0.00  0.00    -0.026 C 
ATOM     11  H   LIG d   1       1.685   1.676  -4.843  0.00  0.00     0.056 H 
ATOM     12  H   LIG d   1       1.846   0.118  -3.996  0.00  0.00     0.056 H 
ATOM     13  H   LIG d   1       3.361   0.966  -6.508  0.00  0.00     0.029 H 
ATOM     14  H   LIG d   1       2.034  -0.220  -6.431  0.00  0.00     0.029 H 
ATOM     15  H   LIG d   1       3.380  -1.666  -4.959  0.00  0.00     0.031 H 
BRANCH   5  16
ATOM     16  C   LIG d   1       5.549   1.047  -2.659  0.00  0.00    -0.036 C 
ATOM     17  H   LIG d   1       5.249   1.128  -1.614  0.00  0.00     0.026 H 
ATOM     18  H   LIG d   1       6.452   0.442  -2.732  0.00  0.00     0.026 H 
ATOM     19  H   LIG d   1       5.744   2.042  -3.059  0.00  0.00     0.026 H 
ENDBRANCH   5  16
BRANCH   5  20
ATOM     20  C   LIG d   1       3.732  -0.666  -2.597  0.00  0.00    -0.036 C 
ATOM     21  H   LIG d   1       3.236  -0.178  -1.758  0.00  0.00     0.026 H 
ATOM     22  H   LIG d   1       2.993  -1.198  -3.197  0.00  0.00     0.026 H 
ATOM     23  H   LIG d   1       4.471  -1.373  -2.222  0.00  0.00     0.026 H 
ENDBRANCH   5  20
ENDBRANCH   1   3
BRANCH   1  24
ATOM     24  C   LIG d   1       5.878  -0.989  -7.032  0.00  0.00     0.014 C 
ATOM     25  H   LIG d   1       6.158  -0.335  -6.206  0.00  0.00     0.033 H 
ATOM     26  H   LIG d   1       6.560  -1.837  -7.071  0.00  0.00     0.033 H 
BRANCH  24  27
ATOM     27  C   LIG d   1       5.956  -0.209  -8.347  0.00  0.00     0.144 C 
ATOM     28  H   LIG d   1       6.995  -0.140  -8.667  0.00  0.00     0.102 H 
ATOM     29  H   LIG d   1       5.375  -0.727  -9.110  0.00  0.00     0.102 H 
BRANCH  27  30
ATOM     30  N   LIG d   1       5.415   1.138  -8.149  0.00  0.00    -0.247 N 
ATOM     31  C   LIG d   1       4.637   1.659  -9.042  0.00  0.00     0.172 C 
ATOM     32  H   LIG d   1       4.546   2.733  -9.118  0.00  0.00     0.138 H 
ATOM     33  H   LIG d   1       5.641   1.638  -7.350  0.00  0.00     0.445 HD
BRANCH  31  34
ATOM     34  C   LIG d   1       3.873   0.789  -9.953  0.00  0.00     0.038 A 
ATOM     35  C   LIG d   1       2.655   0.241  -9.542  0.00  0.00    -0.047 A 
ATOM     36  C   LIG d   1       1.941  -0.566 -10.399  0.00  0.00    -0.040 A 
ATOM     37  H   LIG d   1       2.271   0.454  -8.555  0.00  0.00     0.063 H 
ATOM     38  C   LIG d   1       2.436  -0.847 -11.668  0.00  0.00     0.029 A 
ATOM     39  H   LIG d   1       0.997  -0.987 -10.083  0.00  0.00     0.064 H 
ATOM     40  C   LIG d   1       3.652  -0.307 -12.079  0.00  0.00    -0.040 A 
ATOM     41  C   LIG d   1       4.368   0.506 -11.230  0.00  0.00    -0.047 A 
ATOM     42  H   LIG d   1       4.034  -0.527 -13.065  0.00  0.00     0.064 H 
ATOM     43  H   LIG d   1       5.310   0.925 -11.549  0.00  0.00     0.063 H 
BRANCH  38  44
ATOM     44  N   LIG d   1       1.716  -1.669 -12.530  0.00  0.00    -0.336 N 
BRANCH  44  45
ATOM     45  C   LIG d   1       0.251  -1.676 -12.483  0.00  0.00     0.000 C 
ATOM     46  H   LIG d   1      -0.134  -2.303 -13.287  0.00  0.00     0.043 H 
ATOM     47  H   LIG d   1      -0.080  -2.070 -11.523  0.00  0.00     0.043 H 
ATOM     48  H   LIG d   1      -0.120  -0.658 -12.606  0.00  0.00     0.043 H 
ENDBRANCH  44  45
BRANCH  44  49
ATOM     49  C   LIG d   1       2.422  -2.530 -13.482  0.00  0.00     0.000 C 
ATOM     50  H   LIG d   1       1.904  -2.512 -14.441  0.00  0.00     0.043 H 
ATOM     51  H   LIG d   1       3.441  -2.168 -13.612  0.00  0.00     0.043 H 
ATOM     52  H   LIG d   1       2.444  -3.552 -13.100  0.00  0.00     0.043 H 
ENDBRANCH  44  49
ENDBRANCH  38  44
ENDBRANCH  31  34
ENDBRANCH  27  30
ENDBRANCH  24  27
ENDBRANCH   1  24
BRANCH   1  53
ATOM     53  C   LIG d   1       4.458  -2.995  -6.709  0.00  0.00    -0.002 A 
ATOM     54  C   LIG d   1       4.088  -3.774  -7.795  0.00  0.00     0.123 A 
ATOM     55  C   LIG d   1       4.103  -5.158  -7.690  0.00  0.00    -0.020 A 
ATOM     56  C   LIG d   1       4.475  -5.755  -6.502  0.00  0.00    -0.058 A 
ATOM     57  H   LIG d   1       3.820  -5.766  -8.537  0.00  0.00     0.065 H 
ATOM     58  C   LIG d   1       4.838  -4.975  -5.419  0.00  0.00    -0.061 A 
ATOM     59  H   LIG d   1       4.483  -6.832  -6.419  0.00  0.00     0.062 H 
ATOM     60  C   LIG d   1       4.829  -3.598  -5.523  0.00  0.00    -0.055 A 
ATOM     61  H   LIG d   1       5.128  -5.445  -4.491  0.00  0.00     0.062 H 
ATOM     62  H   LIG d   1       5.112  -2.991  -4.675  0.00  0.00     0.062 H 
BRANCH  54  63
ATOM     63  O   LIG d   1       3.717  -3.184  -8.962  0.00  0.00    -0.495 OA
BRANCH  63  64
ATOM     64  C   LIG d   1       4.590  -3.350 -10.081  0.00  0.00     0.079 C 
ATOM     65  H   LIG d   1       5.589  -3.608  -9.727  0.00  0.00     0.066 H 
ATOM     66  H   LIG d   1       4.214  -4.149 -10.720  0.00  0.00     0.066 H 
ATOM     67  H   LIG d   1       4.635  -2.421 -10.649  0.00  0.00     0.066 H 
ENDBRANCH  63  64
ENDBRANCH  54  63
ENDBRANCH   1  53
TORSDOF 13
ENDMDL
MODEL 4
REMARK VINA RESULT:      -6.1      1.621      4.621
REMARK  13 active torsions:
REMARK  status: ('A' for Active; 'I' for Inactive)
REMARK    1  A    between atoms: C_1  and  C_2 
REMARK    2  A    between atoms: C_2  and  C_32 
REMARK    3  A    between atoms: C_4  and  C_9 
REMARK    4  A    between atoms: C_9  and  C_11 
REMARK    5  A    between atoms: C_9  and  C_24 
REMARK    6  A    between atoms: C_11  and  C_12 
REMARK    7  A    between atoms: C_12  and  N_13 
REMARK    8  A    between atoms: C_14  and  C_15 
REMARK    9  A    between atoms: C_18  and  N_21 
REMARK   10  A    between atoms: N_21  and  C_22 
REMARK   11  A    between atoms: N_21  and  C_23 
REMARK   12  A    between atoms: C_29  and  O_30 
REMARK   13  A    between atoms: O_30  and  C_31 
ROOT
ATOM      1  C   LIG d   1       5.202  -1.226  -6.608  0.00  0.00    -0.004 C 
ATOM      2  H   LIG d   1       4.618  -1.530  -7.476  0.00  0.00     0.035 H 
ENDROOT
BRANCH   1   3
ATOM      3  C   LIG d   1       4.258  -0.837  -5.469  0.00  0.00    -0.029 C 
ATOM      4  C   LIG d   1       5.058  -0.184  -4.338  0.00  0.00    -0.021 C 
ATOM      5  C   LIG d   1       4.096   0.270  -3.237  0.00  0.00     0.064 C 
ATOM      6  H   LIG d   1       5.600   0.679  -4.727  0.00  0.00     0.030 H 
ATOM      7  H   LIG d   1       5.766  -0.905  -3.929  0.00  0.00     0.030 H 
ATOM      8  O   LIG d   1       3.133   1.171  -3.790  0.00  0.00    -0.374 OA
ATOM      9  C   LIG d   1       2.324   0.601  -4.819  0.00  0.00     0.049 C 
ATOM     10  C   LIG d   1       3.214   0.160  -5.983  0.00  0.00    -0.026 C 
ATOM     11  H   LIG d   1       1.606   1.343  -5.171  0.00  0.00     0.056 H 
ATOM     12  H   LIG d   1       1.788  -0.263  -4.423  0.00  0.00     0.056 H 
ATOM     13  H   LIG d   1       3.719   1.030  -6.405  0.00  0.00     0.029 H 
ATOM     14  H   LIG d   1       2.603  -0.316  -6.750  0.00  0.00     0.029 H 
ATOM     15  H   LIG d   1       3.754  -1.728  -5.092  0.00  0.00     0.031 H 
BRANCH   5  16
ATOM     16  C   LIG d   1       4.882   0.978  -2.132  0.00  0.00    -0.036 C 
ATOM     17  H   LIG d   1       4.504   0.664  -1.159  0.00  0.00     0.026 H 
ATOM     18  H   LIG d   1       5.937   0.718  -2.214  0.00  0.00     0.026 H 
ATOM     19  H   LIG d   1       4.764   2.056  -2.236  0.00  0.00     0.026 H 
ENDBRANCH   5  16
BRANCH   5  20
ATOM     20  C   LIG d   1       3.378  -0.947  -2.653  0.00  0.00    -0.036 C 
ATOM     21  H   LIG d   1       2.365  -0.998  -3.052  0.00  0.00     0.026 H 
ATOM     22  H   LIG d   1       3.920  -1.854  -2.924  0.00  0.00     0.026 H 
ATOM     23  H   LIG d   1       3.338  -0.860  -1.568  0.00  0.00     0.026 H 
ENDBRANCH   5  20
ENDBRANCH   1   3
BRANCH   1  24
ATOM     24  C   LIG d   1       6.077  -0.026  -6.977  0.00  0.00     0.014 C 
ATOM     25  H   LIG d   1       5.796   0.831  -6.364  0.00  0.00     0.033 H 
ATOM     26  H   LIG d   1       7.123  -0.271  -6.798  0.00  0.00     0.033 H 
BRANCH  24  27
ATOM     27  C   LIG d   1       5.877   0.316  -8.455  0.00  0.00     0.144 C 
ATOM     28  H   LIG d   1       6.829   0.234  -8.978  0.00  0.00     0.102 H 
ATOM     29  H   LIG d   1       5.160  -0.378  -8.894  0.00  0.00     0.102 H 
BRANCH  27  30
ATOM     30  N   LIG d   1       5.370   1.685  -8.575  0.00  0.00    -0.247 N 
ATOM     31  C   LIG d   1       4.480   1.968  -9.470  0.00  0.00     0.172 C 
ATOM     32  H   LIG d   1       4.382   2.981  -9.832  0.00  0.00     0.138 H 
ATOM     33  H   LIG d   1       5.701   2.378  -7.983  0.00  0.00     0.445 HD
BRANCH  31  34
ATOM     34  C   LIG d   1       3.600   0.910  -9.996  0.00  0.00     0.038 A 
ATOM     35  C   LIG d   1       3.855   0.345 -11.249  0.00  0.00    -0.047 A 
ATOM     36  C   LIG d   1       3.035  -0.648 -11.734  0.00  0.00    -0.040 A 
ATOM     37  H   LIG d   1       4.698   0.682 -11.834  0.00  0.00     0.063 H 
ATOM     38  C   LIG d   1       1.944  -1.081 -10.986  0.00  0.00     0.029 A 
ATOM     39  H   LIG d   1       3.234  -1.089 -12.700  0.00  0.00     0.064 H 
ATOM     40  C   LIG d   1       1.684  -0.515  -9.740  0.00  0.00    -0.040 A 
ATOM     41  C   LIG d   1       2.504   0.473  -9.245  0.00  0.00    -0.047 A 
ATOM     42  H   LIG d   1       0.837  -0.854  -9.160  0.00  0.00     0.064 H 
ATOM     43  H   LIG d   1       2.302   0.910  -8.279  0.00  0.00     0.063 H 
BRANCH  38  44
ATOM     44  N   LIG d   1       1.112  -2.080 -11.482  0.00  0.00    -0.336 N 
BRANCH  44  45
ATOM     45  C   LIG d   1       0.429  -1.894 -12.765  0.00  0.00     0.000 C 
ATOM     46  H   LIG d   1       1.109  -1.421 -13.472  0.00  0.00     0.043 H 
ATOM     47  H   LIG d   1       0.116  -2.863 -13.153  0.00  0.00     0.043 H 
ATOM     48  H   LIG d   1      -0.447  -1.261 -12.622  0.00  0.00     0.043 H 
ENDBRANCH  44  45
BRANCH  44  49
ATOM     49  C   LIG d   1       0.918  -3.317 -10.721  0.00  0.00     0.000 C 
ATOM     50  H   LIG d   1      -0.107  -3.361 -10.355  0.00  0.00     0.043 H 
ATOM     51  H   LIG d   1       1.112  -4.174 -11.365  0.00  0.00     0.043 H 
ATOM     52  H   LIG d   1       1.606  -3.334  -9.875  0.00  0.00     0.043 H 
ENDBRANCH  44  49
ENDBRANCH  38  44
ENDBRANCH  31  34
ENDBRANCH  27  30
ENDBRANCH  24  27
ENDBRANCH   1  24
BRANCH   1  53
ATOM     53  C   LIG d   1       6.078  -2.370  -6.165  0.00  0.00    -0.002 A 
ATOM     54  C   LIG d   1       5.586  -3.666  -6.180  0.00  0.00     0.123 A 
ATOM     55  C   LIG d   1       6.397  -4.718  -5.777  0.00  0.00    -0.020 A 
ATOM     56  C   LIG d   1       7.688  -4.470  -5.355  0.00  0.00    -0.058 A 
ATOM     57  H   LIG d   1       6.017  -5.729  -5.792  0.00  0.00     0.065 H 
ATOM     58  C   LIG d   1       8.175  -3.175  -5.337  0.00  0.00    -0.061 A 
ATOM     59  H   LIG d   1       8.319  -5.288  -5.038  0.00  0.00     0.062 H 
ATOM     60  C   LIG d   1       7.370  -2.127  -5.741  0.00  0.00    -0.055 A 
ATOM     61  H   LIG d   1       9.185  -2.984  -5.005  0.00  0.00     0.062 H 
ATOM     62  H   LIG d   1       7.753  -1.117  -5.726  0.00  0.00     0.062 H 
BRANCH  54  63
ATOM     63  O   LIG d   1       4.313  -3.907  -6.591  0.00  0.00    -0.495 OA
BRANCH  63  64
ATOM     64  C   LIG d   1       3.897  -5.272  -6.647  0.00  0.00     0.079 C 
ATOM     65  H   LIG d   1       3.034  -5.362  -7.307  0.00  0.00     0.066 H 
ATOM     66  H   LIG d   1       4.712  -5.886  -7.031  0.00  0.00     0.066 H 
ATOM     67  H   LIG d   1       3.626  -5.612  -5.647  0.00  0.00     0.066 H 
ENDBRANCH  63  64
ENDBRANCH  54  63
ENDBRANCH   1  53
TORSDOF 13
ENDMDL
MODEL 5
REMARK VINA RESULT:      -6.0      1.720      2.250
REMARK  13 active torsions:
REMARK  status: ('A' for Active; 'I' for Inactive)
REMARK    1  A    between atoms: C_1  and  C_2 
REMARK    2  A    between atoms: C_2  and  C_32 
REMARK    3  A    between atoms: C_4  and  C_9 
REMARK    4  A    between atoms: C_9  and  C_11 
REMARK    5  A    between atoms: C_9  and  C_24 
REMARK    6  A    between atoms: C_11  and  C_12 
REMARK    7  A    between atoms: C_12  and  N_13 
REMARK    8  A    between atoms: C_14  and  C_15 
REMARK    9  A    between atoms: C_18  and  N_21 
REMARK   10  A    between atoms: N_21  and  C_22 
REMARK   11  A    between atoms: N_21  and  C_23 
REMARK   12  A    between atoms: C_29  and  O_30 
REMARK   13  A    between atoms: O_30  and  C_31 
ROOT
ATOM      1  C   LIG d   1       6.124  -1.312  -5.195  0.00  0.00    -0.004 C 
ATOM      2  H   LIG d   1       6.338  -0.499  -5.890  0.00  0.00     0.035 H 
ENDROOT
BRANCH   1   3
ATOM      3  C   LIG d   1       7.420  -2.061  -4.876  0.00  0.00    -0.029 C 
ATOM      4  C   LIG d   1       7.177  -3.570  -4.970  0.00  0.00    -0.021 C 
ATOM      5  C   LIG d   1       8.495  -4.308  -4.723  0.00  0.00     0.064 C 
ATOM      6  H   LIG d   1       6.801  -3.817  -5.964  0.00  0.00     0.030 H 
ATOM      7  H   LIG d   1       6.446  -3.869  -4.219  0.00  0.00     0.030 H 
ATOM      8  O   LIG d   1       9.469  -3.872  -5.675  0.00  0.00    -0.374 OA
ATOM      9  C   LIG d   1       9.771  -2.477  -5.601  0.00  0.00     0.049 C 
ATOM     10  C   LIG d   1       8.505  -1.666  -5.883  0.00  0.00    -0.026 C 
ATOM     11  H   LIG d   1      10.533  -2.231  -6.341  0.00  0.00     0.056 H 
ATOM     12  H   LIG d   1      10.143  -2.238  -4.604  0.00  0.00     0.056 H 
ATOM     13  H   LIG d   1       8.156  -1.874  -6.894  0.00  0.00     0.029 H 
ATOM     14  H   LIG d   1       8.724  -0.602  -5.783  0.00  0.00     0.029 H 
ATOM     15  H   LIG d   1       7.749  -1.806  -3.868  0.00  0.00     0.031 H 
BRANCH   5  16
ATOM     16  C   LIG d   1       8.273  -5.814  -4.876  0.00  0.00    -0.036 C 
ATOM     17  H   LIG d   1       8.286  -6.286  -3.893  0.00  0.00     0.026 H 
ATOM     18  H   LIG d   1       7.308  -5.993  -5.352  0.00  0.00     0.026 H 
ATOM     19  H   LIG d   1       9.066  -6.238  -5.492  0.00  0.00     0.026 H 
ENDBRANCH   5  16
BRANCH   5  20
ATOM     20  C   LIG d   1       8.992  -4.007  -3.309  0.00  0.00    -0.036 C 
ATOM     21  H   LIG d   1       8.469  -3.135  -2.918  0.00  0.00     0.026 H 
ATOM     22  H   LIG d   1       8.799  -4.866  -2.665  0.00  0.00     0.026 H 
ATOM     23  H   LIG d   1      10.063  -3.807  -3.336  0.00  0.00     0.026 H 
ENDBRANCH   5  20
ENDBRANCH   1   3
BRANCH   1  24
ATOM     24  C   LIG d   1       5.122  -2.276  -5.832  0.00  0.00     0.014 C 
ATOM     25  H   LIG d   1       5.635  -3.191  -6.127  0.00  0.00     0.033 H 
ATOM     26  H   LIG d   1       4.340  -2.515  -5.111  0.00  0.00     0.033 H 
BRANCH  24  27
ATOM     27  C   LIG d   1       4.496  -1.621  -7.065  0.00  0.00     0.144 C 
ATOM     28  H   LIG d   1       5.241  -1.001  -7.563  0.00  0.00     0.102 H 
ATOM     29  H   LIG d   1       4.150  -2.395  -7.751  0.00  0.00     0.102 H 
BRANCH  27  30
ATOM     30  N   LIG d   1       3.363  -0.789  -6.655  0.00  0.00    -0.247 N 
ATOM     31  C   LIG d   1       2.782  -0.017  -7.516  0.00  0.00     0.172 C 
ATOM     32  H   LIG d   1       2.237   0.853  -7.180  0.00  0.00     0.138 H 
ATOM     33  H   LIG d   1       3.048  -0.816  -5.738  0.00  0.00     0.445 HD
BRANCH  31  34
ATOM     34  C   LIG d   1       2.863  -0.324  -8.955  0.00  0.00     0.038 A 
ATOM     35  C   LIG d   1       3.708   0.420  -9.783  0.00  0.00    -0.047 A 
ATOM     36  C   LIG d   1       3.786   0.126 -11.126  0.00  0.00    -0.040 A 
ATOM     37  H   LIG d   1       4.303   1.222  -9.370  0.00  0.00     0.063 H 
ATOM     38  C   LIG d   1       3.017  -0.903 -11.661  0.00  0.00     0.029 A 
ATOM     39  H   LIG d   1       4.442   0.697 -11.766  0.00  0.00     0.064 H 
ATOM     40  C   LIG d   1       2.170  -1.642 -10.839  0.00  0.00    -0.040 A 
ATOM     41  C   LIG d   1       2.092  -1.358  -9.494  0.00  0.00    -0.047 A 
ATOM     42  H   LIG d   1       1.574  -2.441 -11.257  0.00  0.00     0.064 H 
ATOM     43  H   LIG d   1       1.436  -1.932  -8.858  0.00  0.00     0.063 H 
BRANCH  38  44
ATOM     44  N   LIG d   1       3.093  -1.193 -13.020  0.00  0.00    -0.336 N 
BRANCH  44  45
ATOM     45  C   LIG d   1       2.084  -2.055 -13.643  0.00  0.00     0.000 C 
ATOM     46  H   LIG d   1       1.090  -1.727 -13.339  0.00  0.00     0.043 H 
ATOM     47  H   LIG d   1       2.172  -1.991 -14.727  0.00  0.00     0.043 H 
ATOM     48  H   LIG d   1       2.241  -3.086 -13.325  0.00  0.00     0.043 H 
ENDBRANCH  44  45
BRANCH  44  49
ATOM     49  C   LIG d   1       4.182  -0.639 -13.828  0.00  0.00     0.000 C 
ATOM     50  H   LIG d   1       5.110  -1.160 -13.592  0.00  0.00     0.043 H 
ATOM     51  H   LIG d   1       3.952  -0.766 -14.884  0.00  0.00     0.043 H 
ATOM     52  H   LIG d   1       4.296   0.422 -13.604  0.00  0.00     0.043 H 
ENDBRANCH  44  49
ENDBRANCH  38  44
ENDBRANCH  31  34
ENDBRANCH  27  30
ENDBRANCH  24  27
ENDBRANCH   1  24
BRANCH   1  53
ATOM     53  C   LIG d   1       5.543  -0.749  -3.924  0.00  0.00    -0.002 A 
ATOM     54  C   LIG d   1       5.796   0.568  -3.570  0.00  0.00     0.123 A 
ATOM     55  C   LIG d   1       5.254   1.085  -2.401  0.00  0.00    -0.020 A 
ATOM     56  C   LIG d   1       4.473   0.286  -1.590  0.00  0.00    -0.058 A 
ATOM     57  H   LIG d   1       5.446   2.112  -2.126  0.00  0.00     0.065 H 
ATOM     58  C   LIG d   1       4.227  -1.028  -1.944  0.00  0.00    -0.061 A 
ATOM     59  H   LIG d   1       4.055   0.687  -0.679  0.00  0.00     0.062 H 
ATOM     60  C   LIG d   1       4.762  -1.544  -3.109  0.00  0.00    -0.055 A 
ATOM     61  H   LIG d   1       3.617  -1.653  -1.308  0.00  0.00     0.062 H 
ATOM     62  H   LIG d   1       4.568  -2.572  -3.383  0.00  0.00     0.062 H 
BRANCH  54  63
ATOM     63  O   LIG d   1       6.570   1.351  -4.366  0.00  0.00    -0.495 OA
BRANCH  63  64
ATOM     64  C   LIG d   1       7.869   1.692  -3.878  0.00  0.00     0.079 C 
ATOM     65  H   LIG d   1       8.402   0.782  -3.598  0.00  0.00     0.066 H 
ATOM     66  H   LIG d   1       8.425   2.213  -4.656  0.00  0.00     0.066 H 
ATOM     67  H   LIG d   1       7.771   2.338  -3.006  0.00  0.00     0.066 H 
ENDBRANCH  63  64
ENDBRANCH  54  63
ENDBRANCH   1  53
TORSDOF 13
ENDMDL
MODEL 6
REMARK VINA RESULT:      -5.9      2.950      6.709
REMARK  13 active torsions:
REMARK  status: ('A' for Active; 'I' for Inactive)
REMARK    1  A    between atoms: C_1  and  C_2 
REMARK    2  A    between atoms: C_2  and  C_32 
REMARK    3  A    between atoms: C_4  and  C_9 
REMARK    4  A    between atoms: C_9  and  C_11 
REMARK    5  A    between atoms: C_9  and  C_24 
REMARK    6  A    between atoms: C_11  and  C_12 
REMARK    7  A    between atoms: C_12  and  N_13 
REMARK    8  A    between atoms: C_14  and  C_15 
REMARK    9  A    between atoms: C_18  and  N_21 
REMARK   10  A    between atoms: N_21  and  C_22 
REMARK   11  A    between atoms: N_21  and  C_23 
REMARK   12  A    between atoms: C_29  and  O_30 
REMARK   13  A    between atoms: O_30  and  C_31 
ROOT
ATOM      1  C   LIG d   1       4.855  -0.787  -7.077  0.00  0.00    -0.004 C 
ATOM      2  H   LIG d   1       5.763  -1.225  -7.491  0.00  0.00     0.035 H 
ENDROOT
BRANCH   1   3
ATOM      3  C   LIG d   1       5.091  -0.419  -5.610  0.00  0.00    -0.029 C 
ATOM      4  C   LIG d   1       4.294  -1.367  -4.708  0.00  0.00    -0.021 C 
ATOM      5  C   LIG d   1       4.595  -1.039  -3.244  0.00  0.00     0.064 C 
ATOM      6  H   LIG d   1       4.584  -2.397  -4.918  0.00  0.00     0.030 H 
ATOM      7  H   LIG d   1       3.228  -1.240  -4.898  0.00  0.00     0.030 H 
ATOM      8  O   LIG d   1       6.002  -1.149  -3.012  0.00  0.00    -0.374 OA
ATOM      9  C   LIG d   1       6.794  -0.253  -3.794  0.00  0.00     0.049 C 
ATOM     10  C   LIG d   1       6.581  -0.549  -5.280  0.00  0.00    -0.026 C 
ATOM     11  H   LIG d   1       7.847  -0.385  -3.544  0.00  0.00     0.056 H 
ATOM     12  H   LIG d   1       6.496   0.775  -3.581  0.00  0.00     0.056 H 
ATOM     13  H   LIG d   1       6.915  -1.562  -5.501  0.00  0.00     0.029 H 
ATOM     14  H   LIG d   1       7.150   0.163  -5.878  0.00  0.00     0.029 H 
ATOM     15  H   LIG d   1       4.768   0.608  -5.436  0.00  0.00     0.031 H 
BRANCH   5  16
ATOM     16  C   LIG d   1       3.851  -2.021  -2.338  0.00  0.00    -0.036 C 
ATOM     17  H   LIG d   1       3.421  -2.820  -2.942  0.00  0.00     0.026 H 
ATOM     18  H   LIG d   1       4.547  -2.447  -1.615  0.00  0.00     0.026 H 
ATOM     19  H   LIG d   1       3.054  -1.496  -1.810  0.00  0.00     0.026 H 
ENDBRANCH   5  16
BRANCH   5  20
ATOM     20  C   LIG d   1       4.138   0.388  -2.935  0.00  0.00    -0.036 C 
ATOM     21  H   LIG d   1       3.293   0.644  -3.573  0.00  0.00     0.026 H 
ATOM     22  H   LIG d   1       3.838   0.454  -1.889  0.00  0.00     0.026 H 
ATOM     23  H   LIG d   1       4.958   1.080  -3.122  0.00  0.00     0.026 H 
ENDBRANCH   5  20
ENDBRANCH   1   3
BRANCH   1  24
ATOM     24  C   LIG d   1       3.712  -1.799  -7.171  0.00  0.00     0.014 C 
ATOM     25  H   LIG d   1       3.528  -2.232  -6.187  0.00  0.00     0.033 H 
ATOM     26  H   LIG d   1       2.810  -1.297  -7.520  0.00  0.00     0.033 H 
BRANCH  24  27
ATOM     27  C   LIG d   1       4.092  -2.909  -8.153  0.00  0.00     0.144 C 
ATOM     28  H   LIG d   1       3.669  -2.687  -9.132  0.00  0.00     0.102 H 
ATOM     29  H   LIG d   1       5.178  -2.967  -8.232  0.00  0.00     0.102 H 
BRANCH  27  30
ATOM     30  N   LIG d   1       3.567  -4.189  -7.672  0.00  0.00    -0.247 N 
ATOM     31  C   LIG d   1       4.376  -5.086  -7.206  0.00  0.00     0.172 C 
ATOM     32  H   LIG d   1       4.089  -6.127  -7.214  0.00  0.00     0.138 H 
ATOM     33  H   LIG d   1       2.614  -4.364  -7.702  0.00  0.00     0.445 HD
BRANCH  31  34
ATOM     34  C   LIG d   1       5.687  -4.687  -6.666  0.00  0.00     0.038 A 
ATOM     35  C   LIG d   1       5.827  -4.403  -5.305  0.00  0.00    -0.047 A 
ATOM     36  C   LIG d   1       7.055  -4.037  -4.802  0.00  0.00    -0.040 A 
ATOM     37  H   LIG d   1       4.973  -4.475  -4.646  0.00  0.00     0.063 H 
ATOM     38  C   LIG d   1       8.154  -3.937  -5.649  0.00  0.00     0.029 A 
ATOM     39  H   LIG d   1       7.165  -3.821  -3.749  0.00  0.00     0.064 H 
ATOM     40  C   LIG d   1       8.017  -4.213  -7.007  0.00  0.00    -0.040 A 
ATOM     41  C   LIG d   1       6.793  -4.587  -7.515  0.00  0.00    -0.047 A 
ATOM     42  H   LIG d   1       8.872  -4.136  -7.662  0.00  0.00     0.064 H 
ATOM     43  H   LIG d   1       6.688  -4.802  -8.567  0.00  0.00     0.063 H 
BRANCH  38  44
ATOM     44  N   LIG d   1       9.393  -3.559  -5.139  0.00  0.00    -0.336 N 
BRANCH  44  45
ATOM     45  C   LIG d   1      10.332  -2.807  -5.976  0.00  0.00     0.000 C 
ATOM     46  H   LIG d   1       9.827  -1.937  -6.395  0.00  0.00     0.043 H 
ATOM     47  H   LIG d   1      11.177  -2.481  -5.370  0.00  0.00     0.043 H 
ATOM     48  H   LIG d   1      10.689  -3.445  -6.785  0.00  0.00     0.043 H 
ENDBRANCH  44  45
BRANCH  44  49
ATOM     49  C   LIG d   1       9.759  -3.915  -3.766  0.00  0.00     0.000 C 
ATOM     50  H   LIG d   1      10.782  -3.596  -3.569  0.00  0.00     0.043 H 
ATOM     51  H   LIG d   1       9.083  -3.420  -3.070  0.00  0.00     0.043 H 
ATOM     52  H   LIG d   1       9.685  -4.996  -3.639  0.00  0.00     0.043 H 
ENDBRANCH  44  49
ENDBRANCH  38  44
ENDBRANCH  31  34
ENDBRANCH  27  30
ENDBRANCH  24  27
ENDBRANCH   1  24
BRANCH   1  53
ATOM     53  C   LIG d   1       4.494   0.453  -7.854  0.00  0.00    -0.002 A 
ATOM     54  C   LIG d   1       5.472   1.139  -8.558  0.00  0.00     0.123 A 
ATOM     55  C   LIG d   1       5.135   2.277  -9.278  0.00  0.00    -0.020 A 
ATOM     56  C   LIG d   1       3.830   2.728  -9.284  0.00  0.00    -0.058 A 
ATOM     57  H   LIG d   1       5.895   2.810  -9.831  0.00  0.00     0.065 H 
ATOM     58  C   LIG d   1       2.858   2.044  -8.576  0.00  0.00    -0.061 A 
ATOM     59  H   LIG d   1       3.568   3.615  -9.841  0.00  0.00     0.062 H 
ATOM     60  C   LIG d   1       3.190   0.908  -7.862  0.00  0.00    -0.055 A 
ATOM     61  H   LIG d   1       1.838   2.399  -8.581  0.00  0.00     0.062 H 
ATOM     62  H   LIG d   1       2.429   0.376  -7.310  0.00  0.00     0.062 H 
BRANCH  54  63
ATOM     63  O   LIG d   1       6.757   0.696  -8.547  0.00  0.00    -0.495 OA
BRANCH  63  64
ATOM     64  C   LIG d   1       7.755   1.611  -8.089  0.00  0.00     0.079 C 
ATOM     65  H   LIG d   1       8.507   1.070  -7.515  0.00  0.00     0.066 H 
ATOM     66  H   LIG d   1       8.228   2.091  -8.945  0.00  0.00     0.066 H 
ATOM     67  H   LIG d   1       7.291   2.368  -7.458  0.00  0.00     0.066 H 
ENDBRANCH  63  64
ENDBRANCH  54  63
ENDBRANCH   1  53
TORSDOF 13
ENDMDL
MODEL 7
REMARK VINA RESULT:      -5.9      2.448      4.573
REMARK  13 active torsions:
REMARK  status: ('A' for Active; 'I' for Inactive)
REMARK    1  A    between atoms: C_1  and  C_2 
REMARK    2  A    between atoms: C_2  and  C_32 
REMARK    3  A    between atoms: C_4  and  C_9 
REMARK    4  A    between atoms: C_9  and  C_11 
REMARK    5  A    between atoms: C_9  and  C_24 
REMARK    6  A    between atoms: C_11  and  C_12 
REMARK    7  A    between atoms: C_12  and  N_13 
REMARK    8  A    between atoms: C_14  and  C_15 
REMARK    9  A    between atoms: C_18  and  N_21 
REMARK   10  A    between atoms: N_21  and  C_22 
REMARK   11  A    between atoms: N_21  and  C_23 
REMARK   12  A    between atoms: C_29  and  O_30 
REMARK   13  A    between atoms: O_30  and  C_31 
ROOT
ATOM      1  C   LIG d   1       5.057  -0.856  -7.040  0.00  0.00    -0.004 C 
ATOM      2  H   LIG d   1       6.006  -1.198  -7.453  0.00  0.00     0.035 H 
ENDROOT
BRANCH   1   3
ATOM      3  C   LIG d   1       5.248  -0.479  -5.569  0.00  0.00    -0.029 C 
ATOM      4  C   LIG d   1       4.401  -1.403  -4.689  0.00  0.00    -0.021 C 
ATOM      5  C   LIG d   1       4.656  -1.068  -3.217  0.00  0.00     0.064 C 
ATOM      6  H   LIG d   1       4.675  -2.440  -4.880  0.00  0.00     0.030 H 
ATOM      7  H   LIG d   1       3.345  -1.256  -4.917  0.00  0.00     0.030 H 
ATOM      8  O   LIG d   1       6.051  -1.206  -2.934  0.00  0.00    -0.374 OA
ATOM      9  C   LIG d   1       6.889  -0.333  -3.694  0.00  0.00     0.049 C 
ATOM     10  C   LIG d   1       6.723  -0.638  -5.184  0.00  0.00    -0.026 C 
ATOM     11  H   LIG d   1       7.929  -0.485  -3.406  0.00  0.00     0.056 H 
ATOM     12  H   LIG d   1       6.606   0.702  -3.500  0.00  0.00     0.056 H 
ATOM     13  H   LIG d   1       7.043  -1.660  -5.386  0.00  0.00     0.029 H 
ATOM     14  H   LIG d   1       7.328   0.057  -5.768  0.00  0.00     0.029 H 
ATOM     15  H   LIG d   1       4.941   0.555  -5.415  0.00  0.00     0.031 H 
BRANCH   5  16
ATOM     16  C   LIG d   1       3.859  -2.026  -2.330  0.00  0.00    -0.036 C 
ATOM     17  H   LIG d   1       2.836  -2.097  -2.698  0.00  0.00     0.026 H 
ATOM     18  H   LIG d   1       4.323  -3.013  -2.353  0.00  0.00     0.026 H 
ATOM     19  H   LIG d   1       3.852  -1.653  -1.306  0.00  0.00     0.026 H 
ENDBRANCH   5  16
BRANCH   5  20
ATOM     20  C   LIG d   1       4.218   0.370  -2.936  0.00  0.00    -0.036 C 
ATOM     21  H   LIG d   1       3.157   0.477  -3.158  0.00  0.00     0.026 H 
ATOM     22  H   LIG d   1       4.396   0.605  -1.886  0.00  0.00     0.026 H 
ATOM     23  H   LIG d   1       4.792   1.053  -3.563  0.00  0.00     0.026 H 
ENDBRANCH   5  20
ENDBRANCH   1   3
BRANCH   1  24
ATOM     24  C   LIG d   1       4.020  -1.975  -7.149  0.00  0.00     0.014 C 
ATOM     25  H   LIG d   1       4.307  -2.801  -6.497  0.00  0.00     0.033 H 
ATOM     26  H   LIG d   1       3.045  -1.597  -6.847  0.00  0.00     0.033 H 
BRANCH  24  27
ATOM     27  C   LIG d   1       3.953  -2.469  -8.596  0.00  0.00     0.144 C 
ATOM     28  H   LIG d   1       4.346  -1.700  -9.260  0.00  0.00     0.102 H 
ATOM     29  H   LIG d   1       4.547  -3.376  -8.698  0.00  0.00     0.102 H 
BRANCH  27  30
ATOM     30  N   LIG d   1       2.560  -2.754  -8.950  0.00  0.00    -0.247 N 
ATOM     31  C   LIG d   1       2.049  -2.246 -10.025  0.00  0.00     0.172 C 
ATOM     32  H   LIG d   1       0.980  -2.115 -10.105  0.00  0.00     0.138 H 
ATOM     33  H   LIG d   1       2.021  -3.323  -8.379  0.00  0.00     0.445 HD
BRANCH  31  34
ATOM     34  C   LIG d   1       2.925  -1.848 -11.141  0.00  0.00     0.038 A 
ATOM     35  C   LIG d   1       3.303  -0.511 -11.292  0.00  0.00    -0.047 A 
ATOM     36  C   LIG d   1       4.126  -0.143 -12.332  0.00  0.00    -0.040 A 
ATOM     37  H   LIG d   1       2.953   0.233 -10.591  0.00  0.00     0.063 H 
ATOM     38  C   LIG d   1       4.574  -1.098 -13.239  0.00  0.00     0.029 A 
ATOM     39  H   LIG d   1       4.422   0.890 -12.447  0.00  0.00     0.064 H 
ATOM     40  C   LIG d   1       4.194  -2.430 -13.095  0.00  0.00    -0.040 A 
ATOM     41  C   LIG d   1       3.376  -2.806 -12.054  0.00  0.00    -0.047 A 
ATOM     42  H   LIG d   1       4.544  -3.170 -13.801  0.00  0.00     0.064 H 
ATOM     43  H   LIG d   1       3.084  -3.839 -11.942  0.00  0.00     0.063 H 
BRANCH  38  44
ATOM     44  N   LIG d   1       5.400  -0.722 -14.294  0.00  0.00    -0.336 N 
BRANCH  44  45
ATOM     45  C   LIG d   1       6.856  -0.816 -14.154  0.00  0.00     0.000 C 
ATOM     46  H   LIG d   1       7.271  -1.327 -15.022  0.00  0.00     0.043 H 
ATOM     47  H   LIG d   1       7.280   0.185 -14.084  0.00  0.00     0.043 H 
ATOM     48  H   LIG d   1       7.098  -1.377 -13.251  0.00  0.00     0.043 H 
ENDBRANCH  44  45
BRANCH  44  49
ATOM     49  C   LIG d   1       4.815  -0.230 -15.544  0.00  0.00     0.000 C 
ATOM     50  H   LIG d   1       4.701   0.853 -15.490  0.00  0.00     0.043 H 
ATOM     51  H   LIG d   1       5.470  -0.485 -16.376  0.00  0.00     0.043 H 
ATOM     52  H   LIG d   1       3.839  -0.691 -15.693  0.00  0.00     0.043 H 
ENDBRANCH  44  49
ENDBRANCH  38  44
ENDBRANCH  31  34
ENDBRANCH  27  30
ENDBRANCH  24  27
ENDBRANCH   1  24
BRANCH   1  53
ATOM     53  C   LIG d   1       4.579   0.349  -7.809  0.00  0.00    -0.002 A 
ATOM     54  C   LIG d   1       5.470   1.077  -8.581  0.00  0.00     0.123 A 
ATOM     55  C   LIG d   1       5.025   2.183  -9.293  0.00  0.00    -0.020 A 
ATOM     56  C   LIG d   1       3.699   2.560  -9.222  0.00  0.00    -0.058 A 
ATOM     57  H   LIG d   1       5.717   2.749  -9.899  0.00  0.00     0.065 H 
ATOM     58  C   LIG d   1       2.813   1.834  -8.446  0.00  0.00    -0.061 A 
ATOM     59  H   LIG d   1       3.353   3.423  -9.773  0.00  0.00     0.062 H 
ATOM     60  C   LIG d   1       3.253   0.731  -7.740  0.00  0.00    -0.055 A 
ATOM     61  H   LIG d   1       1.776   2.132  -8.391  0.00  0.00     0.062 H 
ATOM     62  H   LIG d   1       2.559   0.166  -7.135  0.00  0.00     0.062 H 
BRANCH  54  63
ATOM     63  O   LIG d   1       6.777   0.707  -8.645  0.00  0.00    -0.495 OA
BRANCH  63  64
ATOM     64  C   LIG d   1       7.747   1.681  -8.256  0.00  0.00     0.079 C 
ATOM     65  H   LIG d   1       8.533   1.199  -7.675  0.00  0.00     0.066 H 
ATOM     66  H   LIG d   1       8.181   2.138  -9.145  0.00  0.00     0.066 H 
ATOM     67  H   LIG d   1       7.267   2.450  -7.650  0.00  0.00     0.066 H 
ENDBRANCH  63  64
ENDBRANCH  54  63
ENDBRANCH   1  53
TORSDOF 13
ENDMDL
MODEL 8
REMARK VINA RESULT:      -5.8      2.490      3.960
REMARK  13 active torsions:
REMARK  status: ('A' for Active; 'I' for Inactive)
REMARK    1  A    between atoms: C_1  and  C_2 
REMARK    2  A    between atoms: C_2  and  C_32 
REMARK    3  A    between atoms: C_4  and  C_9 
REMARK    4  A    between atoms: C_9  and  C_11 
REMARK    5  A    between atoms: C_9  and  C_24 
REMARK    6  A    between atoms: C_11  and  C_12 
REMARK    7  A    between atoms: C_12  and  N_13 
REMARK    8  A    between atoms: C_14  and  C_15 
REMARK    9  A    between atoms: C_18  and  N_21 
REMARK   10  A    between atoms: N_21  and  C_22 
REMARK   11  A    between atoms: N_21  and  C_23 
REMARK   12  A    between atoms: C_29  and  O_30 
REMARK   13  A    between atoms: O_30  and  C_31 
ROOT
ATOM      1  C   LIG d   1       6.198  -2.365  -4.657  0.00  0.00    -0.004 C 
ATOM      2  H   LIG d   1       6.184  -1.929  -5.655  0.00  0.00     0.035 H 
ENDROOT
BRANCH   1   3
ATOM      3  C   LIG d   1       7.639  -2.710  -4.272  0.00  0.00    -0.029 C 
ATOM      4  C   LIG d   1       7.813  -4.231  -4.249  0.00  0.00    -0.021 C 
ATOM      5  C   LIG d   1       9.274  -4.565  -3.938  0.00  0.00     0.064 C 
ATOM      6  H   LIG d   1       7.544  -4.643  -5.222  0.00  0.00     0.030 H 
ATOM      7  H   LIG d   1       7.170  -4.660  -3.480  0.00  0.00     0.030 H 
ATOM      8  O   LIG d   1      10.120  -3.953  -4.915  0.00  0.00    -0.374 OA
ATOM      9  C   LIG d   1      10.034  -2.527  -4.950  0.00  0.00     0.049 C 
ATOM     10  C   LIG d   1       8.603  -2.112  -5.301  0.00  0.00    -0.026 C 
ATOM     11  H   LIG d   1      10.720  -2.140  -5.703  0.00  0.00     0.056 H 
ATOM     12  H   LIG d   1      10.301  -2.123  -3.973  0.00  0.00     0.056 H 
ATOM     13  H   LIG d   1       8.350  -2.482  -6.295  0.00  0.00     0.029 H 
ATOM     14  H   LIG d   1       8.526  -1.024  -5.285  0.00  0.00     0.029 H 
ATOM     15  H   LIG d   1       7.860  -2.301  -3.286  0.00  0.00     0.031 H 
BRANCH   5  16
ATOM     16  C   LIG d   1       9.470  -6.082  -3.972  0.00  0.00    -0.036 C 
ATOM     17  H   LIG d   1      10.524  -6.316  -3.821  0.00  0.00     0.026 H 
ATOM     18  H   LIG d   1       8.878  -6.542  -3.181  0.00  0.00     0.026 H 
ATOM     19  H   LIG d   1       9.147  -6.468  -4.939  0.00  0.00     0.026 H 
ENDBRANCH   5  16
BRANCH   5  20
ATOM     20  C   LIG d   1       9.635  -4.036  -2.549  0.00  0.00    -0.036 C 
ATOM     21  H   LIG d   1       9.843  -2.968  -2.609  0.00  0.00     0.026 H 
ATOM     22  H   LIG d   1       8.800  -4.205  -1.868  0.00  0.00     0.026 H 
ATOM     23  H   LIG d   1      10.517  -4.558  -2.179  0.00  0.00     0.026 H 
ENDBRANCH   5  20
ENDBRANCH   1   3
BRANCH   1  24
ATOM     24  C   LIG d   1       5.348  -3.637  -4.643  0.00  0.00     0.014 C 
ATOM     25  H   LIG d   1       5.998  -4.506  -4.536  0.00  0.00     0.033 H 
ATOM     26  H   LIG d   1       4.652  -3.599  -3.807  0.00  0.00     0.033 H 
BRANCH  24  27
ATOM     27  C   LIG d   1       4.567  -3.742  -5.955  0.00  0.00     0.144 C 
ATOM     28  H   LIG d   1       3.693  -4.376  -5.806  0.00  0.00     0.102 H 
ATOM     29  H   LIG d   1       4.246  -2.748  -6.267  0.00  0.00     0.102 H 
BRANCH  27  30
ATOM     30  N   LIG d   1       5.424  -4.326  -6.989  0.00  0.00    -0.247 N 
ATOM     31  C   LIG d   1       5.459  -3.803  -8.172  0.00  0.00     0.172 C 
ATOM     32  H   LIG d   1       5.752  -4.404  -9.019  0.00  0.00     0.138 H 
ATOM     33  H   LIG d   1       5.966  -5.105  -6.787  0.00  0.00     0.445 HD
BRANCH  31  34
ATOM     34  C   LIG d   1       5.098  -2.387  -8.363  0.00  0.00     0.038 A 
ATOM     35  C   LIG d   1       6.054  -1.387  -8.163  0.00  0.00    -0.047 A 
ATOM     36  C   LIG d   1       5.715  -0.066  -8.348  0.00  0.00    -0.040 A 
ATOM     37  H   LIG d   1       7.060  -1.651  -7.868  0.00  0.00     0.063 H 
ATOM     38  C   LIG d   1       4.420   0.277  -8.722  0.00  0.00     0.029 A 
ATOM     39  H   LIG d   1       6.455   0.707  -8.199  0.00  0.00     0.064 H 
ATOM     40  C   LIG d   1       3.463  -0.717  -8.916  0.00  0.00    -0.040 A 
ATOM     41  C   LIG d   1       3.797  -2.041  -8.739  0.00  0.00    -0.047 A 
ATOM     42  H   LIG d   1       2.458  -0.448  -9.207  0.00  0.00     0.064 H 
ATOM     43  H   LIG d   1       3.055  -2.810  -8.890  0.00  0.00     0.063 H 
BRANCH  38  44
ATOM     44  N   LIG d   1       4.078   1.614  -8.902  0.00  0.00    -0.336 N 
BRANCH  44  45
ATOM     45  C   LIG d   1       2.684   2.041  -8.751  0.00  0.00     0.000 C 
ATOM     46  H   LIG d   1       2.113   1.248  -8.268  0.00  0.00     0.043 H 
ATOM     47  H   LIG d   1       2.645   2.942  -8.140  0.00  0.00     0.043 H 
ATOM     48  H   LIG d   1       2.260   2.249  -9.733  0.00  0.00     0.043 H 
ENDBRANCH  44  45
BRANCH  44  49
ATOM     49  C   LIG d   1       5.112   2.594  -9.244  0.00  0.00     0.000 C 
ATOM     50  H   LIG d   1       6.074   2.255  -8.861  0.00  0.00     0.043 H 
ATOM     51  H   LIG d   1       5.168   2.699 -10.327  0.00  0.00     0.043 H 
ATOM     52  H   LIG d   1       4.861   3.556  -8.797  0.00  0.00     0.043 H 
ENDBRANCH  44  49
ENDBRANCH  38  44
ENDBRANCH  31  34
ENDBRANCH  27  30
ENDBRANCH  24  27
ENDBRANCH   1  24
BRANCH   1  53
ATOM     53  C   LIG d   1       5.638  -1.375  -3.668  0.00  0.00    -0.002 A 
ATOM     54  C   LIG d   1       5.846  -0.017  -3.852  0.00  0.00     0.123 A 
ATOM     55  C   LIG d   1       5.324   0.892  -2.943  0.00  0.00    -0.020 A 
ATOM     56  C   LIG d   1       4.606   0.442  -1.852  0.00  0.00    -0.058 A 
ATOM     57  H   LIG d   1       5.481   1.951  -3.087  0.00  0.00     0.065 H 
ATOM     58  C   LIG d   1       4.404  -0.914  -1.669  0.00  0.00    -0.061 A 
ATOM     59  H   LIG d   1       4.202   1.149  -1.142  0.00  0.00     0.062 H 
ATOM     60  C   LIG d   1       4.920  -1.821  -2.575  0.00  0.00    -0.055 A 
ATOM     61  H   LIG d   1       3.844  -1.265  -0.815  0.00  0.00     0.062 H 
ATOM     62  H   LIG d   1       4.761  -2.880  -2.429  0.00  0.00     0.062 H 
BRANCH  54  63
ATOM     63  O   LIG d   1       6.558   0.424  -4.923  0.00  0.00    -0.495 OA
BRANCH  63  64
ATOM     64  C   LIG d   1       7.649   1.308  -4.658  0.00  0.00     0.079 C 
ATOM     65  H   LIG d   1       7.469   2.265  -5.149  0.00  0.00     0.066 H 
ATOM     66  H   LIG d   1       7.738   1.463  -3.583  0.00  0.00     0.066 H 
ATOM     67  H   LIG d   1       8.572   0.872  -5.040  0.00  0.00     0.066 H 
ENDBRANCH  63  64
ENDBRANCH  54  63
ENDBRANCH   1  53
TORSDOF 13
ENDMDL
MODEL 9
REMARK VINA RESULT:      -5.7      2.993      4.384
REMARK  13 active torsions:
REMARK  status: ('A' for Active; 'I' for Inactive)
REMARK    1  A    between atoms: C_1  and  C_2 
REMARK    2  A    between atoms: C_2  and  C_32 
REMARK    3  A    between atoms: C_4  and  C_9 
REMARK    4  A    between atoms: C_9  and  C_11 
REMARK    5  A    between atoms: C_9  and  C_24 
REMARK    6  A    between atoms: C_11  and  C_12 
REMARK    7  A    between atoms: C_12  and  N_13 
REMARK    8  A    between atoms: C_14  and  C_15 
REMARK    9  A    between atoms: C_18  and  N_21 
REMARK   10  A    between atoms: N_21  and  C_22 
REMARK   11  A    between atoms: N_21  and  C_23 
REMARK   12  A    between atoms: C_29  and  O_30 
REMARK   13  A    between atoms: O_30  and  C_31 
ROOT
ATOM      1  C   LIG d   1       6.445  -1.638  -4.869  0.00  0.00    -0.004 C 
ATOM      2  H   LIG d   1       6.648  -0.937  -5.679  0.00  0.00     0.035 H 
ENDROOT
BRANCH   1   3
ATOM      3  C   LIG d   1       7.758  -2.261  -4.393  0.00  0.00    -0.029 C 
ATOM      4  C   LIG d   1       7.668  -3.787  -4.492  0.00  0.00    -0.021 C 
ATOM      5  C   LIG d   1       9.012  -4.397  -4.086  0.00  0.00     0.064 C 
ATOM      6  H   LIG d   1       7.434  -4.071  -5.518  0.00  0.00     0.030 H 
ATOM      7  H   LIG d   1       6.887  -4.149  -3.824  0.00  0.00     0.030 H 
ATOM      8  O   LIG d   1      10.044  -3.875  -4.926  0.00  0.00    -0.374 OA
ATOM      9  C   LIG d   1      10.206  -2.458  -4.840  0.00  0.00     0.049 C 
ATOM     10  C   LIG d   1       8.911  -1.770  -5.276  0.00  0.00    -0.026 C 
ATOM     11  H   LIG d   1      11.022  -2.145  -5.493  0.00  0.00     0.056 H 
ATOM     12  H   LIG d   1      10.437  -2.181  -3.811  0.00  0.00     0.056 H 
ATOM     13  H   LIG d   1       8.700  -2.015  -6.317  0.00  0.00     0.029 H 
ATOM     14  H   LIG d   1       9.018  -0.690  -5.168  0.00  0.00     0.029 H 
ATOM     15  H   LIG d   1       7.945  -1.972  -3.358  0.00  0.00     0.031 H 
BRANCH   5  16
ATOM     16  C   LIG d   1       8.949  -5.918  -4.240  0.00  0.00    -0.036 C 
ATOM     17  H   LIG d   1       8.594  -6.168  -5.240  0.00  0.00     0.026 H 
ATOM     18  H   LIG d   1       9.943  -6.339  -4.091  0.00  0.00     0.026 H 
ATOM     19  H   LIG d   1       8.265  -6.330  -3.498  0.00  0.00     0.026 H 
ENDBRANCH   5  16
BRANCH   5  20
ATOM     20  C   LIG d   1       9.314  -4.044  -2.629  0.00  0.00    -0.036 C 
ATOM     21  H   LIG d   1       8.647  -3.247  -2.302  0.00  0.00     0.026 H 
ATOM     22  H   LIG d   1       9.163  -4.924  -2.003  0.00  0.00     0.026 H 
ATOM     23  H   LIG d   1      10.348  -3.711  -2.543  0.00  0.00     0.026 H 
ENDBRANCH   5  20
ENDBRANCH   1   3
BRANCH   1  24
ATOM     24  C   LIG d   1       5.510  -2.740  -5.371  0.00  0.00     0.014 C 
ATOM     25  H   LIG d   1       6.065  -3.420  -6.017  0.00  0.00     0.033 H 
ATOM     26  H   LIG d   1       5.110  -3.291  -4.522  0.00  0.00     0.033 H 
BRANCH  24  27
ATOM     27  C   LIG d   1       4.359  -2.112  -6.161  0.00  0.00     0.144 C 
ATOM     28  H   LIG d   1       3.451  -2.138  -5.560  0.00  0.00     0.102 H 
ATOM     29  H   LIG d   1       4.606  -1.078  -6.403  0.00  0.00     0.102 H 
BRANCH  27  30
ATOM     30  N   LIG d   1       4.147  -2.867  -7.398  0.00  0.00    -0.247 N 
ATOM     31  C   LIG d   1       4.489  -2.353  -8.536  0.00  0.00     0.172 C 
ATOM     32  H   LIG d   1       4.013  -2.689  -9.445  0.00  0.00     0.138 H 
ATOM     33  H   LIG d   1       3.751  -3.751  -7.365  0.00  0.00     0.445 HD
BRANCH  31  34
ATOM     34  C   LIG d   1       5.529  -1.310  -8.591  0.00  0.00     0.038 A 
ATOM     35  C   LIG d   1       5.167   0.040  -8.600  0.00  0.00    -0.047 A 
ATOM     36  C   LIG d   1       6.141   1.012  -8.645  0.00  0.00    -0.040 A 
ATOM     37  H   LIG d   1       4.124   0.321  -8.567  0.00  0.00     0.063 H 
ATOM     38  C   LIG d   1       7.484   0.652  -8.694  0.00  0.00     0.029 A 
ATOM     39  H   LIG d   1       5.862   2.055  -8.648  0.00  0.00     0.064 H 
ATOM     40  C   LIG d   1       7.847  -0.692  -8.691  0.00  0.00    -0.040 A 
ATOM     41  C   LIG d   1       6.879  -1.669  -8.639  0.00  0.00    -0.047 A 
ATOM     42  H   LIG d   1       8.891  -0.969  -8.728  0.00  0.00     0.064 H 
ATOM     43  H   LIG d   1       7.162  -2.711  -8.636  0.00  0.00     0.063 H 
BRANCH  38  44
ATOM     44  N   LIG d   1       8.466   1.637  -8.746  0.00  0.00    -0.336 N 
BRANCH  44  45
ATOM     45  C   LIG d   1       9.177   1.897 -10.001  0.00  0.00     0.000 C 
ATOM     46  H   LIG d   1      10.018   1.209 -10.090  0.00  0.00     0.043 H 
ATOM     47  H   LIG d   1       8.497   1.751 -10.840  0.00  0.00     0.043 H 
ATOM     48  H   LIG d   1       9.544   2.924 -10.005  0.00  0.00     0.043 H 
ENDBRANCH  44  45
BRANCH  44  49
ATOM     49  C   LIG d   1       8.791   2.412  -7.547  0.00  0.00     0.000 C 
ATOM     50  H   LIG d   1       9.203   1.749  -6.786  0.00  0.00     0.043 H 
ATOM     51  H   LIG d   1       9.524   3.178  -7.797  0.00  0.00     0.043 H 
ATOM     52  H   LIG d   1       7.886   2.885  -7.164  0.00  0.00     0.043 H 
ENDBRANCH  44  49
ENDBRANCH  38  44
ENDBRANCH  31  34
ENDBRANCH  27  30
ENDBRANCH  24  27
ENDBRANCH   1  24
BRANCH   1  53
ATOM     53  C   LIG d   1       5.791  -0.907  -3.724  0.00  0.00    -0.002 A 
ATOM     54  C   LIG d   1       5.958   0.463  -3.591  0.00  0.00     0.123 A 
ATOM     55  C   LIG d   1       5.350   1.134  -2.539  0.00  0.00    -0.020 A 
ATOM     56  C   LIG d   1       4.589   0.434  -1.623  0.00  0.00    -0.058 A 
ATOM     57  H   LIG d   1       5.474   2.202  -2.436  0.00  0.00     0.065 H 
ATOM     58  C   LIG d   1       4.430  -0.933  -1.756  0.00  0.00    -0.061 A 
ATOM     59  H   LIG d   1       4.119   0.955  -0.802  0.00  0.00     0.062 H 
ATOM     60  C   LIG d   1       5.030  -1.602  -2.805  0.00  0.00    -0.055 A 
ATOM     61  H   LIG d   1       3.835  -1.479  -1.038  0.00  0.00     0.062 H 
ATOM     62  H   LIG d   1       4.904  -2.671  -2.907  0.00  0.00     0.062 H 
BRANCH  54  63
ATOM     63  O   LIG d   1       6.711   1.149  -4.490  0.00  0.00    -0.495 OA
BRANCH  63  64
ATOM     64  C   LIG d   1       7.874   1.812  -3.991  0.00  0.00     0.079 C 
ATOM     65  H   LIG d   1       7.574   2.682  -3.407  0.00  0.00     0.066 H 
ATOM     66  H   LIG d   1       8.439   1.128  -3.358  0.00  0.00     0.066 H 
ATOM     67  H   LIG d   1       8.497   2.133  -4.826  0.00  0.00     0.066 H 
ENDBRANCH  63  64
ENDBRANCH  54  63
ENDBRANCH   1  53
TORSDOF 13
ENDMDL
