MODEL 1
REMARK VINA RESULT:      -7.0      0.000      0.000
REMARK  10 active torsions:
REMARK  status: ('A' for Active; 'I' for Inactive)
REMARK    1  A    between atoms: C_1  and  O_2 
REMARK    2  A    between atoms: O_2  and  C_3 
REMARK    3  A    between atoms: C_3  and  C_5 
REMARK    4  A    between atoms: C_21  and  C_31 
REMARK    5  A    between atoms: C_24  and  N_27 
REMARK    6  A    between atoms: N_27  and  C_28 
REMARK    7  A    between atoms: C_28  and  C_29 
REMARK    8  A    between atoms: C_29  and  O_30 
REMARK    9  A    between atoms: C_34  and  O_37 
REMARK   10  A    between atoms: O_37  and  C_38 
ROOT
ATOM      1  C   LIG d   1       5.663  -4.029  -5.731  0.00  0.00     0.113 C 
ATOM      2  H   LIG d   1       5.962  -3.354  -6.534  0.00  0.00     0.058 H 
ATOM      3  C   LIG d   1       6.793  -5.030  -5.458  0.00  0.00     0.001 C 
ATOM      4  C   LIG d   1       7.922  -4.293  -4.784  0.00  0.00    -0.016 A 
ATOM      5  C   LIG d   1       9.299  -4.697  -4.603  0.00  0.00     0.003 A 
ATOM      6  C   LIG d   1      10.011  -5.843  -4.972  0.00  0.00    -0.052 A 
ATOM      7  C   LIG d   1      11.339  -5.887  -4.627  0.00  0.00    -0.061 A 
ATOM      8  C   LIG d   1      11.958  -4.852  -3.947  0.00  0.00    -0.060 A 
ATOM      9  C   LIG d   1      11.279  -3.706  -3.570  0.00  0.00    -0.038 A 
ATOM     10  C   LIG d   1       9.928  -3.632  -3.905  0.00  0.00     0.047 A 
ATOM     11  N   LIG d   1       8.984  -2.670  -3.693  0.00  0.00    -0.356 N 
ATOM     12  H   LIG d   1       9.138  -1.828  -3.236  0.00  0.00     0.166 HD
ATOM     13  C   LIG d   1       7.787  -3.070  -4.222  0.00  0.00     0.038 A 
ATOM     14  C   LIG d   1       6.482  -2.313  -4.216  0.00  0.00     0.057 C 
ATOM     15  H   LIG d   1       6.510  -1.531  -4.975  0.00  0.00     0.053 H 
ATOM     16  N   LIG d   1       5.392  -3.252  -4.516  0.00  0.00    -0.274 N 
ATOM     17  C   LIG d   1       4.104  -2.553  -4.593  0.00  0.00     0.042 C 
ATOM     18  H   LIG d   1       3.319  -3.263  -4.856  0.00  0.00     0.051 H 
ATOM     19  C   LIG d   1       3.789  -1.924  -3.232  0.00  0.00     0.010 C 
ATOM     20  C   LIG d   1       4.906  -0.949  -2.850  0.00  0.00    -0.019 C 
ATOM     21  H   LIG d   1       4.944  -0.138  -3.577  0.00  0.00     0.085 H 
ATOM     22  C   LIG d   1       6.250  -1.683  -2.841  0.00  0.00     0.011 C 
ATOM     23  H   LIG d   1       6.430  -5.824  -4.804  0.00  0.00     0.033 H 
ATOM     24  H   LIG d   1       7.141  -5.457  -6.398  0.00  0.00     0.033 H 
ATOM     25  H   LIG d   1       9.536  -6.655  -5.502  0.00  0.00     0.062 H 
ATOM     26  H   LIG d   1      11.920  -6.757  -4.897  0.00  0.00     0.062 H 
ATOM     27  H   LIG d   1      13.006  -4.942  -3.701  0.00  0.00     0.062 H 
ATOM     28  H   LIG d   1      11.773  -2.906  -3.039  0.00  0.00     0.064 H 
ATOM     29  H   LIG d   1       2.842  -1.388  -3.291  0.00  0.00     0.034 H 
ATOM     30  H   LIG d   1       3.717  -2.708  -2.478  0.00  0.00     0.034 H 
ATOM     31  H   LIG d   1       6.230  -2.465  -2.081  0.00  0.00     0.034 H 
ATOM     32  H   LIG d   1       7.054  -0.980  -2.622  0.00  0.00     0.034 H 
ENDROOT
BRANCH  17  33
ATOM     33  C   LIG d   1       4.178  -1.474  -5.642  0.00  0.00    -0.030 A 
ATOM     34  C   LIG d   1       5.252  -1.433  -6.513  0.00  0.00    -0.054 A 
ATOM     35  C   LIG d   1       5.320  -0.448  -7.480  0.00  0.00    -0.019 A 
ATOM     36  H   LIG d   1       6.036  -2.173  -6.440  0.00  0.00     0.062 H 
ATOM     37  C   LIG d   1       4.316   0.505  -7.570  0.00  0.00     0.130 A 
ATOM     38  H   LIG d   1       6.157  -0.419  -8.162  0.00  0.00     0.065 H 
ATOM     39  C   LIG d   1       3.244   0.463  -6.692  0.00  0.00    -0.019 A 
ATOM     40  C   LIG d   1       3.176  -0.526  -5.731  0.00  0.00    -0.054 A 
ATOM     41  H   LIG d   1       2.460   1.204  -6.761  0.00  0.00     0.065 H 
ATOM     42  H   LIG d   1       2.342  -0.559  -5.046  0.00  0.00     0.062 H 
BRANCH  37  43
ATOM     43  O   LIG d   1       4.384   1.477  -8.518  0.00  0.00    -0.406 OA
BRANCH  43  44
ATOM     44  C   LIG d   1       3.354   1.491  -9.508  0.00  0.00     0.575 C 
ATOM     45  F   LIG d   1       3.835   2.098 -10.672  0.00  0.00    -0.133 F 
ATOM     46  F   LIG d   1       2.964   0.178  -9.794  0.00  0.00    -0.133 F 
ATOM     47  F   LIG d   1       2.254   2.210  -9.026  0.00  0.00    -0.133 F 
ENDBRANCH  43  44
ENDBRANCH  37  43
ENDBRANCH  17  33
BRANCH   1  48
ATOM     48  C   LIG d   1       4.418  -4.774  -6.138  0.00  0.00     0.325 C 
ATOM     49  O   LIG d   1       3.951  -5.615  -5.407  0.00  0.00    -0.249 OA
BRANCH  48  50
ATOM     50  O   LIG d   1       3.828  -4.504  -7.313  0.00  0.00    -0.467 OA
BRANCH  50  51
ATOM     51  C   LIG d   1       3.769  -5.565  -8.269  0.00  0.00     0.082 C 
ATOM     52  H   LIG d   1       3.121  -5.274  -9.095  0.00  0.00     0.066 H 
ATOM     53  H   LIG d   1       4.771  -5.771  -8.645  0.00  0.00     0.066 H 
ATOM     54  H   LIG d   1       3.368  -6.460  -7.792  0.00  0.00     0.066 H 
ENDBRANCH  50  51
ENDBRANCH  48  50
ENDBRANCH   1  48
BRANCH  20  55
ATOM     55  N   LIG d   1       4.638  -0.398  -1.515  0.00  0.00     0.231 N 
ATOM     56  H   LIG d   1       3.764  -0.764  -1.169  0.00  0.00     0.202 HD
ATOM     57  H   LIG d   1       5.384  -0.660  -0.888  0.00  0.00     0.202 HD
BRANCH  55  58
ATOM     58  C   LIG d   1       4.559   1.066  -1.596  0.00  0.00    -0.010 C 
ATOM     59  H   LIG d   1       3.592   1.399  -1.219  0.00  0.00     0.084 H 
ATOM     60  H   LIG d   1       5.354   1.507  -0.994  0.00  0.00     0.084 H 
BRANCH  58  61
ATOM     61  C   LIG d   1       4.719   1.506  -3.052  0.00  0.00     0.084 C 
ATOM     62  H   LIG d   1       5.591   2.154  -3.143  0.00  0.00     0.061 H 
ATOM     63  H   LIG d   1       4.851   0.629  -3.685  0.00  0.00     0.061 H 
BRANCH  61  64
ATOM     64  O   LIG d   1       3.550   2.220  -3.465  0.00  0.00    -0.390 OA
ATOM     65  H   LIG d   1       3.645   2.670  -4.315  0.00  0.00     0.210 HD
ENDBRANCH  61  64
ENDBRANCH  58  61
ENDBRANCH  55  58
ENDBRANCH  20  55
TORSDOF 10
ENDMDL
MODEL 2
REMARK VINA RESULT:      -6.9      3.471      6.778
REMARK  10 active torsions:
REMARK  status: ('A' for Active; 'I' for Inactive)
REMARK    1  A    between atoms: C_1  and  O_2 
REMARK    2  A    between atoms: O_2  and  C_3 
REMARK    3  A    between atoms: C_3  and  C_5 
REMARK    4  A    between atoms: C_21  and  C_31 
REMARK    5  A    between atoms: C_24  and  N_27 
REMARK    6  A    between atoms: N_27  and  C_28 
REMARK    7  A    between atoms: C_28  and  C_29 
REMARK    8  A    between atoms: C_29  and  O_30 
REMARK    9  A    between atoms: C_34  and  O_37 
REMARK   10  A    between atoms: O_37  and  C_38 
ROOT
ATOM      1  C   LIG d   1       4.163  -4.384  -6.960  0.00  0.00     0.113 C 
ATOM      2  H   LIG d   1       3.586  -3.781  -6.257  0.00  0.00     0.058 H 
ATOM      3  C   LIG d   1       3.334  -4.619  -8.230  0.00  0.00     0.001 C 
ATOM      4  C   LIG d   1       3.257  -3.319  -8.990  0.00  0.00    -0.016 A 
ATOM      5  C   LIG d   1       2.363  -2.936 -10.060  0.00  0.00     0.003 A 
ATOM      6  C   LIG d   1       1.323  -3.604 -10.715  0.00  0.00    -0.052 A 
ATOM      7  C   LIG d   1       0.673  -2.916 -11.710  0.00  0.00    -0.061 A 
ATOM      8  C   LIG d   1       1.020  -1.621 -12.057  0.00  0.00    -0.060 A 
ATOM      9  C   LIG d   1       2.043  -0.936 -11.425  0.00  0.00    -0.038 A 
ATOM     10  C   LIG d   1       2.722  -1.608 -10.411  0.00  0.00     0.047 A 
ATOM     11  N   LIG d   1       3.757  -1.238  -9.601  0.00  0.00    -0.356 N 
ATOM     12  H   LIG d   1       4.202  -0.377  -9.622  0.00  0.00     0.166 HD
ATOM     13  C   LIG d   1       4.071  -2.265  -8.752  0.00  0.00     0.038 A 
ATOM     14  C   LIG d   1       5.144  -2.283  -7.692  0.00  0.00     0.057 C 
ATOM     15  H   LIG d   1       4.806  -1.720  -6.821  0.00  0.00     0.053 H 
ATOM     16  N   LIG d   1       5.401  -3.678  -7.307  0.00  0.00    -0.274 N 
ATOM     17  C   LIG d   1       6.390  -3.750  -6.224  0.00  0.00     0.042 C 
ATOM     18  H   LIG d   1       6.533  -4.790  -5.930  0.00  0.00     0.051 H 
ATOM     19  C   LIG d   1       7.719  -3.170  -6.716  0.00  0.00     0.010 C 
ATOM     20  C   LIG d   1       7.512  -1.718  -7.157  0.00  0.00    -0.019 C 
ATOM     21  H   LIG d   1       7.198  -1.121  -6.301  0.00  0.00     0.085 H 
ATOM     22  C   LIG d   1       6.429  -1.659  -8.238  0.00  0.00     0.011 C 
ATOM     23  H   LIG d   1       3.816  -5.378  -8.848  0.00  0.00     0.033 H 
ATOM     24  H   LIG d   1       2.331  -4.947  -7.960  0.00  0.00     0.033 H 
ATOM     25  H   LIG d   1       1.047  -4.614 -10.452  0.00  0.00     0.062 H 
ATOM     26  H   LIG d   1      -0.135  -3.400 -12.237  0.00  0.00     0.062 H 
ATOM     27  H   LIG d   1       0.474  -1.129 -12.848  0.00  0.00     0.062 H 
ATOM     28  H   LIG d   1       2.304   0.074 -11.705  0.00  0.00     0.064 H 
ATOM     29  H   LIG d   1       8.450  -3.204  -5.908  0.00  0.00     0.034 H 
ATOM     30  H   LIG d   1       8.082  -3.757  -7.559  0.00  0.00     0.034 H 
ATOM     31  H   LIG d   1       6.762  -2.217  -9.113  0.00  0.00     0.034 H 
ATOM     32  H   LIG d   1       6.241  -0.621  -8.516  0.00  0.00     0.034 H 
ENDROOT
BRANCH  17  33
ATOM     33  C   LIG d   1       5.899  -2.955  -5.042  0.00  0.00    -0.030 A 
ATOM     34  C   LIG d   1       6.789  -2.558  -4.060  0.00  0.00    -0.054 A 
ATOM     35  C   LIG d   1       6.343  -1.825  -2.977  0.00  0.00    -0.019 A 
ATOM     36  H   LIG d   1       7.835  -2.818  -4.142  0.00  0.00     0.062 H 
ATOM     37  C   LIG d   1       5.000  -1.497  -2.870  0.00  0.00     0.130 A 
ATOM     38  H   LIG d   1       7.040  -1.513  -2.214  0.00  0.00     0.065 H 
ATOM     39  C   LIG d   1       4.109  -1.901  -3.853  0.00  0.00    -0.019 A 
ATOM     40  C   LIG d   1       4.560  -2.629  -4.936  0.00  0.00    -0.054 A 
ATOM     41  H   LIG d   1       3.062  -1.646  -3.771  0.00  0.00     0.065 H 
ATOM     42  H   LIG d   1       3.867  -2.944  -5.702  0.00  0.00     0.062 H 
BRANCH  37  43
ATOM     43  O   LIG d   1       4.558  -0.780  -1.803  0.00  0.00    -0.406 OA
BRANCH  43  44
ATOM     44  C   LIG d   1       4.357   0.621  -2.001  0.00  0.00     0.575 C 
ATOM     45  F   LIG d   1       4.754   1.316  -0.854  0.00  0.00    -0.133 F 
ATOM     46  F   LIG d   1       5.118   1.051  -3.093  0.00  0.00    -0.133 F 
ATOM     47  F   LIG d   1       3.002   0.866  -2.250  0.00  0.00    -0.133 F 
ENDBRANCH  43  44
ENDBRANCH  37  43
ENDBRANCH  17  33
BRANCH   1  48
ATOM     48  C   LIG d   1       4.500  -5.709  -6.327  0.00  0.00     0.325 C 
ATOM     49  O   LIG d   1       4.118  -5.958  -5.208  0.00  0.00    -0.249 OA
BRANCH  48  50
ATOM     50  O   LIG d   1       5.225  -6.612  -7.005  0.00  0.00    -0.467 OA
BRANCH  50  51
ATOM     51  C   LIG d   1       4.700  -7.939  -7.084  0.00  0.00     0.082 C 
ATOM     52  H   LIG d   1       5.301  -8.604  -6.464  0.00  0.00     0.066 H 
ATOM     53  H   LIG d   1       3.669  -7.943  -6.731  0.00  0.00     0.066 H 
ATOM     54  H   LIG d   1       4.733  -8.280  -8.119  0.00  0.00     0.066 H 
ENDBRANCH  50  51
ENDBRANCH  48  50
ENDBRANCH   1  48
BRANCH  20  55
ATOM     55  N   LIG d   1       8.771  -1.185  -7.692  0.00  0.00     0.231 N 
ATOM     56  H   LIG d   1       9.545  -1.720  -7.328  0.00  0.00     0.202 HD
ATOM     57  H   LIG d   1       8.761  -1.248  -8.699  0.00  0.00     0.202 HD
BRANCH  55  58
ATOM     58  C   LIG d   1       8.917   0.221  -7.291  0.00  0.00    -0.010 C 
ATOM     59  H   LIG d   1       9.974   0.484  -7.266  0.00  0.00     0.084 H 
ATOM     60  H   LIG d   1       8.401   0.859  -8.009  0.00  0.00     0.084 H 
BRANCH  58  61
ATOM     61  C   LIG d   1       8.307   0.422  -5.902  0.00  0.00     0.084 C 
ATOM     62  H   LIG d   1       7.644  -0.411  -5.672  0.00  0.00     0.061 H 
ATOM     63  H   LIG d   1       9.103   0.469  -5.159  0.00  0.00     0.061 H 
BRANCH  61  64
ATOM     64  O   LIG d   1       7.563   1.643  -5.881  0.00  0.00    -0.390 OA
ATOM     65  H   LIG d   1       8.071   2.417  -6.161  0.00  0.00     0.210 HD
ENDBRANCH  61  64
ENDBRANCH  58  61
ENDBRANCH  55  58
ENDBRANCH  20  55
TORSDOF 10
ENDMDL
MODEL 3
REMARK VINA RESULT:      -6.7      4.362      7.604
REMARK  10 active torsions:
REMARK  status: ('A' for Active; 'I' for Inactive)
REMARK    1  A    between atoms: C_1  and  O_2 
REMARK    2  A    between atoms: O_2  and  C_3 
REMARK    3  A    between atoms: C_3  and  C_5 
REMARK    4  A    between atoms: C_21  and  C_31 
REMARK    5  A    between atoms: C_24  and  N_27 
REMARK    6  A    between atoms: N_27  and  C_28 
REMARK    7  A    between atoms: C_28  and  C_29 
REMARK    8  A    between atoms: C_29  and  O_30 
REMARK    9  A    between atoms: C_34  and  O_37 
REMARK   10  A    between atoms: O_37  and  C_38 
ROOT
ATOM      1  C   LIG d   1       5.332  -3.288  -6.878  0.00  0.00     0.113 C 
ATOM      2  H   LIG d   1       4.606  -4.008  -6.499  0.00  0.00     0.058 H 
ATOM      3  C   LIG d   1       4.867  -1.866  -6.538  0.00  0.00     0.001 C 
ATOM      4  C   LIG d   1       5.032  -1.660  -5.053  0.00  0.00    -0.016 A 
ATOM      5  C   LIG d   1       4.467  -0.635  -4.204  0.00  0.00     0.003 A 
ATOM      6  C   LIG d   1       3.622   0.451  -4.456  0.00  0.00    -0.052 A 
ATOM      7  C   LIG d   1       3.281   1.235  -3.382  0.00  0.00    -0.061 A 
ATOM      8  C   LIG d   1       3.743   0.974  -2.103  0.00  0.00    -0.060 A 
ATOM      9  C   LIG d   1       4.579  -0.094  -1.824  0.00  0.00    -0.038 A 
ATOM     10  C   LIG d   1       4.944  -0.908  -2.895  0.00  0.00     0.047 A 
ATOM     11  N   LIG d   1       5.734  -2.018  -2.972  0.00  0.00    -0.356 N 
ATOM     12  H   LIG d   1       6.192  -2.430  -2.223  0.00  0.00     0.166 HD
ATOM     13  C   LIG d   1       5.781  -2.464  -4.265  0.00  0.00     0.038 A 
ATOM     14  C   LIG d   1       6.531  -3.661  -4.796  0.00  0.00     0.057 C 
ATOM     15  H   LIG d   1       5.989  -4.572  -4.544  0.00  0.00     0.053 H 
ATOM     16  N   LIG d   1       6.637  -3.538  -6.257  0.00  0.00    -0.274 N 
ATOM     17  C   LIG d   1       7.299  -4.715  -6.834  0.00  0.00     0.042 C 
ATOM     18  H   LIG d   1       7.329  -4.619  -7.920  0.00  0.00     0.051 H 
ATOM     19  C   LIG d   1       8.727  -4.810  -6.289  0.00  0.00     0.010 C 
ATOM     20  C   LIG d   1       8.685  -4.915  -4.762  0.00  0.00    -0.019 C 
ATOM     21  H   LIG d   1       8.170  -5.832  -4.476  0.00  0.00     0.085 H 
ATOM     22  C   LIG d   1       7.932  -3.713  -4.184  0.00  0.00     0.011 C 
ATOM     23  H   LIG d   1       5.476  -1.141  -7.079  0.00  0.00     0.033 H 
ATOM     24  H   LIG d   1       3.820  -1.746  -6.812  0.00  0.00     0.033 H 
ATOM     25  H   LIG d   1       3.258   0.663  -5.450  0.00  0.00     0.062 H 
ATOM     26  H   LIG d   1       2.630   2.082  -3.540  0.00  0.00     0.062 H 
ATOM     27  H   LIG d   1       3.442   1.625  -1.296  0.00  0.00     0.062 H 
ATOM     28  H   LIG d   1       4.933  -0.287  -0.822  0.00  0.00     0.064 H 
ATOM     29  H   LIG d   1       9.214  -5.694  -6.702  0.00  0.00     0.034 H 
ATOM     30  H   LIG d   1       9.285  -3.919  -6.577  0.00  0.00     0.034 H 
ATOM     31  H   LIG d   1       8.471  -2.798  -4.430  0.00  0.00     0.034 H 
ATOM     32  H   LIG d   1       7.854  -3.812  -3.101  0.00  0.00     0.034 H 
ENDROOT
BRANCH  17  33
ATOM     33  C   LIG d   1       6.532  -5.957  -6.461  0.00  0.00    -0.030 A 
ATOM     34  C   LIG d   1       5.382  -5.855  -5.699  0.00  0.00    -0.054 A 
ATOM     35  C   LIG d   1       4.674  -6.991  -5.359  0.00  0.00    -0.019 A 
ATOM     36  H   LIG d   1       5.036  -4.885  -5.372  0.00  0.00     0.062 H 
ATOM     37  C   LIG d   1       5.123  -8.236  -5.774  0.00  0.00     0.130 A 
ATOM     38  H   LIG d   1       3.774  -6.910  -4.768  0.00  0.00     0.065 H 
ATOM     39  C   LIG d   1       6.279  -8.336  -6.534  0.00  0.00    -0.019 A 
ATOM     40  C   LIG d   1       6.981  -7.197  -6.876  0.00  0.00    -0.054 A 
ATOM     41  H   LIG d   1       6.630  -9.305  -6.858  0.00  0.00     0.065 H 
ATOM     42  H   LIG d   1       7.881  -7.274  -7.466  0.00  0.00     0.062 H 
BRANCH  37  43
ATOM     43  O   LIG d   1       4.430  -9.356  -5.437  0.00  0.00    -0.406 OA
BRANCH  43  44
ATOM     44  C   LIG d   1       4.602  -9.851  -4.108  0.00  0.00     0.575 C 
ATOM     45  F   LIG d   1       4.584 -11.249  -4.125  0.00  0.00    -0.133 F 
ATOM     46  F   LIG d   1       5.828  -9.408  -3.601  0.00  0.00    -0.133 F 
ATOM     47  F   LIG d   1       3.564  -9.380  -3.297  0.00  0.00    -0.133 F 
ENDBRANCH  43  44
ENDBRANCH  37  43
ENDBRANCH  17  33
BRANCH   1  48
ATOM     48  C   LIG d   1       5.452  -3.434  -8.373  0.00  0.00     0.325 C 
ATOM     49  O   LIG d   1       6.107  -2.640  -9.007  0.00  0.00    -0.249 OA
BRANCH  48  50
ATOM     50  O   LIG d   1       4.831  -4.445  -9.001  0.00  0.00    -0.467 OA
BRANCH  50  51
ATOM     51  C   LIG d   1       3.473  -4.699  -8.636  0.00  0.00     0.082 C 
ATOM     52  H   LIG d   1       2.808  -4.213  -9.350  0.00  0.00     0.066 H 
ATOM     53  H   LIG d   1       3.291  -5.774  -8.641  0.00  0.00     0.066 H 
ATOM     54  H   LIG d   1       3.286  -4.303  -7.637  0.00  0.00     0.066 H 
ENDBRANCH  50  51
ENDBRANCH  48  50
ENDBRANCH   1  48
BRANCH  20  55
ATOM     55  N   LIG d   1      10.055  -4.937  -4.235  0.00  0.00     0.231 N 
ATOM     56  H   LIG d   1      10.452  -5.855  -4.368  0.00  0.00     0.202 HD
ATOM     57  H   LIG d   1      10.614  -4.254  -4.724  0.00  0.00     0.202 HD
BRANCH  55  58
ATOM     58  C   LIG d   1      10.034  -4.616  -2.802  0.00  0.00    -0.010 C 
ATOM     59  H   LIG d   1      10.915  -4.027  -2.548  0.00  0.00     0.084 H 
ATOM     60  H   LIG d   1       9.136  -4.043  -2.571  0.00  0.00     0.084 H 
BRANCH  58  61
ATOM     61  C   LIG d   1      10.034  -5.912  -1.988  0.00  0.00     0.084 C 
ATOM     62  H   LIG d   1       9.481  -6.680  -2.528  0.00  0.00     0.061 H 
ATOM     63  H   LIG d   1      11.060  -6.244  -1.833  0.00  0.00     0.061 H 
BRANCH  61  64
ATOM     64  O   LIG d   1       9.411  -5.678  -0.722  0.00  0.00    -0.390 OA
ATOM     65  H   LIG d   1       9.663  -6.314  -0.038  0.00  0.00     0.210 HD
ENDBRANCH  61  64
ENDBRANCH  58  61
ENDBRANCH  55  58
ENDBRANCH  20  55
TORSDOF 10
ENDMDL
MODEL 4
REMARK VINA RESULT:      -6.6      3.767      5.967
REMARK  10 active torsions:
REMARK  status: ('A' for Active; 'I' for Inactive)
REMARK    1  A    between atoms: C_1  and  O_2 
REMARK    2  A    between atoms: O_2  and  C_3 
REMARK    3  A    between atoms: C_3  and  C_5 
REMARK    4  A    between atoms: C_21  and  C_31 
REMARK    5  A    between atoms: C_24  and  N_27 
REMARK    6  A    between atoms: N_27  and  C_28 
REMARK    7  A    between atoms: C_28  and  C_29 
REMARK    8  A    between atoms: C_29  and  O_30 
REMARK    9  A    between atoms: C_34  and  O_37 
REMARK   10  A    between atoms: O_37  and  C_38 
ROOT
ATOM      1  C   LIG d   1       7.280  -4.441  -5.676  0.00  0.00     0.113 C 
ATOM      2  H   LIG d   1       6.841  -4.101  -4.737  0.00  0.00     0.058 H 
ATOM      3  C   LIG d   1       7.917  -5.822  -5.472  0.00  0.00     0.001 C 
ATOM      4  C   LIG d   1       6.810  -6.832  -5.312  0.00  0.00    -0.016 A 
ATOM      5  C   LIG d   1       6.872  -8.184  -4.800  0.00  0.00     0.003 A 
ATOM      6  C   LIG d   1       7.920  -8.967  -4.308  0.00  0.00    -0.052 A 
ATOM      7  C   LIG d   1       7.605 -10.240  -3.899  0.00  0.00    -0.061 A 
ATOM      8  C   LIG d   1       6.314 -10.736  -3.965  0.00  0.00    -0.060 A 
ATOM      9  C   LIG d   1       5.257  -9.983  -4.446  0.00  0.00    -0.038 A 
ATOM     10  C   LIG d   1       5.546  -8.687  -4.870  0.00  0.00     0.047 A 
ATOM     11  N   LIG d   1       4.761  -7.697  -5.386  0.00  0.00    -0.356 N 
ATOM     12  H   LIG d   1       3.806  -7.766  -5.544  0.00  0.00     0.166 HD
ATOM     13  C   LIG d   1       5.522  -6.590  -5.647  0.00  0.00     0.038 A 
ATOM     14  C   LIG d   1       5.059  -5.271  -6.216  0.00  0.00     0.057 C 
ATOM     15  H   LIG d   1       4.558  -4.694  -5.439  0.00  0.00     0.053 H 
ATOM     16  N   LIG d   1       6.233  -4.531  -6.700  0.00  0.00    -0.274 N 
ATOM     17  C   LIG d   1       5.847  -3.206  -7.202  0.00  0.00     0.042 C 
ATOM     18  H   LIG d   1       6.738  -2.663  -7.517  0.00  0.00     0.051 H 
ATOM     19  C   LIG d   1       4.902  -3.374  -8.395  0.00  0.00     0.010 C 
ATOM     20  C   LIG d   1       3.664  -4.164  -7.959  0.00  0.00    -0.019 C 
ATOM     21  H   LIG d   1       3.124  -3.600  -7.198  0.00  0.00     0.085 H 
ATOM     22  C   LIG d   1       4.094  -5.514  -7.377  0.00  0.00     0.011 C 
ATOM     23  H   LIG d   1       8.525  -6.078  -6.341  0.00  0.00     0.033 H 
ATOM     24  H   LIG d   1       8.539  -5.812  -4.577  0.00  0.00     0.033 H 
ATOM     25  H   LIG d   1       8.930  -8.590  -4.254  0.00  0.00     0.062 H 
ATOM     26  H   LIG d   1       8.390 -10.873  -3.513  0.00  0.00     0.062 H 
ATOM     27  H   LIG d   1       6.125 -11.745  -3.629  0.00  0.00     0.062 H 
ATOM     28  H   LIG d   1       4.254 -10.381  -4.493  0.00  0.00     0.064 H 
ATOM     29  H   LIG d   1       4.598  -2.392  -8.758  0.00  0.00     0.034 H 
ATOM     30  H   LIG d   1       5.415  -3.914  -9.191  0.00  0.00     0.034 H 
ATOM     31  H   LIG d   1       4.593  -6.098  -8.150  0.00  0.00     0.034 H 
ATOM     32  H   LIG d   1       3.219  -6.056  -7.016  0.00  0.00     0.034 H 
ENDROOT
BRANCH  17  33
ATOM     33  C   LIG d   1       5.149  -2.438  -6.109  0.00  0.00    -0.030 A 
ATOM     34  C   LIG d   1       5.094  -2.958  -4.828  0.00  0.00    -0.054 A 
ATOM     35  C   LIG d   1       4.459  -2.253  -3.823  0.00  0.00    -0.019 A 
ATOM     36  H   LIG d   1       5.549  -3.914  -4.613  0.00  0.00     0.062 H 
ATOM     37  C   LIG d   1       3.869  -1.029  -4.102  0.00  0.00     0.130 A 
ATOM     38  H   LIG d   1       4.420  -2.658  -2.823  0.00  0.00     0.065 H 
ATOM     39  C   LIG d   1       3.922  -0.513  -5.388  0.00  0.00    -0.019 A 
ATOM     40  C   LIG d   1       4.562  -1.218  -6.389  0.00  0.00    -0.054 A 
ATOM     41  H   LIG d   1       3.464   0.440  -5.607  0.00  0.00     0.065 H 
ATOM     42  H   LIG d   1       4.603  -0.818  -7.391  0.00  0.00     0.062 H 
BRANCH  37  43
ATOM     43  O   LIG d   1       3.241  -0.337  -3.116  0.00  0.00    -0.406 OA
BRANCH  43  44
ATOM     44  C   LIG d   1       4.049   0.524  -2.311  0.00  0.00     0.575 C 
ATOM     45  F   LIG d   1       4.492  -0.173  -1.182  0.00  0.00    -0.133 F 
ATOM     46  F   LIG d   1       5.152   0.956  -3.054  0.00  0.00    -0.133 F 
ATOM     47  F   LIG d   1       3.293   1.631  -1.909  0.00  0.00    -0.133 F 
ENDBRANCH  43  44
ENDBRANCH  37  43
ENDBRANCH  17  33
BRANCH   1  48
ATOM     48  C   LIG d   1       8.334  -3.461  -6.121  0.00  0.00     0.325 C 
ATOM     49  O   LIG d   1       8.945  -3.655  -7.145  0.00  0.00    -0.249 OA
BRANCH  48  50
ATOM     50  O   LIG d   1       8.595  -2.373  -5.380  0.00  0.00    -0.467 OA
BRANCH  50  51
ATOM     51  C   LIG d   1       8.702  -1.127  -6.072  0.00  0.00     0.082 C 
ATOM     52  H   LIG d   1       9.741  -0.795  -6.064  0.00  0.00     0.066 H 
ATOM     53  H   LIG d   1       8.367  -1.253  -7.101  0.00  0.00     0.066 H 
ATOM     54  H   LIG d   1       8.080  -0.382  -5.575  0.00  0.00     0.066 H 
ENDBRANCH  50  51
ENDBRANCH  48  50
ENDBRANCH   1  48
BRANCH  20  55
ATOM     55  N   LIG d   1       2.791  -4.384  -9.119  0.00  0.00     0.231 N 
ATOM     56  H   LIG d   1       3.262  -4.976  -9.787  0.00  0.00     0.202 HD
ATOM     57  H   LIG d   1       1.938  -4.830  -8.817  0.00  0.00     0.202 HD
BRANCH  55  58
ATOM     58  C   LIG d   1       2.474  -3.094  -9.746  0.00  0.00    -0.010 C 
ATOM     59  H   LIG d   1       2.144  -2.390  -8.982  0.00  0.00     0.084 H 
ATOM     60  H   LIG d   1       3.362  -2.703 -10.241  0.00  0.00     0.084 H 
BRANCH  58  61
ATOM     61  C   LIG d   1       1.360  -3.288 -10.777  0.00  0.00     0.084 C 
ATOM     62  H   LIG d   1       1.193  -2.353 -11.312  0.00  0.00     0.061 H 
ATOM     63  H   LIG d   1       1.650  -4.064 -11.484  0.00  0.00     0.061 H 
BRANCH  61  64
ATOM     64  O   LIG d   1       0.157  -3.676 -10.110  0.00  0.00    -0.390 OA
ATOM     65  H   LIG d   1       0.109  -4.620  -9.903  0.00  0.00     0.210 HD
ENDBRANCH  61  64
ENDBRANCH  58  61
ENDBRANCH  55  58
ENDBRANCH  20  55
TORSDOF 10
ENDMDL
MODEL 5
REMARK VINA RESULT:      -6.4      3.663      7.285
REMARK  10 active torsions:
REMARK  status: ('A' for Active; 'I' for Inactive)
REMARK    1  A    between atoms: C_1  and  O_2 
REMARK    2  A    between atoms: O_2  and  C_3 
REMARK    3  A    between atoms: C_3  and  C_5 
REMARK    4  A    between atoms: C_21  and  C_31 
REMARK    5  A    between atoms: C_24  and  N_27 
REMARK    6  A    between atoms: N_27  and  C_28 
REMARK    7  A    between atoms: C_28  and  C_29 
REMARK    8  A    between atoms: C_29  and  O_30 
REMARK    9  A    between atoms: C_34  and  O_37 
REMARK   10  A    between atoms: O_37  and  C_38 
ROOT
ATOM      1  C   LIG d   1       3.661  -0.092  -5.971  0.00  0.00     0.113 C 
ATOM      2  H   LIG d   1       4.393   0.636  -6.324  0.00  0.00     0.058 H 
ATOM      3  C   LIG d   1       2.535  -0.225  -7.006  0.00  0.00     0.001 C 
ATOM      4  C   LIG d   1       3.082  -0.953  -8.207  0.00  0.00    -0.016 A 
ATOM      5  C   LIG d   1       2.536  -1.057  -9.542  0.00  0.00     0.003 A 
ATOM      6  C   LIG d   1       1.380  -0.545 -10.138  0.00  0.00    -0.052 A 
ATOM      7  C   LIG d   1       1.174  -0.854 -11.460  0.00  0.00    -0.061 A 
ATOM      8  C   LIG d   1       2.062  -1.634 -12.181  0.00  0.00    -0.060 A 
ATOM      9  C   LIG d   1       3.215  -2.153 -11.617  0.00  0.00    -0.038 A 
ATOM     10  C   LIG d   1       3.451  -1.857 -10.275  0.00  0.00     0.047 A 
ATOM     11  N   LIG d   1       4.465  -2.198  -9.428  0.00  0.00    -0.356 N 
ATOM     12  H   LIG d   1       5.231  -2.744  -9.665  0.00  0.00     0.166 HD
ATOM     13  C   LIG d   1       4.240  -1.653  -8.193  0.00  0.00     0.038 A 
ATOM     14  C   LIG d   1       5.109  -1.774  -6.965  0.00  0.00     0.057 C 
ATOM     15  H   LIG d   1       5.966  -1.107  -7.058  0.00  0.00     0.053 H 
ATOM     16  N   LIG d   1       4.314  -1.392  -5.789  0.00  0.00    -0.274 N 
ATOM     17  C   LIG d   1       5.133  -1.424  -4.571  0.00  0.00     0.042 C 
ATOM     18  H   LIG d   1       4.533  -1.099  -3.720  0.00  0.00     0.051 H 
ATOM     19  C   LIG d   1       5.627  -2.853  -4.331  0.00  0.00     0.010 C 
ATOM     20  C   LIG d   1       6.445  -3.320  -5.539  0.00  0.00    -0.019 C 
ATOM     21  H   LIG d   1       7.327  -2.688  -5.645  0.00  0.00     0.085 H 
ATOM     22  C   LIG d   1       5.594  -3.215  -6.808  0.00  0.00     0.011 C 
ATOM     23  H   LIG d   1       1.707  -0.792  -6.577  0.00  0.00     0.033 H 
ATOM     24  H   LIG d   1       2.188   0.765  -7.302  0.00  0.00     0.033 H 
ATOM     25  H   LIG d   1       0.680   0.063  -9.584  0.00  0.00     0.062 H 
ATOM     26  H   LIG d   1       0.291  -0.475 -11.954  0.00  0.00     0.062 H 
ATOM     27  H   LIG d   1       1.849  -1.845 -13.218  0.00  0.00     0.062 H 
ATOM     28  H   LIG d   1       3.900  -2.761 -12.189  0.00  0.00     0.064 H 
ATOM     29  H   LIG d   1       6.252  -2.876  -3.438  0.00  0.00     0.034 H 
ATOM     30  H   LIG d   1       4.772  -3.515  -4.194  0.00  0.00     0.034 H 
ATOM     31  H   LIG d   1       4.736  -3.882  -6.723  0.00  0.00     0.034 H 
ATOM     32  H   LIG d   1       6.191  -3.496  -7.677  0.00  0.00     0.034 H 
ENDROOT
BRANCH  17  33
ATOM     33  C   LIG d   1       6.314  -0.502  -4.734  0.00  0.00    -0.030 A 
ATOM     34  C   LIG d   1       7.042  -0.111  -3.626  0.00  0.00    -0.054 A 
ATOM     35  C   LIG d   1       8.129   0.730  -3.773  0.00  0.00    -0.019 A 
ATOM     36  H   LIG d   1       6.764  -0.466  -2.644  0.00  0.00     0.062 H 
ATOM     37  C   LIG d   1       8.481   1.190  -5.034  0.00  0.00     0.130 A 
ATOM     38  H   LIG d   1       8.699   1.032  -2.908  0.00  0.00     0.065 H 
ATOM     39  C   LIG d   1       7.746   0.800  -6.143  0.00  0.00    -0.019 A 
ATOM     40  C   LIG d   1       6.664  -0.045  -5.991  0.00  0.00    -0.054 A 
ATOM     41  H   LIG d   1       8.019   1.157  -7.125  0.00  0.00     0.065 H 
ATOM     42  H   LIG d   1       6.090  -0.348  -6.854  0.00  0.00     0.062 H 
BRANCH  37  43
ATOM     43  O   LIG d   1       9.547   2.021  -5.180  0.00  0.00    -0.406 OA
BRANCH  43  44
ATOM     44  C   LIG d   1       9.426   3.335  -4.632  0.00  0.00     0.575 C 
ATOM     45  F   LIG d   1       8.092   3.750  -4.706  0.00  0.00    -0.133 F 
ATOM     46  F   LIG d   1       9.837   3.322  -3.295  0.00  0.00    -0.133 F 
ATOM     47  F   LIG d   1      10.231   4.219  -5.360  0.00  0.00    -0.133 F 
ENDBRANCH  43  44
ENDBRANCH  37  43
ENDBRANCH  17  33
BRANCH   1  48
ATOM     48  C   LIG d   1       3.085   0.370  -4.658  0.00  0.00     0.325 C 
ATOM     49  O   LIG d   1       2.144  -0.213  -4.173  0.00  0.00    -0.249 OA
BRANCH  48  50
ATOM     50  O   LIG d   1       3.617   1.428  -4.027  0.00  0.00    -0.467 OA
BRANCH  50  51
ATOM     51  C   LIG d   1       3.701   1.359  -2.602  0.00  0.00     0.082 C 
ATOM     52  H   LIG d   1       3.622   2.363  -2.184  0.00  0.00     0.066 H 
ATOM     53  H   LIG d   1       2.890   0.740  -2.219  0.00  0.00     0.066 H 
ATOM     54  H   LIG d   1       4.658   0.922  -2.317  0.00  0.00     0.066 H 
ENDBRANCH  50  51
ENDBRANCH  48  50
ENDBRANCH   1  48
BRANCH  20  55
ATOM     55  N   LIG d   1       6.861  -4.714  -5.339  0.00  0.00     0.231 N 
ATOM     56  H   LIG d   1       7.854  -4.794  -5.498  0.00  0.00     0.202 HD
ATOM     57  H   LIG d   1       6.647  -4.997  -4.395  0.00  0.00     0.202 HD
BRANCH  55  58
ATOM     58  C   LIG d   1       6.142  -5.579  -6.284  0.00  0.00    -0.010 C 
ATOM     59  H   LIG d   1       5.505  -4.969  -6.924  0.00  0.00     0.084 H 
ATOM     60  H   LIG d   1       6.861  -6.121  -6.899  0.00  0.00     0.084 H 
BRANCH  58  61
ATOM     61  C   LIG d   1       5.281  -6.578  -5.508  0.00  0.00     0.084 C 
ATOM     62  H   LIG d   1       5.069  -7.442  -6.138  0.00  0.00     0.061 H 
ATOM     63  H   LIG d   1       5.816  -6.902  -4.616  0.00  0.00     0.061 H 
BRANCH  61  64
ATOM     64  O   LIG d   1       4.054  -5.952  -5.127  0.00  0.00    -0.390 OA
ATOM     65  H   LIG d   1       3.412  -5.875  -5.847  0.00  0.00     0.210 HD
ENDBRANCH  61  64
ENDBRANCH  58  61
ENDBRANCH  55  58
ENDBRANCH  20  55
TORSDOF 10
ENDMDL
MODEL 6
REMARK VINA RESULT:      -6.3      3.811      6.278
REMARK  10 active torsions:
REMARK  status: ('A' for Active; 'I' for Inactive)
REMARK    1  A    between atoms: C_1  and  O_2 
REMARK    2  A    between atoms: O_2  and  C_3 
REMARK    3  A    between atoms: C_3  and  C_5 
REMARK    4  A    between atoms: C_21  and  C_31 
REMARK    5  A    between atoms: C_24  and  N_27 
REMARK    6  A    between atoms: N_27  and  C_28 
REMARK    7  A    between atoms: C_28  and  C_29 
REMARK    8  A    between atoms: C_29  and  O_30 
REMARK    9  A    between atoms: C_34  and  O_37 
REMARK   10  A    between atoms: O_37  and  C_38 
ROOT
ATOM      1  C   LIG d   1       5.874  -1.859  -7.901  0.00  0.00     0.113 C 
ATOM      2  H   LIG d   1       4.933  -1.442  -8.262  0.00  0.00     0.058 H 
ATOM      3  C   LIG d   1       6.331  -1.087  -6.656  0.00  0.00     0.001 C 
ATOM      4  C   LIG d   1       5.418  -1.454  -5.513  0.00  0.00    -0.016 A 
ATOM      5  C   LIG d   1       5.231  -0.791  -4.242  0.00  0.00     0.003 A 
ATOM      6  C   LIG d   1       5.800   0.353  -3.673  0.00  0.00    -0.052 A 
ATOM      7  C   LIG d   1       5.375   0.698  -2.414  0.00  0.00    -0.061 A 
ATOM      8  C   LIG d   1       4.427  -0.043  -1.729  0.00  0.00    -0.060 A 
ATOM      9  C   LIG d   1       3.846  -1.178  -2.267  0.00  0.00    -0.038 A 
ATOM     10  C   LIG d   1       4.258  -1.554  -3.544  0.00  0.00     0.047 A 
ATOM     11  N   LIG d   1       3.899  -2.593  -4.353  0.00  0.00    -0.356 N 
ATOM     12  H   LIG d   1       3.248  -3.277  -4.128  0.00  0.00     0.166 HD
ATOM     13  C   LIG d   1       4.595  -2.528  -5.529  0.00  0.00     0.038 A 
ATOM     14  C   LIG d   1       4.504  -3.471  -6.703  0.00  0.00     0.057 C 
ATOM     15  H   LIG d   1       3.599  -3.258  -7.273  0.00  0.00     0.053 H 
ATOM     16  N   LIG d   1       5.683  -3.272  -7.558  0.00  0.00    -0.274 N 
ATOM     17  C   LIG d   1       5.610  -4.118  -8.756  0.00  0.00     0.042 C 
ATOM     18  H   LIG d   1       6.474  -3.923  -9.392  0.00  0.00     0.051 H 
ATOM     19  C   LIG d   1       5.607  -5.590  -8.335  0.00  0.00     0.010 C 
ATOM     20  C   LIG d   1       4.410  -5.857  -7.418  0.00  0.00    -0.019 C 
ATOM     21  H   LIG d   1       3.486  -5.678  -7.966  0.00  0.00     0.085 H 
ATOM     22  C   LIG d   1       4.469  -4.918  -6.209  0.00  0.00     0.011 C 
ATOM     23  H   LIG d   1       7.357  -1.361  -6.409  0.00  0.00     0.033 H 
ATOM     24  H   LIG d   1       6.271  -0.015  -6.845  0.00  0.00     0.033 H 
ATOM     25  H   LIG d   1       6.541   0.936  -4.200  0.00  0.00     0.062 H 
ATOM     26  H   LIG d   1       5.793   1.576  -1.945  0.00  0.00     0.062 H 
ATOM     27  H   LIG d   1       4.130   0.276  -0.740  0.00  0.00     0.062 H 
ATOM     28  H   LIG d   1       3.108  -1.747  -1.722  0.00  0.00     0.064 H 
ATOM     29  H   LIG d   1       5.534  -6.220  -9.221  0.00  0.00     0.034 H 
ATOM     30  H   LIG d   1       6.530  -5.817  -7.803  0.00  0.00     0.034 H 
ATOM     31  H   LIG d   1       5.370  -5.128  -5.633  0.00  0.00     0.034 H 
ATOM     32  H   LIG d   1       3.590  -5.068  -5.581  0.00  0.00     0.034 H 
ENDROOT
BRANCH  17  33
ATOM     33  C   LIG d   1       4.346  -3.807  -9.515  0.00  0.00    -0.030 A 
ATOM     34  C   LIG d   1       3.483  -2.833  -9.047  0.00  0.00    -0.054 A 
ATOM     35  C   LIG d   1       2.326  -2.542  -9.744  0.00  0.00    -0.019 A 
ATOM     36  H   LIG d   1       3.715  -2.297  -8.139  0.00  0.00     0.062 H 
ATOM     37  C   LIG d   1       2.026  -3.235 -10.908  0.00  0.00     0.130 A 
ATOM     38  H   LIG d   1       1.654  -1.779  -9.380  0.00  0.00     0.065 H 
ATOM     39  C   LIG d   1       2.891  -4.215 -11.371  0.00  0.00    -0.019 A 
ATOM     40  C   LIG d   1       4.049  -4.499 -10.675  0.00  0.00    -0.054 A 
ATOM     41  H   LIG d   1       2.659  -4.756 -12.278  0.00  0.00     0.065 H 
ATOM     42  H   LIG d   1       4.723  -5.262 -11.034  0.00  0.00     0.062 H 
BRANCH  37  43
ATOM     43  O   LIG d   1       0.885  -2.953 -11.592  0.00  0.00    -0.406 OA
BRANCH  43  44
ATOM     44  C   LIG d   1       0.867  -1.744 -12.353  0.00  0.00     0.575 C 
ATOM     45  F   LIG d   1       2.165  -1.439 -12.776  0.00  0.00    -0.133 F 
ATOM     46  F   LIG d   1       0.040  -1.908 -13.469  0.00  0.00    -0.133 F 
ATOM     47  F   LIG d   1       0.378  -0.701 -11.558  0.00  0.00    -0.133 F 
ENDBRANCH  43  44
ENDBRANCH  37  43
ENDBRANCH  17  33
BRANCH   1  48
ATOM     48  C   LIG d   1       6.921  -1.741  -8.978  0.00  0.00     0.325 C 
ATOM     49  O   LIG d   1       8.052  -2.111  -8.765  0.00  0.00    -0.249 OA
BRANCH  48  50
ATOM     50  O   LIG d   1       6.599  -1.225 -10.174  0.00  0.00    -0.467 OA
BRANCH  50  51
ATOM     51  C   LIG d   1       7.098  -1.902 -11.329  0.00  0.00     0.082 C 
ATOM     52  H   LIG d   1       6.433  -1.718 -12.173  0.00  0.00     0.066 H 
ATOM     53  H   LIG d   1       8.096  -1.532 -11.564  0.00  0.00     0.066 H 
ATOM     54  H   LIG d   1       7.144  -2.973 -11.129  0.00  0.00     0.066 H 
ENDBRANCH  50  51
ENDBRANCH  48  50
ENDBRANCH   1  48
BRANCH  20  55
ATOM     55  N   LIG d   1       4.446  -7.251  -6.959  0.00  0.00     0.231 N 
ATOM     56  H   LIG d   1       3.518  -7.645  -7.006  0.00  0.00     0.202 HD
ATOM     57  H   LIG d   1       5.068  -7.783  -7.548  0.00  0.00     0.202 HD
BRANCH  55  58
ATOM     58  C   LIG d   1       4.928  -7.298  -5.571  0.00  0.00    -0.010 C 
ATOM     59  H   LIG d   1       5.875  -6.765  -5.497  0.00  0.00     0.084 H 
ATOM     60  H   LIG d   1       4.194  -6.829  -4.917  0.00  0.00     0.084 H 
BRANCH  58  61
ATOM     61  C   LIG d   1       5.128  -8.756  -5.150  0.00  0.00     0.084 C 
ATOM     62  H   LIG d   1       5.258  -9.376  -6.036  0.00  0.00     0.061 H 
ATOM     63  H   LIG d   1       6.012  -8.833  -4.518  0.00  0.00     0.061 H 
BRANCH  61  64
ATOM     64  O   LIG d   1       3.981  -9.201  -4.421  0.00  0.00    -0.390 OA
ATOM     65  H   LIG d   1       3.146  -9.094  -4.898  0.00  0.00     0.210 HD
ENDBRANCH  61  64
ENDBRANCH  58  61
ENDBRANCH  55  58
ENDBRANCH  20  55
TORSDOF 10
ENDMDL
MODEL 7
REMARK VINA RESULT:      -6.2      5.106      8.224
REMARK  10 active torsions:
REMARK  status: ('A' for Active; 'I' for Inactive)
REMARK    1  A    between atoms: C_1  and  O_2 
REMARK    2  A    between atoms: O_2  and  C_3 
REMARK    3  A    between atoms: C_3  and  C_5 
REMARK    4  A    between atoms: C_21  and  C_31 
REMARK    5  A    between atoms: C_24  and  N_27 
REMARK    6  A    between atoms: N_27  and  C_28 
REMARK    7  A    between atoms: C_28  and  C_29 
REMARK    8  A    between atoms: C_29  and  O_30 
REMARK    9  A    between atoms: C_34  and  O_37 
REMARK   10  A    between atoms: O_37  and  C_38 
ROOT
ATOM      1  C   LIG d   1       6.611  -4.418  -4.922  0.00  0.00     0.113 C 
ATOM      2  H   LIG d   1       6.852  -4.816  -3.936  0.00  0.00     0.058 H 
ATOM      3  C   LIG d   1       5.361  -3.532  -4.825  0.00  0.00     0.001 C 
ATOM      4  C   LIG d   1       5.740  -2.262  -4.107  0.00  0.00    -0.016 A 
ATOM      5  C   LIG d   1       4.887  -1.263  -3.502  0.00  0.00     0.003 A 
ATOM      6  C   LIG d   1       3.498  -1.145  -3.382  0.00  0.00    -0.052 A 
ATOM      7  C   LIG d   1       3.024  -0.035  -2.728  0.00  0.00    -0.061 A 
ATOM      8  C   LIG d   1       3.869   0.929  -2.205  0.00  0.00    -0.060 A 
ATOM      9  C   LIG d   1       5.246   0.837  -2.307  0.00  0.00    -0.038 A 
ATOM     10  C   LIG d   1       5.758  -0.278  -2.968  0.00  0.00     0.047 A 
ATOM     11  N   LIG d   1       7.036  -0.674  -3.240  0.00  0.00    -0.356 N 
ATOM     12  H   LIG d   1       7.837  -0.187  -2.990  0.00  0.00     0.166 HD
ATOM     13  C   LIG d   1       7.019  -1.861  -3.921  0.00  0.00     0.038 A 
ATOM     14  C   LIG d   1       8.204  -2.654  -4.413  0.00  0.00     0.057 C 
ATOM     15  H   LIG d   1       8.659  -3.186  -3.577  0.00  0.00     0.053 H 
ATOM     16  N   LIG d   1       7.738  -3.621  -5.417  0.00  0.00    -0.274 N 
ATOM     17  C   LIG d   1       8.844  -4.470  -5.879  0.00  0.00     0.042 C 
ATOM     18  H   LIG d   1       8.465  -5.203  -6.592  0.00  0.00     0.051 H 
ATOM     19  C   LIG d   1       9.902  -3.595  -6.558  0.00  0.00     0.010 C 
ATOM     20  C   LIG d   1      10.411  -2.546  -5.566  0.00  0.00    -0.019 C 
ATOM     21  H   LIG d   1      10.897  -3.046  -4.728  0.00  0.00     0.085 H 
ATOM     22  C   LIG d   1       9.234  -1.716  -5.045  0.00  0.00     0.011 C 
ATOM     23  H   LIG d   1       4.999  -3.295  -5.826  0.00  0.00     0.033 H 
ATOM     24  H   LIG d   1       4.584  -4.053  -4.266  0.00  0.00     0.033 H 
ATOM     25  H   LIG d   1       2.831  -1.891  -3.788  0.00  0.00     0.062 H 
ATOM     26  H   LIG d   1       1.957   0.088  -2.616  0.00  0.00     0.062 H 
ATOM     27  H   LIG d   1       3.439   1.781  -1.700  0.00  0.00     0.062 H 
ATOM     28  H   LIG d   1       5.895   1.596  -1.896  0.00  0.00     0.064 H 
ATOM     29  H   LIG d   1      10.732  -4.220  -6.886  0.00  0.00     0.034 H 
ATOM     30  H   LIG d   1       9.461  -3.096  -7.421  0.00  0.00     0.034 H 
ATOM     31  H   LIG d   1       8.776  -1.179  -5.876  0.00  0.00     0.034 H 
ATOM     32  H   LIG d   1       9.585  -1.003  -4.298  0.00  0.00     0.034 H 
ENDROOT
BRANCH  17  33
ATOM     33  C   LIG d   1       9.457  -5.182  -4.702  0.00  0.00    -0.030 A 
ATOM     34  C   LIG d   1      10.343  -6.223  -4.911  0.00  0.00    -0.054 A 
ATOM     35  C   LIG d   1      10.912  -6.875  -3.834  0.00  0.00    -0.019 A 
ATOM     36  H   LIG d   1      10.594  -6.525  -5.918  0.00  0.00     0.062 H 
ATOM     37  C   LIG d   1      10.585  -6.490  -2.541  0.00  0.00     0.130 A 
ATOM     38  H   LIG d   1      11.606  -7.685  -3.998  0.00  0.00     0.065 H 
ATOM     39  C   LIG d   1       9.693  -5.449  -2.335  0.00  0.00    -0.019 A 
ATOM     40  C   LIG d   1       9.131  -4.797  -3.415  0.00  0.00    -0.054 A 
ATOM     41  H   LIG d   1       9.437  -5.148  -1.329  0.00  0.00     0.065 H 
ATOM     42  H   LIG d   1       8.435  -3.987  -3.255  0.00  0.00     0.062 H 
BRANCH  37  43
ATOM     43  O   LIG d   1      11.140  -7.133  -1.480  0.00  0.00    -0.406 OA
BRANCH  43  44
ATOM     44  C   LIG d   1      10.597  -8.410  -1.138  0.00  0.00     0.575 C 
ATOM     45  F   LIG d   1       9.251  -8.460  -1.515  0.00  0.00    -0.133 F 
ATOM     46  F   LIG d   1      11.306  -9.413  -1.806  0.00  0.00    -0.133 F 
ATOM     47  F   LIG d   1      10.702  -8.605   0.244  0.00  0.00    -0.133 F 
ENDBRANCH  43  44
ENDBRANCH  37  43
ENDBRANCH  17  33
BRANCH   1  48
ATOM     48  C   LIG d   1       6.346  -5.558  -5.873  0.00  0.00     0.325 C 
ATOM     49  O   LIG d   1       6.057  -5.329  -7.023  0.00  0.00    -0.249 OA
BRANCH  48  50
ATOM     50  O   LIG d   1       6.432  -6.825  -5.441  0.00  0.00    -0.467 OA
BRANCH  50  51
ATOM     51  C   LIG d   1       5.220  -7.581  -5.402  0.00  0.00     0.082 C 
ATOM     52  H   LIG d   1       5.230  -8.325  -6.199  0.00  0.00     0.066 H 
ATOM     53  H   LIG d   1       5.134  -8.081  -4.438  0.00  0.00     0.066 H 
ATOM     54  H   LIG d   1       4.371  -6.911  -5.541  0.00  0.00     0.066 H 
ENDBRANCH  50  51
ENDBRANCH  48  50
ENDBRANCH   1  48
BRANCH  20  55
ATOM     55  N   LIG d   1      11.374  -1.664  -6.238  0.00  0.00     0.231 N 
ATOM     56  H   LIG d   1      12.301  -1.847  -5.882  0.00  0.00     0.202 HD
ATOM     57  H   LIG d   1      11.354  -1.839  -7.231  0.00  0.00     0.202 HD
BRANCH  55  58
ATOM     58  C   LIG d   1      11.018  -0.263  -5.980  0.00  0.00    -0.010 C 
ATOM     59  H   LIG d   1      10.822   0.242  -6.925  0.00  0.00     0.084 H 
ATOM     60  H   LIG d   1      10.126  -0.224  -5.355  0.00  0.00     0.084 H 
BRANCH  58  61
ATOM     61  C   LIG d   1      12.175   0.433  -5.259  0.00  0.00     0.084 C 
ATOM     62  H   LIG d   1      13.089  -0.143  -5.397  0.00  0.00     0.061 H 
ATOM     63  H   LIG d   1      12.310   1.433  -5.670  0.00  0.00     0.061 H 
BRANCH  61  64
ATOM     64  O   LIG d   1      11.878   0.528  -3.864  0.00  0.00    -0.390 OA
ATOM     65  H   LIG d   1      12.608   0.871  -3.329  0.00  0.00     0.210 HD
ENDBRANCH  61  64
ENDBRANCH  58  61
ENDBRANCH  55  58
ENDBRANCH  20  55
TORSDOF 10
ENDMDL
MODEL 8
REMARK VINA RESULT:      -6.2      4.045      7.313
REMARK  10 active torsions:
REMARK  status: ('A' for Active; 'I' for Inactive)
REMARK    1  A    between atoms: C_1  and  O_2 
REMARK    2  A    between atoms: O_2  and  C_3 
REMARK    3  A    between atoms: C_3  and  C_5 
REMARK    4  A    between atoms: C_21  and  C_31 
REMARK    5  A    between atoms: C_24  and  N_27 
REMARK    6  A    between atoms: N_27  and  C_28 
REMARK    7  A    between atoms: C_28  and  C_29 
REMARK    8  A    between atoms: C_29  and  O_30 
REMARK    9  A    between atoms: C_34  and  O_37 
REMARK   10  A    between atoms: O_37  and  C_38 
ROOT
ATOM      1  C   LIG d   1       3.698  -0.009  -5.852  0.00  0.00     0.113 C 
ATOM      2  H   LIG d   1       4.349   0.800  -6.187  0.00  0.00     0.058 H 
ATOM      3  C   LIG d   1       2.591  -0.237  -6.890  0.00  0.00     0.001 C 
ATOM      4  C   LIG d   1       3.211  -0.876  -8.107  0.00  0.00    -0.016 A 
ATOM      5  C   LIG d   1       2.677  -1.007  -9.445  0.00  0.00     0.003 A 
ATOM      6  C   LIG d   1       1.472  -0.606 -10.031  0.00  0.00    -0.052 A 
ATOM      7  C   LIG d   1       1.298  -0.905 -11.360  0.00  0.00    -0.061 A 
ATOM      8  C   LIG d   1       2.264  -1.571 -12.097  0.00  0.00    -0.060 A 
ATOM      9  C   LIG d   1       3.465  -1.978 -11.543  0.00  0.00    -0.038 A 
ATOM     10  C   LIG d   1       3.670  -1.689 -10.195  0.00  0.00     0.047 A 
ATOM     11  N   LIG d   1       4.716  -1.940  -9.355  0.00  0.00    -0.356 N 
ATOM     12  H   LIG d   1       5.535  -2.397  -9.603  0.00  0.00     0.166 HD
ATOM     13  C   LIG d   1       4.436  -1.450  -8.108  0.00  0.00     0.038 A 
ATOM     14  C   LIG d   1       5.314  -1.506  -6.882  0.00  0.00     0.057 C 
ATOM     15  H   LIG d   1       6.096  -0.751  -6.959  0.00  0.00     0.053 H 
ATOM     16  N   LIG d   1       4.485  -1.237  -5.698  0.00  0.00    -0.274 N 
ATOM     17  C   LIG d   1       5.304  -1.210  -4.480  0.00  0.00     0.042 C 
ATOM     18  H   LIG d   1       4.674  -0.970  -3.623  0.00  0.00     0.051 H 
ATOM     19  C   LIG d   1       5.947  -2.584  -4.273  0.00  0.00     0.010 C 
ATOM     20  C   LIG d   1       6.808  -2.934  -5.489  0.00  0.00    -0.019 C 
ATOM     21  H   LIG d   1       7.618  -2.211  -5.580  0.00  0.00     0.085 H 
ATOM     22  C   LIG d   1       5.949  -2.891  -6.757  0.00  0.00     0.011 C 
ATOM     23  H   LIG d   1       1.829  -0.898  -6.476  0.00  0.00     0.033 H 
ATOM     24  H   LIG d   1       2.142   0.717  -7.165  0.00  0.00     0.033 H 
ATOM     25  H   LIG d   1       0.713  -0.088  -9.464  0.00  0.00     0.062 H 
ATOM     26  H   LIG d   1       0.380  -0.610 -11.845  0.00  0.00     0.062 H 
ATOM     27  H   LIG d   1       2.072  -1.779 -13.139  0.00  0.00     0.062 H 
ATOM     28  H   LIG d   1       4.210  -2.497 -12.129  0.00  0.00     0.064 H 
ATOM     29  H   LIG d   1       6.571  -2.561  -3.379  0.00  0.00     0.034 H 
ATOM     30  H   LIG d   1       5.166  -3.335  -4.152  0.00  0.00     0.034 H 
ATOM     31  H   LIG d   1       5.166  -3.647  -6.688  0.00  0.00     0.034 H 
ATOM     32  H   LIG d   1       6.571  -3.088  -7.632  0.00  0.00     0.034 H 
ENDROOT
BRANCH  17  33
ATOM     33  C   LIG d   1       6.381  -0.165  -4.622  0.00  0.00    -0.030 A 
ATOM     34  C   LIG d   1       6.915   0.110  -5.867  0.00  0.00    -0.054 A 
ATOM     35  C   LIG d   1       7.898   1.072  -6.001  0.00  0.00    -0.019 A 
ATOM     36  H   LIG d   1       6.560  -0.424  -6.737  0.00  0.00     0.062 H 
ATOM     37  C   LIG d   1       8.357   1.753  -4.883  0.00  0.00     0.130 A 
ATOM     38  H   LIG d   1       8.312   1.288  -6.975  0.00  0.00     0.065 H 
ATOM     39  C   LIG d   1       7.822   1.471  -3.635  0.00  0.00    -0.019 A 
ATOM     40  C   LIG d   1       6.836   0.513  -3.506  0.00  0.00    -0.054 A 
ATOM     41  H   LIG d   1       8.178   2.001  -2.763  0.00  0.00     0.065 H 
ATOM     42  H   LIG d   1       6.420   0.292  -2.535  0.00  0.00     0.062 H 
BRANCH  37  43
ATOM     43  O   LIG d   1       9.327   2.696  -5.012  0.00  0.00    -0.406 OA
BRANCH  43  44
ATOM     44  C   LIG d   1      10.598   2.403  -4.429  0.00  0.00     0.575 C 
ATOM     45  F   LIG d   1      10.567   2.707  -3.065  0.00  0.00    -0.133 F 
ATOM     46  F   LIG d   1      10.886   1.044  -4.597  0.00  0.00    -0.133 F 
ATOM     47  F   LIG d   1      11.586   3.171  -5.057  0.00  0.00    -0.133 F 
ENDBRANCH  43  44
ENDBRANCH  37  43
ENDBRANCH  17  33
BRANCH   1  48
ATOM     48  C   LIG d   1       3.078   0.360  -4.529  0.00  0.00     0.325 C 
ATOM     49  O   LIG d   1       2.265  -0.374  -4.017  0.00  0.00    -0.249 OA
BRANCH  48  50
ATOM     50  O   LIG d   1       3.428   1.502  -3.919  0.00  0.00    -0.467 OA
BRANCH  50  51
ATOM     51  C   LIG d   1       3.562   1.464  -2.496  0.00  0.00     0.082 C 
ATOM     52  H   LIG d   1       2.574   1.393  -2.041  0.00  0.00     0.066 H 
ATOM     53  H   LIG d   1       4.158   0.598  -2.211  0.00  0.00     0.066 H 
ATOM     54  H   LIG d   1       4.055   2.374  -2.154  0.00  0.00     0.066 H 
ENDBRANCH  50  51
ENDBRANCH  48  50
ENDBRANCH   1  48
BRANCH  20  55
ATOM     55  N   LIG d   1       7.369  -4.281  -5.321  0.00  0.00     0.231 N 
ATOM     56  H   LIG d   1       6.903  -4.746  -4.555  0.00  0.00     0.202 HD
ATOM     57  H   LIG d   1       7.232  -4.810  -6.169  0.00  0.00     0.202 HD
BRANCH  55  58
ATOM     58  C   LIG d   1       8.806  -4.181  -5.032  0.00  0.00    -0.010 C 
ATOM     59  H   LIG d   1       9.357  -4.843  -5.699  0.00  0.00     0.084 H 
ATOM     60  H   LIG d   1       9.136  -3.154  -5.186  0.00  0.00     0.084 H 
BRANCH  58  61
ATOM     61  C   LIG d   1       9.064  -4.587  -3.580  0.00  0.00     0.084 C 
ATOM     62  H   LIG d   1       8.273  -5.257  -3.244  0.00  0.00     0.061 H 
ATOM     63  H   LIG d   1      10.025  -5.096  -3.510  0.00  0.00     0.061 H 
BRANCH  61  64
ATOM     64  O   LIG d   1       9.082  -3.419  -2.755  0.00  0.00    -0.390 OA
ATOM     65  H   LIG d   1       9.947  -2.990  -2.701  0.00  0.00     0.210 HD
ENDBRANCH  61  64
ENDBRANCH  58  61
ENDBRANCH  55  58
ENDBRANCH  20  55
TORSDOF 10
ENDMDL
MODEL 9
REMARK VINA RESULT:      -6.1      3.812      4.853
REMARK  10 active torsions:
REMARK  status: ('A' for Active; 'I' for Inactive)
REMARK    1  A    between atoms: C_1  and  O_2 
REMARK    2  A    between atoms: O_2  and  C_3 
REMARK    3  A    between atoms: C_3  and  C_5 
REMARK    4  A    between atoms: C_21  and  C_31 
REMARK    5  A    between atoms: C_24  and  N_27 
REMARK    6  A    between atoms: N_27  and  C_28 
REMARK    7  A    between atoms: C_28  and  C_29 
REMARK    8  A    between atoms: C_29  and  O_30 
REMARK    9  A    between atoms: C_34  and  O_37 
REMARK   10  A    between atoms: O_37  and  C_38 
ROOT
ATOM      1  C   LIG d   1       9.162  -0.561  -5.752  0.00  0.00     0.113 C 
ATOM      2  H   LIG d   1       8.861   0.043  -6.609  0.00  0.00     0.058 H 
ATOM      3  C   LIG d   1      10.465  -0.000  -5.165  0.00  0.00     0.001 C 
ATOM      4  C   LIG d   1      10.148   1.304  -4.477  0.00  0.00    -0.016 A 
ATOM      5  C   LIG d   1      11.046   2.353  -4.047  0.00  0.00     0.003 A 
ATOM      6  C   LIG d   1      12.434   2.506  -4.120  0.00  0.00    -0.052 A 
ATOM      7  C   LIG d   1      12.960   3.661  -3.596  0.00  0.00    -0.061 A 
ATOM      8  C   LIG d   1      12.164   4.637  -3.021  0.00  0.00    -0.060 A 
ATOM      9  C   LIG d   1      10.789   4.513  -2.936  0.00  0.00    -0.038 A 
ATOM     10  C   LIG d   1      10.225   3.351  -3.459  0.00  0.00     0.047 A 
ATOM     11  N   LIG d   1       8.934   2.916  -3.540  0.00  0.00    -0.356 N 
ATOM     12  H   LIG d   1       8.160   3.401  -3.214  0.00  0.00     0.166 HD
ATOM     13  C   LIG d   1       8.894   1.692  -4.151  0.00  0.00     0.038 A 
ATOM     14  C   LIG d   1       7.675   0.855  -4.448  0.00  0.00     0.057 C 
ATOM     15  H   LIG d   1       7.156   1.260  -5.317  0.00  0.00     0.053 H 
ATOM     16  N   LIG d   1       8.109  -0.521  -4.732  0.00  0.00    -0.274 N 
ATOM     17  C   LIG d   1       6.965  -1.366  -5.097  0.00  0.00     0.042 C 
ATOM     18  H   LIG d   1       7.317  -2.369  -5.341  0.00  0.00     0.051 H 
ATOM     19  C   LIG d   1       5.993  -1.439  -3.917  0.00  0.00     0.010 C 
ATOM     20  C   LIG d   1       5.522  -0.027  -3.555  0.00  0.00    -0.019 C 
ATOM     21  H   LIG d   1       4.975   0.399  -4.396  0.00  0.00     0.085 H 
ATOM     22  C   LIG d   1       6.734   0.855  -3.243  0.00  0.00     0.011 C 
ATOM     23  H   LIG d   1      10.876  -0.706  -4.442  0.00  0.00     0.033 H 
ATOM     24  H   LIG d   1      11.185   0.171  -5.964  0.00  0.00     0.033 H 
ATOM     25  H   LIG d   1      13.063   1.749  -4.565  0.00  0.00     0.062 H 
ATOM     26  H   LIG d   1      14.029   3.813  -3.635  0.00  0.00     0.062 H 
ATOM     27  H   LIG d   1      12.633   5.526  -2.624  0.00  0.00     0.062 H 
ATOM     28  H   LIG d   1      10.179   5.282  -2.484  0.00  0.00     0.064 H 
ATOM     29  H   LIG d   1       5.133  -2.050  -4.192  0.00  0.00     0.034 H 
ATOM     30  H   LIG d   1       6.496  -1.884  -3.059  0.00  0.00     0.034 H 
ATOM     31  H   LIG d   1       7.256   0.457  -2.373  0.00  0.00     0.034 H 
ATOM     32  H   LIG d   1       6.406   1.875  -3.037  0.00  0.00     0.034 H 
ENDROOT
BRANCH  17  33
ATOM     33  C   LIG d   1       6.264  -0.774  -6.293  0.00  0.00    -0.030 A 
ATOM     34  C   LIG d   1       6.840   0.281  -6.977  0.00  0.00    -0.054 A 
ATOM     35  C   LIG d   1       6.202   0.823  -8.077  0.00  0.00    -0.019 A 
ATOM     36  H   LIG d   1       7.790   0.681  -6.653  0.00  0.00     0.062 H 
ATOM     37  C   LIG d   1       4.979   0.313  -8.488  0.00  0.00     0.130 A 
ATOM     38  H   LIG d   1       6.654   1.644  -8.612  0.00  0.00     0.065 H 
ATOM     39  C   LIG d   1       4.402  -0.742  -7.797  0.00  0.00    -0.019 A 
ATOM     40  C   LIG d   1       5.045  -1.283  -6.702  0.00  0.00    -0.054 A 
ATOM     41  H   LIG d   1       3.450  -1.140  -8.116  0.00  0.00     0.065 H 
ATOM     42  H   LIG d   1       4.597  -2.105  -6.163  0.00  0.00     0.062 H 
BRANCH  37  43
ATOM     43  O   LIG d   1       4.348   0.848  -9.567  0.00  0.00    -0.406 OA
BRANCH  43  44
ATOM     44  C   LIG d   1       3.219   1.684  -9.310  0.00  0.00     0.575 C 
ATOM     45  F   LIG d   1       3.228   2.766 -10.196  0.00  0.00    -0.133 F 
ATOM     46  F   LIG d   1       2.043   0.947  -9.488  0.00  0.00    -0.133 F 
ATOM     47  F   LIG d   1       3.279   2.157  -7.994  0.00  0.00    -0.133 F 
ENDBRANCH  43  44
ENDBRANCH  37  43
ENDBRANCH  17  33
BRANCH   1  48
ATOM     48  C   LIG d   1       9.381  -1.985  -6.193  0.00  0.00     0.325 C 
ATOM     49  O   LIG d   1       9.240  -2.285  -7.355  0.00  0.00    -0.249 OA
BRANCH  48  50
ATOM     50  O   LIG d   1       9.732  -2.919  -5.296  0.00  0.00    -0.467 OA
BRANCH  50  51
ATOM     51  C   LIG d   1       9.358  -4.268  -5.584  0.00  0.00     0.082 C 
ATOM     52  H   LIG d   1       8.872  -4.703  -4.711  0.00  0.00     0.066 H 
ATOM     53  H   LIG d   1       8.670  -4.282  -6.429  0.00  0.00     0.066 H 
ATOM     54  H   LIG d   1      10.249  -4.846  -5.830  0.00  0.00     0.066 H 
ENDBRANCH  50  51
ENDBRANCH  48  50
ENDBRANCH   1  48
BRANCH  20  55
ATOM     55  N   LIG d   1       4.644  -0.090  -2.380  0.00  0.00     0.231 N 
ATOM     56  H   LIG d   1       4.555  -1.049  -2.077  0.00  0.00     0.202 HD
ATOM     57  H   LIG d   1       5.040   0.463  -1.634  0.00  0.00     0.202 HD
BRANCH  55  58
ATOM     58  C   LIG d   1       3.318   0.438  -2.729  0.00  0.00    -0.010 C 
ATOM     59  H   LIG d   1       2.809   0.769  -1.825  0.00  0.00     0.084 H 
ATOM     60  H   LIG d   1       3.431   1.280  -3.412  0.00  0.00     0.084 H 
BRANCH  58  61
ATOM     61  C   LIG d   1       2.494  -0.660  -3.407  0.00  0.00     0.084 C 
ATOM     62  H   LIG d   1       3.106  -1.554  -3.523  0.00  0.00     0.061 H 
ATOM     63  H   LIG d   1       1.624  -0.891  -2.794  0.00  0.00     0.061 H 
BRANCH  61  64
ATOM     64  O   LIG d   1       2.065  -0.206  -4.693  0.00  0.00    -0.390 OA
ATOM     65  H   LIG d   1       2.692   0.387  -5.130  0.00  0.00     0.210 HD
ENDBRANCH  61  64
ENDBRANCH  58  61
ENDBRANCH  55  58
ENDBRANCH  20  55
TORSDOF 10
ENDMDL
MODEL 10
REMARK VINA RESULT:      -6.1      3.757      5.916
REMARK  10 active torsions:
REMARK  status: ('A' for Active; 'I' for Inactive)
REMARK    1  A    between atoms: C_1  and  O_2 
REMARK    2  A    between atoms: O_2  and  C_3 
REMARK    3  A    between atoms: C_3  and  C_5 
REMARK    4  A    between atoms: C_21  and  C_31 
REMARK    5  A    between atoms: C_24  and  N_27 
REMARK    6  A    between atoms: N_27  and  C_28 
REMARK    7  A    between atoms: C_28  and  C_29 
REMARK    8  A    between atoms: C_29  and  O_30 
REMARK    9  A    between atoms: C_34  and  O_37 
REMARK   10  A    between atoms: O_37  and  C_38 
ROOT
ATOM      1  C   LIG d   1       8.586  -4.630  -5.151  0.00  0.00     0.113 C 
ATOM      2  H   LIG d   1       8.148  -4.251  -4.227  0.00  0.00     0.058 H 
ATOM      3  C   LIG d   1       8.684  -6.160  -5.081  0.00  0.00     0.001 C 
ATOM      4  C   LIG d   1       7.291  -6.726  -5.190  0.00  0.00    -0.016 A 
ATOM      5  C   LIG d   1       6.817  -8.056  -4.876  0.00  0.00     0.003 A 
ATOM      6  C   LIG d   1       7.454  -9.203  -4.391  0.00  0.00    -0.052 A 
ATOM      7  C   LIG d   1       6.672 -10.316  -4.207  0.00  0.00    -0.061 A 
ATOM      8  C   LIG d   1       5.315 -10.317  -4.485  0.00  0.00    -0.060 A 
ATOM      9  C   LIG d   1       4.659  -9.197  -4.965  0.00  0.00    -0.038 A 
ATOM     10  C   LIG d   1       5.427  -8.051  -5.162  0.00  0.00     0.047 A 
ATOM     11  N   LIG d   1       5.108  -6.802  -5.612  0.00  0.00    -0.356 N 
ATOM     12  H   LIG d   1       4.221  -6.516  -5.882  0.00  0.00     0.166 HD
ATOM     13  C   LIG d   1       6.227  -6.014  -5.625  0.00  0.00     0.038 A 
ATOM     14  C   LIG d   1       6.325  -4.569  -6.045  0.00  0.00     0.057 C 
ATOM     15  H   LIG d   1       5.935  -3.931  -5.252  0.00  0.00     0.053 H 
ATOM     16  N   LIG d   1       7.739  -4.245  -6.286  0.00  0.00    -0.274 N 
ATOM     17  C   LIG d   1       7.901  -2.827  -6.630  0.00  0.00     0.042 C 
ATOM     18  H   LIG d   1       8.960  -2.604  -6.764  0.00  0.00     0.051 H 
ATOM     19  C   LIG d   1       7.148  -2.534  -7.931  0.00  0.00     0.010 C 
ATOM     20  C   LIG d   1       5.666  -2.876  -7.751  0.00  0.00    -0.019 C 
ATOM     21  H   LIG d   1       5.237  -2.236  -6.981  0.00  0.00     0.085 H 
ATOM     22  C   LIG d   1       5.524  -4.341  -7.327  0.00  0.00     0.011 C 
ATOM     23  H   LIG d   1       9.296  -6.527  -5.906  0.00  0.00     0.033 H 
ATOM     24  H   LIG d   1       9.129  -6.457  -4.132  0.00  0.00     0.033 H 
ATOM     25  H   LIG d   1       8.511  -9.212  -4.173  0.00  0.00     0.062 H 
ATOM     26  H   LIG d   1       7.130 -11.220  -3.833  0.00  0.00     0.062 H 
ATOM     27  H   LIG d   1       4.750 -11.223  -4.321  0.00  0.00     0.062 H 
ATOM     28  H   LIG d   1       3.600  -9.211  -5.178  0.00  0.00     0.064 H 
ATOM     29  H   LIG d   1       7.251  -1.477  -8.178  0.00  0.00     0.034 H 
ATOM     30  H   LIG d   1       7.565  -3.139  -8.735  0.00  0.00     0.034 H 
ATOM     31  H   LIG d   1       5.910  -4.984  -8.118  0.00  0.00     0.034 H 
ATOM     32  H   LIG d   1       4.474  -4.573  -7.147  0.00  0.00     0.034 H 
ENDROOT
BRANCH  17  33
ATOM     33  C   LIG d   1       7.343  -1.973  -5.520  0.00  0.00    -0.030 A 
ATOM     34  C   LIG d   1       7.194  -0.611  -5.707  0.00  0.00    -0.054 A 
ATOM     35  C   LIG d   1       6.678   0.173  -4.693  0.00  0.00    -0.019 A 
ATOM     36  H   LIG d   1       7.479  -0.160  -6.647  0.00  0.00     0.062 H 
ATOM     37  C   LIG d   1       6.319  -0.405  -3.485  0.00  0.00     0.130 A 
ATOM     38  H   LIG d   1       6.559   1.236  -4.841  0.00  0.00     0.065 H 
ATOM     39  C   LIG d   1       6.474  -1.771  -3.299  0.00  0.00    -0.019 A 
ATOM     40  C   LIG d   1       6.985  -2.552  -4.317  0.00  0.00    -0.054 A 
ATOM     41  H   LIG d   1       6.195  -2.223  -2.359  0.00  0.00     0.065 H 
ATOM     42  H   LIG d   1       7.107  -3.615  -4.173  0.00  0.00     0.062 H 
BRANCH  37  43
ATOM     43  O   LIG d   1       5.815   0.366  -2.485  0.00  0.00    -0.406 OA
BRANCH  43  44
ATOM     44  C   LIG d   1       4.446   0.159  -2.134  0.00  0.00     0.575 C 
ATOM     45  F   LIG d   1       4.350  -0.911  -1.239  0.00  0.00    -0.133 F 
ATOM     46  F   LIG d   1       3.939   1.316  -1.532  0.00  0.00    -0.133 F 
ATOM     47  F   LIG d   1       3.707  -0.129  -3.287  0.00  0.00    -0.133 F 
ENDBRANCH  43  44
ENDBRANCH  37  43
ENDBRANCH  17  33
BRANCH   1  48
ATOM     48  C   LIG d   1       9.963  -4.045  -5.332  0.00  0.00     0.325 C 
ATOM     49  O   LIG d   1      10.639  -4.373  -6.278  0.00  0.00    -0.249 OA
BRANCH  48  50
ATOM     50  O   LIG d   1      10.439  -3.161  -4.442  0.00  0.00    -0.467 OA
BRANCH  50  51
ATOM     51  C   LIG d   1      11.837  -2.871  -4.499  0.00  0.00     0.082 C 
ATOM     52  H   LIG d   1      12.095  -2.169  -3.705  0.00  0.00     0.066 H 
ATOM     53  H   LIG d   1      12.405  -3.792  -4.369  0.00  0.00     0.066 H 
ATOM     54  H   LIG d   1      12.076  -2.428  -5.466  0.00  0.00     0.066 H 
ENDBRANCH  50  51
ENDBRANCH  48  50
ENDBRANCH   1  48
BRANCH  20  55
ATOM     55  N   LIG d   1       4.957  -2.660  -9.019  0.00  0.00     0.231 N 
ATOM     56  H   LIG d   1       5.618  -2.683  -9.782  0.00  0.00     0.202 HD
ATOM     57  H   LIG d   1       4.270  -3.387  -9.147  0.00  0.00     0.202 HD
BRANCH  55  58
ATOM     58  C   LIG d   1       4.289  -1.353  -8.991  0.00  0.00    -0.010 C 
ATOM     59  H   LIG d   1       4.976  -0.585  -9.345  0.00  0.00     0.084 H 
ATOM     60  H   LIG d   1       3.411  -1.380  -9.636  0.00  0.00     0.084 H 
BRANCH  58  61
ATOM     61  C   LIG d   1       3.857  -1.031  -7.558  0.00  0.00     0.084 C 
ATOM     62  H   LIG d   1       3.900  -1.937  -6.954  0.00  0.00     0.061 H 
ATOM     63  H   LIG d   1       4.526  -0.281  -7.136  0.00  0.00     0.061 H 
BRANCH  61  64
ATOM     64  O   LIG d   1       2.520  -0.527  -7.566  0.00  0.00    -0.390 OA
ATOM     65  H   LIG d   1       1.928  -0.972  -6.944  0.00  0.00     0.210 HD
ENDBRANCH  61  64
ENDBRANCH  58  61
ENDBRANCH  55  58
ENDBRANCH  20  55
TORSDOF 10
ENDMDL
