MODEL 1
REMARK VINA RESULT:      -5.9      0.000      0.000
REMARK  14 active torsions:
REMARK  status: ('A' for Active; 'I' for Inactive)
REMARK    1  A    between atoms: C_1  and  C_2 
REMARK    2  A    between atoms: C_2  and  C_3 
REMARK    3  A    between atoms: C_3  and  C_4 
REMARK    4  A    between atoms: C_4  and  O_6 
REMARK    5  A    between atoms: O_6  and  C_7 
REMARK    6  A    between atoms: C_7  and  O_8 
REMARK    7  A    between atoms: O_8  and  C_9 
REMARK    8  A    between atoms: C_9  and  C_11 
REMARK    9  A    between atoms: C_12  and  C_31 
REMARK   10  A    between atoms: C_14  and  C_30 
REMARK   11  A    between atoms: C_15  and  C_26 
REMARK   12  A    between atoms: C_16  and  C_18 
REMARK   13  A    between atoms: C_26  and  O_28 
REMARK   14  A    between atoms: O_28  and  C_29 
ROOT
ATOM      1  C   LIG d   1       6.103  -1.323  -6.678  0.00  0.00     0.065 C 
ATOM      2  C   LIG d   1       5.935  -2.376  -7.497  0.00  0.00     0.016 C 
ATOM      3  N   LIG d   1       6.445  -3.603  -7.174  0.00  0.00    -0.321 N 
ATOM      4  C   LIG d   1       7.425  -3.715  -6.227  0.00  0.00     0.016 C 
ATOM      5  C   LIG d   1       7.652  -2.720  -5.351  0.00  0.00     0.065 C 
ATOM      6  C   LIG d   1       6.845  -1.453  -5.378  0.00  0.00     0.052 C 
ATOM      7  H   LIG d   1       7.530  -0.598  -5.278  0.00  0.00     0.045 H 
ATOM      8  H   LIG d   1       6.067  -4.505  -7.678  0.00  0.00     0.152 HD
ENDROOT
BRANCH   1   9
ATOM      9  C   LIG d   1       5.569  -0.067  -7.047  0.00  0.00     0.340 C 
ATOM     10  O   LIG d   1       4.375   0.143  -6.939  0.00  0.00    -0.245 OA
BRANCH   9  11
ATOM     11  O   LIG d   1       6.384   0.900  -7.521  0.00  0.00    -0.424 OA
BRANCH  11  12
ATOM     12  C   LIG d   1       6.431   1.070  -8.939  0.00  0.00     0.239 C 
ATOM     13  H   LIG d   1       5.918   0.228  -9.427  0.00  0.00     0.117 H 
ATOM     14  H   LIG d   1       7.480   1.102  -9.270  0.00  0.00     0.117 H 
BRANCH  12  15
ATOM     15  O   LIG d   1       5.772   2.313  -9.299  0.00  0.00    -0.427 OA
BRANCH  15  16
ATOM     16  C   LIG d   1       4.444   2.264  -9.495  0.00  0.00     0.310 C 
ATOM     17  O   LIG d   1       3.700   2.840  -8.736  0.00  0.00    -0.251 OA
BRANCH  16  18
ATOM     18  C   LIG d   1       3.881   1.491 -10.659  0.00  0.00     0.045 C 
ATOM     19  H   LIG d   1       4.702   1.006 -11.208  0.00  0.00     0.038 H 
ATOM     20  H   LIG d   1       3.346   2.178 -11.331  0.00  0.00     0.038 H 
BRANCH  18  21
ATOM     21  C   LIG d   1       2.913   0.425 -10.144  0.00  0.00    -0.046 C 
ATOM     22  H   LIG d   1       1.988   0.907  -9.794  0.00  0.00     0.027 H 
ATOM     23  H   LIG d   1       3.379  -0.122  -9.311  0.00  0.00     0.027 H 
BRANCH  21  24
ATOM     24  C   LIG d   1       2.582  -0.553 -11.274  0.00  0.00    -0.065 C 
ATOM     25  H   LIG d   1       2.249   0.010 -12.158  0.00  0.00     0.023 H 
ATOM     26  H   LIG d   1       1.780  -1.232 -10.948  0.00  0.00     0.023 H 
ATOM     27  H   LIG d   1       3.478  -1.137 -11.527  0.00  0.00     0.023 H 
ENDBRANCH  21  24
ENDBRANCH  18  21
ENDBRANCH  16  18
ENDBRANCH  15  16
ENDBRANCH  12  15
ENDBRANCH  11  12
ENDBRANCH   9  11
ENDBRANCH   1   9
BRANCH   6  28
ATOM     28  C   LIG d   1       5.855  -1.470  -4.242  0.00  0.00    -0.015 A 
ATOM     29  C   LIG d   1       5.739  -0.372  -3.410  0.00  0.00     0.063 A 
ATOM     30  C   LIG d   1       4.824  -0.387  -2.370  0.00  0.00     0.059 A 
ATOM     31 CL   LIG d   1       6.733   1.026  -3.672  0.00  0.00    -0.082 Cl
ATOM     32  C   LIG d   1       4.036  -1.503  -2.158  0.00  0.00    -0.042 A 
ATOM     33 CL   LIG d   1       4.671   0.995  -1.329  0.00  0.00    -0.082 Cl
ATOM     34  C   LIG d   1       4.159  -2.602  -2.987  0.00  0.00    -0.060 A 
ATOM     35  H   LIG d   1       3.327  -1.517  -1.344  0.00  0.00     0.063 H 
ATOM     36  C   LIG d   1       5.066  -2.585  -4.029  0.00  0.00    -0.056 A 
ATOM     37  H   LIG d   1       3.543  -3.474  -2.821  0.00  0.00     0.062 H 
ATOM     38  H   LIG d   1       5.161  -3.444  -4.677  0.00  0.00     0.062 H 
ENDBRANCH   6  28
BRANCH   2  39
ATOM     39  C   LIG d   1       5.176  -2.201  -8.788  0.00  0.00    -0.026 C 
ATOM     40  H   LIG d   1       4.247  -1.646  -8.594  0.00  0.00     0.029 H 
ATOM     41  H   LIG d   1       4.933  -3.189  -9.206  0.00  0.00     0.029 H 
ATOM     42  H   LIG d   1       5.794  -1.641  -9.505  0.00  0.00     0.029 H 
ENDBRANCH   2  39
BRANCH   5  43
ATOM     43  C   LIG d   1       8.675  -2.868  -4.385  0.00  0.00     0.337 C 
ATOM     44  O   LIG d   1       8.422  -3.361  -3.303  0.00  0.00    -0.245 OA
BRANCH  43  45
ATOM     45  O   LIG d   1       9.931  -2.464  -4.666  0.00  0.00    -0.465 OA
BRANCH  45  46
ATOM     46  C   LIG d   1      11.000  -3.219  -4.092  0.00  0.00     0.082 C 
ATOM     47  H   LIG d   1      10.820  -4.291  -4.257  0.00  0.00     0.066 H 
ATOM     48  H   LIG d   1      11.051  -3.019  -3.011  0.00  0.00     0.066 H 
ATOM     49  H   LIG d   1      11.949  -2.929  -4.564  0.00  0.00     0.066 H 
ENDBRANCH  45  46
ENDBRANCH  43  45
ENDBRANCH   5  43
BRANCH   4  50
ATOM     50  C   LIG d   1       8.257  -4.969  -6.160  0.00  0.00    -0.026 C 
ATOM     51  H   LIG d   1       8.199  -5.501  -7.120  0.00  0.00     0.029 H 
ATOM     52  H   LIG d   1       7.876  -5.619  -5.357  0.00  0.00     0.029 H 
ATOM     53  H   LIG d   1       9.304  -4.704  -5.951  0.00  0.00     0.029 H 
ENDBRANCH   4  50
TORSDOF 14
ENDMDL
MODEL 2
REMARK VINA RESULT:      -5.9      2.738      4.688
REMARK  14 active torsions:
REMARK  status: ('A' for Active; 'I' for Inactive)
REMARK    1  A    between atoms: C_1  and  C_2 
REMARK    2  A    between atoms: C_2  and  C_3 
REMARK    3  A    between atoms: C_3  and  C_4 
REMARK    4  A    between atoms: C_4  and  O_6 
REMARK    5  A    between atoms: O_6  and  C_7 
REMARK    6  A    between atoms: C_7  and  O_8 
REMARK    7  A    between atoms: O_8  and  C_9 
REMARK    8  A    between atoms: C_9  and  C_11 
REMARK    9  A    between atoms: C_12  and  C_31 
REMARK   10  A    between atoms: C_14  and  C_30 
REMARK   11  A    between atoms: C_15  and  C_26 
REMARK   12  A    between atoms: C_16  and  C_18 
REMARK   13  A    between atoms: C_26  and  O_28 
REMARK   14  A    between atoms: O_28  and  C_29 
ROOT
ATOM      1  C   LIG d   1       6.997   0.633  -5.332  0.00  0.00     0.065 C 
ATOM      2  C   LIG d   1       7.314   1.395  -4.271  0.00  0.00     0.016 C 
ATOM      3  N   LIG d   1       6.613   1.292  -3.100  0.00  0.00    -0.321 N 
ATOM      4  C   LIG d   1       5.378   0.704  -3.086  0.00  0.00     0.016 C 
ATOM      5  C   LIG d   1       4.983  -0.092  -4.096  0.00  0.00     0.065 C 
ATOM      6  C   LIG d   1       5.875  -0.364  -5.274  0.00  0.00     0.052 C 
ATOM      7  H   LIG d   1       5.278  -0.274  -6.194  0.00  0.00     0.045 H 
ATOM      8  H   LIG d   1       7.042   1.683  -2.166  0.00  0.00     0.152 HD
ENDROOT
BRANCH   1   9
ATOM      9  C   LIG d   1       7.738   0.771  -6.529  0.00  0.00     0.340 C 
ATOM     10  O   LIG d   1       8.692   0.044  -6.742  0.00  0.00    -0.245 OA
BRANCH   9  11
ATOM     11  O   LIG d   1       7.389   1.709  -7.434  0.00  0.00    -0.424 OA
BRANCH  11  12
ATOM     12  C   LIG d   1       6.541   1.292  -8.506  0.00  0.00     0.239 C 
ATOM     13  H   LIG d   1       6.004   0.377  -8.215  0.00  0.00     0.117 H 
ATOM     14  H   LIG d   1       7.151   1.090  -9.399  0.00  0.00     0.117 H 
BRANCH  12  15
ATOM     15  O   LIG d   1       5.583   2.342  -8.802  0.00  0.00    -0.427 OA
BRANCH  15  16
ATOM     16  C   LIG d   1       4.456   1.978  -9.434  0.00  0.00     0.310 C 
ATOM     17  O   LIG d   1       4.505   1.576 -10.573  0.00  0.00    -0.251 OA
BRANCH  16  18
ATOM     18  C   LIG d   1       3.130   2.072  -8.725  0.00  0.00     0.045 C 
ATOM     19  H   LIG d   1       2.316   2.041  -9.465  0.00  0.00     0.038 H 
ATOM     20  H   LIG d   1       3.080   3.016  -8.164  0.00  0.00     0.038 H 
BRANCH  18  21
ATOM     21  C   LIG d   1       2.984   0.895  -7.758  0.00  0.00    -0.046 C 
ATOM     22  H   LIG d   1       2.370   1.201  -6.898  0.00  0.00     0.027 H 
ATOM     23  H   LIG d   1       3.979   0.585  -7.406  0.00  0.00     0.027 H 
BRANCH  21  24
ATOM     24  C   LIG d   1       2.308  -0.275  -8.476  0.00  0.00    -0.065 C 
ATOM     25  H   LIG d   1       1.651   0.113  -9.269  0.00  0.00     0.023 H 
ATOM     26  H   LIG d   1       1.711  -0.852  -7.755  0.00  0.00     0.023 H 
ATOM     27  H   LIG d   1       3.076  -0.924  -8.921  0.00  0.00     0.023 H 
ENDBRANCH  21  24
ENDBRANCH  18  21
ENDBRANCH  16  18
ENDBRANCH  15  16
ENDBRANCH  12  15
ENDBRANCH  11  12
ENDBRANCH   9  11
ENDBRANCH   1   9
BRANCH   6  28
ATOM     28  C   LIG d   1       6.449  -1.751  -5.152  0.00  0.00    -0.015 A 
ATOM     29  C   LIG d   1       6.151  -2.709  -6.104  0.00  0.00     0.063 A 
ATOM     30  C   LIG d   1       6.685  -3.982  -5.995  0.00  0.00     0.059 A 
ATOM     31 CL   LIG d   1       5.115  -2.314  -7.440  0.00  0.00    -0.082 Cl
ATOM     32  C   LIG d   1       7.505  -4.298  -4.927  0.00  0.00    -0.042 A 
ATOM     33 CL   LIG d   1       6.319  -5.183  -7.194  0.00  0.00    -0.082 Cl
ATOM     34  C   LIG d   1       7.797  -3.341  -3.973  0.00  0.00    -0.060 A 
ATOM     35  H   LIG d   1       7.917  -5.293  -4.838  0.00  0.00     0.063 H 
ATOM     36  C   LIG d   1       7.270  -2.068  -4.086  0.00  0.00    -0.056 A 
ATOM     37  H   LIG d   1       8.438  -3.588  -3.140  0.00  0.00     0.062 H 
ATOM     38  H   LIG d   1       7.499  -1.321  -3.340  0.00  0.00     0.062 H 
ENDBRANCH   6  28
BRANCH   2  39
ATOM     39  C   LIG d   1       8.455   2.375  -4.372  0.00  0.00    -0.026 C 
ATOM     40  H   LIG d   1       9.279   1.921  -4.939  0.00  0.00     0.029 H 
ATOM     41  H   LIG d   1       8.804   2.635  -3.362  0.00  0.00     0.029 H 
ATOM     42  H   LIG d   1       8.113   3.285  -4.887  0.00  0.00     0.029 H 
ENDBRANCH   2  39
BRANCH   5  43
ATOM     43  C   LIG d   1       3.698  -0.681  -4.050  0.00  0.00     0.337 C 
ATOM     44  O   LIG d   1       2.714  -0.015  -4.306  0.00  0.00    -0.245 OA
BRANCH  43  45
ATOM     45  O   LIG d   1       3.564  -1.983  -3.721  0.00  0.00    -0.465 OA
BRANCH  45  46
ATOM     46  C   LIG d   1       3.862  -2.345  -2.372  0.00  0.00     0.082 C 
ATOM     47  H   LIG d   1       3.097  -3.043  -2.002  0.00  0.00     0.066 H 
ATOM     48  H   LIG d   1       3.869  -1.443  -1.743  0.00  0.00     0.066 H 
ATOM     49  H   LIG d   1       4.849  -2.828  -2.331  0.00  0.00     0.066 H 
ENDBRANCH  45  46
ENDBRANCH  43  45
ENDBRANCH   5  43
BRANCH   4  50
ATOM     50  C   LIG d   1       4.452   0.945  -1.924  0.00  0.00    -0.026 C 
ATOM     51  H   LIG d   1       5.043   1.126  -1.014  0.00  0.00     0.029 H 
ATOM     52  H   LIG d   1       3.811   0.063  -1.775  0.00  0.00     0.029 H 
ATOM     53  H   LIG d   1       3.822   1.824  -2.131  0.00  0.00     0.029 H 
ENDBRANCH   4  50
TORSDOF 14
ENDMDL
MODEL 3
REMARK VINA RESULT:      -5.8      2.761      5.445
REMARK  14 active torsions:
REMARK  status: ('A' for Active; 'I' for Inactive)
REMARK    1  A    between atoms: C_1  and  C_2 
REMARK    2  A    between atoms: C_2  and  C_3 
REMARK    3  A    between atoms: C_3  and  C_4 
REMARK    4  A    between atoms: C_4  and  O_6 
REMARK    5  A    between atoms: O_6  and  C_7 
REMARK    6  A    between atoms: C_7  and  O_8 
REMARK    7  A    between atoms: O_8  and  C_9 
REMARK    8  A    between atoms: C_9  and  C_11 
REMARK    9  A    between atoms: C_12  and  C_31 
REMARK   10  A    between atoms: C_14  and  C_30 
REMARK   11  A    between atoms: C_15  and  C_26 
REMARK   12  A    between atoms: C_16  and  C_18 
REMARK   13  A    between atoms: C_26  and  O_28 
REMARK   14  A    between atoms: O_28  and  C_29 
ROOT
ATOM      1  C   LIG d   1       7.068  -1.547  -5.522  0.00  0.00     0.065 C 
ATOM      2  C   LIG d   1       8.273  -2.139  -5.592  0.00  0.00     0.016 C 
ATOM      3  N   LIG d   1       8.393  -3.437  -6.007  0.00  0.00    -0.321 N 
ATOM      4  C   LIG d   1       7.303  -4.263  -6.009  0.00  0.00     0.016 C 
ATOM      5  C   LIG d   1       6.057  -3.759  -5.962  0.00  0.00     0.065 C 
ATOM      6  C   LIG d   1       5.813  -2.278  -5.905  0.00  0.00     0.052 C 
ATOM      7  H   LIG d   1       5.044  -2.079  -5.143  0.00  0.00     0.045 H 
ATOM      8  H   LIG d   1       9.368  -3.819  -6.341  0.00  0.00     0.152 HD
ENDROOT
BRANCH   1   9
ATOM      9  C   LIG d   1       6.980  -0.206  -5.081  0.00  0.00     0.340 C 
ATOM     10  O   LIG d   1       6.994   0.703  -5.890  0.00  0.00    -0.245 OA
BRANCH   9  11
ATOM     11  O   LIG d   1       6.883   0.065  -3.762  0.00  0.00    -0.424 OA
BRANCH  11  12
ATOM     12  C   LIG d   1       6.591   1.416  -3.398  0.00  0.00     0.239 C 
ATOM     13  H   LIG d   1       6.216   1.960  -4.277  0.00  0.00     0.117 H 
ATOM     14  H   LIG d   1       7.506   1.902  -3.028  0.00  0.00     0.117 H 
BRANCH  12  15
ATOM     15  O   LIG d   1       5.581   1.429  -2.355  0.00  0.00    -0.427 OA
BRANCH  15  16
ATOM     16  C   LIG d   1       4.299   1.366  -2.747  0.00  0.00     0.310 C 
ATOM     17  O   LIG d   1       3.832   2.249  -3.428  0.00  0.00    -0.251 OA
BRANCH  16  18
ATOM     18  C   LIG d   1       3.442   0.195  -2.340  0.00  0.00     0.045 C 
ATOM     19  H   LIG d   1       2.845  -0.139  -3.201  0.00  0.00     0.038 H 
ATOM     20  H   LIG d   1       2.770   0.499  -1.524  0.00  0.00     0.038 H 
BRANCH  18  21
ATOM     21  C   LIG d   1       4.337  -0.951  -1.863  0.00  0.00    -0.046 C 
ATOM     22  H   LIG d   1       4.206  -1.093  -0.781  0.00  0.00     0.027 H 
ATOM     23  H   LIG d   1       5.388  -0.708  -2.077  0.00  0.00     0.027 H 
BRANCH  21  24
ATOM     24  C   LIG d   1       3.951  -2.238  -2.597  0.00  0.00    -0.065 C 
ATOM     25  H   LIG d   1       2.877  -2.432  -2.454  0.00  0.00     0.023 H 
ATOM     26  H   LIG d   1       4.532  -3.079  -2.192  0.00  0.00     0.023 H 
ATOM     27  H   LIG d   1       4.164  -2.126  -3.670  0.00  0.00     0.023 H 
ENDBRANCH  21  24
ENDBRANCH  18  21
ENDBRANCH  16  18
ENDBRANCH  15  16
ENDBRANCH  12  15
ENDBRANCH  11  12
ENDBRANCH   9  11
ENDBRANCH   1   9
BRANCH   6  28
ATOM     28  C   LIG d   1       5.351  -1.798  -7.256  0.00  0.00    -0.015 A 
ATOM     29  C   LIG d   1       4.280  -0.929  -7.352  0.00  0.00     0.063 A 
ATOM     30  C   LIG d   1       3.861  -0.483  -8.594  0.00  0.00     0.059 A 
ATOM     31 CL   LIG d   1       3.465  -0.391  -5.916  0.00  0.00    -0.082 Cl
ATOM     32  C   LIG d   1       4.506  -0.916  -9.738  0.00  0.00    -0.042 A 
ATOM     33 CL   LIG d   1       2.521   0.616  -8.716  0.00  0.00    -0.082 Cl
ATOM     34  C   LIG d   1       5.573  -1.790  -9.640  0.00  0.00    -0.060 A 
ATOM     35  H   LIG d   1       4.175  -0.573 -10.707  0.00  0.00     0.063 H 
ATOM     36  C   LIG d   1       5.996  -2.229  -8.400  0.00  0.00    -0.056 A 
ATOM     37  H   LIG d   1       6.077  -2.128 -10.534  0.00  0.00     0.062 H 
ATOM     38  H   LIG d   1       6.829  -2.912  -8.325  0.00  0.00     0.062 H 
ENDBRANCH   6  28
BRANCH   2  39
ATOM     39  C   LIG d   1       9.507  -1.364  -5.207  0.00  0.00    -0.026 C 
ATOM     40  H   LIG d   1      10.382  -1.793  -5.714  0.00  0.00     0.029 H 
ATOM     41  H   LIG d   1       9.650  -1.419  -4.118  0.00  0.00     0.029 H 
ATOM     42  H   LIG d   1       9.388  -0.312  -5.508  0.00  0.00     0.029 H 
ENDBRANCH   2  39
BRANCH   5  43
ATOM     43  C   LIG d   1       4.953  -4.644  -5.963  0.00  0.00     0.337 C 
ATOM     44  O   LIG d   1       4.277  -4.772  -4.960  0.00  0.00    -0.245 OA
BRANCH  43  45
ATOM     45  O   LIG d   1       4.649  -5.343  -7.076  0.00  0.00    -0.465 OA
BRANCH  45  46
ATOM     46  C   LIG d   1       3.537  -4.885  -7.847  0.00  0.00     0.082 C 
ATOM     47  H   LIG d   1       3.499  -3.786  -7.818  0.00  0.00     0.066 H 
ATOM     48  H   LIG d   1       2.606  -5.294  -7.427  0.00  0.00     0.066 H 
ATOM     49  H   LIG d   1       3.648  -5.221  -8.888  0.00  0.00     0.066 H 
ENDBRANCH  45  46
ENDBRANCH  43  45
ENDBRANCH   5  43
BRANCH   4  50
ATOM     50  C   LIG d   1       7.500  -5.755  -6.070  0.00  0.00    -0.026 C 
ATOM     51  H   LIG d   1       6.593  -6.230  -6.474  0.00  0.00     0.029 H 
ATOM     52  H   LIG d   1       7.695  -6.141  -5.058  0.00  0.00     0.029 H 
ATOM     53  H   LIG d   1       8.355  -5.987  -6.722  0.00  0.00     0.029 H 
ENDBRANCH   4  50
TORSDOF 14
ENDMDL
MODEL 4
REMARK VINA RESULT:      -5.6      2.744      6.118
REMARK  14 active torsions:
REMARK  status: ('A' for Active; 'I' for Inactive)
REMARK    1  A    between atoms: C_1  and  C_2 
REMARK    2  A    between atoms: C_2  and  C_3 
REMARK    3  A    between atoms: C_3  and  C_4 
REMARK    4  A    between atoms: C_4  and  O_6 
REMARK    5  A    between atoms: O_6  and  C_7 
REMARK    6  A    between atoms: C_7  and  O_8 
REMARK    7  A    between atoms: O_8  and  C_9 
REMARK    8  A    between atoms: C_9  and  C_11 
REMARK    9  A    between atoms: C_12  and  C_31 
REMARK   10  A    between atoms: C_14  and  C_30 
REMARK   11  A    between atoms: C_15  and  C_26 
REMARK   12  A    between atoms: C_16  and  C_18 
REMARK   13  A    between atoms: C_26  and  O_28 
REMARK   14  A    between atoms: O_28  and  C_29 
ROOT
ATOM      1  C   LIG d   1       5.838  -1.523  -5.613  0.00  0.00     0.065 C 
ATOM      2  C   LIG d   1       4.969  -2.537  -5.769  0.00  0.00     0.016 C 
ATOM      3  N   LIG d   1       4.204  -2.636  -6.898  0.00  0.00    -0.321 N 
ATOM      4  C   LIG d   1       4.029  -1.549  -7.710  0.00  0.00     0.016 C 
ATOM      5  C   LIG d   1       4.862  -0.496  -7.639  0.00  0.00     0.065 C 
ATOM      6  C   LIG d   1       6.010  -0.469  -6.670  0.00  0.00     0.052 C 
ATOM      7  H   LIG d   1       6.035   0.517  -6.182  0.00  0.00     0.045 H 
ATOM      8  H   LIG d   1       3.726  -3.593  -7.156  0.00  0.00     0.152 HD
ENDROOT
BRANCH   1   9
ATOM      9  C   LIG d   1       6.608  -1.447  -4.430  0.00  0.00     0.340 C 
ATOM     10  O   LIG d   1       7.641  -2.085  -4.333  0.00  0.00    -0.245 OA
BRANCH   9  11
ATOM     11  O   LIG d   1       6.198  -0.668  -3.406  0.00  0.00    -0.424 OA
BRANCH  11  12
ATOM     12  C   LIG d   1       6.859   0.588  -3.241  0.00  0.00     0.239 C 
ATOM     13  H   LIG d   1       7.501   0.782  -4.113  0.00  0.00     0.117 H 
ATOM     14  H   LIG d   1       7.476   0.561  -2.331  0.00  0.00     0.117 H 
BRANCH  12  15
ATOM     15  O   LIG d   1       5.869   1.644  -3.125  0.00  0.00    -0.427 OA
BRANCH  15  16
ATOM     16  C   LIG d   1       4.774   1.375  -2.398  0.00  0.00     0.310 C 
ATOM     17  O   LIG d   1       4.884   1.015  -1.249  0.00  0.00    -0.251 OA
BRANCH  16  18
ATOM     18  C   LIG d   1       3.406   1.522  -3.012  0.00  0.00     0.045 C 
ATOM     19  H   LIG d   1       3.446   2.263  -3.824  0.00  0.00     0.038 H 
ATOM     20  H   LIG d   1       2.693   1.857  -2.244  0.00  0.00     0.038 H 
BRANCH  18  21
ATOM     21  C   LIG d   1       2.952   0.174  -3.575  0.00  0.00    -0.046 C 
ATOM     22  H   LIG d   1       2.156  -0.240  -2.939  0.00  0.00     0.027 H 
ATOM     23  H   LIG d   1       3.804  -0.521  -3.594  0.00  0.00     0.027 H 
BRANCH  21  24
ATOM     24  C   LIG d   1       2.419   0.368  -4.997  0.00  0.00    -0.065 C 
ATOM     25  H   LIG d   1       1.810  -0.502  -5.281  0.00  0.00     0.023 H 
ATOM     26  H   LIG d   1       3.264   0.468  -5.694  0.00  0.00     0.023 H 
ATOM     27  H   LIG d   1       1.801   1.277  -5.035  0.00  0.00     0.023 H 
ENDBRANCH  21  24
ENDBRANCH  18  21
ENDBRANCH  16  18
ENDBRANCH  15  16
ENDBRANCH  12  15
ENDBRANCH  11  12
ENDBRANCH   9  11
ENDBRANCH   1   9
BRANCH   6  28
ATOM     28  C   LIG d   1       7.295  -0.720  -7.416  0.00  0.00    -0.015 A 
ATOM     29  C   LIG d   1       8.292   0.238  -7.415  0.00  0.00     0.063 A 
ATOM     30  C   LIG d   1       9.476   0.004  -8.095  0.00  0.00     0.059 A 
ATOM     31 CL   LIG d   1       8.065   1.729  -6.556  0.00  0.00    -0.082 Cl
ATOM     32  C   LIG d   1       9.654  -1.182  -8.785  0.00  0.00    -0.042 A 
ATOM     33 CL   LIG d   1      10.733   1.202  -8.088  0.00  0.00    -0.082 Cl
ATOM     34  C   LIG d   1       8.653  -2.135  -8.789  0.00  0.00    -0.060 A 
ATOM     35  H   LIG d   1      10.575  -1.362  -9.320  0.00  0.00     0.063 H 
ATOM     36  C   LIG d   1       7.475  -1.905  -8.104  0.00  0.00    -0.056 A 
ATOM     37  H   LIG d   1       8.793  -3.061  -9.327  0.00  0.00     0.062 H 
ATOM     38  H   LIG d   1       6.694  -2.650  -8.108  0.00  0.00     0.062 H 
ENDBRANCH   6  28
BRANCH   2  39
ATOM     39  C   LIG d   1       4.837  -3.577  -4.686  0.00  0.00    -0.026 C 
ATOM     40  H   LIG d   1       5.384  -3.246  -3.792  0.00  0.00     0.029 H 
ATOM     41  H   LIG d   1       5.256  -4.530  -5.041  0.00  0.00     0.029 H 
ATOM     42  H   LIG d   1       3.775  -3.713  -4.436  0.00  0.00     0.029 H 
ENDBRANCH   2  39
BRANCH   5  43
ATOM     43  C   LIG d   1       4.650   0.612  -8.492  0.00  0.00     0.337 C 
ATOM     44  O   LIG d   1       5.063   0.587  -9.635  0.00  0.00    -0.245 OA
BRANCH  43  45
ATOM     45  O   LIG d   1       3.990   1.698  -8.037  0.00  0.00    -0.465 OA
BRANCH  45  46
ATOM     46  C   LIG d   1       2.812   2.085  -8.747  0.00  0.00     0.082 C 
ATOM     47  H   LIG d   1       1.953   2.080  -8.061  0.00  0.00     0.066 H 
ATOM     48  H   LIG d   1       2.629   1.377  -9.568  0.00  0.00     0.066 H 
ATOM     49  H   LIG d   1       2.948   3.096  -9.157  0.00  0.00     0.066 H 
ENDBRANCH  45  46
ENDBRANCH  43  45
ENDBRANCH   5  43
BRANCH   4  50
ATOM     50  C   LIG d   1       2.894  -1.534  -8.699  0.00  0.00    -0.026 C 
ATOM     51  H   LIG d   1       3.110  -0.808  -9.497  0.00  0.00     0.029 H 
ATOM     52  H   LIG d   1       1.963  -1.248  -8.186  0.00  0.00     0.029 H 
ATOM     53  H   LIG d   1       2.776  -2.536  -9.139  0.00  0.00     0.029 H 
ENDBRANCH   4  50
TORSDOF 14
ENDMDL
MODEL 5
REMARK VINA RESULT:      -5.5      6.035      8.467
REMARK  14 active torsions:
REMARK  status: ('A' for Active; 'I' for Inactive)
REMARK    1  A    between atoms: C_1  and  C_2 
REMARK    2  A    between atoms: C_2  and  C_3 
REMARK    3  A    between atoms: C_3  and  C_4 
REMARK    4  A    between atoms: C_4  and  O_6 
REMARK    5  A    between atoms: O_6  and  C_7 
REMARK    6  A    between atoms: C_7  and  O_8 
REMARK    7  A    between atoms: O_8  and  C_9 
REMARK    8  A    between atoms: C_9  and  C_11 
REMARK    9  A    between atoms: C_12  and  C_31 
REMARK   10  A    between atoms: C_14  and  C_30 
REMARK   11  A    between atoms: C_15  and  C_26 
REMARK   12  A    between atoms: C_16  and  C_18 
REMARK   13  A    between atoms: C_26  and  O_28 
REMARK   14  A    between atoms: O_28  and  C_29 
ROOT
ATOM      1  C   LIG d   1       9.325   3.386  -5.471  0.00  0.00     0.065 C 
ATOM      2  C   LIG d   1       9.381   3.003  -6.758  0.00  0.00     0.016 C 
ATOM      3  N   LIG d   1       9.907   3.830  -7.712  0.00  0.00    -0.321 N 
ATOM      4  C   LIG d   1      10.046   5.167  -7.464  0.00  0.00     0.016 C 
ATOM      5  C   LIG d   1      10.023   5.640  -6.206  0.00  0.00     0.065 C 
ATOM      6  C   LIG d   1       9.843   4.724  -5.028  0.00  0.00     0.052 C 
ATOM      7  H   LIG d   1       9.110   5.175  -4.342  0.00  0.00     0.045 H 
ATOM      8  H   LIG d   1      10.219   3.419  -8.684  0.00  0.00     0.152 HD
ENDROOT
BRANCH   1   9
ATOM      9  C   LIG d   1       8.768   2.508  -4.511  0.00  0.00     0.340 C 
ATOM     10  O   LIG d   1       9.496   1.887  -3.758  0.00  0.00    -0.245 OA
BRANCH   9  11
ATOM     11  O   LIG d   1       7.429   2.358  -4.432  0.00  0.00    -0.424 OA
BRANCH  11  12
ATOM     12  C   LIG d   1       6.945   1.214  -3.725  0.00  0.00     0.239 C 
ATOM     13  H   LIG d   1       7.797   0.631  -3.344  0.00  0.00     0.117 H 
ATOM     14  H   LIG d   1       6.348   0.588  -4.404  0.00  0.00     0.117 H 
BRANCH  12  15
ATOM     15  O   LIG d   1       6.119   1.646  -2.612  0.00  0.00    -0.427 OA
BRANCH  15  16
ATOM     16  C   LIG d   1       4.827   1.283  -2.635  0.00  0.00     0.310 C 
ATOM     17  O   LIG d   1       4.044   1.880  -3.337  0.00  0.00    -0.251 OA
BRANCH  16  18
ATOM     18  C   LIG d   1       4.351   0.132  -1.787  0.00  0.00     0.045 C 
ATOM     19  H   LIG d   1       3.813   0.520  -0.910  0.00  0.00     0.038 H 
ATOM     20  H   LIG d   1       5.216  -0.460  -1.454  0.00  0.00     0.038 H 
BRANCH  18  21
ATOM     21  C   LIG d   1       3.413  -0.755  -2.609  0.00  0.00    -0.046 C 
ATOM     22  H   LIG d   1       3.466  -0.462  -3.668  0.00  0.00     0.027 H 
ATOM     23  H   LIG d   1       2.382  -0.632  -2.246  0.00  0.00     0.027 H 
BRANCH  21  24
ATOM     24  C   LIG d   1       3.836  -2.218  -2.463  0.00  0.00    -0.065 C 
ATOM     25  H   LIG d   1       2.984  -2.871  -2.704  0.00  0.00     0.023 H 
ATOM     26  H   LIG d   1       4.161  -2.405  -1.429  0.00  0.00     0.023 H 
ATOM     27  H   LIG d   1       4.666  -2.430  -3.153  0.00  0.00     0.023 H 
ENDBRANCH  21  24
ENDBRANCH  18  21
ENDBRANCH  16  18
ENDBRANCH  15  16
ENDBRANCH  12  15
ENDBRANCH  11  12
ENDBRANCH   9  11
ENDBRANCH   1   9
BRANCH   6  28
ATOM     28  C   LIG d   1      11.168   4.539  -4.336  0.00  0.00    -0.015 A 
ATOM     29  C   LIG d   1      11.342   4.996  -3.042  0.00  0.00     0.063 A 
ATOM     30  C   LIG d   1      12.558   4.819  -2.405  0.00  0.00     0.059 A 
ATOM     31 CL   LIG d   1      10.035   5.783  -2.216  0.00  0.00    -0.082 Cl
ATOM     32  C   LIG d   1      13.602   4.197  -3.066  0.00  0.00    -0.042 A 
ATOM     33 CL   LIG d   1      12.776   5.384  -0.777  0.00  0.00    -0.082 Cl
ATOM     34  C   LIG d   1      13.428   3.747  -4.361  0.00  0.00    -0.060 A 
ATOM     35  H   LIG d   1      14.553   4.064  -2.571  0.00  0.00     0.063 H 
ATOM     36  C   LIG d   1      12.212   3.917  -4.995  0.00  0.00    -0.056 A 
ATOM     37  H   LIG d   1      14.243   3.261  -4.877  0.00  0.00     0.062 H 
ATOM     38  H   LIG d   1      12.077   3.564  -6.007  0.00  0.00     0.062 H 
ENDBRANCH   6  28
BRANCH   2  39
ATOM     39  C   LIG d   1       8.858   1.646  -7.155  0.00  0.00    -0.026 C 
ATOM     40  H   LIG d   1       7.760   1.643  -7.090  0.00  0.00     0.029 H 
ATOM     41  H   LIG d   1       9.267   0.883  -6.476  0.00  0.00     0.029 H 
ATOM     42  H   LIG d   1       9.165   1.421  -8.187  0.00  0.00     0.029 H 
ENDBRANCH   2  39
BRANCH   5  43
ATOM     43  C   LIG d   1      10.167   7.030  -5.986  0.00  0.00     0.337 C 
ATOM     44  O   LIG d   1      11.271   7.504  -5.802  0.00  0.00    -0.245 OA
BRANCH  43  45
ATOM     45  O   LIG d   1       9.080   7.829  -5.981  0.00  0.00    -0.465 OA
BRANCH  45  46
ATOM     46  C   LIG d   1       9.310   9.238  -6.040  0.00  0.00     0.082 C 
ATOM     47  H   LIG d   1       9.704   9.585  -5.074  0.00  0.00     0.066 H 
ATOM     48  H   LIG d   1       8.363   9.755  -6.256  0.00  0.00     0.066 H 
ATOM     49  H   LIG d   1      10.038   9.457  -6.834  0.00  0.00     0.066 H 
ENDBRANCH  45  46
ENDBRANCH  43  45
ENDBRANCH   5  43
BRANCH   4  50
ATOM     50  C   LIG d   1      10.233   6.122  -8.614  0.00  0.00    -0.026 C 
ATOM     51  H   LIG d   1       9.489   5.907  -9.395  0.00  0.00     0.029 H 
ATOM     52  H   LIG d   1      11.245   6.004  -9.028  0.00  0.00     0.029 H 
ATOM     53  H   LIG d   1      10.101   7.155  -8.258  0.00  0.00     0.029 H 
ENDBRANCH   4  50
TORSDOF 14
ENDMDL
MODEL 6
REMARK VINA RESULT:      -5.4      2.518      3.479
REMARK  14 active torsions:
REMARK  status: ('A' for Active; 'I' for Inactive)
REMARK    1  A    between atoms: C_1  and  C_2 
REMARK    2  A    between atoms: C_2  and  C_3 
REMARK    3  A    between atoms: C_3  and  C_4 
REMARK    4  A    between atoms: C_4  and  O_6 
REMARK    5  A    between atoms: O_6  and  C_7 
REMARK    6  A    between atoms: C_7  and  O_8 
REMARK    7  A    between atoms: O_8  and  C_9 
REMARK    8  A    between atoms: C_9  and  C_11 
REMARK    9  A    between atoms: C_12  and  C_31 
REMARK   10  A    between atoms: C_14  and  C_30 
REMARK   11  A    between atoms: C_15  and  C_26 
REMARK   12  A    between atoms: C_16  and  C_18 
REMARK   13  A    between atoms: C_26  and  O_28 
REMARK   14  A    between atoms: O_28  and  C_29 
ROOT
ATOM      1  C   LIG d   1       5.552  -4.195  -6.105  0.00  0.00     0.065 C 
ATOM      2  C   LIG d   1       6.305  -5.173  -5.572  0.00  0.00     0.016 C 
ATOM      3  N   LIG d   1       7.409  -4.876  -4.820  0.00  0.00    -0.321 N 
ATOM      4  C   LIG d   1       7.978  -3.635  -4.892  0.00  0.00     0.016 C 
ATOM      5  C   LIG d   1       7.292  -2.591  -5.392  0.00  0.00     0.065 C 
ATOM      6  C   LIG d   1       5.884  -2.746  -5.891  0.00  0.00     0.052 C 
ATOM      7  H   LIG d   1       5.792  -2.220  -6.852  0.00  0.00     0.045 H 
ATOM      8  H   LIG d   1       7.842  -5.638  -4.155  0.00  0.00     0.152 HD
ENDROOT
BRANCH   1   9
ATOM      9  C   LIG d   1       4.422  -4.539  -6.883  0.00  0.00     0.340 C 
ATOM     10  O   LIG d   1       3.437  -5.017  -6.349  0.00  0.00    -0.245 OA
BRANCH   9  11
ATOM     11  O   LIG d   1       4.435  -4.339  -8.218  0.00  0.00    -0.424 OA
BRANCH  11  12
ATOM     12  C   LIG d   1       3.389  -3.533  -8.763  0.00  0.00     0.239 C 
ATOM     13  H   LIG d   1       2.791  -3.104  -7.945  0.00  0.00     0.117 H 
ATOM     14  H   LIG d   1       2.743  -4.153  -9.402  0.00  0.00     0.117 H 
BRANCH  12  15
ATOM     15  O   LIG d   1       3.966  -2.461  -9.554  0.00  0.00    -0.427 OA
BRANCH  15  16
ATOM     16  C   LIG d   1       3.140  -1.474  -9.938  0.00  0.00     0.310 C 
ATOM     17  O   LIG d   1       2.186  -1.185  -9.254  0.00  0.00    -0.251 OA
BRANCH  16  18
ATOM     18  C   LIG d   1       3.402  -0.727 -11.220  0.00  0.00     0.045 C 
ATOM     19  H   LIG d   1       2.535  -0.832 -11.888  0.00  0.00     0.038 H 
ATOM     20  H   LIG d   1       4.295  -1.141 -11.709  0.00  0.00     0.038 H 
BRANCH  18  21
ATOM     21  C   LIG d   1       3.631   0.754 -10.910  0.00  0.00    -0.046 C 
ATOM     22  H   LIG d   1       2.822   1.123 -10.263  0.00  0.00     0.027 H 
ATOM     23  H   LIG d   1       3.640   1.327 -11.849  0.00  0.00     0.027 H 
BRANCH  21  24
ATOM     24  C   LIG d   1       4.973   0.924 -10.195  0.00  0.00    -0.065 C 
ATOM     25  H   LIG d   1       5.114   0.098  -9.482  0.00  0.00     0.023 H 
ATOM     26  H   LIG d   1       4.982   1.881  -9.654  0.00  0.00     0.023 H 
ATOM     27  H   LIG d   1       5.786   0.912 -10.935  0.00  0.00     0.023 H 
ENDBRANCH  21  24
ENDBRANCH  18  21
ENDBRANCH  16  18
ENDBRANCH  15  16
ENDBRANCH  12  15
ENDBRANCH  11  12
ENDBRANCH   9  11
ENDBRANCH   1   9
BRANCH   6  28
ATOM     28  C   LIG d   1       4.932  -2.164  -4.879  0.00  0.00    -0.015 A 
ATOM     29  C   LIG d   1       4.200  -1.032  -5.189  0.00  0.00     0.063 A 
ATOM     30  C   LIG d   1       3.321  -0.501  -4.260  0.00  0.00     0.059 A 
ATOM     31 CL   LIG d   1       4.378  -0.281  -6.744  0.00  0.00    -0.082 Cl
ATOM     32  C   LIG d   1       3.184  -1.096  -3.019  0.00  0.00    -0.042 A 
ATOM     33 CL   LIG d   1       2.395   0.915  -4.651  0.00  0.00    -0.082 Cl
ATOM     34  C   LIG d   1       3.921  -2.224  -2.709  0.00  0.00    -0.060 A 
ATOM     35  H   LIG d   1       2.502  -0.679  -2.292  0.00  0.00     0.063 H 
ATOM     36  C   LIG d   1       4.793  -2.758  -3.638  0.00  0.00    -0.056 A 
ATOM     37  H   LIG d   1       3.813  -2.689  -1.739  0.00  0.00     0.062 H 
ATOM     38  H   LIG d   1       5.368  -3.639  -3.395  0.00  0.00     0.062 H 
ENDBRANCH   6  28
BRANCH   2  39
ATOM     39  C   LIG d   1       5.929  -6.614  -5.804  0.00  0.00    -0.026 C 
ATOM     40  H   LIG d   1       5.825  -6.796  -6.883  0.00  0.00     0.029 H 
ATOM     41  H   LIG d   1       4.973  -6.829  -5.303  0.00  0.00     0.029 H 
ATOM     42  H   LIG d   1       6.712  -7.269  -5.396  0.00  0.00     0.029 H 
ENDBRANCH   2  39
BRANCH   5  43
ATOM     43  C   LIG d   1       7.913  -1.322  -5.454  0.00  0.00     0.337 C 
ATOM     44  O   LIG d   1       8.428  -0.947  -6.490  0.00  0.00    -0.245 OA
BRANCH  43  45
ATOM     45  O   LIG d   1       7.933  -0.526  -4.365  0.00  0.00    -0.465 OA
BRANCH  45  46
ATOM     46  C   LIG d   1       7.377   0.783  -4.507  0.00  0.00     0.082 C 
ATOM     47  H   LIG d   1       8.116   1.531  -4.184  0.00  0.00     0.066 H 
ATOM     48  H   LIG d   1       6.474   0.867  -3.885  0.00  0.00     0.066 H 
ATOM     49  H   LIG d   1       7.115   0.957  -5.560  0.00  0.00     0.066 H 
ENDBRANCH  45  46
ENDBRANCH  43  45
ENDBRANCH   5  43
BRANCH   4  50
ATOM     50  C   LIG d   1       9.387  -3.431  -4.401  0.00  0.00    -0.026 C 
ATOM     51  H   LIG d   1      10.086  -3.505  -5.247  0.00  0.00     0.029 H 
ATOM     52  H   LIG d   1       9.631  -4.204  -3.656  0.00  0.00     0.029 H 
ATOM     53  H   LIG d   1       9.475  -2.436  -3.938  0.00  0.00     0.029 H 
ENDBRANCH   4  50
TORSDOF 14
ENDMDL
MODEL 7
REMARK VINA RESULT:      -5.2      1.492      2.383
REMARK  14 active torsions:
REMARK  status: ('A' for Active; 'I' for Inactive)
REMARK    1  A    between atoms: C_1  and  C_2 
REMARK    2  A    between atoms: C_2  and  C_3 
REMARK    3  A    between atoms: C_3  and  C_4 
REMARK    4  A    between atoms: C_4  and  O_6 
REMARK    5  A    between atoms: O_6  and  C_7 
REMARK    6  A    between atoms: C_7  and  O_8 
REMARK    7  A    between atoms: O_8  and  C_9 
REMARK    8  A    between atoms: C_9  and  C_11 
REMARK    9  A    between atoms: C_12  and  C_31 
REMARK   10  A    between atoms: C_14  and  C_30 
REMARK   11  A    between atoms: C_15  and  C_26 
REMARK   12  A    between atoms: C_16  and  C_18 
REMARK   13  A    between atoms: C_26  and  O_28 
REMARK   14  A    between atoms: O_28  and  C_29 
ROOT
ATOM      1  C   LIG d   1       5.284  -2.358  -6.668  0.00  0.00     0.065 C 
ATOM      2  C   LIG d   1       5.049  -3.607  -7.106  0.00  0.00     0.016 C 
ATOM      3  N   LIG d   1       5.688  -4.678  -6.544  0.00  0.00    -0.321 N 
ATOM      4  C   LIG d   1       6.821  -4.493  -5.802  0.00  0.00     0.016 C 
ATOM      5  C   LIG d   1       7.128  -3.281  -5.305  0.00  0.00     0.065 C 
ATOM      6  C   LIG d   1       6.245  -2.090  -5.545  0.00  0.00     0.052 C 
ATOM      7  H   LIG d   1       6.878  -1.234  -5.822  0.00  0.00     0.045 H 
ATOM      8  H   LIG d   1       5.291  -5.694  -6.689  0.00  0.00     0.152 HD
ENDROOT
BRANCH   1   9
ATOM      9  C   LIG d   1       4.611  -1.273  -7.277  0.00  0.00     0.340 C 
ATOM     10  O   LIG d   1       3.595  -0.829  -6.776  0.00  0.00    -0.245 OA
BRANCH   9  11
ATOM     11  O   LIG d   1       5.095  -0.732  -8.415  0.00  0.00    -0.424 OA
BRANCH  11  12
ATOM     12  C   LIG d   1       4.956   0.682  -8.571  0.00  0.00     0.239 C 
ATOM     13  H   LIG d   1       4.020   1.013  -8.097  0.00  0.00     0.117 H 
ATOM     14  H   LIG d   1       4.934   0.932  -9.642  0.00  0.00     0.117 H 
BRANCH  12  15
ATOM     15  O   LIG d   1       6.080   1.351  -7.940  0.00  0.00    -0.427 OA
BRANCH  15  16
ATOM     16  C   LIG d   1       7.079   1.751  -8.743  0.00  0.00     0.310 C 
ATOM     17  O   LIG d   1       7.054   2.856  -9.234  0.00  0.00    -0.251 OA
BRANCH  16  18
ATOM     18  C   LIG d   1       8.231   0.824  -9.032  0.00  0.00     0.045 C 
ATOM     19  H   LIG d   1       9.136   1.416  -9.236  0.00  0.00     0.038 H 
ATOM     20  H   LIG d   1       7.993   0.205  -9.909  0.00  0.00     0.038 H 
BRANCH  18  21
ATOM     21  C   LIG d   1       8.476  -0.080  -7.822  0.00  0.00    -0.046 C 
ATOM     22  H   LIG d   1       7.619  -0.013  -7.136  0.00  0.00     0.027 H 
ATOM     23  H   LIG d   1       9.389   0.245  -7.301  0.00  0.00     0.027 H 
BRANCH  21  24
ATOM     24  C   LIG d   1       8.643  -1.526  -8.291  0.00  0.00    -0.065 C 
ATOM     25  H   LIG d   1       9.480  -1.585  -9.003  0.00  0.00     0.023 H 
ATOM     26  H   LIG d   1       7.718  -1.861  -8.784  0.00  0.00     0.023 H 
ATOM     27  H   LIG d   1       8.852  -2.171  -7.425  0.00  0.00     0.023 H 
ENDBRANCH  21  24
ENDBRANCH  18  21
ENDBRANCH  16  18
ENDBRANCH  15  16
ENDBRANCH  12  15
ENDBRANCH  11  12
ENDBRANCH   9  11
ENDBRANCH   1   9
BRANCH   6  28
ATOM     28  C   LIG d   1       5.469  -1.786  -4.290  0.00  0.00    -0.015 A 
ATOM     29  C   LIG d   1       5.591  -0.549  -3.684  0.00  0.00     0.063 A 
ATOM     30  C   LIG d   1       4.872  -0.268  -2.535  0.00  0.00     0.059 A 
ATOM     31 CL   LIG d   1       6.640   0.654  -4.368  0.00  0.00    -0.082 Cl
ATOM     32  C   LIG d   1       4.042  -1.228  -1.987  0.00  0.00    -0.042 A 
ATOM     33 CL   LIG d   1       5.018   1.288  -1.777  0.00  0.00    -0.082 Cl
ATOM     34  C   LIG d   1       3.926  -2.467  -2.591  0.00  0.00    -0.060 A 
ATOM     35  H   LIG d   1       3.485  -1.012  -1.087  0.00  0.00     0.063 H 
ATOM     36  C   LIG d   1       4.638  -2.744  -3.742  0.00  0.00    -0.056 A 
ATOM     37  H   LIG d   1       3.277  -3.217  -2.163  0.00  0.00     0.062 H 
ATOM     38  H   LIG d   1       4.546  -3.712  -4.213  0.00  0.00     0.062 H 
ENDBRANCH   6  28
BRANCH   2  39
ATOM     39  C   LIG d   1       4.069  -3.830  -8.229  0.00  0.00    -0.026 C 
ATOM     40  H   LIG d   1       4.614  -3.916  -9.180  0.00  0.00     0.029 H 
ATOM     41  H   LIG d   1       3.372  -2.981  -8.281  0.00  0.00     0.029 H 
ATOM     42  H   LIG d   1       3.504  -4.757  -8.045  0.00  0.00     0.029 H 
ENDBRANCH   2  39
BRANCH   5  43
ATOM     43  C   LIG d   1       8.310  -3.124  -4.543  0.00  0.00     0.337 C 
ATOM     44  O   LIG d   1       9.323  -2.712  -5.073  0.00  0.00    -0.245 OA
BRANCH  43  45
ATOM     45  O   LIG d   1       8.312  -3.433  -3.230  0.00  0.00    -0.465 OA
BRANCH  45  46
ATOM     46  C   LIG d   1       9.490  -4.053  -2.711  0.00  0.00     0.082 C 
ATOM     47  H   LIG d   1       9.230  -4.647  -1.822  0.00  0.00     0.066 H 
ATOM     48  H   LIG d   1      10.220  -3.279  -2.433  0.00  0.00     0.066 H 
ATOM     49  H   LIG d   1       9.925  -4.711  -3.477  0.00  0.00     0.066 H 
ENDBRANCH  45  46
ENDBRANCH  43  45
ENDBRANCH   5  43
BRANCH   4  50
ATOM     50  C   LIG d   1       7.735  -5.659  -5.532  0.00  0.00    -0.026 C 
ATOM     51  H   LIG d   1       8.729  -5.289  -5.242  0.00  0.00     0.029 H 
ATOM     52  H   LIG d   1       7.823  -6.274  -6.440  0.00  0.00     0.029 H 
ATOM     53  H   LIG d   1       7.319  -6.270  -4.716  0.00  0.00     0.029 H 
ENDBRANCH   4  50
TORSDOF 14
ENDMDL
MODEL 8
REMARK VINA RESULT:      -5.2      1.780      2.543
REMARK  14 active torsions:
REMARK  status: ('A' for Active; 'I' for Inactive)
REMARK    1  A    between atoms: C_1  and  C_2 
REMARK    2  A    between atoms: C_2  and  C_3 
REMARK    3  A    between atoms: C_3  and  C_4 
REMARK    4  A    between atoms: C_4  and  O_6 
REMARK    5  A    between atoms: O_6  and  C_7 
REMARK    6  A    between atoms: C_7  and  O_8 
REMARK    7  A    between atoms: O_8  and  C_9 
REMARK    8  A    between atoms: C_9  and  C_11 
REMARK    9  A    between atoms: C_12  and  C_31 
REMARK   10  A    between atoms: C_14  and  C_30 
REMARK   11  A    between atoms: C_15  and  C_26 
REMARK   12  A    between atoms: C_16  and  C_18 
REMARK   13  A    between atoms: C_26  and  O_28 
REMARK   14  A    between atoms: O_28  and  C_29 
ROOT
ATOM      1  C   LIG d   1       5.940  -3.274  -6.639  0.00  0.00     0.065 C 
ATOM      2  C   LIG d   1       5.874  -4.607  -6.807  0.00  0.00     0.016 C 
ATOM      3  N   LIG d   1       6.549  -5.452  -5.969  0.00  0.00    -0.321 N 
ATOM      4  C   LIG d   1       7.572  -4.982  -5.193  0.00  0.00     0.016 C 
ATOM      5  C   LIG d   1       7.705  -3.665  -4.953  0.00  0.00     0.065 C 
ATOM      6  C   LIG d   1       6.743  -2.664  -5.526  0.00  0.00     0.052 C 
ATOM      7  H   LIG d   1       7.317  -1.817  -5.932  0.00  0.00     0.045 H 
ATOM      8  H   LIG d   1       6.269  -6.515  -5.918  0.00  0.00     0.152 HD
ENDROOT
BRANCH   1   9
ATOM      9  C   LIG d   1       5.236  -2.430  -7.529  0.00  0.00     0.340 C 
ATOM     10  O   LIG d   1       5.814  -1.513  -8.083  0.00  0.00    -0.245 OA
BRANCH   9  11
ATOM     11  O   LIG d   1       3.923  -2.639  -7.762  0.00  0.00    -0.424 OA
BRANCH  11  12
ATOM     12  C   LIG d   1       3.375  -2.059  -8.948  0.00  0.00     0.239 C 
ATOM     13  H   LIG d   1       2.878  -2.840  -9.543  0.00  0.00     0.117 H 
ATOM     14  H   LIG d   1       4.182  -1.604  -9.541  0.00  0.00     0.117 H 
BRANCH  12  15
ATOM     15  O   LIG d   1       2.407  -1.040  -8.584  0.00  0.00    -0.427 OA
BRANCH  15  16
ATOM     16  C   LIG d   1       2.815   0.238  -8.647  0.00  0.00     0.310 C 
ATOM     17  O   LIG d   1       3.120   0.723  -9.711  0.00  0.00    -0.251 OA
BRANCH  16  18
ATOM     18  C   LIG d   1       2.892   1.067  -7.391  0.00  0.00     0.045 C 
ATOM     19  H   LIG d   1       2.002   1.710  -7.322  0.00  0.00     0.038 H 
ATOM     20  H   LIG d   1       3.796   1.694  -7.421  0.00  0.00     0.038 H 
BRANCH  18  21
ATOM     21  C   LIG d   1       2.951   0.144  -6.173  0.00  0.00    -0.046 C 
ATOM     22  H   LIG d   1       3.992  -0.163  -5.996  0.00  0.00     0.027 H 
ATOM     23  H   LIG d   1       2.332  -0.746  -6.357  0.00  0.00     0.027 H 
BRANCH  21  24
ATOM     24  C   LIG d   1       2.423   0.888  -4.944  0.00  0.00    -0.065 C 
ATOM     25  H   LIG d   1       2.050   1.877  -5.247  0.00  0.00     0.023 H 
ATOM     26  H   LIG d   1       3.236   1.011  -4.212  0.00  0.00     0.023 H 
ATOM     27  H   LIG d   1       1.605   0.310  -4.490  0.00  0.00     0.023 H 
ENDBRANCH  21  24
ENDBRANCH  18  21
ENDBRANCH  16  18
ENDBRANCH  15  16
ENDBRANCH  12  15
ENDBRANCH  11  12
ENDBRANCH   9  11
ENDBRANCH   1   9
BRANCH   6  28
ATOM     28  C   LIG d   1       5.809  -2.194  -4.441  0.00  0.00    -0.015 A 
ATOM     29  C   LIG d   1       5.940  -0.920  -3.920  0.00  0.00     0.063 A 
ATOM     30  C   LIG d   1       5.078  -0.487  -2.927  0.00  0.00     0.059 A 
ATOM     31 CL   LIG d   1       7.180   0.139  -4.516  0.00  0.00    -0.082 Cl
ATOM     32  C   LIG d   1       4.094  -1.333  -2.449  0.00  0.00    -0.042 A 
ATOM     33 CL   LIG d   1       5.235   1.116  -2.278  0.00  0.00    -0.082 Cl
ATOM     34  C   LIG d   1       3.969  -2.609  -2.967  0.00  0.00    -0.060 A 
ATOM     35  H   LIG d   1       3.424  -0.998  -1.671  0.00  0.00     0.063 H 
ATOM     36  C   LIG d   1       4.825  -3.038  -3.963  0.00  0.00    -0.056 A 
ATOM     37  H   LIG d   1       3.200  -3.269  -2.593  0.00  0.00     0.062 H 
ATOM     38  H   LIG d   1       4.726  -4.035  -4.367  0.00  0.00     0.062 H 
ENDBRANCH   6  28
BRANCH   2  39
ATOM     39  C   LIG d   1       5.048  -5.176  -7.932  0.00  0.00    -0.026 C 
ATOM     40  H   LIG d   1       4.360  -4.406  -8.307  0.00  0.00     0.029 H 
ATOM     41  H   LIG d   1       4.470  -6.036  -7.563  0.00  0.00     0.029 H 
ATOM     42  H   LIG d   1       5.712  -5.502  -8.746  0.00  0.00     0.029 H 
ENDBRANCH   2  39
BRANCH   5  43
ATOM     43  C   LIG d   1       8.776  -3.213  -4.148  0.00  0.00     0.337 C 
ATOM     44  O   LIG d   1       8.691  -3.268  -2.936  0.00  0.00    -0.245 OA
BRANCH  43  45
ATOM     45  O   LIG d   1       9.893  -2.722  -4.724  0.00  0.00    -0.465 OA
BRANCH  45  46
ATOM     46  C   LIG d   1      11.144  -3.165  -4.194  0.00  0.00     0.082 C 
ATOM     47  H   LIG d   1      11.173  -4.264  -4.191  0.00  0.00     0.066 H 
ATOM     48  H   LIG d   1      11.259  -2.792  -3.165  0.00  0.00     0.066 H 
ATOM     49  H   LIG d   1      11.964  -2.778  -4.817  0.00  0.00     0.066 H 
ENDBRANCH  45  46
ENDBRANCH  43  45
ENDBRANCH   5  43
BRANCH   4  50
ATOM     50  C   LIG d   1       8.558  -5.950  -4.594  0.00  0.00    -0.026 C 
ATOM     51  H   LIG d   1       8.091  -6.474  -3.748  0.00  0.00     0.029 H 
ATOM     52  H   LIG d   1       9.443  -5.400  -4.240  0.00  0.00     0.029 H 
ATOM     53  H   LIG d   1       8.862  -6.683  -5.356  0.00  0.00     0.029 H 
ENDBRANCH   4  50
TORSDOF 14
ENDMDL
MODEL 9
REMARK VINA RESULT:      -5.1      1.952      3.572
REMARK  14 active torsions:
REMARK  status: ('A' for Active; 'I' for Inactive)
REMARK    1  A    between atoms: C_1  and  C_2 
REMARK    2  A    between atoms: C_2  and  C_3 
REMARK    3  A    between atoms: C_3  and  C_4 
REMARK    4  A    between atoms: C_4  and  O_6 
REMARK    5  A    between atoms: O_6  and  C_7 
REMARK    6  A    between atoms: C_7  and  O_8 
REMARK    7  A    between atoms: O_8  and  C_9 
REMARK    8  A    between atoms: C_9  and  C_11 
REMARK    9  A    between atoms: C_12  and  C_31 
REMARK   10  A    between atoms: C_14  and  C_30 
REMARK   11  A    between atoms: C_15  and  C_26 
REMARK   12  A    between atoms: C_16  and  C_18 
REMARK   13  A    between atoms: C_26  and  O_28 
REMARK   14  A    between atoms: O_28  and  C_29 
ROOT
ATOM      1  C   LIG d   1       5.753  -1.355  -6.733  0.00  0.00     0.065 C 
ATOM      2  C   LIG d   1       5.556  -2.420  -7.528  0.00  0.00     0.016 C 
ATOM      3  N   LIG d   1       6.117  -3.631  -7.229  0.00  0.00    -0.321 N 
ATOM      4  C   LIG d   1       7.161  -3.708  -6.350  0.00  0.00     0.016 C 
ATOM      5  C   LIG d   1       7.422  -2.698  -5.501  0.00  0.00     0.065 C 
ATOM      6  C   LIG d   1       6.584  -1.452  -5.486  0.00  0.00     0.052 C 
ATOM      7  H   LIG d   1       7.253  -0.579  -5.441  0.00  0.00     0.045 H 
ATOM      8  H   LIG d   1       5.728  -4.548  -7.696  0.00  0.00     0.152 HD
ENDROOT
BRANCH   1   9
ATOM      9  C   LIG d   1       5.164  -0.116  -7.077  0.00  0.00     0.340 C 
ATOM     10  O   LIG d   1       4.051   0.163  -6.670  0.00  0.00    -0.245 OA
BRANCH   9  11
ATOM     11  O   LIG d   1       5.835   0.757  -7.858  0.00  0.00    -0.424 OA
BRANCH  11  12
ATOM     12  C   LIG d   1       7.258   0.785  -7.725  0.00  0.00     0.239 C 
ATOM     13  H   LIG d   1       7.719   0.836  -8.723  0.00  0.00     0.117 H 
ATOM     14  H   LIG d   1       7.596  -0.126  -7.211  0.00  0.00     0.117 H 
BRANCH  12  15
ATOM     15  O   LIG d   1       7.649   1.951  -6.952  0.00  0.00    -0.427 OA
BRANCH  15  16
ATOM     16  C   LIG d   1       8.925   2.008  -6.540  0.00  0.00     0.310 C 
ATOM     17  O   LIG d   1       9.784   1.414  -7.149  0.00  0.00    -0.251 OA
BRANCH  16  18
ATOM     18  C   LIG d   1       9.287   2.813  -5.319  0.00  0.00     0.045 C 
ATOM     19  H   LIG d   1       8.371   3.206  -4.853  0.00  0.00     0.038 H 
ATOM     20  H   LIG d   1       9.938   3.651  -5.612  0.00  0.00     0.038 H 
BRANCH  18  21
ATOM     21  C   LIG d   1      10.025   1.920  -4.319  0.00  0.00    -0.046 C 
ATOM     22  H   LIG d   1      10.958   1.554  -4.773  0.00  0.00     0.027 H 
ATOM     23  H   LIG d   1       9.387   1.065  -4.052  0.00  0.00     0.027 H 
BRANCH  21  24
ATOM     24  C   LIG d   1      10.352   2.726  -3.060  0.00  0.00    -0.065 C 
ATOM     25  H   LIG d   1      11.207   2.265  -2.543  0.00  0.00     0.023 H 
ATOM     26  H   LIG d   1       9.479   2.733  -2.392  0.00  0.00     0.023 H 
ATOM     27  H   LIG d   1      10.607   3.758  -3.342  0.00  0.00     0.023 H 
ENDBRANCH  21  24
ENDBRANCH  18  21
ENDBRANCH  16  18
ENDBRANCH  15  16
ENDBRANCH  12  15
ENDBRANCH  11  12
ENDBRANCH   9  11
ENDBRANCH   1   9
BRANCH   6  28
ATOM     28  C   LIG d   1       5.675  -1.479  -4.285  0.00  0.00    -0.015 A 
ATOM     29  C   LIG d   1       5.599  -0.380  -3.449  0.00  0.00     0.063 A 
ATOM     30  C   LIG d   1       4.758  -0.404  -2.349  0.00  0.00     0.059 A 
ATOM     31 CL   LIG d   1       6.552   1.032  -3.783  0.00  0.00    -0.082 Cl
ATOM     32  C   LIG d   1       4.004  -1.531  -2.080  0.00  0.00    -0.042 A 
ATOM     33 CL   LIG d   1       4.655   0.979  -1.304  0.00  0.00    -0.082 Cl
ATOM     34  C   LIG d   1       4.086  -2.632  -2.913  0.00  0.00    -0.060 A 
ATOM     35  H   LIG d   1       3.352  -1.553  -1.219  0.00  0.00     0.063 H 
ATOM     36  C   LIG d   1       4.920  -2.605  -4.015  0.00  0.00    -0.056 A 
ATOM     37  H   LIG d   1       3.497  -3.512  -2.703  0.00  0.00     0.062 H 
ATOM     38  H   LIG d   1       4.983  -3.465  -4.665  0.00  0.00     0.062 H 
ENDBRANCH   6  28
BRANCH   2  39
ATOM     39  C   LIG d   1       4.706  -2.279  -8.765  0.00  0.00    -0.026 C 
ATOM     40  H   LIG d   1       4.167  -1.321  -8.733  0.00  0.00     0.029 H 
ATOM     41  H   LIG d   1       3.982  -3.106  -8.809  0.00  0.00     0.029 H 
ATOM     42  H   LIG d   1       5.349  -2.307  -9.658  0.00  0.00     0.029 H 
ENDBRANCH   2  39
BRANCH   5  43
ATOM     43  C   LIG d   1       8.513  -2.810  -4.606  0.00  0.00     0.337 C 
ATOM     44  O   LIG d   1       9.574  -2.282  -4.874  0.00  0.00    -0.245 OA
BRANCH  43  45
ATOM     45  O   LIG d   1       8.374  -3.504  -3.457  0.00  0.00    -0.465 OA
BRANCH  45  46
ATOM     46  C   LIG d   1       9.555  -4.091  -2.908  0.00  0.00     0.082 C 
ATOM     47  H   LIG d   1      10.432  -3.500  -3.209  0.00  0.00     0.066 H 
ATOM     48  H   LIG d   1       9.661  -5.120  -3.282  0.00  0.00     0.066 H 
ATOM     49  H   LIG d   1       9.481  -4.105  -1.811  0.00  0.00     0.066 H 
ENDBRANCH  45  46
ENDBRANCH  43  45
ENDBRANCH   5  43
BRANCH   4  50
ATOM     50  C   LIG d   1       8.026  -4.941  -6.327  0.00  0.00    -0.026 C 
ATOM     51  H   LIG d   1       7.430  -5.815  -6.627  0.00  0.00     0.029 H 
ATOM     52  H   LIG d   1       8.417  -5.096  -5.310  0.00  0.00     0.029 H 
ATOM     53  H   LIG d   1       8.866  -4.813  -7.026  0.00  0.00     0.029 H 
ENDBRANCH   4  50
TORSDOF 14
ENDMDL
MODEL 10
REMARK VINA RESULT:      -5.1      4.209      6.993
REMARK  14 active torsions:
REMARK  status: ('A' for Active; 'I' for Inactive)
REMARK    1  A    between atoms: C_1  and  C_2 
REMARK    2  A    between atoms: C_2  and  C_3 
REMARK    3  A    between atoms: C_3  and  C_4 
REMARK    4  A    between atoms: C_4  and  O_6 
REMARK    5  A    between atoms: O_6  and  C_7 
REMARK    6  A    between atoms: C_7  and  O_8 
REMARK    7  A    between atoms: O_8  and  C_9 
REMARK    8  A    between atoms: C_9  and  C_11 
REMARK    9  A    between atoms: C_12  and  C_31 
REMARK   10  A    between atoms: C_14  and  C_30 
REMARK   11  A    between atoms: C_15  and  C_26 
REMARK   12  A    between atoms: C_16  and  C_18 
REMARK   13  A    between atoms: C_26  and  O_28 
REMARK   14  A    between atoms: O_28  and  C_29 
ROOT
ATOM      1  C   LIG d   1       8.084   1.436  -6.860  0.00  0.00     0.065 C 
ATOM      2  C   LIG d   1       7.592   1.563  -8.104  0.00  0.00     0.016 C 
ATOM      3  N   LIG d   1       8.102   2.493  -8.968  0.00  0.00    -0.321 N 
ATOM      4  C   LIG d   1       8.847   3.537  -8.494  0.00  0.00     0.016 C 
ATOM      5  C   LIG d   1       9.396   3.491  -7.268  0.00  0.00     0.065 C 
ATOM      6  C   LIG d   1       9.213   2.298  -6.373  0.00  0.00     0.052 C 
ATOM      7  H   LIG d   1       8.971   2.654  -5.360  0.00  0.00     0.045 H 
ATOM      8  H   LIG d   1       7.914   2.402 -10.048  0.00  0.00     0.152 HD
ENDROOT
BRANCH   1   9
ATOM      9  C   LIG d   1       7.527   0.470  -5.991  0.00  0.00     0.340 C 
ATOM     10  O   LIG d   1       7.891  -0.690  -6.056  0.00  0.00    -0.245 OA
BRANCH   9  11
ATOM     11  O   LIG d   1       6.589   0.832  -5.090  0.00  0.00    -0.424 OA
BRANCH  11  12
ATOM     12  C   LIG d   1       6.884   0.589  -3.713  0.00  0.00     0.239 C 
ATOM     13  H   LIG d   1       7.968   0.680  -3.548  0.00  0.00     0.117 H 
ATOM     14  H   LIG d   1       6.556  -0.426  -3.441  0.00  0.00     0.117 H 
BRANCH  12  15
ATOM     15  O   LIG d   1       6.186   1.560  -2.890  0.00  0.00    -0.427 OA
BRANCH  15  16
ATOM     16  C   LIG d   1       4.878   1.349  -2.675  0.00  0.00     0.310 C 
ATOM     17  O   LIG d   1       4.057   2.066  -3.198  0.00  0.00    -0.251 OA
BRANCH  16  18
ATOM     18  C   LIG d   1       4.432   0.219  -1.783  0.00  0.00     0.045 C 
ATOM     19  H   LIG d   1       3.941   0.630  -0.889  0.00  0.00     0.038 H 
ATOM     20  H   LIG d   1       5.306  -0.375  -1.481  0.00  0.00     0.038 H 
BRANCH  18  21
ATOM     21  C   LIG d   1       3.447  -0.672  -2.542  0.00  0.00    -0.046 C 
ATOM     22  H   LIG d   1       3.414  -0.366  -3.598  0.00  0.00     0.027 H 
ATOM     23  H   LIG d   1       2.445  -0.571  -2.100  0.00  0.00     0.027 H 
BRANCH  21  24
ATOM     24  C   LIG d   1       3.902  -2.130  -2.448  0.00  0.00    -0.065 C 
ATOM     25  H   LIG d   1       4.406  -2.417  -3.383  0.00  0.00     0.023 H 
ATOM     26  H   LIG d   1       3.027  -2.778  -2.290  0.00  0.00     0.023 H 
ATOM     27  H   LIG d   1       4.599  -2.243  -1.605  0.00  0.00     0.023 H 
ENDBRANCH  21  24
ENDBRANCH  18  21
ENDBRANCH  16  18
ENDBRANCH  15  16
ENDBRANCH  12  15
ENDBRANCH  11  12
ENDBRANCH   9  11
ENDBRANCH   1   9
BRANCH   6  28
ATOM     28  C   LIG d   1      10.483   1.489  -6.357  0.00  0.00    -0.015 A 
ATOM     29  C   LIG d   1      11.178   1.314  -5.174  0.00  0.00     0.063 A 
ATOM     30  C   LIG d   1      12.342   0.565  -5.160  0.00  0.00     0.059 A 
ATOM     31 CL   LIG d   1      10.586   2.027  -3.706  0.00  0.00    -0.082 Cl
ATOM     32  C   LIG d   1      12.816   0.002  -6.331  0.00  0.00    -0.042 A 
ATOM     33 CL   LIG d   1      13.210   0.336  -3.673  0.00  0.00    -0.082 Cl
ATOM     34  C   LIG d   1      12.124   0.183  -7.514  0.00  0.00    -0.060 A 
ATOM     35  H   LIG d   1      13.727  -0.579  -6.321  0.00  0.00     0.063 H 
ATOM     36  C   LIG d   1      10.958   0.925  -7.527  0.00  0.00    -0.056 A 
ATOM     37  H   LIG d   1      12.494  -0.257  -8.428  0.00  0.00     0.062 H 
ATOM     38  H   LIG d   1      10.418   1.066  -8.451  0.00  0.00     0.062 H 
ENDBRANCH   6  28
BRANCH   2  39
ATOM     39  C   LIG d   1       6.464   0.669  -8.554  0.00  0.00    -0.026 C 
ATOM     40  H   LIG d   1       5.927   0.286  -7.675  0.00  0.00     0.029 H 
ATOM     41  H   LIG d   1       6.872  -0.174  -9.131  0.00  0.00     0.029 H 
ATOM     42  H   LIG d   1       5.770   1.244  -9.185  0.00  0.00     0.029 H 
ENDBRANCH   2  39
BRANCH   5  43
ATOM     43  C   LIG d   1      10.159   4.590  -6.809  0.00  0.00     0.337 C 
ATOM     44  O   LIG d   1       9.633   5.456  -6.136  0.00  0.00    -0.245 OA
BRANCH  43  45
ATOM     45  O   LIG d   1      11.469   4.678  -7.117  0.00  0.00    -0.465 OA
BRANCH  45  46
ATOM     46  C   LIG d   1      12.389   4.740  -6.025  0.00  0.00     0.082 C 
ATOM     47  H   LIG d   1      11.848   5.001  -5.105  0.00  0.00     0.066 H 
ATOM     48  H   LIG d   1      13.152   5.506  -6.231  0.00  0.00     0.066 H 
ATOM     49  H   LIG d   1      12.876   3.763  -5.900  0.00  0.00     0.066 H 
ENDBRANCH  45  46
ENDBRANCH  43  45
ENDBRANCH   5  43
BRANCH   4  50
ATOM     50  C   LIG d   1       9.061   4.752  -9.359  0.00  0.00    -0.026 C 
ATOM     51  H   LIG d   1      10.128   4.842  -9.610  0.00  0.00     0.029 H 
ATOM     52  H   LIG d   1       8.735   5.651  -8.815  0.00  0.00     0.029 H 
ATOM     53  H   LIG d   1       8.475   4.652 -10.285  0.00  0.00     0.029 H 
ENDBRANCH   4  50
TORSDOF 14
ENDMDL
