MODEL 1
REMARK VINA RESULT:      -5.5      0.000      0.000
REMARK  9 active torsions:
REMARK  status: ('A' for Active; 'I' for Inactive)
REMARK    1  A    between atoms: C_1  and  C_2 
REMARK    2  A    between atoms: C_2  and  O_3 
REMARK    3  A    between atoms: O_3  and  C_4 
REMARK    4  A    between atoms: C_4  and  C_6 
REMARK    5  A    between atoms: C_9  and  O_23 
REMARK    6  A    between atoms: C_14  and  C_15 
REMARK    7  A    between atoms: C_18  and  O_21 
REMARK    8  A    between atoms: O_21  and  C_22 
REMARK    9  A    between atoms: O_23  and  C_24 
ROOT
ATOM      1  C   LIG d   1       9.684   5.549  -3.403  0.00  0.00     0.175 C 
ATOM      2  C   LIG d   1       9.614   6.375  -2.187  0.00  0.00     0.104 C 
ATOM      3  N   LIG d   1       9.562   7.012  -1.248  0.00  0.00    -0.193 NA
ATOM      4  H   LIG d   1       8.675   5.284  -3.721  0.00  0.00     0.086 H 
ATOM      5  H   LIG d   1      10.178   6.111  -4.196  0.00  0.00     0.086 H 
ENDROOT
BRANCH   1   6
ATOM      6  O   LIG d   1      10.426   4.358  -3.129  0.00  0.00    -0.477 OA
BRANCH   6   7
ATOM      7  C   LIG d   1      10.028   3.224  -3.765  0.00  0.00     0.123 A 
ATOM      8  C   LIG d   1       8.820   2.636  -3.436  0.00  0.00    -0.008 A 
ATOM      9  C   LIG d   1       8.417   1.478  -4.096  0.00  0.00     0.038 A 
ATOM     10  H   LIG d   1       8.191   3.075  -2.676  0.00  0.00     0.066 H 
ATOM     11  C   LIG d   1       7.226   0.610  -4.007  0.00  0.00     0.112 A 
ATOM     12  C   LIG d   1       9.234   0.903  -5.080  0.00  0.00     0.137 A 
ATOM     13  C   LIG d   1       7.433  -0.398  -4.936  0.00  0.00     0.150 A 
ATOM     14  O   LIG d   1       8.613  -0.201  -5.548  0.00  0.00    -0.454 OA
ATOM     15  C   LIG d   1      10.446   1.504  -5.394  0.00  0.00    -0.015 A 
ATOM     16  C   LIG d   1      10.838   2.654  -4.742  0.00  0.00    -0.016 A 
ATOM     17  H   LIG d   1      11.084   1.070  -6.151  0.00  0.00     0.066 H 
ATOM     18  H   LIG d   1      11.781   3.115  -4.991  0.00  0.00     0.066 H 
BRANCH  11  19
ATOM     19  C   LIG d   1       6.071   0.778  -3.122  0.00  0.00     0.344 C 
ATOM     20  O   LIG d   1       5.484   1.843  -3.084  0.00  0.00    -0.245 OA
BRANCH  19  21
ATOM     21  O   LIG d   1       5.659  -0.247  -2.349  0.00  0.00    -0.461 OA
BRANCH  21  22
ATOM     22  C   LIG d   1       4.228  -0.394  -2.156  0.00  0.00     0.090 C 
ATOM     23  H   LIG d   1       3.970  -0.123  -1.131  0.00  0.00     0.070 H 
ATOM     24  H   LIG d   1       3.699   0.261  -2.849  0.00  0.00     0.070 H 
BRANCH  22  25
ATOM     25  C   LIG d   1       3.823  -1.847  -2.417  0.00  0.00    -0.031 C 
ATOM     26  H   LIG d   1       3.077  -1.878  -3.210  0.00  0.00     0.026 H 
ATOM     27  H   LIG d   1       4.699  -2.419  -2.719  0.00  0.00     0.026 H 
ATOM     28  H   LIG d   1       3.406  -2.275  -1.506  0.00  0.00     0.026 H 
ENDBRANCH  22  25
ENDBRANCH  21  22
ENDBRANCH  19  21
ENDBRANCH  11  19
BRANCH  13  29
ATOM     29  C   LIG d   1       6.506  -1.510  -5.210  0.00  0.00     0.018 A 
ATOM     30  C   LIG d   1       5.424  -1.323  -6.076  0.00  0.00    -0.048 A 
ATOM     31  C   LIG d   1       4.559  -2.365  -6.328  0.00  0.00    -0.019 A 
ATOM     32  H   LIG d   1       5.265  -0.363  -6.545  0.00  0.00     0.063 H 
ATOM     33  C   LIG d   1       4.761  -3.600  -5.726  0.00  0.00     0.120 A 
ATOM     34  H   LIG d   1       3.722  -2.221  -6.997  0.00  0.00     0.065 H 
ATOM     35  C   LIG d   1       5.836  -3.791  -4.865  0.00  0.00    -0.019 A 
ATOM     36  C   LIG d   1       6.708  -2.756  -4.610  0.00  0.00    -0.048 A 
ATOM     37  H   LIG d   1       5.989  -4.753  -4.398  0.00  0.00     0.065 H 
ATOM     38  H   LIG d   1       7.547  -2.906  -3.945  0.00  0.00     0.063 H 
BRANCH  33  39
ATOM     39  O   LIG d   1       3.907  -4.625  -5.979  0.00  0.00    -0.495 OA
BRANCH  39  40
ATOM     40  C   LIG d   1       4.486  -5.867  -6.381  0.00  0.00     0.079 C 
ATOM     41  H   LIG d   1       5.101  -6.261  -5.572  0.00  0.00     0.066 H 
ATOM     42  H   LIG d   1       3.694  -6.580  -6.615  0.00  0.00     0.066 H 
ATOM     43  H   LIG d   1       5.106  -5.710  -7.264  0.00  0.00     0.066 H 
ENDBRANCH  39  40
ENDBRANCH  33  39
ENDBRANCH  13  29
ENDBRANCH   6   7
ENDBRANCH   1   6
TORSDOF 9
ENDMDL
MODEL 2
REMARK VINA RESULT:      -5.5      3.317      8.151
REMARK  9 active torsions:
REMARK  status: ('A' for Active; 'I' for Inactive)
REMARK    1  A    between atoms: C_1  and  C_2 
REMARK    2  A    between atoms: C_2  and  O_3 
REMARK    3  A    between atoms: O_3  and  C_4 
REMARK    4  A    between atoms: C_4  and  C_6 
REMARK    5  A    between atoms: C_9  and  O_23 
REMARK    6  A    between atoms: C_14  and  C_15 
REMARK    7  A    between atoms: C_18  and  O_21 
REMARK    8  A    between atoms: O_21  and  C_22 
REMARK    9  A    between atoms: O_23  and  C_24 
ROOT
ATOM      1  C   LIG d   1       5.134  -4.185  -4.846  0.00  0.00     0.175 C 
ATOM      2  C   LIG d   1       4.192  -4.886  -5.733  0.00  0.00     0.104 C 
ATOM      3  N   LIG d   1       3.464  -5.426  -6.417  0.00  0.00    -0.193 NA
ATOM      4  H   LIG d   1       5.707  -4.915  -4.274  0.00  0.00     0.086 H 
ATOM      5  H   LIG d   1       5.815  -3.579  -5.445  0.00  0.00     0.086 H 
ENDROOT
BRANCH   1   6
ATOM      6  O   LIG d   1       4.408  -3.341  -3.949  0.00  0.00    -0.477 OA
BRANCH   6   7
ATOM      7  C   LIG d   1       4.946  -2.123  -3.677  0.00  0.00     0.123 A 
ATOM      8  C   LIG d   1       6.118  -1.732  -4.299  0.00  0.00    -0.008 A 
ATOM      9  C   LIG d   1       6.661  -0.480  -4.020  0.00  0.00     0.038 A 
ATOM     10  H   LIG d   1       6.607  -2.391  -5.001  0.00  0.00     0.066 H 
ATOM     11  C   LIG d   1       7.858   0.245  -4.487  0.00  0.00     0.112 A 
ATOM     12  C   LIG d   1       6.030   0.376  -3.105  0.00  0.00     0.137 A 
ATOM     13  C   LIG d   1       7.840   1.459  -3.817  0.00  0.00     0.150 A 
ATOM     14  O   LIG d   1       6.762   1.508  -3.018  0.00  0.00    -0.454 OA
ATOM     15  C   LIG d   1       4.857  -0.035  -2.486  0.00  0.00    -0.015 A 
ATOM     16  C   LIG d   1       4.322  -1.273  -2.770  0.00  0.00    -0.016 A 
ATOM     17  H   LIG d   1       4.363   0.617  -1.779  0.00  0.00     0.066 H 
ATOM     18  H   LIG d   1       3.410  -1.586  -2.285  0.00  0.00     0.066 H 
BRANCH  11  19
ATOM     19  C   LIG d   1       8.855  -0.221  -5.453  0.00  0.00     0.344 C 
ATOM     20  O   LIG d   1       9.715  -1.009  -5.108  0.00  0.00    -0.245 OA
BRANCH  19  21
ATOM     21  O   LIG d   1       8.821   0.224  -6.726  0.00  0.00    -0.461 OA
BRANCH  21  22
ATOM     22  C   LIG d   1       7.527   0.244  -7.383  0.00  0.00     0.090 C 
ATOM     23  H   LIG d   1       7.497  -0.533  -8.148  0.00  0.00     0.070 H 
ATOM     24  H   LIG d   1       6.743   0.060  -6.648  0.00  0.00     0.070 H 
BRANCH  22  25
ATOM     25  C   LIG d   1       7.306   1.610  -8.035  0.00  0.00    -0.031 C 
ATOM     26  H   LIG d   1       8.255   1.991  -8.411  0.00  0.00     0.026 H 
ATOM     27  H   LIG d   1       6.603   1.509  -8.861  0.00  0.00     0.026 H 
ATOM     28  H   LIG d   1       6.901   2.303  -7.297  0.00  0.00     0.026 H 
ENDBRANCH  22  25
ENDBRANCH  21  22
ENDBRANCH  19  21
ENDBRANCH  11  19
BRANCH  13  29
ATOM     29  C   LIG d   1       8.845   2.528  -3.961  0.00  0.00     0.018 A 
ATOM     30  C   LIG d   1       8.690   3.508  -4.946  0.00  0.00    -0.048 A 
ATOM     31  C   LIG d   1       9.632   4.505  -5.076  0.00  0.00    -0.019 A 
ATOM     32  H   LIG d   1       7.834   3.484  -5.603  0.00  0.00     0.063 H 
ATOM     33  C   LIG d   1      10.733   4.537  -4.230  0.00  0.00     0.120 A 
ATOM     34  H   LIG d   1       9.513   5.262  -5.837  0.00  0.00     0.065 H 
ATOM     35  C   LIG d   1      10.891   3.566  -3.249  0.00  0.00    -0.019 A 
ATOM     36  C   LIG d   1       9.952   2.567  -3.109  0.00  0.00    -0.048 A 
ATOM     37  H   LIG d   1      11.750   3.594  -2.594  0.00  0.00     0.065 H 
ATOM     38  H   LIG d   1      10.073   1.815  -2.342  0.00  0.00     0.063 H 
BRANCH  33  39
ATOM     39  O   LIG d   1      11.659   5.522  -4.361  0.00  0.00    -0.495 OA
BRANCH  39  40
ATOM     40  C   LIG d   1      12.730   5.536  -3.416  0.00  0.00     0.079 C 
ATOM     41  H   LIG d   1      12.340   5.786  -2.429  0.00  0.00     0.066 H 
ATOM     42  H   LIG d   1      13.199   4.552  -3.382  0.00  0.00     0.066 H 
ATOM     43  H   LIG d   1      13.468   6.281  -3.714  0.00  0.00     0.066 H 
ENDBRANCH  39  40
ENDBRANCH  33  39
ENDBRANCH  13  29
ENDBRANCH   6   7
ENDBRANCH   1   6
TORSDOF 9
ENDMDL
MODEL 3
REMARK VINA RESULT:      -5.3      5.045      6.262
REMARK  9 active torsions:
REMARK  status: ('A' for Active; 'I' for Inactive)
REMARK    1  A    between atoms: C_1  and  C_2 
REMARK    2  A    between atoms: C_2  and  O_3 
REMARK    3  A    between atoms: O_3  and  C_4 
REMARK    4  A    between atoms: C_4  and  C_6 
REMARK    5  A    between atoms: C_9  and  O_23 
REMARK    6  A    between atoms: C_14  and  C_15 
REMARK    7  A    between atoms: C_18  and  O_21 
REMARK    8  A    between atoms: O_21  and  C_22 
REMARK    9  A    between atoms: O_23  and  C_24 
ROOT
ATOM      1  C   LIG d   1       3.152   2.130  -8.770  0.00  0.00     0.175 C 
ATOM      2  C   LIG d   1       4.575   2.339  -9.083  0.00  0.00     0.104 C 
ATOM      3  N   LIG d   1       5.673   2.499  -9.325  0.00  0.00    -0.193 NA
ATOM      4  H   LIG d   1       2.672   3.094  -8.603  0.00  0.00     0.086 H 
ATOM      5  H   LIG d   1       2.667   1.622  -9.604  0.00  0.00     0.086 H 
ENDROOT
BRANCH   1   6
ATOM      6  O   LIG d   1       3.036   1.329  -7.591  0.00  0.00    -0.477 OA
BRANCH   6   7
ATOM      7  C   LIG d   1       3.372   0.017  -7.702  0.00  0.00     0.123 A 
ATOM      8  C   LIG d   1       3.927  -0.647  -6.623  0.00  0.00    -0.008 A 
ATOM      9  C   LIG d   1       4.264  -1.992  -6.741  0.00  0.00     0.038 A 
ATOM     10  H   LIG d   1       4.094  -0.126  -5.691  0.00  0.00     0.066 H 
ATOM     11  C   LIG d   1       4.853  -2.986  -5.823  0.00  0.00     0.112 A 
ATOM     12  C   LIG d   1       4.053  -2.671  -7.951  0.00  0.00     0.137 A 
ATOM     13  C   LIG d   1       4.942  -4.160  -6.557  0.00  0.00     0.150 A 
ATOM     14  O   LIG d   1       4.467  -3.947  -7.795  0.00  0.00    -0.454 OA
ATOM     15  C   LIG d   1       3.499  -1.987  -9.026  0.00  0.00    -0.015 A 
ATOM     16  C   LIG d   1       3.163  -0.656  -8.901  0.00  0.00    -0.016 A 
ATOM     17  H   LIG d   1       3.332  -2.500  -9.963  0.00  0.00     0.066 H 
ATOM     18  H   LIG d   1       2.732  -0.132  -9.740  0.00  0.00     0.066 H 
BRANCH  11  19
ATOM     19  C   LIG d   1       5.259  -2.776  -4.432  0.00  0.00     0.344 C 
ATOM     20  O   LIG d   1       6.411  -2.482  -4.172  0.00  0.00    -0.245 OA
BRANCH  19  21
ATOM     21  O   LIG d   1       4.357  -2.909  -3.439  0.00  0.00    -0.461 OA
BRANCH  21  22
ATOM     22  C   LIG d   1       3.621  -1.719  -3.051  0.00  0.00     0.090 C 
ATOM     23  H   LIG d   1       3.587  -1.024  -3.892  0.00  0.00     0.070 H 
ATOM     24  H   LIG d   1       2.605  -1.996  -2.768  0.00  0.00     0.070 H 
BRANCH  22  25
ATOM     25  C   LIG d   1       4.319  -1.051  -1.865  0.00  0.00    -0.031 C 
ATOM     26  H   LIG d   1       5.388  -0.981  -2.065  0.00  0.00     0.026 H 
ATOM     27  H   LIG d   1       3.910  -0.051  -1.719  0.00  0.00     0.026 H 
ATOM     28  H   LIG d   1       4.154  -1.645  -0.966  0.00  0.00     0.026 H 
ENDBRANCH  22  25
ENDBRANCH  21  22
ENDBRANCH  19  21
ENDBRANCH  11  19
BRANCH  13  29
ATOM     29  C   LIG d   1       5.474  -5.440  -6.056  0.00  0.00     0.018 A 
ATOM     30  C   LIG d   1       4.603  -6.495  -5.765  0.00  0.00    -0.048 A 
ATOM     31  C   LIG d   1       5.104  -7.690  -5.297  0.00  0.00    -0.019 A 
ATOM     32  H   LIG d   1       3.539  -6.373  -5.906  0.00  0.00     0.063 H 
ATOM     33  C   LIG d   1       6.473  -7.848  -5.116  0.00  0.00     0.120 A 
ATOM     34  H   LIG d   1       4.432  -8.505  -5.072  0.00  0.00     0.065 H 
ATOM     35  C   LIG d   1       7.342  -6.803  -5.405  0.00  0.00    -0.019 A 
ATOM     36  C   LIG d   1       6.850  -5.606  -5.877  0.00  0.00    -0.048 A 
ATOM     37  H   LIG d   1       8.405  -6.930  -5.261  0.00  0.00     0.065 H 
ATOM     38  H   LIG d   1       7.527  -4.795  -6.106  0.00  0.00     0.063 H 
BRANCH  33  39
ATOM     39  O   LIG d   1       6.963  -9.028  -4.656  0.00  0.00    -0.495 OA
BRANCH  39  40
ATOM     40  C   LIG d   1       6.625 -10.203  -5.395  0.00  0.00     0.079 C 
ATOM     41  H   LIG d   1       5.900 -10.791  -4.831  0.00  0.00     0.066 H 
ATOM     42  H   LIG d   1       6.193  -9.918  -6.354  0.00  0.00     0.066 H 
ATOM     43  H   LIG d   1       7.522 -10.798  -5.562  0.00  0.00     0.066 H 
ENDBRANCH  39  40
ENDBRANCH  33  39
ENDBRANCH  13  29
ENDBRANCH   6   7
ENDBRANCH   1   6
TORSDOF 9
ENDMDL
MODEL 4
REMARK VINA RESULT:      -5.2      4.429     11.199
REMARK  9 active torsions:
REMARK  status: ('A' for Active; 'I' for Inactive)
REMARK    1  A    between atoms: C_1  and  C_2 
REMARK    2  A    between atoms: C_2  and  O_3 
REMARK    3  A    between atoms: O_3  and  C_4 
REMARK    4  A    between atoms: C_4  and  C_6 
REMARK    5  A    between atoms: C_9  and  O_23 
REMARK    6  A    between atoms: C_14  and  C_15 
REMARK    7  A    between atoms: C_18  and  O_21 
REMARK    8  A    between atoms: O_21  and  C_22 
REMARK    9  A    between atoms: O_23  and  C_24 
ROOT
ATOM      1  C   LIG d   1       8.764   2.183  -4.690  0.00  0.00     0.175 C 
ATOM      2  C   LIG d   1       7.558   1.792  -3.940  0.00  0.00     0.104 C 
ATOM      3  N   LIG d   1       6.628   1.492  -3.362  0.00  0.00    -0.193 NA
ATOM      4  H   LIG d   1       9.162   1.315  -5.215  0.00  0.00     0.086 H 
ATOM      5  H   LIG d   1       8.507   2.958  -5.412  0.00  0.00     0.086 H 
ENDROOT
BRANCH   1   6
ATOM      6  O   LIG d   1       9.748   2.684  -3.782  0.00  0.00    -0.477 OA
BRANCH   6   7
ATOM      7  C   LIG d   1       9.768   4.027  -3.574  0.00  0.00     0.123 A 
ATOM      8  C   LIG d   1      10.251   4.533  -2.380  0.00  0.00    -0.008 A 
ATOM      9  C   LIG d   1      10.273   5.910  -2.176  0.00  0.00     0.038 A 
ATOM     10  H   LIG d   1      10.613   3.865  -1.613  0.00  0.00     0.066 H 
ATOM     11  C   LIG d   1      10.709   6.774  -1.062  0.00  0.00     0.112 A 
ATOM     12  C   LIG d   1       9.798   6.781  -3.169  0.00  0.00     0.137 A 
ATOM     13  C   LIG d   1      10.459   8.072  -1.480  0.00  0.00     0.150 A 
ATOM     14  O   LIG d   1       9.928   8.046  -2.714  0.00  0.00    -0.454 OA
ATOM     15  C   LIG d   1       9.312   6.255  -4.359  0.00  0.00    -0.015 A 
ATOM     16  C   LIG d   1       9.297   4.891  -4.557  0.00  0.00    -0.016 A 
ATOM     17  H   LIG d   1       8.944   6.916  -5.130  0.00  0.00     0.066 H 
ATOM     18  H   LIG d   1       8.919   4.489  -5.485  0.00  0.00     0.066 H 
BRANCH  11  19
ATOM     19  C   LIG d   1      11.282   6.348   0.217  0.00  0.00     0.344 C 
ATOM     20  O   LIG d   1      10.552   6.089   1.155  0.00  0.00    -0.245 OA
BRANCH  19  21
ATOM     21  O   LIG d   1      12.620   6.245   0.355  0.00  0.00    -0.461 OA
BRANCH  21  22
ATOM     22  C   LIG d   1      13.425   6.477  -0.830  0.00  0.00     0.090 C 
ATOM     23  H   LIG d   1      12.777   6.765  -1.659  0.00  0.00     0.070 H 
ATOM     24  H   LIG d   1      14.140   7.277  -0.634  0.00  0.00     0.070 H 
BRANCH  22  25
ATOM     25  C   LIG d   1      14.179   5.196  -1.194  0.00  0.00    -0.031 C 
ATOM     26  H   LIG d   1      14.739   5.354  -2.116  0.00  0.00     0.026 H 
ATOM     27  H   LIG d   1      14.869   4.940  -0.390  0.00  0.00     0.026 H 
ATOM     28  H   LIG d   1      13.467   4.383  -1.334  0.00  0.00     0.026 H 
ENDBRANCH  22  25
ENDBRANCH  21  22
ENDBRANCH  19  21
ENDBRANCH  11  19
BRANCH  13  29
ATOM     29  C   LIG d   1      10.734   9.289  -0.696  0.00  0.00     0.018 A 
ATOM     30  C   LIG d   1      12.042   9.770  -0.583  0.00  0.00    -0.048 A 
ATOM     31  C   LIG d   1      12.293  10.908   0.152  0.00  0.00    -0.019 A 
ATOM     32  H   LIG d   1      12.853   9.250  -1.070  0.00  0.00     0.063 H 
ATOM     33  C   LIG d   1      11.250  11.578   0.778  0.00  0.00     0.120 A 
ATOM     34  H   LIG d   1      13.304  11.280   0.240  0.00  0.00     0.065 H 
ATOM     35  C   LIG d   1       9.948  11.104   0.668  0.00  0.00    -0.019 A 
ATOM     36  C   LIG d   1       9.686   9.970  -0.068  0.00  0.00    -0.048 A 
ATOM     37  H   LIG d   1       9.140  11.628   1.158  0.00  0.00     0.065 H 
ATOM     38  H   LIG d   1       8.673   9.605  -0.158  0.00  0.00     0.063 H 
BRANCH  33  39
ATOM     39  O   LIG d   1      11.503  12.700   1.501  0.00  0.00    -0.495 OA
BRANCH  39  40
ATOM     40  C   LIG d   1      12.293  13.711   0.872  0.00  0.00     0.079 C 
ATOM     41  H   LIG d   1      11.775  14.669   0.936  0.00  0.00     0.066 H 
ATOM     42  H   LIG d   1      13.257  13.786   1.376  0.00  0.00     0.066 H 
ATOM     43  H   LIG d   1      12.448  13.452  -0.175  0.00  0.00     0.066 H 
ENDBRANCH  39  40
ENDBRANCH  33  39
ENDBRANCH  13  29
ENDBRANCH   6   7
ENDBRANCH   1   6
TORSDOF 9
ENDMDL
MODEL 5
REMARK VINA RESULT:      -5.2      3.901      8.150
REMARK  9 active torsions:
REMARK  status: ('A' for Active; 'I' for Inactive)
REMARK    1  A    between atoms: C_1  and  C_2 
REMARK    2  A    between atoms: C_2  and  O_3 
REMARK    3  A    between atoms: O_3  and  C_4 
REMARK    4  A    between atoms: C_4  and  C_6 
REMARK    5  A    between atoms: C_9  and  O_23 
REMARK    6  A    between atoms: C_14  and  C_15 
REMARK    7  A    between atoms: C_18  and  O_21 
REMARK    8  A    between atoms: O_21  and  C_22 
REMARK    9  A    between atoms: O_23  and  C_24 
ROOT
ATOM      1  C   LIG d   1       4.763  -7.640  -5.966  0.00  0.00     0.175 C 
ATOM      2  C   LIG d   1       4.707  -8.723  -4.970  0.00  0.00     0.104 C 
ATOM      3  N   LIG d   1       4.663  -9.558  -4.202  0.00  0.00    -0.193 NA
ATOM      4  H   LIG d   1       5.770  -7.579  -6.380  0.00  0.00     0.086 H 
ATOM      5  H   LIG d   1       4.054  -7.847  -6.768  0.00  0.00     0.086 H 
ENDROOT
BRANCH   1   6
ATOM      6  O   LIG d   1       4.429  -6.399  -5.341  0.00  0.00    -0.477 OA
BRANCH   6   7
ATOM      7  C   LIG d   1       5.365  -5.414  -5.386  0.00  0.00     0.123 A 
ATOM      8  C   LIG d   1       4.997  -4.102  -5.152  0.00  0.00    -0.008 A 
ATOM      9  C   LIG d   1       5.961  -3.099  -5.194  0.00  0.00     0.038 A 
ATOM     10  H   LIG d   1       3.968  -3.856  -4.932  0.00  0.00     0.066 H 
ATOM     11  C   LIG d   1       5.929  -1.637  -4.997  0.00  0.00     0.112 A 
ATOM     12  C   LIG d   1       7.298  -3.414  -5.483  0.00  0.00     0.137 A 
ATOM     13  C   LIG d   1       7.235  -1.209  -5.183  0.00  0.00     0.150 A 
ATOM     14  O   LIG d   1       8.012  -2.268  -5.465  0.00  0.00    -0.454 OA
ATOM     15  C   LIG d   1       7.648  -4.737  -5.720  0.00  0.00    -0.015 A 
ATOM     16  C   LIG d   1       6.690  -5.726  -5.672  0.00  0.00    -0.016 A 
ATOM     17  H   LIG d   1       8.675  -4.991  -5.944  0.00  0.00     0.066 H 
ATOM     18  H   LIG d   1       6.969  -6.752  -5.857  0.00  0.00     0.066 H 
BRANCH  11  19
ATOM     19  C   LIG d   1       4.763  -0.812  -4.674  0.00  0.00     0.344 C 
ATOM     20  O   LIG d   1       4.314  -0.042  -5.502  0.00  0.00    -0.245 OA
BRANCH  19  21
ATOM     21  O   LIG d   1       4.187  -0.905  -3.458  0.00  0.00    -0.461 OA
BRANCH  21  22
ATOM     22  C   LIG d   1       3.617   0.310  -2.903  0.00  0.00     0.090 C 
ATOM     23  H   LIG d   1       3.512   1.055  -3.693  0.00  0.00     0.070 H 
ATOM     24  H   LIG d   1       2.637   0.090  -2.478  0.00  0.00     0.070 H 
BRANCH  22  25
ATOM     25  C   LIG d   1       4.538   0.852  -1.808  0.00  0.00    -0.031 C 
ATOM     26  H   LIG d   1       4.784   1.892  -2.023  0.00  0.00     0.026 H 
ATOM     27  H   LIG d   1       4.033   0.790  -0.845  0.00  0.00     0.026 H 
ATOM     28  H   LIG d   1       5.453   0.260  -1.778  0.00  0.00     0.026 H 
ENDBRANCH  22  25
ENDBRANCH  21  22
ENDBRANCH  19  21
ENDBRANCH  11  19
BRANCH  13  29
ATOM     29  C   LIG d   1       7.698   0.187  -5.087  0.00  0.00     0.018 A 
ATOM     30  C   LIG d   1       8.072   0.883  -6.241  0.00  0.00    -0.048 A 
ATOM     31  C   LIG d   1       8.504   2.187  -6.145  0.00  0.00    -0.019 A 
ATOM     32  H   LIG d   1       8.023   0.398  -7.205  0.00  0.00     0.063 H 
ATOM     33  C   LIG d   1       8.567   2.811  -4.906  0.00  0.00     0.120 A 
ATOM     34  H   LIG d   1       8.793   2.725  -7.037  0.00  0.00     0.065 H 
ATOM     35  C   LIG d   1       8.195   2.125  -3.757  0.00  0.00    -0.019 A 
ATOM     36  C   LIG d   1       7.758   0.821  -3.843  0.00  0.00    -0.048 A 
ATOM     37  H   LIG d   1       8.246   2.614  -2.795  0.00  0.00     0.065 H 
ATOM     38  H   LIG d   1       7.464   0.289  -2.949  0.00  0.00     0.063 H 
BRANCH  33  39
ATOM     39  O   LIG d   1       8.992   4.098  -4.817  0.00  0.00    -0.495 OA
BRANCH  39  40
ATOM     40  C   LIG d   1       9.895   4.554  -5.826  0.00  0.00     0.079 C 
ATOM     41  H   LIG d   1      10.602   5.260  -5.388  0.00  0.00     0.066 H 
ATOM     42  H   LIG d   1      10.440   3.704  -6.238  0.00  0.00     0.066 H 
ATOM     43  H   LIG d   1       9.335   5.047  -6.620  0.00  0.00     0.066 H 
ENDBRANCH  39  40
ENDBRANCH  33  39
ENDBRANCH  13  29
ENDBRANCH   6   7
ENDBRANCH   1   6
TORSDOF 9
ENDMDL
MODEL 6
REMARK VINA RESULT:      -5.1      6.224      9.206
REMARK  9 active torsions:
REMARK  status: ('A' for Active; 'I' for Inactive)
REMARK    1  A    between atoms: C_1  and  C_2 
REMARK    2  A    between atoms: C_2  and  O_3 
REMARK    3  A    between atoms: O_3  and  C_4 
REMARK    4  A    between atoms: C_4  and  C_6 
REMARK    5  A    between atoms: C_9  and  O_23 
REMARK    6  A    between atoms: C_14  and  C_15 
REMARK    7  A    between atoms: C_18  and  O_21 
REMARK    8  A    between atoms: O_21  and  C_22 
REMARK    9  A    between atoms: O_23  and  C_24 
ROOT
ATOM      1  C   LIG d   1       3.734  -1.534 -15.129  0.00  0.00     0.175 C 
ATOM      2  C   LIG d   1       3.183  -0.917 -16.347  0.00  0.00     0.104 C 
ATOM      3  N   LIG d   1       2.760  -0.440 -17.286  0.00  0.00    -0.193 NA
ATOM      4  H   LIG d   1       3.019  -2.255 -14.732  0.00  0.00     0.086 H 
ATOM      5  H   LIG d   1       4.667  -2.044 -15.370  0.00  0.00     0.086 H 
ENDROOT
BRANCH   1   6
ATOM      6  O   LIG d   1       3.983  -0.522 -14.151  0.00  0.00    -0.477 OA
BRANCH   6   7
ATOM      7  C   LIG d   1       3.778  -0.858 -12.850  0.00  0.00     0.123 A 
ATOM      8  C   LIG d   1       4.045   0.060 -11.850  0.00  0.00    -0.008 A 
ATOM      9  C   LIG d   1       3.828  -0.289 -10.520  0.00  0.00     0.038 A 
ATOM     10  H   LIG d   1       4.415   1.044 -12.099  0.00  0.00     0.066 H 
ATOM     11  C   LIG d   1       3.995   0.417  -9.235  0.00  0.00     0.112 A 
ATOM     12  C   LIG d   1       3.352  -1.567 -10.192  0.00  0.00     0.137 A 
ATOM     13  C   LIG d   1       3.609  -0.491  -8.261  0.00  0.00     0.150 A 
ATOM     14  O   LIG d   1       3.238  -1.641  -8.849  0.00  0.00    -0.454 OA
ATOM     15  C   LIG d   1       3.095  -2.478 -11.209  0.00  0.00    -0.015 A 
ATOM     16  C   LIG d   1       3.306  -2.125 -12.525  0.00  0.00    -0.016 A 
ATOM     17  H   LIG d   1       2.727  -3.466 -10.968  0.00  0.00     0.066 H 
ATOM     18  H   LIG d   1       3.103  -2.837 -13.309  0.00  0.00     0.066 H 
BRANCH  11  19
ATOM     19  C   LIG d   1       4.470   1.788  -9.032  0.00  0.00     0.344 C 
ATOM     20  O   LIG d   1       3.735   2.619  -8.534  0.00  0.00    -0.245 OA
BRANCH  19  21
ATOM     21  O   LIG d   1       5.723   2.128  -9.399  0.00  0.00    -0.461 OA
BRANCH  21  22
ATOM     22  C   LIG d   1       6.779   1.178  -9.099  0.00  0.00     0.090 C 
ATOM     23  H   LIG d   1       6.370   0.167  -9.103  0.00  0.00     0.070 H 
ATOM     24  H   LIG d   1       7.562   1.256  -9.854  0.00  0.00     0.070 H 
BRANCH  22  25
ATOM     25  C   LIG d   1       7.367   1.486  -7.721  0.00  0.00    -0.031 C 
ATOM     26  H   LIG d   1       6.897   0.845  -6.975  0.00  0.00     0.026 H 
ATOM     27  H   LIG d   1       8.440   1.301  -7.734  0.00  0.00     0.026 H 
ATOM     28  H   LIG d   1       7.181   2.531  -7.472  0.00  0.00     0.026 H 
ENDBRANCH  22  25
ENDBRANCH  21  22
ENDBRANCH  19  21
ENDBRANCH  11  19
BRANCH  13  29
ATOM     29  C   LIG d   1       3.605  -0.236  -6.810  0.00  0.00     0.018 A 
ATOM     30  C   LIG d   1       2.480   0.327  -6.200  0.00  0.00    -0.048 A 
ATOM     31  C   LIG d   1       2.481   0.565  -4.843  0.00  0.00    -0.019 A 
ATOM     32  H   LIG d   1       1.611   0.577  -6.791  0.00  0.00     0.063 H 
ATOM     33  C   LIG d   1       3.597   0.244  -4.081  0.00  0.00     0.120 A 
ATOM     34  H   LIG d   1       1.612   1.000  -4.371  0.00  0.00     0.065 H 
ATOM     35  C   LIG d   1       4.718  -0.317  -4.682  0.00  0.00    -0.019 A 
ATOM     36  C   LIG d   1       4.724  -0.562  -6.037  0.00  0.00    -0.048 A 
ATOM     37  H   LIG d   1       5.584  -0.564  -4.085  0.00  0.00     0.065 H 
ATOM     38  H   LIG d   1       5.594  -1.003  -6.504  0.00  0.00     0.063 H 
BRANCH  33  39
ATOM     39  O   LIG d   1       3.594   0.478  -2.743  0.00  0.00    -0.495 OA
BRANCH  39  40
ATOM     40  C   LIG d   1       4.807   0.964  -2.166  0.00  0.00     0.079 C 
ATOM     41  H   LIG d   1       5.463   1.332  -2.956  0.00  0.00     0.066 H 
ATOM     42  H   LIG d   1       4.582   1.776  -1.475  0.00  0.00     0.066 H 
ATOM     43  H   LIG d   1       5.304   0.156  -1.629  0.00  0.00     0.066 H 
ENDBRANCH  39  40
ENDBRANCH  33  39
ENDBRANCH  13  29
ENDBRANCH   6   7
ENDBRANCH   1   6
TORSDOF 9
ENDMDL
MODEL 7
REMARK VINA RESULT:      -5.1      3.582      5.400
REMARK  9 active torsions:
REMARK  status: ('A' for Active; 'I' for Inactive)
REMARK    1  A    between atoms: C_1  and  C_2 
REMARK    2  A    between atoms: C_2  and  O_3 
REMARK    3  A    between atoms: O_3  and  C_4 
REMARK    4  A    between atoms: C_4  and  C_6 
REMARK    5  A    between atoms: C_9  and  O_23 
REMARK    6  A    between atoms: C_14  and  C_15 
REMARK    7  A    between atoms: C_18  and  O_21 
REMARK    8  A    between atoms: O_21  and  C_22 
REMARK    9  A    between atoms: O_23  and  C_24 
ROOT
ATOM      1  C   LIG d   1       8.729   2.606  -3.820  0.00  0.00     0.175 C 
ATOM      2  C   LIG d   1       9.957   3.008  -3.114  0.00  0.00     0.104 C 
ATOM      3  N   LIG d   1      10.904   3.317  -2.570  0.00  0.00    -0.193 NA
ATOM      4  H   LIG d   1       7.860   2.998  -3.290  0.00  0.00     0.086 H 
ATOM      5  H   LIG d   1       8.745   3.007  -4.834  0.00  0.00     0.086 H 
ENDROOT
BRANCH   1   6
ATOM      6  O   LIG d   1       8.653   1.180  -3.872  0.00  0.00    -0.477 OA
BRANCH   6   7
ATOM      7  C   LIG d   1       7.490   0.641  -4.326  0.00  0.00     0.123 A 
ATOM      8  C   LIG d   1       7.285   0.488  -5.685  0.00  0.00    -0.008 A 
ATOM      9  C   LIG d   1       6.094  -0.070  -6.143  0.00  0.00     0.038 A 
ATOM     10  H   LIG d   1       8.046   0.795  -6.388  0.00  0.00     0.066 H 
ATOM     11  C   LIG d   1       5.554  -0.377  -7.482  0.00  0.00     0.112 A 
ATOM     12  C   LIG d   1       5.102  -0.465  -5.233  0.00  0.00     0.137 A 
ATOM     13  C   LIG d   1       4.299  -0.923  -7.258  0.00  0.00     0.150 A 
ATOM     14  O   LIG d   1       4.062  -0.963  -5.937  0.00  0.00    -0.454 OA
ATOM     15  C   LIG d   1       5.323  -0.299  -3.872  0.00  0.00    -0.015 A 
ATOM     16  C   LIG d   1       6.506   0.249  -3.424  0.00  0.00    -0.016 A 
ATOM     17  H   LIG d   1       4.566  -0.600  -3.162  0.00  0.00     0.066 H 
ATOM     18  H   LIG d   1       6.671   0.374  -2.365  0.00  0.00     0.066 H 
BRANCH  11  19
ATOM     19  C   LIG d   1       6.206  -0.150  -8.773  0.00  0.00     0.344 C 
ATOM     20  O   LIG d   1       7.173  -0.816  -9.092  0.00  0.00    -0.245 OA
BRANCH  19  21
ATOM     21  O   LIG d   1       5.735   0.797  -9.610  0.00  0.00    -0.461 OA
BRANCH  21  22
ATOM     22  C   LIG d   1       5.479   2.109  -9.043  0.00  0.00     0.090 C 
ATOM     23  H   LIG d   1       5.578   2.061  -7.958  0.00  0.00     0.070 H 
ATOM     24  H   LIG d   1       6.199   2.824  -9.443  0.00  0.00     0.070 H 
BRANCH  22  25
ATOM     25  C   LIG d   1       4.061   2.555  -9.407  0.00  0.00    -0.031 C 
ATOM     26  H   LIG d   1       3.450   2.593  -8.505  0.00  0.00     0.026 H 
ATOM     27  H   LIG d   1       4.097   3.543  -9.864  0.00  0.00     0.026 H 
ATOM     28  H   LIG d   1       3.627   1.845 -10.111  0.00  0.00     0.026 H 
ENDBRANCH  22  25
ENDBRANCH  21  22
ENDBRANCH  19  21
ENDBRANCH  11  19
BRANCH  13  29
ATOM     29  C   LIG d   1       3.372  -1.386  -8.305  0.00  0.00     0.018 A 
ATOM     30  C   LIG d   1       3.475  -2.688  -8.807  0.00  0.00    -0.048 A 
ATOM     31  C   LIG d   1       2.606  -3.116  -9.786  0.00  0.00    -0.019 A 
ATOM     32  H   LIG d   1       4.235  -3.355  -8.428  0.00  0.00     0.063 H 
ATOM     33  C   LIG d   1       1.628  -2.259 -10.273  0.00  0.00     0.120 A 
ATOM     34  H   LIG d   1       2.686  -4.122 -10.175  0.00  0.00     0.065 H 
ATOM     35  C   LIG d   1       1.520  -0.966  -9.777  0.00  0.00    -0.019 A 
ATOM     36  C   LIG d   1       2.382  -0.529  -8.795  0.00  0.00    -0.048 A 
ATOM     37  H   LIG d   1       0.759  -0.302 -10.160  0.00  0.00     0.065 H 
ATOM     38  H   LIG d   1       2.295   0.475  -8.406  0.00  0.00     0.063 H 
BRANCH  33  39
ATOM     39  O   LIG d   1       0.772  -2.687 -11.238  0.00  0.00    -0.495 OA
BRANCH  39  40
ATOM     40  C   LIG d   1       0.590  -1.833 -12.368  0.00  0.00     0.079 C 
ATOM     41  H   LIG d   1       0.658  -2.421 -13.283  0.00  0.00     0.066 H 
ATOM     42  H   LIG d   1      -0.391  -1.360 -12.313  0.00  0.00     0.066 H 
ATOM     43  H   LIG d   1       1.364  -1.065 -12.372  0.00  0.00     0.066 H 
ENDBRANCH  39  40
ENDBRANCH  33  39
ENDBRANCH  13  29
ENDBRANCH   6   7
ENDBRANCH   1   6
TORSDOF 9
ENDMDL
MODEL 8
REMARK VINA RESULT:      -4.9      5.187      9.425
REMARK  9 active torsions:
REMARK  status: ('A' for Active; 'I' for Inactive)
REMARK    1  A    between atoms: C_1  and  C_2 
REMARK    2  A    between atoms: C_2  and  O_3 
REMARK    3  A    between atoms: O_3  and  C_4 
REMARK    4  A    between atoms: C_4  and  C_6 
REMARK    5  A    between atoms: C_9  and  O_23 
REMARK    6  A    between atoms: C_14  and  C_15 
REMARK    7  A    between atoms: C_18  and  O_21 
REMARK    8  A    between atoms: O_21  and  C_22 
REMARK    9  A    between atoms: O_23  and  C_24 
ROOT
ATOM      1  C   LIG d   1      10.220   4.004  -9.322  0.00  0.00     0.175 C 
ATOM      2  C   LIG d   1       9.466   4.836 -10.274  0.00  0.00     0.104 C 
ATOM      3  N   LIG d   1       8.883   5.478 -11.008  0.00  0.00    -0.193 NA
ATOM      4  H   LIG d   1      10.928   3.380  -9.867  0.00  0.00     0.086 H 
ATOM      5  H   LIG d   1      10.762   4.647  -8.628  0.00  0.00     0.086 H 
ENDROOT
BRANCH   1   6
ATOM      6  O   LIG d   1       9.314   3.172  -8.593  0.00  0.00    -0.477 OA
BRANCH   6   7
ATOM      7  C   LIG d   1       9.319   3.293  -7.239  0.00  0.00     0.123 A 
ATOM      8  C   LIG d   1       9.946   4.374  -6.646  0.00  0.00    -0.008 A 
ATOM      9  C   LIG d   1       9.943   4.494  -5.259  0.00  0.00     0.038 A 
ATOM     10  H   LIG d   1      10.431   5.123  -7.254  0.00  0.00     0.066 H 
ATOM     11  C   LIG d   1      10.493   5.486  -4.315  0.00  0.00     0.112 A 
ATOM     12  C   LIG d   1       9.319   3.520  -4.465  0.00  0.00     0.137 A 
ATOM     13  C   LIG d   1      10.154   5.024  -3.052  0.00  0.00     0.150 A 
ATOM     14  O   LIG d   1       9.468   3.875  -3.170  0.00  0.00    -0.454 OA
ATOM     15  C   LIG d   1       8.699   2.439  -5.078  0.00  0.00    -0.015 A 
ATOM     16  C   LIG d   1       8.700   2.328  -6.452  0.00  0.00    -0.016 A 
ATOM     17  H   LIG d   1       8.214   1.682  -4.477  0.00  0.00     0.066 H 
ATOM     18  H   LIG d   1       8.216   1.486  -6.922  0.00  0.00     0.066 H 
BRANCH  11  19
ATOM     19  C   LIG d   1      11.242   6.702  -4.643  0.00  0.00     0.344 C 
ATOM     20  O   LIG d   1      12.453   6.661  -4.747  0.00  0.00    -0.245 OA
BRANCH  19  21
ATOM     21  O   LIG d   1      10.588   7.866  -4.829  0.00  0.00    -0.461 OA
BRANCH  21  22
ATOM     22  C   LIG d   1       9.287   7.798  -5.471  0.00  0.00     0.090 C 
ATOM     23  H   LIG d   1       9.038   6.755  -5.675  0.00  0.00     0.070 H 
ATOM     24  H   LIG d   1       8.533   8.228  -4.811  0.00  0.00     0.070 H 
BRANCH  22  25
ATOM     25  C   LIG d   1       9.324   8.581  -6.785  0.00  0.00    -0.031 C 
ATOM     26  H   LIG d   1      10.281   9.093  -6.875  0.00  0.00     0.026 H 
ATOM     27  H   LIG d   1       9.200   7.894  -7.621  0.00  0.00     0.026 H 
ATOM     28  H   LIG d   1       8.516   9.313  -6.793  0.00  0.00     0.026 H 
ENDBRANCH  22  25
ENDBRANCH  21  22
ENDBRANCH  19  21
ENDBRANCH  11  19
BRANCH  13  29
ATOM     29  C   LIG d   1      10.491   5.688  -1.781  0.00  0.00     0.018 A 
ATOM     30  C   LIG d   1      11.437   5.120  -0.922  0.00  0.00    -0.048 A 
ATOM     31  C   LIG d   1      11.748   5.745   0.265  0.00  0.00    -0.019 A 
ATOM     32  H   LIG d   1      11.922   4.193  -1.188  0.00  0.00     0.063 H 
ATOM     33  C   LIG d   1      11.126   6.939   0.609  0.00  0.00     0.120 A 
ATOM     34  H   LIG d   1      12.479   5.307   0.930  0.00  0.00     0.065 H 
ATOM     35  C   LIG d   1      10.186   7.508  -0.242  0.00  0.00    -0.019 A 
ATOM     36  C   LIG d   1       9.871   6.892  -1.433  0.00  0.00    -0.048 A 
ATOM     37  H   LIG d   1       9.704   8.436   0.030  0.00  0.00     0.065 H 
ATOM     38  H   LIG d   1       9.144   7.338  -2.097  0.00  0.00     0.063 H 
BRANCH  33  39
ATOM     39  O   LIG d   1      11.437   7.552   1.780  0.00  0.00    -0.495 OA
BRANCH  39  40
ATOM     40  C   LIG d   1      11.697   8.956   1.727  0.00  0.00     0.079 C 
ATOM     41  H   LIG d   1      12.533   9.146   1.053  0.00  0.00     0.066 H 
ATOM     42  H   LIG d   1      10.811   9.477   1.363  0.00  0.00     0.066 H 
ATOM     43  H   LIG d   1      11.947   9.317   2.725  0.00  0.00     0.066 H 
ENDBRANCH  39  40
ENDBRANCH  33  39
ENDBRANCH  13  29
ENDBRANCH   6   7
ENDBRANCH   1   6
TORSDOF 9
ENDMDL
MODEL 9
REMARK VINA RESULT:      -4.8      8.136     11.259
REMARK  9 active torsions:
REMARK  status: ('A' for Active; 'I' for Inactive)
REMARK    1  A    between atoms: C_1  and  C_2 
REMARK    2  A    between atoms: C_2  and  O_3 
REMARK    3  A    between atoms: O_3  and  C_4 
REMARK    4  A    between atoms: C_4  and  C_6 
REMARK    5  A    between atoms: C_9  and  O_23 
REMARK    6  A    between atoms: C_14  and  C_15 
REMARK    7  A    between atoms: C_18  and  O_21 
REMARK    8  A    between atoms: O_21  and  C_22 
REMARK    9  A    between atoms: O_23  and  C_24 
ROOT
ATOM      1  C   LIG d   1      10.252   5.945  -9.162  0.00  0.00     0.175 C 
ATOM      2  C   LIG d   1       9.374   5.871 -10.341  0.00  0.00     0.104 C 
ATOM      3  N   LIG d   1       8.695   5.815 -11.250  0.00  0.00    -0.193 NA
ATOM      4  H   LIG d   1      10.956   5.113  -9.181  0.00  0.00     0.086 H 
ATOM      5  H   LIG d   1      10.802   6.887  -9.177  0.00  0.00     0.086 H 
ENDROOT
BRANCH   1   6
ATOM      6  O   LIG d   1       9.462   5.873  -7.973  0.00  0.00    -0.477 OA
BRANCH   6   7
ATOM      7  C   LIG d   1       9.573   6.905  -7.095  0.00  0.00     0.123 A 
ATOM      8  C   LIG d   1       9.953   6.661  -5.788  0.00  0.00    -0.008 A 
ATOM      9  C   LIG d   1      10.070   7.724  -4.896  0.00  0.00     0.038 A 
ATOM     10  H   LIG d   1      10.162   5.653  -5.461  0.00  0.00     0.066 H 
ATOM     11  C   LIG d   1      10.443   7.830  -3.472  0.00  0.00     0.112 A 
ATOM     12  C   LIG d   1       9.795   9.034  -5.315  0.00  0.00     0.137 A 
ATOM     13  C   LIG d   1      10.360   9.180  -3.167  0.00  0.00     0.150 A 
ATOM     14  O   LIG d   1       9.979   9.859  -4.262  0.00  0.00    -0.454 OA
ATOM     15  C   LIG d   1       9.410   9.260  -6.631  0.00  0.00    -0.015 A 
ATOM     16  C   LIG d   1       9.301   8.204  -7.511  0.00  0.00    -0.016 A 
ATOM     17  H   LIG d   1       9.196  10.265  -6.965  0.00  0.00     0.066 H 
ATOM     18  H   LIG d   1       9.002   8.387  -8.532  0.00  0.00     0.066 H 
BRANCH  11  19
ATOM     19  C   LIG d   1      10.821   6.739  -2.571  0.00  0.00     0.344 C 
ATOM     20  O   LIG d   1      11.825   6.088  -2.791  0.00  0.00    -0.245 OA
BRANCH  19  21
ATOM     21  O   LIG d   1      10.055   6.454  -1.498  0.00  0.00    -0.461 OA
BRANCH  21  22
ATOM     22  C   LIG d   1      10.722   5.877  -0.345  0.00  0.00     0.090 C 
ATOM     23  H   LIG d   1      10.074   5.128   0.112  0.00  0.00     0.070 H 
ATOM     24  H   LIG d   1      11.653   5.407  -0.662  0.00  0.00     0.070 H 
BRANCH  22  25
ATOM     25  C   LIG d   1      11.027   6.978   0.673  0.00  0.00    -0.031 C 
ATOM     26  H   LIG d   1      11.683   7.721   0.219  0.00  0.00     0.026 H 
ATOM     27  H   LIG d   1      10.097   7.455   0.981  0.00  0.00     0.026 H 
ATOM     28  H   LIG d   1      11.517   6.542   1.543  0.00  0.00     0.026 H 
ENDBRANCH  22  25
ENDBRANCH  21  22
ENDBRANCH  19  21
ENDBRANCH  11  19
BRANCH  13  29
ATOM     29  C   LIG d   1      10.644   9.777  -1.850  0.00  0.00     0.018 A 
ATOM     30  C   LIG d   1       9.604   9.997  -0.941  0.00  0.00    -0.048 A 
ATOM     31  C   LIG d   1       9.875  10.555   0.289  0.00  0.00    -0.019 A 
ATOM     32  H   LIG d   1       8.591   9.731  -1.203  0.00  0.00     0.063 H 
ATOM     33  C   LIG d   1      11.178  10.898   0.627  0.00  0.00     0.120 A 
ATOM     34  H   LIG d   1       9.072  10.726   0.992  0.00  0.00     0.065 H 
ATOM     35  C   LIG d   1      12.214  10.680  -0.272  0.00  0.00    -0.019 A 
ATOM     36  C   LIG d   1      11.954  10.119  -1.503  0.00  0.00    -0.048 A 
ATOM     37  H   LIG d   1      13.226  10.949  -0.005  0.00  0.00     0.065 H 
ATOM     38  H   LIG d   1      12.761   9.945  -2.200  0.00  0.00     0.063 H 
BRANCH  33  39
ATOM     39  O   LIG d   1      11.440  11.446   1.842  0.00  0.00    -0.495 OA
BRANCH  39  40
ATOM     40  C   LIG d   1      12.372  10.758   2.677  0.00  0.00     0.079 C 
ATOM     41  H   LIG d   1      13.104  11.466   3.066  0.00  0.00     0.066 H 
ATOM     42  H   LIG d   1      11.842  10.291   3.507  0.00  0.00     0.066 H 
ATOM     43  H   LIG d   1      12.884   9.991   2.095  0.00  0.00     0.066 H 
ENDBRANCH  39  40
ENDBRANCH  33  39
ENDBRANCH  13  29
ENDBRANCH   6   7
ENDBRANCH   1   6
TORSDOF 9
ENDMDL
