MODEL 1
REMARK VINA RESULT:      -5.5      0.000      0.000
REMARK  6 active torsions:
REMARK  status: ('A' for Active; 'I' for Inactive)
REMARK    1  A    between atoms: C_1  and  C_2 
REMARK    2  A    between atoms: C_2  and  C_3 
REMARK    3  A    between atoms: C_8  and  O_9 
REMARK    4  A    between atoms: C_11  and  C_21 
REMARK    5  A    between atoms: C_12  and  C_15 
REMARK    6  A    between atoms: C_17  and  C_20 
ROOT
ATOM      1  C   LIG d   1       5.563   0.041  -2.924  0.00  0.00    -0.005 A 
ATOM      2  C   LIG d   1       5.087  -1.205  -3.217  0.00  0.00    -0.041 A 
ATOM      3  C   LIG d   1       5.733  -1.984  -4.179  0.00  0.00     0.065 A 
ATOM      4  C   LIG d   1       6.869  -1.495  -4.846  0.00  0.00     0.142 A 
ATOM      5  C   LIG d   1       7.340  -0.226  -4.535  0.00  0.00     0.023 A 
ATOM      6  C   LIG d   1       6.689   0.536  -3.580  0.00  0.00     0.123 A 
ATOM      7  O   LIG d   1       7.492  -2.248  -5.773  0.00  0.00    -0.459 OA
ATOM      8  C   LIG d   1       7.087  -3.474  -6.114  0.00  0.00     0.116 A 
ATOM      9  C   LIG d   1       6.006  -4.073  -5.544  0.00  0.00     0.092 A 
ATOM     10  C   LIG d   1       5.247  -3.334  -4.520  0.00  0.00     0.202 A 
ATOM     11  O   LIG d   1       4.267  -3.817  -3.978  0.00  0.00    -0.286 OA
ATOM     12  H   LIG d   1       4.214  -1.586  -2.708  0.00  0.00     0.063 H 
ATOM     13  H   LIG d   1       8.212   0.166  -5.038  0.00  0.00     0.069 H 
ENDROOT
BRANCH   9  14
ATOM     14  C   LIG d   1       5.599  -5.435  -5.948  0.00  0.00     0.115 A 
ATOM     15  S   LIG d   1       4.484  -5.948  -7.248  0.00  0.00    -0.075 SA
ATOM     16  C   LIG d   1       4.629  -7.709  -6.976  0.00  0.00    -0.001 A 
ATOM     17  C   LIG d   1       5.494  -7.732  -5.930  0.00  0.00     0.046 A 
ATOM     18  H   LIG d   1       4.154  -8.529  -7.496  0.00  0.00     0.071 H 
ATOM     19  N   LIG d   1       5.960  -6.606  -5.440  0.00  0.00    -0.244 NA
BRANCH  17  20
ATOM     20  C   LIG d   1       5.922  -9.049  -5.333  0.00  0.00    -0.022 C 
ATOM     21  H   LIG d   1       6.131  -9.767  -6.140  0.00  0.00     0.029 H 
ATOM     22  H   LIG d   1       5.116  -9.440  -4.694  0.00  0.00     0.029 H 
ATOM     23  H   LIG d   1       6.829  -8.900  -4.730  0.00  0.00     0.029 H 
ENDBRANCH  17  20
ENDBRANCH   9  14
BRANCH   8  24
ATOM     24  C   LIG d   1       7.862  -4.226  -7.166  0.00  0.00    -0.005 C 
ATOM     25  H   LIG d   1       7.421  -5.226  -7.301  0.00  0.00     0.031 H 
ATOM     26  H   LIG d   1       8.910  -4.329  -6.846  0.00  0.00     0.031 H 
ATOM     27  H   LIG d   1       7.820  -3.675  -8.116  0.00  0.00     0.031 H 
ENDBRANCH   8  24
BRANCH   1  28
ATOM     28  C   LIG d   1       4.869   0.884  -1.886  0.00  0.00    -0.027 C 
ATOM     29  H   LIG d   1       5.503   1.745  -1.630  0.00  0.00     0.031 H 
ATOM     30  H   LIG d   1       4.689   0.280  -0.985  0.00  0.00     0.031 H 
BRANCH  28  31
ATOM     31  C   LIG d   1       3.533   1.381  -2.442  0.00  0.00    -0.061 C 
ATOM     32  H   LIG d   1       3.316   0.864  -3.389  0.00  0.00     0.023 H 
ATOM     33  H   LIG d   1       3.592   2.465  -2.621  0.00  0.00     0.023 H 
ATOM     34  H   LIG d   1       2.734   1.171  -1.717  0.00  0.00     0.023 H 
ENDBRANCH  28  31
ENDBRANCH   1  28
BRANCH   6  35
ATOM     35  O   LIG d   1       7.151   1.775  -3.279  0.00  0.00    -0.506 OA
ATOM     36  H   LIG d   1       8.127   1.893  -2.785  0.00  0.00     0.292 HD
ENDBRANCH   6  35
TORSDOF 6
ENDMDL
MODEL 2
REMARK VINA RESULT:      -5.4      4.334      7.377
REMARK  6 active torsions:
REMARK  status: ('A' for Active; 'I' for Inactive)
REMARK    1  A    between atoms: C_1  and  C_2 
REMARK    2  A    between atoms: C_2  and  C_3 
REMARK    3  A    between atoms: C_8  and  O_9 
REMARK    4  A    between atoms: C_11  and  C_21 
REMARK    5  A    between atoms: C_12  and  C_15 
REMARK    6  A    between atoms: C_17  and  C_20 
ROOT
ATOM      1  C   LIG d   1       4.810  -1.718  -3.389  0.00  0.00    -0.005 A 
ATOM      2  C   LIG d   1       5.471  -0.530  -3.259  0.00  0.00    -0.041 A 
ATOM      3  C   LIG d   1       6.679  -0.333  -3.929  0.00  0.00     0.065 A 
ATOM      4  C   LIG d   1       7.219  -1.349  -4.737  0.00  0.00     0.142 A 
ATOM      5  C   LIG d   1       6.533  -2.551  -4.859  0.00  0.00     0.023 A 
ATOM      6  C   LIG d   1       5.336  -2.732  -4.187  0.00  0.00     0.123 A 
ATOM      7  O   LIG d   1       8.384  -1.158  -5.385  0.00  0.00    -0.459 OA
ATOM      8  C   LIG d   1       9.088  -0.026  -5.307  0.00  0.00     0.116 A 
ATOM      9  C   LIG d   1       8.681   1.041  -4.567  0.00  0.00     0.092 A 
ATOM     10  C   LIG d   1       7.420   0.936  -3.812  0.00  0.00     0.202 A 
ATOM     11  O   LIG d   1       7.007   1.856  -3.128  0.00  0.00    -0.286 OA
ATOM     12  H   LIG d   1       5.061   0.253  -2.639  0.00  0.00     0.063 H 
ATOM     13  H   LIG d   1       6.933  -3.343  -5.476  0.00  0.00     0.069 H 
ENDROOT
BRANCH   9  14
ATOM     14  C   LIG d   1       9.490   2.276  -4.517  0.00  0.00     0.115 A 
ATOM     15  S   LIG d   1      10.850   2.699  -3.437  0.00  0.00    -0.075 SA
ATOM     16  C   LIG d   1      11.166   4.325  -4.111  0.00  0.00    -0.001 A 
ATOM     17  C   LIG d   1      10.211   4.387  -5.075  0.00  0.00     0.046 A 
ATOM     18  H   LIG d   1      11.908   5.057  -3.827  0.00  0.00     0.071 H 
ATOM     19  N   LIG d   1       9.399   3.371  -5.258  0.00  0.00    -0.244 NA
BRANCH  17  20
ATOM     20  C   LIG d   1      10.085   5.620  -5.934  0.00  0.00    -0.022 C 
ATOM     21  H   LIG d   1      11.082   6.048  -6.111  0.00  0.00     0.029 H 
ATOM     22  H   LIG d   1       9.454   6.361  -5.419  0.00  0.00     0.029 H 
ATOM     23  H   LIG d   1       9.624   5.351  -6.895  0.00  0.00     0.029 H 
ENDBRANCH  17  20
ENDBRANCH   9  14
BRANCH   8  24
ATOM     24  C   LIG d   1      10.381   0.076  -6.076  0.00  0.00    -0.005 C 
ATOM     25  H   LIG d   1      10.805  -0.930  -6.217  0.00  0.00     0.031 H 
ATOM     26  H   LIG d   1      11.094   0.698  -5.515  0.00  0.00     0.031 H 
ATOM     27  H   LIG d   1      10.189   0.532  -7.058  0.00  0.00     0.031 H 
ENDBRANCH   8  24
BRANCH   1  28
ATOM     28  C   LIG d   1       3.505  -1.933  -2.667  0.00  0.00    -0.027 C 
ATOM     29  H   LIG d   1       3.677  -1.898  -1.581  0.00  0.00     0.031 H 
ATOM     30  H   LIG d   1       3.092  -2.915  -2.941  0.00  0.00     0.031 H 
BRANCH  28  31
ATOM     31  C   LIG d   1       2.516  -0.835  -3.062  0.00  0.00    -0.061 C 
ATOM     32  H   LIG d   1       2.636   0.026  -2.389  0.00  0.00     0.023 H 
ATOM     33  H   LIG d   1       1.489  -1.222  -2.983  0.00  0.00     0.023 H 
ATOM     34  H   LIG d   1       2.711  -0.522  -4.097  0.00  0.00     0.023 H 
ENDBRANCH  28  31
ENDBRANCH   1  28
BRANCH   6  35
ATOM     35  O   LIG d   1       4.668  -3.907  -4.308  0.00  0.00    -0.506 OA
ATOM     36  H   LIG d   1       4.940  -4.762  -3.672  0.00  0.00     0.292 HD
ENDBRANCH   6  35
TORSDOF 6
ENDMDL
MODEL 3
REMARK VINA RESULT:      -5.3      4.464      5.370
REMARK  6 active torsions:
REMARK  status: ('A' for Active; 'I' for Inactive)
REMARK    1  A    between atoms: C_1  and  C_2 
REMARK    2  A    between atoms: C_2  and  C_3 
REMARK    3  A    between atoms: C_8  and  O_9 
REMARK    4  A    between atoms: C_11  and  C_21 
REMARK    5  A    between atoms: C_12  and  C_15 
REMARK    6  A    between atoms: C_17  and  C_20 
ROOT
ATOM      1  C   LIG d   1       3.714  -0.322  -3.455  0.00  0.00    -0.005 A 
ATOM      2  C   LIG d   1       3.635   0.093  -4.753  0.00  0.00    -0.041 A 
ATOM      3  C   LIG d   1       4.015  -0.770  -5.781  0.00  0.00     0.065 A 
ATOM      4  C   LIG d   1       4.480  -2.064  -5.488  0.00  0.00     0.142 A 
ATOM      5  C   LIG d   1       4.554  -2.471  -4.162  0.00  0.00     0.023 A 
ATOM      6  C   LIG d   1       4.174  -1.603  -3.153  0.00  0.00     0.123 A 
ATOM      7  O   LIG d   1       4.846  -2.898  -6.481  0.00  0.00    -0.459 OA
ATOM      8  C   LIG d   1       4.797  -2.565  -7.773  0.00  0.00     0.116 A 
ATOM      9  C   LIG d   1       4.362  -1.347  -8.199  0.00  0.00     0.092 A 
ATOM     10  C   LIG d   1       3.942  -0.356  -7.194  0.00  0.00     0.202 A 
ATOM     11  O   LIG d   1       3.548   0.753  -7.515  0.00  0.00    -0.286 OA
ATOM     12  H   LIG d   1       3.279   1.087  -4.983  0.00  0.00     0.063 H 
ATOM     13  H   LIG d   1       4.908  -3.462  -3.919  0.00  0.00     0.069 H 
ENDROOT
BRANCH   9  14
ATOM     14  C   LIG d   1       4.318  -1.026  -9.641  0.00  0.00     0.115 A 
ATOM     15  S   LIG d   1       5.424  -0.012 -10.612  0.00  0.00    -0.075 SA
ATOM     16  C   LIG d   1       4.589  -0.219 -12.180  0.00  0.00    -0.001 A 
ATOM     17  C   LIG d   1       3.558  -1.022 -11.812  0.00  0.00     0.046 A 
ATOM     18  H   LIG d   1       4.833   0.188 -13.150  0.00  0.00     0.071 H 
ATOM     19  N   LIG d   1       3.443  -1.408 -10.561  0.00  0.00    -0.244 NA
BRANCH  17  20
ATOM     20  C   LIG d   1       2.549  -1.473 -12.837  0.00  0.00    -0.022 C 
ATOM     21  H   LIG d   1       2.014  -2.357 -12.461  0.00  0.00     0.029 H 
ATOM     22  H   LIG d   1       3.067  -1.729 -13.773  0.00  0.00     0.029 H 
ATOM     23  H   LIG d   1       1.831  -0.662 -13.025  0.00  0.00     0.029 H 
ENDBRANCH  17  20
ENDBRANCH   9  14
BRANCH   8  24
ATOM     24  C   LIG d   1       5.232  -3.579  -8.799  0.00  0.00    -0.005 C 
ATOM     25  H   LIG d   1       5.294  -4.573  -8.329  0.00  0.00     0.031 H 
ATOM     26  H   LIG d   1       6.220  -3.300  -9.195  0.00  0.00     0.031 H 
ATOM     27  H   LIG d   1       4.501  -3.608  -9.620  0.00  0.00     0.031 H 
ENDBRANCH   8  24
BRANCH   1  28
ATOM     28  C   LIG d   1       3.303   0.608  -2.343  0.00  0.00    -0.027 C 
ATOM     29  H   LIG d   1       2.708   0.054  -1.603  0.00  0.00     0.031 H 
ATOM     30  H   LIG d   1       2.701   1.430  -2.757  0.00  0.00     0.031 H 
BRANCH  28  31
ATOM     31  C   LIG d   1       4.552   1.181  -1.668  0.00  0.00    -0.061 C 
ATOM     32  H   LIG d   1       5.449   0.798  -2.175  0.00  0.00     0.023 H 
ATOM     33  H   LIG d   1       4.569   0.876  -0.612  0.00  0.00     0.023 H 
ATOM     34  H   LIG d   1       4.532   2.278  -1.734  0.00  0.00     0.023 H 
ENDBRANCH  28  31
ENDBRANCH   1  28
BRANCH   6  35
ATOM     35  O   LIG d   1       4.247  -2.003  -1.858  0.00  0.00    -0.506 OA
ATOM     36  H   LIG d   1       3.353  -2.393  -1.352  0.00  0.00     0.292 HD
ENDBRANCH   6  35
TORSDOF 6
ENDMDL
MODEL 4
REMARK VINA RESULT:      -5.2      1.522      1.648
REMARK  6 active torsions:
REMARK  status: ('A' for Active; 'I' for Inactive)
REMARK    1  A    between atoms: C_1  and  C_2 
REMARK    2  A    between atoms: C_2  and  C_3 
REMARK    3  A    between atoms: C_8  and  O_9 
REMARK    4  A    between atoms: C_11  and  C_21 
REMARK    5  A    between atoms: C_12  and  C_15 
REMARK    6  A    between atoms: C_17  and  C_20 
ROOT
ATOM      1  C   LIG d   1       4.322  -0.551  -3.513  0.00  0.00    -0.005 A 
ATOM      2  C   LIG d   1       4.223  -1.753  -4.154  0.00  0.00    -0.041 A 
ATOM      3  C   LIG d   1       5.364  -2.534  -4.341  0.00  0.00     0.065 A 
ATOM      4  C   LIG d   1       6.614  -2.092  -3.874  0.00  0.00     0.142 A 
ATOM      5  C   LIG d   1       6.696  -0.867  -3.224  0.00  0.00     0.023 A 
ATOM      6  C   LIG d   1       5.556  -0.103  -3.046  0.00  0.00     0.123 A 
ATOM      7  O   LIG d   1       7.715  -2.847  -4.054  0.00  0.00    -0.459 OA
ATOM      8  C   LIG d   1       7.698  -4.031  -4.671  0.00  0.00     0.116 A 
ATOM      9  C   LIG d   1       6.557  -4.583  -5.167  0.00  0.00     0.092 A 
ATOM     10  C   LIG d   1       5.294  -3.837  -5.029  0.00  0.00     0.202 A 
ATOM     11  O   LIG d   1       4.242  -4.277  -5.457  0.00  0.00    -0.286 OA
ATOM     12  H   LIG d   1       3.264  -2.097  -4.515  0.00  0.00     0.063 H 
ATOM     13  H   LIG d   1       7.649  -0.512  -2.858  0.00  0.00     0.069 H 
ENDROOT
BRANCH   9  14
ATOM     14  C   LIG d   1       6.587  -5.900  -5.835  0.00  0.00     0.115 A 
ATOM     15  S   LIG d   1       6.903  -6.296  -7.550  0.00  0.00    -0.075 SA
ATOM     16  C   LIG d   1       6.732  -8.070  -7.398  0.00  0.00    -0.001 A 
ATOM     17  C   LIG d   1       6.446  -8.183  -6.076  0.00  0.00     0.046 A 
ATOM     18  H   LIG d   1       6.824  -8.838  -8.151  0.00  0.00     0.071 H 
ATOM     19  N   LIG d   1       6.379  -7.106  -5.326  0.00  0.00    -0.244 NA
BRANCH  17  20
ATOM     20  C   LIG d   1       6.206  -9.542  -5.468  0.00  0.00    -0.022 C 
ATOM     21  H   LIG d   1       5.135  -9.665  -5.255  0.00  0.00     0.029 H 
ATOM     22  H   LIG d   1       6.779  -9.631  -4.533  0.00  0.00     0.029 H 
ATOM     23  H   LIG d   1       6.532 -10.320  -6.173  0.00  0.00     0.029 H 
ENDBRANCH  17  20
ENDBRANCH   9  14
BRANCH   8  24
ATOM     24  C   LIG d   1       8.993  -4.790  -4.816  0.00  0.00    -0.005 C 
ATOM     25  H   LIG d   1       9.833  -4.079  -4.840  0.00  0.00     0.031 H 
ATOM     26  H   LIG d   1       8.977  -5.368  -5.751  0.00  0.00     0.031 H 
ATOM     27  H   LIG d   1       9.115  -5.473  -3.962  0.00  0.00     0.031 H 
ENDBRANCH   8  24
BRANCH   1  28
ATOM     28  C   LIG d   1       3.091   0.293  -3.309  0.00  0.00    -0.027 C 
ATOM     29  H   LIG d   1       3.371   1.237  -2.818  0.00  0.00     0.031 H 
ATOM     30  H   LIG d   1       2.374  -0.250  -2.676  0.00  0.00     0.031 H 
BRANCH  28  31
ATOM     31  C   LIG d   1       2.448   0.594  -4.664  0.00  0.00    -0.061 C 
ATOM     32  H   LIG d   1       3.202   0.494  -5.458  0.00  0.00     0.023 H 
ATOM     33  H   LIG d   1       2.052   1.620  -4.661  0.00  0.00     0.023 H 
ATOM     34  H   LIG d   1       1.628  -0.115  -4.845  0.00  0.00     0.023 H 
ENDBRANCH  28  31
ENDBRANCH   1  28
BRANCH   6  35
ATOM     35  O   LIG d   1       5.640   1.093  -2.410  0.00  0.00    -0.506 OA
ATOM     36  H   LIG d   1       4.777   1.477  -1.847  0.00  0.00     0.292 HD
ENDBRANCH   6  35
TORSDOF 6
ENDMDL
MODEL 5
REMARK VINA RESULT:      -5.1      1.749      2.331
REMARK  6 active torsions:
REMARK  status: ('A' for Active; 'I' for Inactive)
REMARK    1  A    between atoms: C_1  and  C_2 
REMARK    2  A    between atoms: C_2  and  C_3 
REMARK    3  A    between atoms: C_8  and  O_9 
REMARK    4  A    between atoms: C_11  and  C_21 
REMARK    5  A    between atoms: C_12  and  C_15 
REMARK    6  A    between atoms: C_17  and  C_20 
ROOT
ATOM      1  C   LIG d   1       5.499  -1.837  -3.802  0.00  0.00    -0.005 A 
ATOM      2  C   LIG d   1       4.881  -2.943  -4.314  0.00  0.00    -0.041 A 
ATOM      3  C   LIG d   1       5.648  -3.983  -4.840  0.00  0.00     0.065 A 
ATOM      4  C   LIG d   1       7.051  -3.901  -4.846  0.00  0.00     0.142 A 
ATOM      5  C   LIG d   1       7.663  -2.770  -4.321  0.00  0.00     0.023 A 
ATOM      6  C   LIG d   1       6.889  -1.745  -3.804  0.00  0.00     0.123 A 
ATOM      7  O   LIG d   1       7.791  -4.906  -5.352  0.00  0.00    -0.459 OA
ATOM      8  C   LIG d   1       7.261  -6.017  -5.870  0.00  0.00     0.116 A 
ATOM      9  C   LIG d   1       5.918  -6.232  -5.923  0.00  0.00     0.092 A 
ATOM     10  C   LIG d   1       5.015  -5.191  -5.400  0.00  0.00     0.202 A 
ATOM     11  O   LIG d   1       3.804  -5.325  -5.425  0.00  0.00    -0.286 OA
ATOM     12  H   LIG d   1       3.803  -3.010  -4.312  0.00  0.00     0.063 H 
ATOM     13  H   LIG d   1       8.741  -2.689  -4.317  0.00  0.00     0.069 H 
ENDROOT
BRANCH   9  14
ATOM     14  C   LIG d   1       5.377  -7.480  -6.498  0.00  0.00     0.115 A 
ATOM     15  S   LIG d   1       4.898  -7.840  -8.183  0.00  0.00    -0.075 SA
ATOM     16  C   LIG d   1       4.393  -9.533  -7.908  0.00  0.00    -0.001 A 
ATOM     17  C   LIG d   1       4.628  -9.653  -6.577  0.00  0.00     0.046 A 
ATOM     18  H   LIG d   1       4.002 -10.258  -8.608  0.00  0.00     0.071 H 
ATOM     19  N   LIG d   1       5.111  -8.635  -5.903  0.00  0.00    -0.244 NA
BRANCH  17  20
ATOM     20  C   LIG d   1       4.336 -10.955  -5.873  0.00  0.00    -0.022 C 
ATOM     21  H   LIG d   1       4.620 -11.795  -6.523  0.00  0.00     0.029 H 
ATOM     22  H   LIG d   1       3.261 -11.014  -5.645  0.00  0.00     0.029 H 
ATOM     23  H   LIG d   1       4.912 -11.002  -4.938  0.00  0.00     0.029 H 
ENDBRANCH  17  20
ENDBRANCH   9  14
BRANCH   8  24
ATOM     24  C   LIG d   1       8.187  -7.077  -6.409  0.00  0.00    -0.005 C 
ATOM     25  H   LIG d   1       8.805  -7.476  -5.590  0.00  0.00     0.031 H 
ATOM     26  H   LIG d   1       8.839  -6.638  -7.179  0.00  0.00     0.031 H 
ATOM     27  H   LIG d   1       7.594  -7.892  -6.850  0.00  0.00     0.031 H 
ENDBRANCH   8  24
BRANCH   1  28
ATOM     28  C   LIG d   1       4.673  -0.713  -3.233  0.00  0.00    -0.027 C 
ATOM     29  H   LIG d   1       3.779  -0.562  -3.856  0.00  0.00     0.031 H 
ATOM     30  H   LIG d   1       5.270   0.211  -3.221  0.00  0.00     0.031 H 
BRANCH  28  31
ATOM     31  C   LIG d   1       4.247  -1.063  -1.806  0.00  0.00    -0.061 C 
ATOM     32  H   LIG d   1       4.315  -2.151  -1.661  0.00  0.00     0.023 H 
ATOM     33  H   LIG d   1       3.210  -0.735  -1.643  0.00  0.00     0.023 H 
ATOM     34  H   LIG d   1       4.910  -0.555  -1.091  0.00  0.00     0.023 H 
ENDBRANCH  28  31
ENDBRANCH   1  28
BRANCH   6  35
ATOM     35  O   LIG d   1       7.490  -0.641  -3.291  0.00  0.00    -0.506 OA
ATOM     36  H   LIG d   1       6.977  -0.041  -2.526  0.00  0.00     0.292 HD
ENDBRANCH   6  35
TORSDOF 6
ENDMDL
MODEL 6
REMARK VINA RESULT:      -5.1      5.451      7.697
REMARK  6 active torsions:
REMARK  status: ('A' for Active; 'I' for Inactive)
REMARK    1  A    between atoms: C_1  and  C_2 
REMARK    2  A    between atoms: C_2  and  C_3 
REMARK    3  A    between atoms: C_8  and  O_9 
REMARK    4  A    between atoms: C_11  and  C_21 
REMARK    5  A    between atoms: C_12  and  C_15 
REMARK    6  A    between atoms: C_17  and  C_20 
ROOT
ATOM      1  C   LIG d   1       2.911  -1.408 -11.219  0.00  0.00    -0.005 A 
ATOM      2  C   LIG d   1       3.923  -1.414 -10.302  0.00  0.00    -0.041 A 
ATOM      3  C   LIG d   1       3.680  -0.974  -9.000  0.00  0.00     0.065 A 
ATOM      4  C   LIG d   1       2.401  -0.526  -8.627  0.00  0.00     0.142 A 
ATOM      5  C   LIG d   1       1.383  -0.527  -9.572  0.00  0.00     0.023 A 
ATOM      6  C   LIG d   1       1.639  -0.966 -10.860  0.00  0.00     0.123 A 
ATOM      7  O   LIG d   1       2.167  -0.102  -7.370  0.00  0.00    -0.459 OA
ATOM      8  C   LIG d   1       3.104  -0.078  -6.419  0.00  0.00     0.116 A 
ATOM      9  C   LIG d   1       4.382  -0.488  -6.640  0.00  0.00     0.092 A 
ATOM     10  C   LIG d   1       4.749  -0.966  -7.984  0.00  0.00     0.202 A 
ATOM     11  O   LIG d   1       5.879  -1.342  -8.243  0.00  0.00    -0.286 OA
ATOM     12  H   LIG d   1       4.908  -1.756 -10.584  0.00  0.00     0.063 H 
ATOM     13  H   LIG d   1       0.393  -0.187  -9.303  0.00  0.00     0.069 H 
ENDROOT
BRANCH   9  14
ATOM     14  C   LIG d   1       5.384  -0.450  -5.554  0.00  0.00     0.115 A 
ATOM     15  S   LIG d   1       5.799  -1.702  -4.347  0.00  0.00    -0.075 SA
ATOM     16  C   LIG d   1       7.069  -0.773  -3.498  0.00  0.00    -0.001 A 
ATOM     17  C   LIG d   1       7.047   0.387  -4.203  0.00  0.00     0.046 A 
ATOM     18  H   LIG d   1       7.682  -1.055  -2.654  0.00  0.00     0.071 H 
ATOM     19  N   LIG d   1       6.213   0.526  -5.208  0.00  0.00    -0.244 NA
BRANCH  17  20
ATOM     20  C   LIG d   1       7.979   1.513  -3.834  0.00  0.00    -0.022 C 
ATOM     21  H   LIG d   1       7.458   2.216  -3.168  0.00  0.00     0.029 H 
ATOM     22  H   LIG d   1       8.296   2.040  -4.747  0.00  0.00     0.029 H 
ATOM     23  H   LIG d   1       8.861   1.105  -3.321  0.00  0.00     0.029 H 
ENDBRANCH  17  20
ENDBRANCH   9  14
BRANCH   8  24
ATOM     24  C   LIG d   1       2.728   0.417  -5.045  0.00  0.00    -0.005 C 
ATOM     25  H   LIG d   1       2.019   1.254  -5.138  0.00  0.00     0.031 H 
ATOM     26  H   LIG d   1       3.631   0.760  -4.519  0.00  0.00     0.031 H 
ATOM     27  H   LIG d   1       2.258  -0.400  -4.477  0.00  0.00     0.031 H 
ENDBRANCH   8  24
BRANCH   1  28
ATOM     28  C   LIG d   1       3.170  -1.883 -12.625  0.00  0.00    -0.027 C 
ATOM     29  H   LIG d   1       2.212  -2.042 -13.141  0.00  0.00     0.031 H 
ATOM     30  H   LIG d   1       3.731  -2.829 -12.595  0.00  0.00     0.031 H 
BRANCH  28  31
ATOM     31  C   LIG d   1       3.986  -0.831 -13.378  0.00  0.00    -0.061 C 
ATOM     32  H   LIG d   1       3.852  -0.968 -14.460  0.00  0.00     0.023 H 
ATOM     33  H   LIG d   1       5.050  -0.942 -13.123  0.00  0.00     0.023 H 
ATOM     34  H   LIG d   1       3.643   0.173 -13.090  0.00  0.00     0.023 H 
ENDBRANCH  28  31
ENDBRANCH   1  28
BRANCH   6  35
ATOM     35  O   LIG d   1       0.642  -0.966 -11.781  0.00  0.00    -0.506 OA
ATOM     36  H   LIG d   1       0.074  -0.046 -11.978  0.00  0.00     0.292 HD
ENDBRANCH   6  35
TORSDOF 6
ENDMDL
MODEL 7
REMARK VINA RESULT:      -5.0      2.912      7.201
REMARK  6 active torsions:
REMARK  status: ('A' for Active; 'I' for Inactive)
REMARK    1  A    between atoms: C_1  and  C_2 
REMARK    2  A    between atoms: C_2  and  C_3 
REMARK    3  A    between atoms: C_8  and  O_9 
REMARK    4  A    between atoms: C_11  and  C_21 
REMARK    5  A    between atoms: C_12  and  C_15 
REMARK    6  A    between atoms: C_17  and  C_20 
ROOT
ATOM      1  C   LIG d   1       5.505  -9.038  -6.178  0.00  0.00    -0.005 A 
ATOM      2  C   LIG d   1       4.789  -7.881  -6.062  0.00  0.00    -0.041 A 
ATOM      3  C   LIG d   1       5.440  -6.695  -5.720  0.00  0.00     0.065 A 
ATOM      4  C   LIG d   1       6.828  -6.685  -5.494  0.00  0.00     0.142 A 
ATOM      5  C   LIG d   1       7.541  -7.870  -5.617  0.00  0.00     0.023 A 
ATOM      6  C   LIG d   1       6.881  -9.039  -5.956  0.00  0.00     0.123 A 
ATOM      7  O   LIG d   1       7.456  -5.539  -5.165  0.00  0.00    -0.459 OA
ATOM      8  C   LIG d   1       6.826  -4.370  -5.032  0.00  0.00     0.116 A 
ATOM      9  C   LIG d   1       5.486  -4.234  -5.227  0.00  0.00     0.092 A 
ATOM     10  C   LIG d   1       4.699  -5.427  -5.585  0.00  0.00     0.202 A 
ATOM     11  O   LIG d   1       3.495  -5.369  -5.767  0.00  0.00    -0.286 OA
ATOM     12  H   LIG d   1       3.723  -7.884  -6.233  0.00  0.00     0.063 H 
ATOM     13  H   LIG d   1       8.608  -7.880  -5.448  0.00  0.00     0.069 H 
ENDROOT
BRANCH   9  14
ATOM     14  C   LIG d   1       4.832  -2.917  -5.076  0.00  0.00     0.115 A 
ATOM     15  S   LIG d   1       4.749  -1.553  -6.227  0.00  0.00    -0.075 SA
ATOM     16  C   LIG d   1       3.788  -0.454  -5.194  0.00  0.00    -0.001 A 
ATOM     17  C   LIG d   1       3.635  -1.222  -4.085  0.00  0.00     0.046 A 
ATOM     18  H   LIG d   1       3.433   0.546  -5.394  0.00  0.00     0.071 H 
ATOM     19  N   LIG d   1       4.154  -2.428  -4.046  0.00  0.00    -0.244 NA
BRANCH  17  20
ATOM     20  C   LIG d   1       2.868  -0.692  -2.899  0.00  0.00    -0.022 C 
ATOM     21  H   LIG d   1       3.260  -1.146  -1.977  0.00  0.00     0.029 H 
ATOM     22  H   LIG d   1       1.803  -0.946  -3.009  0.00  0.00     0.029 H 
ATOM     23  H   LIG d   1       2.982   0.400  -2.848  0.00  0.00     0.029 H 
ENDBRANCH  17  20
ENDBRANCH   9  14
BRANCH   8  24
ATOM     24  C   LIG d   1       7.632  -3.151  -4.660  0.00  0.00    -0.005 C 
ATOM     25  H   LIG d   1       7.375  -2.841  -3.635  0.00  0.00     0.031 H 
ATOM     26  H   LIG d   1       7.402  -2.333  -5.358  0.00  0.00     0.031 H 
ATOM     27  H   LIG d   1       8.704  -3.391  -4.712  0.00  0.00     0.031 H 
ENDBRANCH   8  24
BRANCH   1  28
ATOM     28  C   LIG d   1       4.804 -10.320  -6.548  0.00  0.00    -0.027 C 
ATOM     29  H   LIG d   1       5.524 -11.010  -7.012  0.00  0.00     0.031 H 
ATOM     30  H   LIG d   1       3.995 -10.102  -7.260  0.00  0.00     0.031 H 
BRANCH  28  31
ATOM     31  C   LIG d   1       4.218 -10.963  -5.290  0.00  0.00    -0.061 C 
ATOM     32  H   LIG d   1       3.121 -10.901  -5.325  0.00  0.00     0.023 H 
ATOM     33  H   LIG d   1       4.588 -10.431  -4.401  0.00  0.00     0.023 H 
ATOM     34  H   LIG d   1       4.525 -12.017  -5.241  0.00  0.00     0.023 H 
ENDBRANCH  28  31
ENDBRANCH   1  28
BRANCH   6  35
ATOM     35  O   LIG d   1       7.580 -10.196  -6.076  0.00  0.00    -0.506 OA
ATOM     36  H   LIG d   1       7.841 -10.580  -7.073  0.00  0.00     0.292 HD
ENDBRANCH   6  35
TORSDOF 6
ENDMDL
MODEL 8
REMARK VINA RESULT:      -4.9      6.823      8.814
REMARK  6 active torsions:
REMARK  status: ('A' for Active; 'I' for Inactive)
REMARK    1  A    between atoms: C_1  and  C_2 
REMARK    2  A    between atoms: C_2  and  C_3 
REMARK    3  A    between atoms: C_8  and  O_9 
REMARK    4  A    between atoms: C_11  and  C_21 
REMARK    5  A    between atoms: C_12  and  C_15 
REMARK    6  A    between atoms: C_17  and  C_20 
ROOT
ATOM      1  C   LIG d   1      11.352  -9.293   1.167  0.00  0.00    -0.005 A 
ATOM      2  C   LIG d   1      10.277  -9.960   0.650  0.00  0.00    -0.041 A 
ATOM      3  C   LIG d   1       9.701  -9.525  -0.543  0.00  0.00     0.065 A 
ATOM      4  C   LIG d   1      10.219  -8.405  -1.217  0.00  0.00     0.142 A 
ATOM      5  C   LIG d   1      11.312  -7.739  -0.679  0.00  0.00     0.023 A 
ATOM      6  C   LIG d   1      11.873  -8.182   0.507  0.00  0.00     0.123 A 
ATOM      7  O   LIG d   1       9.663  -7.986  -2.371  0.00  0.00    -0.459 OA
ATOM      8  C   LIG d   1       8.612  -8.585  -2.937  0.00  0.00     0.116 A 
ATOM      9  C   LIG d   1       8.014  -9.682  -2.396  0.00  0.00     0.092 A 
ATOM     10  C   LIG d   1       8.540 -10.220  -1.130  0.00  0.00     0.202 A 
ATOM     11  O   LIG d   1       8.044 -11.197  -0.595  0.00  0.00    -0.286 OA
ATOM     12  H   LIG d   1       9.875 -10.820   1.165  0.00  0.00     0.063 H 
ATOM     13  H   LIG d   1      11.724  -6.877  -1.184  0.00  0.00     0.069 H 
ENDROOT
BRANCH   9  14
ATOM     14  C   LIG d   1       6.858 -10.315  -3.063  0.00  0.00     0.115 A 
ATOM     15  S   LIG d   1       6.829 -11.541  -4.364  0.00  0.00    -0.075 SA
ATOM     16  C   LIG d   1       5.051 -11.676  -4.495  0.00  0.00    -0.001 A 
ATOM     17  C   LIG d   1       4.660 -10.780  -3.554  0.00  0.00     0.046 A 
ATOM     18  H   LIG d   1       4.453 -12.296  -5.148  0.00  0.00     0.071 H 
ATOM     19  N   LIG d   1       5.562 -10.122  -2.861  0.00  0.00    -0.244 NA
BRANCH  17  20
ATOM     20  C   LIG d   1       3.192 -10.541  -3.302  0.00  0.00    -0.022 C 
ATOM     21  H   LIG d   1       2.664 -10.459  -4.263  0.00  0.00     0.029 H 
ATOM     22  H   LIG d   1       3.066  -9.607  -2.733  0.00  0.00     0.029 H 
ATOM     23  H   LIG d   1       2.778 -11.380  -2.725  0.00  0.00     0.029 H 
ENDBRANCH  17  20
ENDBRANCH   9  14
BRANCH   8  24
ATOM     24  C   LIG d   1       8.072  -8.028  -4.230  0.00  0.00    -0.005 C 
ATOM     25  H   LIG d   1       7.007  -7.779  -4.106  0.00  0.00     0.031 H 
ATOM     26  H   LIG d   1       8.181  -8.779  -5.027  0.00  0.00     0.031 H 
ATOM     27  H   LIG d   1       8.631  -7.121  -4.501  0.00  0.00     0.031 H 
ENDBRANCH   8  24
BRANCH   1  28
ATOM     28  C   LIG d   1      11.976  -9.761   2.456  0.00  0.00    -0.027 C 
ATOM     29  H   LIG d   1      12.176  -8.894   3.102  0.00  0.00     0.031 H 
ATOM     30  H   LIG d   1      12.921 -10.280   2.237  0.00  0.00     0.031 H 
BRANCH  28  31
ATOM     31  C   LIG d   1      11.020 -10.720   3.168  0.00  0.00    -0.061 C 
ATOM     32  H   LIG d   1      10.774 -11.556   2.498  0.00  0.00     0.023 H 
ATOM     33  H   LIG d   1      10.099 -10.183   3.439  0.00  0.00     0.023 H 
ATOM     34  H   LIG d   1      11.501 -11.107   4.078  0.00  0.00     0.023 H 
ENDBRANCH  28  31
ENDBRANCH   1  28
BRANCH   6  35
ATOM     35  O   LIG d   1      12.941  -7.529   1.031  0.00  0.00    -0.506 OA
ATOM     36  H   LIG d   1      13.922  -8.025   1.072  0.00  0.00     0.292 HD
ENDBRANCH   6  35
TORSDOF 6
ENDMDL
MODEL 9
REMARK VINA RESULT:      -4.9     12.012     15.931
REMARK  6 active torsions:
REMARK  status: ('A' for Active; 'I' for Inactive)
REMARK    1  A    between atoms: C_1  and  C_2 
REMARK    2  A    between atoms: C_2  and  C_3 
REMARK    3  A    between atoms: C_8  and  O_9 
REMARK    4  A    between atoms: C_11  and  C_21 
REMARK    5  A    between atoms: C_12  and  C_15 
REMARK    6  A    between atoms: C_17  and  C_20 
ROOT
ATOM      1  C   LIG d   1      10.500   6.226  -1.672  0.00  0.00    -0.005 A 
ATOM      2  C   LIG d   1      10.346   7.583  -1.698  0.00  0.00    -0.041 A 
ATOM      3  C   LIG d   1      10.826   8.355  -0.640  0.00  0.00     0.065 A 
ATOM      4  C   LIG d   1      11.467   7.746   0.452  0.00  0.00     0.142 A 
ATOM      5  C   LIG d   1      11.616   6.365   0.463  0.00  0.00     0.023 A 
ATOM      6  C   LIG d   1      11.134   5.612  -0.594  0.00  0.00     0.123 A 
ATOM      7  O   LIG d   1      11.931   8.492   1.473  0.00  0.00    -0.459 OA
ATOM      8  C   LIG d   1      11.818   9.821   1.520  0.00  0.00     0.116 A 
ATOM      9  C   LIG d   1      11.225  10.541   0.528  0.00  0.00     0.092 A 
ATOM     10  C   LIG d   1      10.676   9.822  -0.635  0.00  0.00     0.202 A 
ATOM     11  O   LIG d   1      10.130  10.412  -1.551  0.00  0.00    -0.286 OA
ATOM     12  H   LIG d   1       9.853   8.056  -2.535  0.00  0.00     0.063 H 
ATOM     13  H   LIG d   1      12.107   5.879   1.294  0.00  0.00     0.069 H 
ENDROOT
BRANCH   9  14
ATOM     14  C   LIG d   1      11.129  12.012   0.620  0.00  0.00     0.115 A 
ATOM     15  S   LIG d   1      12.365  13.255   0.268  0.00  0.00    -0.075 SA
ATOM     16  C   LIG d   1      11.356  14.680   0.652  0.00  0.00    -0.001 A 
ATOM     17  C   LIG d   1      10.196  14.077   1.015  0.00  0.00     0.046 A 
ATOM     18  H   LIG d   1      11.604  15.731   0.613  0.00  0.00     0.071 H 
ATOM     19  N   LIG d   1      10.104  12.767   0.992  0.00  0.00    -0.244 NA
BRANCH  17  20
ATOM     20  C   LIG d   1       9.013  14.909   1.441  0.00  0.00    -0.022 C 
ATOM     21  H   LIG d   1       8.279  14.950   0.623  0.00  0.00     0.029 H 
ATOM     22  H   LIG d   1       9.350  15.929   1.682  0.00  0.00     0.029 H 
ATOM     23  H   LIG d   1       8.549  14.458   2.329  0.00  0.00     0.029 H 
ENDBRANCH  17  20
ENDBRANCH   9  14
BRANCH   8  24
ATOM     24  C   LIG d   1      12.375  10.554   2.714  0.00  0.00    -0.005 C 
ATOM     25  H   LIG d   1      11.722  10.386   3.584  0.00  0.00     0.031 H 
ATOM     26  H   LIG d   1      12.422  11.631   2.495  0.00  0.00     0.031 H 
ATOM     27  H   LIG d   1      13.385  10.179   2.936  0.00  0.00     0.031 H 
ENDBRANCH   8  24
BRANCH   1  28
ATOM     28  C   LIG d   1       9.983   5.390  -2.814  0.00  0.00    -0.027 C 
ATOM     29  H   LIG d   1       9.205   4.707  -2.445  0.00  0.00     0.031 H 
ATOM     30  H   LIG d   1      10.810   4.806  -3.244  0.00  0.00     0.031 H 
BRANCH  28  31
ATOM     31  C   LIG d   1       9.392   6.304  -3.890  0.00  0.00    -0.061 C 
ATOM     32  H   LIG d   1       9.163   5.712  -4.788  0.00  0.00     0.023 H 
ATOM     33  H   LIG d   1      10.120   7.089  -4.143  0.00  0.00     0.023 H 
ATOM     34  H   LIG d   1       8.471   6.767  -3.510  0.00  0.00     0.023 H 
ENDBRANCH  28  31
ENDBRANCH   1  28
BRANCH   6  35
ATOM     35  O   LIG d   1      11.282   4.263  -0.581  0.00  0.00    -0.506 OA
ATOM     36  H   LIG d   1      10.758   3.645  -1.325  0.00  0.00     0.292 HD
ENDBRANCH   6  35
TORSDOF 6
ENDMDL
