MODEL 1
REMARK VINA RESULT:      -6.5      0.000      0.000
REMARK  2 active torsions:
REMARK  status: ('A' for Active; 'I' for Inactive)
REMARK    1  A    between atoms: CG_4  and  CB_7 
REMARK    2  A    between atoms: CB_7  and  CA_8 
REMARK       I    between atoms: CA_8  and  C_10 
REMARK       I    between atoms: CA_8  and  N_36 
REMARK       I    between atoms: C_10  and  N_12 
REMARK       I    between atoms: CA_16  and  C_18 
ROOT
ATOM      1  CA  PHE d   1       3.328   0.505  -7.272  0.00  0.00     0.057 C 
ATOM      2  HA  PHE d   1       4.349   0.279  -7.579  0.00  0.00     0.095 H 
ATOM      3  C   PHE d   1       3.209   0.359  -5.777  0.00  0.00     0.265 C 
ATOM      4  O   PHE d   1       2.552   1.155  -5.140  0.00  0.00    -0.269 OA
ATOM      5  H1  PHE d   1       2.053   2.118  -7.383  0.00  0.00     0.200 HD
ATOM      6  H2  PHE d   1       3.658   2.537  -7.270  0.00  0.00     0.200 HD
ATOM      7  N   PHE d   1       2.998   1.881  -7.683  0.00  0.00     0.228 N 
ATOM      8  H3  PHE d   1       3.052   1.951  -8.705  0.00  0.00     0.200 HD
ATOM      9  N   PRO d   2       3.834  -0.656  -5.148  0.00  0.00    -0.289 N 
ATOM     10  CD  PRO d   2       4.662  -1.689  -5.796  0.00  0.00     0.016 C 
ATOM     11  CG  PRO d   2       4.617  -2.898  -4.827  0.00  0.00    -0.035 C 
ATOM     12  CB  PRO d   2       4.634  -2.190  -3.446  0.00  0.00    -0.028 C 
ATOM     13  CA  PRO d   2       3.806  -0.913  -3.698  0.00  0.00     0.066 C 
ATOM     14  HA  PRO d   2       2.778  -1.067  -3.368  0.00  0.00     0.056 H 
ATOM     15  C   PRO d   2       4.416   0.247  -2.955  0.00  0.00     0.062 C 
ATOM     16  O   PRO d   2       4.823   1.209  -3.564  0.00  0.00    -0.548 OA
ATOM     17  HD1 PRO d   2       5.686  -1.336  -5.915  0.00  0.00     0.046 H 
ATOM     18  HD2 PRO d   2       4.239  -1.963  -6.762  0.00  0.00     0.046 H 
ATOM     19  HG1 PRO d   2       5.496  -3.531  -4.952  0.00  0.00     0.028 H 
ATOM     20  HG2 PRO d   2       3.701  -3.473  -4.960  0.00  0.00     0.028 H 
ATOM     21  HB1 PRO d   2       4.161  -2.814  -2.688  0.00  0.00     0.029 H 
ATOM     22  HB2 PRO d   2       5.654  -1.937  -3.154  0.00  0.00     0.029 H 
ATOM     23  OXT PRO d   2       4.506   0.215  -1.616  0.00  0.00    -0.548 OA
ENDROOT
BRANCH   1  24
ATOM     24  CB  PHE d   1       2.362  -0.464  -7.957  0.00  0.00     0.024 C 
ATOM     25  HB1 PHE d   1       2.437  -1.444  -7.488  0.00  0.00     0.037 H 
ATOM     26  HB2 PHE d   1       1.342  -0.090  -7.859  0.00  0.00     0.037 H 
BRANCH  24  27
ATOM     27  CG  PHE d   1       2.716  -0.577  -9.418  0.00  0.00    -0.042 A 
ATOM     28  CD1 PHE d   1       4.038  -0.511  -9.815  0.00  0.00    -0.058 A 
ATOM     29  CE1 PHE d   1       4.363  -0.615 -11.155  0.00  0.00    -0.061 A 
ATOM     30  HD1 PHE d   1       4.817  -0.378  -9.080  0.00  0.00     0.062 H 
ATOM     31  CZ  PHE d   1       3.366  -0.785 -12.097  0.00  0.00    -0.062 A 
ATOM     32  HE1 PHE d   1       5.396  -0.565 -11.466  0.00  0.00     0.062 H 
ATOM     33  CE2 PHE d   1       2.043  -0.851 -11.699  0.00  0.00    -0.061 A 
ATOM     34  HZ  PHE d   1       3.619  -0.867 -13.144  0.00  0.00     0.062 H 
ATOM     35  CD2 PHE d   1       1.718  -0.752 -10.359  0.00  0.00    -0.058 A 
ATOM     36  HE2 PHE d   1       1.264  -0.984 -12.435  0.00  0.00     0.062 H 
ATOM     37  HD2 PHE d   1       0.686  -0.808 -10.048  0.00  0.00     0.062 H 
ENDBRANCH  24  27
ENDBRANCH   1  24
TORSDOF 5
ENDMDL
MODEL 2
REMARK VINA RESULT:      -6.4      4.683      6.618
REMARK  2 active torsions:
REMARK  status: ('A' for Active; 'I' for Inactive)
REMARK    1  A    between atoms: CG_4  and  CB_7 
REMARK    2  A    between atoms: CB_7  and  CA_8 
REMARK       I    between atoms: CA_8  and  C_10 
REMARK       I    between atoms: CA_8  and  N_36 
REMARK       I    between atoms: C_10  and  N_12 
REMARK       I    between atoms: CA_16  and  C_18 
ROOT
ATOM      1  CA  PHE d   1       7.822  -1.400  -4.311  0.00  0.00     0.057 C 
ATOM      2  HA  PHE d   1       7.995  -1.647  -3.263  0.00  0.00     0.095 H 
ATOM      3  C   PHE d   1       6.588  -0.543  -4.427  0.00  0.00     0.265 C 
ATOM      4  O   PHE d   1       6.568   0.388  -5.204  0.00  0.00    -0.269 OA
ATOM      5  H1  PHE d   1       8.844  -0.425  -5.809  0.00  0.00     0.200 HD
ATOM      6  H2  PHE d   1       9.170   0.156  -4.285  0.00  0.00     0.200 HD
ATOM      7  N   PHE d   1       8.998  -0.684  -4.835  0.00  0.00     0.228 N 
ATOM      8  H3  PHE d   1       9.820  -1.296  -4.778  0.00  0.00     0.200 HD
ATOM      9  N   PRO d   2       5.507  -0.812  -3.668  0.00  0.00    -0.289 N 
ATOM     10  CD  PRO d   2       5.397  -1.906  -2.687  0.00  0.00     0.016 C 
ATOM     11  CG  PRO d   2       3.876  -2.176  -2.565  0.00  0.00    -0.035 C 
ATOM     12  CB  PRO d   2       3.295  -0.742  -2.673  0.00  0.00    -0.028 C 
ATOM     13  CA  PRO d   2       4.243  -0.055  -3.678  0.00  0.00     0.066 C 
ATOM     14  HA  PRO d   2       3.805  -0.079  -4.676  0.00  0.00     0.056 H 
ATOM     15  C   PRO d   2       4.490   1.370  -3.258  0.00  0.00     0.062 C 
ATOM     16  O   PRO d   2       5.610   1.736  -2.989  0.00  0.00    -0.548 OA
ATOM     17  HD1 PRO d   2       5.805  -1.596  -1.725  0.00  0.00     0.046 H 
ATOM     18  HD2 PRO d   2       5.912  -2.795  -3.050  0.00  0.00     0.046 H 
ATOM     19  HG1 PRO d   2       3.635  -2.624  -1.601  0.00  0.00     0.028 H 
ATOM     20  HG2 PRO d   2       3.523  -2.804  -3.383  0.00  0.00     0.028 H 
ATOM     21  HB1 PRO d   2       2.276  -0.767  -3.058  0.00  0.00     0.029 H 
ATOM     22  HB2 PRO d   2       3.328  -0.239  -1.706  0.00  0.00     0.029 H 
ATOM     23  OXT PRO d   2       3.466   2.235  -3.182  0.00  0.00    -0.548 OA
ENDROOT
BRANCH   1  24
ATOM     24  CB  PHE d   1       7.626  -2.689  -5.112  0.00  0.00     0.024 C 
ATOM     25  HB1 PHE d   1       6.560  -2.893  -5.217  0.00  0.00     0.037 H 
ATOM     26  HB2 PHE d   1       8.073  -2.574  -6.100  0.00  0.00     0.037 H 
BRANCH  24  27
ATOM     27  CG  PHE d   1       8.288  -3.835  -4.392  0.00  0.00    -0.042 A 
ATOM     28  CD1 PHE d   1       8.229  -5.110  -4.922  0.00  0.00    -0.058 A 
ATOM     29  CE1 PHE d   1       8.836  -6.161  -4.261  0.00  0.00    -0.061 A 
ATOM     30  HD1 PHE d   1       7.710  -5.285  -5.852  0.00  0.00     0.062 H 
ATOM     31  CZ  PHE d   1       9.502  -5.938  -3.070  0.00  0.00    -0.062 A 
ATOM     32  HE1 PHE d   1       8.792  -7.158  -4.675  0.00  0.00     0.062 H 
ATOM     33  CE2 PHE d   1       9.559  -4.662  -2.540  0.00  0.00    -0.061 A 
ATOM     34  HZ  PHE d   1       9.977  -6.759  -2.553  0.00  0.00     0.062 H 
ATOM     35  CD2 PHE d   1       8.956  -3.610  -3.203  0.00  0.00    -0.058 A 
ATOM     36  HE2 PHE d   1      10.079  -4.487  -1.610  0.00  0.00     0.062 H 
ATOM     37  HD2 PHE d   1       9.006  -2.613  -2.791  0.00  0.00     0.062 H 
ENDBRANCH  24  27
ENDBRANCH   1  24
TORSDOF 5
ENDMDL
MODEL 3
REMARK VINA RESULT:      -6.4      3.142      6.685
REMARK  2 active torsions:
REMARK  status: ('A' for Active; 'I' for Inactive)
REMARK    1  A    between atoms: CG_4  and  CB_7 
REMARK    2  A    between atoms: CB_7  and  CA_8 
REMARK       I    between atoms: CA_8  and  C_10 
REMARK       I    between atoms: CA_8  and  N_36 
REMARK       I    between atoms: C_10  and  N_12 
REMARK       I    between atoms: CA_16  and  C_18 
ROOT
ATOM      1  CA  PHE d   1       5.690  -2.652  -5.171  0.00  0.00     0.057 C 
ATOM      2  HA  PHE d   1       6.147  -1.663  -5.176  0.00  0.00     0.095 H 
ATOM      3  C   PHE d   1       4.997  -2.892  -6.487  0.00  0.00     0.265 C 
ATOM      4  O   PHE d   1       5.060  -3.982  -7.015  0.00  0.00    -0.269 OA
ATOM      5  H1  PHE d   1       6.329  -4.598  -4.963  0.00  0.00     0.200 HD
ATOM      6  H2  PHE d   1       7.450  -3.595  -5.672  0.00  0.00     0.200 HD
ATOM      7  N   PHE d   1       6.737  -3.664  -4.948  0.00  0.00     0.228 N 
ATOM      8  H3  PHE d   1       7.172  -3.504  -4.032  0.00  0.00     0.200 HD
ATOM      9  N   PRO d   2       4.309  -1.894  -7.078  0.00  0.00    -0.289 N 
ATOM     10  CD  PRO d   2       4.154  -0.527  -6.549  0.00  0.00     0.016 C 
ATOM     11  CG  PRO d   2       2.851   0.003  -7.199  0.00  0.00    -0.035 C 
ATOM     12  CB  PRO d   2       2.936  -0.617  -8.618  0.00  0.00    -0.028 C 
ATOM     13  CA  PRO d   2       3.593  -1.990  -8.361  0.00  0.00     0.066 C 
ATOM     14  HA  PRO d   2       2.826  -2.762  -8.301  0.00  0.00     0.056 H 
ATOM     15  C   PRO d   2       4.560  -2.311  -9.471  0.00  0.00     0.062 C 
ATOM     16  O   PRO d   2       5.734  -2.464  -9.225  0.00  0.00    -0.548 OA
ATOM     17  HD1 PRO d   2       5.003   0.091  -6.841  0.00  0.00     0.046 H 
ATOM     18  HD2 PRO d   2       4.055  -0.549  -5.464  0.00  0.00     0.046 H 
ATOM     19  HG1 PRO d   2       2.855   1.092  -7.247  0.00  0.00     0.028 H 
ATOM     20  HG2 PRO d   2       1.973  -0.360  -6.666  0.00  0.00     0.028 H 
ATOM     21  HB1 PRO d   2       1.941  -0.739  -9.046  0.00  0.00     0.029 H 
ATOM     22  HB2 PRO d   2       3.562  -0.007  -9.270  0.00  0.00     0.029 H 
ATOM     23  OXT PRO d   2       4.119  -2.428 -10.734  0.00  0.00    -0.548 OA
ENDROOT
BRANCH   1  24
ATOM     24  CB  PHE d   1       4.668  -2.736  -4.034  0.00  0.00     0.024 C 
ATOM     25  HB1 PHE d   1       3.702  -3.041  -4.436  0.00  0.00     0.037 H 
ATOM     26  HB2 PHE d   1       5.003  -3.465  -3.298  0.00  0.00     0.037 H 
BRANCH  24  27
ATOM     27  CG  PHE d   1       4.534  -1.385  -3.379  0.00  0.00    -0.042 A 
ATOM     28  CD1 PHE d   1       3.285  -0.909  -3.026  0.00  0.00    -0.058 A 
ATOM     29  CE1 PHE d   1       3.163   0.329  -2.424  0.00  0.00    -0.061 A 
ATOM     30  HD1 PHE d   1       2.406  -1.505  -3.219  0.00  0.00     0.062 H 
ATOM     31  CZ  PHE d   1       4.289   1.091  -2.176  0.00  0.00    -0.062 A 
ATOM     32  HE1 PHE d   1       2.187   0.701  -2.146  0.00  0.00     0.062 H 
ATOM     33  CE2 PHE d   1       5.538   0.615  -2.530  0.00  0.00    -0.061 A 
ATOM     34  HZ  PHE d   1       4.194   2.060  -1.705  0.00  0.00     0.062 H 
ATOM     35  CD2 PHE d   1       5.661  -0.625  -3.127  0.00  0.00    -0.058 A 
ATOM     36  HE2 PHE d   1       6.417   1.211  -2.335  0.00  0.00     0.062 H 
ATOM     37  HD2 PHE d   1       6.637  -0.999  -3.399  0.00  0.00     0.062 H 
ENDBRANCH  24  27
ENDBRANCH   1  24
TORSDOF 5
ENDMDL
MODEL 4
REMARK VINA RESULT:      -6.2      2.910      6.599
REMARK  2 active torsions:
REMARK  status: ('A' for Active; 'I' for Inactive)
REMARK    1  A    between atoms: CG_4  and  CB_7 
REMARK    2  A    between atoms: CB_7  and  CA_8 
REMARK       I    between atoms: CA_8  and  C_10 
REMARK       I    between atoms: CA_8  and  N_36 
REMARK       I    between atoms: C_10  and  N_12 
REMARK       I    between atoms: CA_16  and  C_18 
ROOT
ATOM      1  CA  PHE d   1       4.188  -0.046  -6.576  0.00  0.00     0.057 C 
ATOM      2  HA  PHE d   1       4.237   0.820  -7.236  0.00  0.00     0.095 H 
ATOM      3  C   PHE d   1       4.024  -1.297  -7.399  0.00  0.00     0.265 C 
ATOM      4  O   PHE d   1       4.622  -2.307  -7.093  0.00  0.00    -0.269 OA
ATOM      5  H1  PHE d   1       5.406  -0.930  -5.171  0.00  0.00     0.200 HD
ATOM      6  H2  PHE d   1       6.235  -0.167  -6.395  0.00  0.00     0.200 HD
ATOM      7  N   PHE d   1       5.426  -0.112  -5.779  0.00  0.00     0.228 N 
ATOM      8  H3  PHE d   1       5.501   0.733  -5.201  0.00  0.00     0.200 HD
ATOM      9  N   PRO d   2       3.213  -1.293  -8.476  0.00  0.00    -0.289 N 
ATOM     10  CD  PRO d   2       2.432  -0.141  -8.959  0.00  0.00     0.016 C 
ATOM     11  CG  PRO d   2       1.260  -0.765  -9.759  0.00  0.00    -0.035 C 
ATOM     12  CB  PRO d   2       1.954  -1.975 -10.436  0.00  0.00    -0.028 C 
ATOM     13  CA  PRO d   2       2.966  -2.440  -9.367  0.00  0.00     0.066 C 
ATOM     14  HA  PRO d   2       2.548  -3.270  -8.796  0.00  0.00     0.056 H 
ATOM     15  C   PRO d   2       4.251  -2.867 -10.029  0.00  0.00     0.062 C 
ATOM     16  O   PRO d   2       5.282  -2.289  -9.777  0.00  0.00    -0.548 OA
ATOM     17  HD1 PRO d   2       3.043   0.487  -9.608  0.00  0.00     0.046 H 
ATOM     18  HD2 PRO d   2       2.051   0.439  -8.119  0.00  0.00     0.046 H 
ATOM     19  HG1 PRO d   2       0.881  -0.065 -10.504  0.00  0.00     0.028 H 
ATOM     20  HG2 PRO d   2       0.463  -1.093  -9.093  0.00  0.00     0.028 H 
ATOM     21  HB1 PRO d   2       1.232  -2.763 -10.651  0.00  0.00     0.029 H 
ATOM     22  HB2 PRO d   2       2.469  -1.667 -11.346  0.00  0.00     0.029 H 
ATOM     23  OXT PRO d   2       4.251  -3.890 -10.898  0.00  0.00    -0.548 OA
ENDROOT
BRANCH   1  24
ATOM     24  CB  PHE d   1       2.994   0.102  -5.629  0.00  0.00     0.024 C 
ATOM     25  HB1 PHE d   1       2.567   1.099  -5.737  0.00  0.00     0.037 H 
ATOM     26  HB2 PHE d   1       2.241  -0.646  -5.876  0.00  0.00     0.037 H 
BRANCH  24  27
ATOM     27  CG  PHE d   1       3.453  -0.097  -4.207  0.00  0.00    -0.042 A 
ATOM     28  CD1 PHE d   1       3.729   0.999  -3.411  0.00  0.00    -0.058 A 
ATOM     29  CE1 PHE d   1       4.149   0.817  -2.107  0.00  0.00    -0.061 A 
ATOM     30  HD1 PHE d   1       3.615   1.997  -3.807  0.00  0.00     0.062 H 
ATOM     31  CZ  PHE d   1       4.294  -0.460  -1.599  0.00  0.00    -0.062 A 
ATOM     32  HE1 PHE d   1       4.363   1.673  -1.484  0.00  0.00     0.062 H 
ATOM     33  CE2 PHE d   1       4.019  -1.556  -2.397  0.00  0.00    -0.061 A 
ATOM     34  HZ  PHE d   1       4.622  -0.603  -0.580  0.00  0.00     0.062 H 
ATOM     35  CD2 PHE d   1       3.594  -1.374  -3.699  0.00  0.00    -0.058 A 
ATOM     36  HE2 PHE d   1       4.132  -2.554  -1.999  0.00  0.00     0.062 H 
ATOM     37  HD2 PHE d   1       3.374  -2.230  -4.320  0.00  0.00     0.062 H 
ENDBRANCH  24  27
ENDBRANCH   1  24
TORSDOF 5
ENDMDL
MODEL 5
REMARK VINA RESULT:      -6.2      3.014      6.847
REMARK  2 active torsions:
REMARK  status: ('A' for Active; 'I' for Inactive)
REMARK    1  A    between atoms: CG_4  and  CB_7 
REMARK    2  A    between atoms: CB_7  and  CA_8 
REMARK       I    between atoms: CA_8  and  C_10 
REMARK       I    between atoms: CA_8  and  N_36 
REMARK       I    between atoms: C_10  and  N_12 
REMARK       I    between atoms: CA_16  and  C_18 
ROOT
ATOM      1  CA  PHE d   1       4.201  -1.160  -6.866  0.00  0.00     0.057 C 
ATOM      2  HA  PHE d   1       5.226  -0.790  -6.887  0.00  0.00     0.095 H 
ATOM      3  C   PHE d   1       3.601  -1.059  -8.244  0.00  0.00     0.265 C 
ATOM      4  O   PHE d   1       2.893  -1.949  -8.664  0.00  0.00    -0.269 OA
ATOM      5  H1  PHE d   1       3.257  -2.931  -6.404  0.00  0.00     0.200 HD
ATOM      6  H2  PHE d   1       4.788  -3.128  -7.024  0.00  0.00     0.200 HD
ATOM      7  N   PHE d   1       4.207  -2.561  -6.409  0.00  0.00     0.228 N 
ATOM      8  H3  PHE d   1       4.588  -2.604  -5.456  0.00  0.00     0.200 HD
ATOM      9  N   PRO d   2       3.853   0.021  -9.010  0.00  0.00    -0.289 N 
ATOM     10  CD  PRO d   2       4.694   1.170  -8.627  0.00  0.00     0.016 C 
ATOM     11  CG  PRO d   2       4.184   2.343  -9.502  0.00  0.00    -0.035 C 
ATOM     12  CB  PRO d   2       3.864   1.620 -10.836  0.00  0.00    -0.028 C 
ATOM     13  CA  PRO d   2       3.337   0.245 -10.372  0.00  0.00     0.066 C 
ATOM     14  HA  PRO d   2       2.247   0.251 -10.359  0.00  0.00     0.056 H 
ATOM     15  C   PRO d   2       3.836  -0.833 -11.298  0.00  0.00     0.062 C 
ATOM     16  O   PRO d   2       4.540  -1.718 -10.872  0.00  0.00    -0.548 OA
ATOM     17  HD1 PRO d   2       5.741   0.962  -8.843  0.00  0.00     0.046 H 
ATOM     18  HD2 PRO d   2       4.562   1.400  -7.570  0.00  0.00     0.046 H 
ATOM     19  HG1 PRO d   2       4.963   3.093  -9.641  0.00  0.00     0.028 H 
ATOM     20  HG2 PRO d   2       3.287   2.789  -9.073  0.00  0.00     0.028 H 
ATOM     21  HB1 PRO d   2       3.096   2.159 -11.392  0.00  0.00     0.029 H 
ATOM     22  HB2 PRO d   2       4.765   1.504 -11.439  0.00  0.00     0.029 H 
ATOM     23  OXT PRO d   2       3.497  -0.813 -12.597  0.00  0.00    -0.548 OA
ENDROOT
BRANCH   1  24
ATOM     24  CB  PHE d   1       3.376  -0.321  -5.887  0.00  0.00     0.024 C 
ATOM     25  HB1 PHE d   1       3.476   0.734  -6.140  0.00  0.00     0.037 H 
ATOM     26  HB2 PHE d   1       2.328  -0.614  -5.953  0.00  0.00     0.037 H 
BRANCH  24  27
ATOM     27  CG  PHE d   1       3.875  -0.551  -4.484  0.00  0.00    -0.042 A 
ATOM     28  CD1 PHE d   1       5.132  -0.109  -4.116  0.00  0.00    -0.058 A 
ATOM     29  CE1 PHE d   1       5.589  -0.319  -2.829  0.00  0.00    -0.061 A 
ATOM     30  HD1 PHE d   1       5.756   0.401  -4.834  0.00  0.00     0.062 H 
ATOM     31  CZ  PHE d   1       4.790  -0.971  -1.909  0.00  0.00    -0.062 A 
ATOM     32  HE1 PHE d   1       6.571   0.028  -2.541  0.00  0.00     0.062 H 
ATOM     33  CE2 PHE d   1       3.533  -1.414  -2.278  0.00  0.00    -0.061 A 
ATOM     34  HZ  PHE d   1       5.147  -1.136  -0.903  0.00  0.00     0.062 H 
ATOM     35  CD2 PHE d   1       3.073  -1.200  -3.563  0.00  0.00    -0.058 A 
ATOM     36  HE2 PHE d   1       2.909  -1.923  -1.559  0.00  0.00     0.062 H 
ATOM     37  HD2 PHE d   1       2.090  -1.541  -3.849  0.00  0.00     0.062 H 
ENDBRANCH  24  27
ENDBRANCH   1  24
TORSDOF 5
ENDMDL
MODEL 6
REMARK VINA RESULT:      -6.1      2.982      6.672
REMARK  2 active torsions:
REMARK  status: ('A' for Active; 'I' for Inactive)
REMARK    1  A    between atoms: CG_4  and  CB_7 
REMARK    2  A    between atoms: CB_7  and  CA_8 
REMARK       I    between atoms: CA_8  and  C_10 
REMARK       I    between atoms: CA_8  and  N_36 
REMARK       I    between atoms: C_10  and  N_12 
REMARK       I    between atoms: CA_16  and  C_18 
ROOT
ATOM      1  CA  PHE d   1       6.617  -0.073  -6.147  0.00  0.00     0.057 C 
ATOM      2  HA  PHE d   1       6.121   0.801  -5.725  0.00  0.00     0.095 H 
ATOM      3  C   PHE d   1       6.146  -0.283  -7.563  0.00  0.00     0.265 C 
ATOM      4  O   PHE d   1       6.935  -0.618  -8.421  0.00  0.00    -0.269 OA
ATOM      5  H1  PHE d   1       8.553  -0.659  -6.528  0.00  0.00     0.200 HD
ATOM      6  H2  PHE d   1       8.316   0.984  -6.633  0.00  0.00     0.200 HD
ATOM      7  N   PHE d   1       8.074   0.141  -6.115  0.00  0.00     0.228 N 
ATOM      8  H3  PHE d   1       8.379   0.247  -5.141  0.00  0.00     0.200 HD
ATOM      9  N   PRO d   2       4.848  -0.096  -7.876  0.00  0.00    -0.289 N 
ATOM     10  CD  PRO d   2       3.788   0.312  -6.937  0.00  0.00     0.016 C 
ATOM     11  CG  PRO d   2       2.474  -0.204  -7.576  0.00  0.00    -0.035 C 
ATOM     12  CB  PRO d   2       2.747   0.030  -9.084  0.00  0.00    -0.028 C 
ATOM     13  CA  PRO d   2       4.257  -0.260  -9.215  0.00  0.00     0.066 C 
ATOM     14  HA  PRO d   2       4.409  -1.282  -9.564  0.00  0.00     0.056 H 
ATOM     15  C   PRO d   2       4.884   0.712 -10.180  0.00  0.00     0.062 C 
ATOM     16  O   PRO d   2       5.752   1.463  -9.804  0.00  0.00    -0.548 OA
ATOM     17  HD1 PRO d   2       3.762   1.397  -6.841  0.00  0.00     0.046 H 
ATOM     18  HD2 PRO d   2       3.944  -0.153  -5.963  0.00  0.00     0.046 H 
ATOM     19  HG1 PRO d   2       1.619   0.382  -7.237  0.00  0.00     0.028 H 
ATOM     20  HG2 PRO d   2       2.326  -1.264  -7.365  0.00  0.00     0.028 H 
ATOM     21  HB1 PRO d   2       2.166  -0.662  -9.693  0.00  0.00     0.029 H 
ATOM     22  HB2 PRO d   2       2.528   1.062  -9.360  0.00  0.00     0.029 H 
ATOM     23  OXT PRO d   2       4.478   0.744 -11.460  0.00  0.00    -0.548 OA
ENDROOT
BRANCH   1  24
ATOM     24  CB  PHE d   1       6.276  -1.307  -5.309  0.00  0.00     0.024 C 
ATOM     25  HB1 PHE d   1       5.590  -1.946  -5.865  0.00  0.00     0.037 H 
ATOM     26  HB2 PHE d   1       7.190  -1.859  -5.088  0.00  0.00     0.037 H 
BRANCH  24  27
ATOM     27  CG  PHE d   1       5.626  -0.876  -4.019  0.00  0.00    -0.042 A 
ATOM     28  CD1 PHE d   1       4.957  -1.800  -3.240  0.00  0.00    -0.058 A 
ATOM     29  CE1 PHE d   1       4.362  -1.404  -2.057  0.00  0.00    -0.061 A 
ATOM     30  HD1 PHE d   1       4.901  -2.832  -3.554  0.00  0.00     0.062 H 
ATOM     31  CZ  PHE d   1       4.434  -0.084  -1.654  0.00  0.00    -0.062 A 
ATOM     32  HE1 PHE d   1       3.840  -2.127  -1.446  0.00  0.00     0.062 H 
ATOM     33  CE2 PHE d   1       5.103   0.841  -2.435  0.00  0.00    -0.061 A 
ATOM     34  HZ  PHE d   1       3.969   0.226  -0.730  0.00  0.00     0.062 H 
ATOM     35  CD2 PHE d   1       5.703   0.444  -3.615  0.00  0.00    -0.058 A 
ATOM     36  HE2 PHE d   1       5.160   1.872  -2.120  0.00  0.00     0.062 H 
ATOM     37  HD2 PHE d   1       6.229   1.165  -4.222  0.00  0.00     0.062 H 
ENDBRANCH  24  27
ENDBRANCH   1  24
TORSDOF 5
ENDMDL
MODEL 7
REMARK VINA RESULT:      -6.1      3.005      6.538
REMARK  2 active torsions:
REMARK  status: ('A' for Active; 'I' for Inactive)
REMARK    1  A    between atoms: CG_4  and  CB_7 
REMARK    2  A    between atoms: CB_7  and  CA_8 
REMARK       I    between atoms: CA_8  and  C_10 
REMARK       I    between atoms: CA_8  and  N_36 
REMARK       I    between atoms: C_10  and  N_12 
REMARK       I    between atoms: CA_16  and  C_18 
ROOT
ATOM      1  CA  PHE d   1       5.210  -0.259  -7.044  0.00  0.00     0.057 C 
ATOM      2  HA  PHE d   1       4.388   0.408  -6.785  0.00  0.00     0.095 H 
ATOM      3  C   PHE d   1       5.198  -0.520  -8.528  0.00  0.00     0.265 C 
ATOM      4  O   PHE d   1       6.242  -0.564  -9.144  0.00  0.00    -0.269 OA
ATOM      5  H1  PHE d   1       7.264  -0.233  -6.896  0.00  0.00     0.200 HD
ATOM      6  H2  PHE d   1       6.586   1.272  -7.099  0.00  0.00     0.200 HD
ATOM      7  N   PHE d   1       6.481   0.368  -6.641  0.00  0.00     0.228 N 
ATOM      8  H3  PHE d   1       6.483   0.506  -5.624  0.00  0.00     0.200 HD
ATOM      9  N   PRO d   2       4.027  -0.703  -9.170  0.00  0.00    -0.289 N 
ATOM     10  CD  PRO d   2       2.692  -0.674  -8.547  0.00  0.00     0.016 C 
ATOM     11  CG  PRO d   2       1.796  -1.515  -9.491  0.00  0.00    -0.035 C 
ATOM     12  CB  PRO d   2       2.361  -1.130 -10.882  0.00  0.00    -0.028 C 
ATOM     13  CA  PRO d   2       3.871  -0.960 -10.611  0.00  0.00     0.066 C 
ATOM     14  HA  PRO d   2       4.402  -1.873 -10.885  0.00  0.00     0.056 H 
ATOM     15  C   PRO d   2       4.406   0.203 -11.405  0.00  0.00     0.062 C 
ATOM     16  O   PRO d   2       4.889   1.153 -10.835  0.00  0.00    -0.548 OA
ATOM     17  HD1 PRO d   2       2.323   0.350  -8.487  0.00  0.00     0.046 H 
ATOM     18  HD2 PRO d   2       2.725  -1.124  -7.555  0.00  0.00     0.046 H 
ATOM     19  HG1 PRO d   2       0.750  -1.223  -9.399  0.00  0.00     0.028 H 
ATOM     20  HG2 PRO d   2       1.920  -2.581  -9.299  0.00  0.00     0.028 H 
ATOM     21  HB1 PRO d   2       2.186  -1.927 -11.604  0.00  0.00     0.029 H 
ATOM     22  HB2 PRO d   2       1.925  -0.193 -11.231  0.00  0.00     0.029 H 
ATOM     23  OXT PRO d   2       4.349   0.184 -12.747  0.00  0.00    -0.548 OA
ENDROOT
BRANCH   1  24
ATOM     24  CB  PHE d   1       5.048  -1.582  -6.292  0.00  0.00     0.024 C 
ATOM     25  HB1 PHE d   1       4.504  -2.290  -6.916  0.00  0.00     0.037 H 
ATOM     26  HB2 PHE d   1       6.032  -1.987  -6.054  0.00  0.00     0.037 H 
BRANCH  24  27
ATOM     27  CG  PHE d   1       4.282  -1.345  -5.016  0.00  0.00    -0.042 A 
ATOM     28  CD1 PHE d   1       4.457  -2.192  -3.938  0.00  0.00    -0.058 A 
ATOM     29  CE1 PHE d   1       3.754  -1.975  -2.768  0.00  0.00    -0.061 A 
ATOM     30  HD1 PHE d   1       5.142  -3.023  -4.009  0.00  0.00     0.062 H 
ATOM     31  CZ  PHE d   1       2.876  -0.911  -2.676  0.00  0.00    -0.062 A 
ATOM     32  HE1 PHE d   1       3.891  -2.636  -1.924  0.00  0.00     0.062 H 
ATOM     33  CE2 PHE d   1       2.701  -0.064  -3.755  0.00  0.00    -0.061 A 
ATOM     34  HZ  PHE d   1       2.327  -0.740  -1.761  0.00  0.00     0.062 H 
ATOM     35  CD2 PHE d   1       3.408  -0.279  -4.923  0.00  0.00    -0.058 A 
ATOM     36  HE2 PHE d   1       2.016   0.767  -3.683  0.00  0.00     0.062 H 
ATOM     37  HD2 PHE d   1       3.274   0.385  -5.764  0.00  0.00     0.062 H 
ENDBRANCH  24  27
ENDBRANCH   1  24
TORSDOF 5
ENDMDL
MODEL 8
REMARK VINA RESULT:      -6.0      1.316      1.878
REMARK  2 active torsions:
REMARK  status: ('A' for Active; 'I' for Inactive)
REMARK    1  A    between atoms: CG_4  and  CB_7 
REMARK    2  A    between atoms: CB_7  and  CA_8 
REMARK       I    between atoms: CA_8  and  C_10 
REMARK       I    between atoms: CA_8  and  N_36 
REMARK       I    between atoms: C_10  and  N_12 
REMARK       I    between atoms: CA_16  and  C_18 
ROOT
ATOM      1  CA  PHE d   1       3.288   0.784  -8.240  0.00  0.00     0.057 C 
ATOM      2  HA  PHE d   1       4.215   0.673  -8.802  0.00  0.00     0.095 H 
ATOM      3  C   PHE d   1       3.458   0.187  -6.867  0.00  0.00     0.265 C 
ATOM      4  O   PHE d   1       2.982   0.744  -5.900  0.00  0.00    -0.269 OA
ATOM      5  H1  PHE d   1       2.103   2.340  -7.599  0.00  0.00     0.200 HD
ATOM      6  H2  PHE d   1       3.718   2.722  -7.694  0.00  0.00     0.200 HD
ATOM      7  N   PHE d   1       2.956   2.216  -8.141  0.00  0.00     0.228 N 
ATOM      8  H3  PHE d   1       2.811   2.595  -9.085  0.00  0.00     0.200 HD
ATOM      9  N   PRO d   2       4.141  -0.965  -6.713  0.00  0.00    -0.289 N 
ATOM     10  CD  PRO d   2       4.770  -1.742  -7.796  0.00  0.00     0.016 C 
ATOM     11  CG  PRO d   2       4.854  -3.189  -7.248  0.00  0.00    -0.035 C 
ATOM     12  CB  PRO d   2       5.179  -2.937  -5.753  0.00  0.00    -0.028 C 
ATOM     13  CA  PRO d   2       4.385  -1.653  -5.434  0.00  0.00     0.066 C 
ATOM     14  HA  PRO d   2       3.435  -1.911  -4.964  0.00  0.00     0.056 H 
ATOM     15  C   PRO d   2       5.189  -0.768  -4.517  0.00  0.00     0.062 C 
ATOM     16  O   PRO d   2       5.518   0.337  -4.878  0.00  0.00    -0.548 OA
ATOM     17  HD1 PRO d   2       5.767  -1.359  -8.009  0.00  0.00     0.046 H 
ATOM     18  HD2 PRO d   2       4.151  -1.713  -8.693  0.00  0.00     0.046 H 
ATOM     19  HG1 PRO d   2       5.656  -3.745  -7.734  0.00  0.00     0.028 H 
ATOM     20  HG2 PRO d   2       3.900  -3.706  -7.359  0.00  0.00     0.028 H 
ATOM     21  HB1 PRO d   2       4.832  -3.768  -5.137  0.00  0.00     0.029 H 
ATOM     22  HB2 PRO d   2       6.248  -2.775  -5.612  0.00  0.00     0.029 H 
ATOM     23  OXT PRO d   2       5.539  -1.207  -3.297  0.00  0.00    -0.548 OA
ENDROOT
BRANCH   1  24
ATOM     24  CB  PHE d   1       2.157   0.061  -8.974  0.00  0.00     0.024 C 
ATOM     25  HB1 PHE d   1       1.897  -0.850  -8.434  0.00  0.00     0.037 H 
ATOM     26  HB2 PHE d   1       1.285   0.712  -9.030  0.00  0.00     0.037 H 
BRANCH  24  27
ATOM     27  CG  PHE d   1       2.608  -0.295 -10.367  0.00  0.00    -0.042 A 
ATOM     28  CD1 PHE d   1       1.839  -1.136 -11.149  0.00  0.00    -0.058 A 
ATOM     29  CE1 PHE d   1       2.252  -1.462 -12.427  0.00  0.00    -0.061 A 
ATOM     30  HD1 PHE d   1       0.915  -1.539 -10.762  0.00  0.00     0.062 H 
ATOM     31  CZ  PHE d   1       3.435  -0.946 -12.923  0.00  0.00    -0.062 A 
ATOM     32  HE1 PHE d   1       1.651  -2.118 -13.039  0.00  0.00     0.062 H 
ATOM     33  CE2 PHE d   1       4.204  -0.105 -12.141  0.00  0.00    -0.061 A 
ATOM     34  HZ  PHE d   1       3.758  -1.200 -13.923  0.00  0.00     0.062 H 
ATOM     35  CD2 PHE d   1       3.788   0.225 -10.865  0.00  0.00    -0.058 A 
ATOM     36  HE2 PHE d   1       5.127   0.298 -12.529  0.00  0.00     0.062 H 
ATOM     37  HD2 PHE d   1       4.387   0.885 -10.256  0.00  0.00     0.062 H 
ENDBRANCH  24  27
ENDBRANCH   1  24
TORSDOF 5
ENDMDL
MODEL 9
REMARK VINA RESULT:      -5.8      3.562      6.261
REMARK  2 active torsions:
REMARK  status: ('A' for Active; 'I' for Inactive)
REMARK    1  A    between atoms: CG_4  and  CB_7 
REMARK    2  A    between atoms: CB_7  and  CA_8 
REMARK       I    between atoms: CA_8  and  C_10 
REMARK       I    between atoms: CA_8  and  N_36 
REMARK       I    between atoms: C_10  and  N_12 
REMARK       I    between atoms: CA_16  and  C_18 
ROOT
ATOM      1  CA  PHE d   1       4.432  -0.985  -6.652  0.00  0.00     0.057 C 
ATOM      2  HA  PHE d   1       5.011  -1.676  -6.041  0.00  0.00     0.095 H 
ATOM      3  C   PHE d   1       5.367  -0.128  -7.466  0.00  0.00     0.265 C 
ATOM      4  O   PHE d   1       5.096   0.141  -8.617  0.00  0.00    -0.269 OA
ATOM      5  H1  PHE d   1       3.007  -1.126  -8.132  0.00  0.00     0.200 HD
ATOM      6  H2  PHE d   1       4.088  -2.389  -8.118  0.00  0.00     0.200 HD
ATOM      7  N   PHE d   1       3.541  -1.757  -7.536  0.00  0.00     0.228 N 
ATOM      8  H3  PHE d   1       2.891  -2.307  -6.963  0.00  0.00     0.200 HD
ATOM      9  N   PRO d   2       6.505   0.339  -6.913  0.00  0.00    -0.289 N 
ATOM     10  CD  PRO d   2       6.955   0.088  -5.532  0.00  0.00     0.016 C 
ATOM     11  CG  PRO d   2       7.901   1.272  -5.204  0.00  0.00    -0.035 C 
ATOM     12  CB  PRO d   2       8.614   1.487  -6.564  0.00  0.00    -0.028 C 
ATOM     13  CA  PRO d   2       7.506   1.179  -7.593  0.00  0.00     0.066 C 
ATOM     14  HA  PRO d   2       7.043   2.108  -7.929  0.00  0.00     0.056 H 
ATOM     15  C   PRO d   2       8.090   0.439  -8.769  0.00  0.00     0.062 C 
ATOM     16  O   PRO d   2       7.704  -0.675  -9.034  0.00  0.00    -0.548 OA
ATOM     17  HD1 PRO d   2       7.495  -0.856  -5.475  0.00  0.00     0.046 H 
ATOM     18  HD2 PRO d   2       6.105   0.083  -4.851  0.00  0.00     0.046 H 
ATOM     19  HG1 PRO d   2       8.615   0.996  -4.428  0.00  0.00     0.028 H 
ATOM     20  HG2 PRO d   2       7.334   2.156  -4.915  0.00  0.00     0.028 H 
ATOM     21  HB1 PRO d   2       8.955   2.518  -6.662  0.00  0.00     0.029 H 
ATOM     22  HB2 PRO d   2       9.448   0.794  -6.677  0.00  0.00     0.029 H 
ATOM     23  OXT PRO d   2       9.038   1.018  -9.523  0.00  0.00    -0.548 OA
ENDROOT
BRANCH   1  24
ATOM     24  CB  PHE d   1       3.581  -0.092  -5.746  0.00  0.00     0.024 C 
ATOM     25  HB1 PHE d   1       3.830   0.953  -5.928  0.00  0.00     0.037 H 
ATOM     26  HB2 PHE d   1       2.525  -0.258  -5.960  0.00  0.00     0.037 H 
BRANCH  24  27
ATOM     27  CG  PHE d   1       3.859  -0.430  -4.303  0.00  0.00    -0.042 A 
ATOM     28  CD1 PHE d   1       4.035   0.582  -3.378  0.00  0.00    -0.058 A 
ATOM     29  CE1 PHE d   1       4.290   0.272  -2.056  0.00  0.00    -0.061 A 
ATOM     30  HD1 PHE d   1       3.971   1.614  -3.688  0.00  0.00     0.062 H 
ATOM     31  CZ  PHE d   1       4.370  -1.049  -1.658  0.00  0.00    -0.062 A 
ATOM     32  HE1 PHE d   1       4.425   1.063  -1.332  0.00  0.00     0.062 H 
ATOM     33  CE2 PHE d   1       4.195  -2.061  -2.584  0.00  0.00    -0.061 A 
ATOM     34  HZ  PHE d   1       4.569  -1.292  -0.624  0.00  0.00     0.062 H 
ATOM     35  CD2 PHE d   1       3.935  -1.752  -3.906  0.00  0.00    -0.058 A 
ATOM     36  HE2 PHE d   1       4.258  -3.093  -2.273  0.00  0.00     0.062 H 
ATOM     37  HD2 PHE d   1       3.794  -2.542  -4.628  0.00  0.00     0.062 H 
ENDBRANCH  24  27
ENDBRANCH   1  24
TORSDOF 5
ENDMDL
MODEL 10
REMARK VINA RESULT:      -5.8      1.795      2.826
REMARK  2 active torsions:
REMARK  status: ('A' for Active; 'I' for Inactive)
REMARK    1  A    between atoms: CG_4  and  CB_7 
REMARK    2  A    between atoms: CB_7  and  CA_8 
REMARK       I    between atoms: CA_8  and  C_10 
REMARK       I    between atoms: CA_8  and  N_36 
REMARK       I    between atoms: C_10  and  N_12 
REMARK       I    between atoms: CA_16  and  C_18 
ROOT
ATOM      1  CA  PHE d   1       4.176  -1.965  -7.232  0.00  0.00     0.057 C 
ATOM      2  HA  PHE d   1       3.091  -2.062  -7.238  0.00  0.00     0.095 H 
ATOM      3  C   PHE d   1       4.643  -1.630  -5.838  0.00  0.00     0.265 C 
ATOM      4  O   PHE d   1       5.650  -2.141  -5.397  0.00  0.00    -0.269 OA
ATOM      5  H1  PHE d   1       5.791  -3.168  -7.662  0.00  0.00     0.200 HD
ATOM      6  H2  PHE d   1       4.471  -3.997  -7.081  0.00  0.00     0.200 HD
ATOM      7  N   PHE d   1       4.774  -3.234  -7.684  0.00  0.00     0.228 N 
ATOM      8  H3  PHE d   1       4.471  -3.426  -8.646  0.00  0.00     0.200 HD
ATOM      9  N   PRO d   2       3.939  -0.763  -5.083  0.00  0.00    -0.289 N 
ATOM     10  CD  PRO d   2       2.702  -0.074  -5.492  0.00  0.00     0.016 C 
ATOM     11  CG  PRO d   2       2.647   1.198  -4.609  0.00  0.00    -0.035 C 
ATOM     12  CB  PRO d   2       3.209   0.668  -3.264  0.00  0.00    -0.028 C 
ATOM     13  CA  PRO d   2       4.278  -0.353  -3.710  0.00  0.00     0.066 C 
ATOM     14  HA  PRO d   2       5.264   0.113  -3.695  0.00  0.00     0.056 H 
ATOM     15  C   PRO d   2       4.259  -1.548  -2.793  0.00  0.00     0.062 C 
ATOM     16  O   PRO d   2       4.005  -2.644  -3.234  0.00  0.00    -0.548 OA
ATOM     17  HD1 PRO d   2       1.835  -0.706  -5.302  0.00  0.00     0.046 H 
ATOM     18  HD2 PRO d   2       2.751   0.199  -6.546  0.00  0.00     0.046 H 
ATOM     19  HG1 PRO d   2       1.621   1.548  -4.493  0.00  0.00     0.028 H 
ATOM     20  HG2 PRO d   2       3.283   1.984  -5.016  0.00  0.00     0.028 H 
ATOM     21  HB1 PRO d   2       3.663   1.476  -2.690  0.00  0.00     0.029 H 
ATOM     22  HB2 PRO d   2       2.427   0.178  -2.684  0.00  0.00     0.029 H 
ATOM     23  OXT PRO d   2       4.525  -1.396  -1.486  0.00  0.00    -0.548 OA
ENDROOT
BRANCH   1  24
ATOM     24  CB  PHE d   1       4.594  -0.849  -8.192  0.00  0.00     0.024 C 
ATOM     25  HB1 PHE d   1       4.578   0.106  -7.667  0.00  0.00     0.037 H 
ATOM     26  HB2 PHE d   1       5.601  -1.045  -8.560  0.00  0.00     0.037 H 
BRANCH  24  27
ATOM     27  CG  PHE d   1       3.635  -0.799  -9.353  0.00  0.00    -0.042 A 
ATOM     28  CD1 PHE d   1       2.272  -0.816  -9.124  0.00  0.00    -0.058 A 
ATOM     29  CE1 PHE d   1       1.392  -0.771 -10.189  0.00  0.00    -0.061 A 
ATOM     30  HD1 PHE d   1       1.894  -0.865  -8.114  0.00  0.00     0.062 H 
ATOM     31  CZ  PHE d   1       1.875  -0.708 -11.483  0.00  0.00    -0.062 A 
ATOM     32  HE1 PHE d   1       0.326  -0.782 -10.011  0.00  0.00     0.062 H 
ATOM     33  CE2 PHE d   1       3.239  -0.692 -11.711  0.00  0.00    -0.061 A 
ATOM     34  HZ  PHE d   1       1.188  -0.672 -12.316  0.00  0.00     0.062 H 
ATOM     35  CD2 PHE d   1       4.119  -0.732 -10.646  0.00  0.00    -0.058 A 
ATOM     36  HE2 PHE d   1       3.616  -0.643 -12.722  0.00  0.00     0.062 H 
ATOM     37  HD2 PHE d   1       5.183  -0.715 -10.825  0.00  0.00     0.062 H 
ENDBRANCH  24  27
ENDBRANCH   1  24
TORSDOF 5
ENDMDL
