MODEL 1
REMARK VINA RESULT:      -6.3      0.000      0.000
REMARK  12 active torsions:
REMARK  status: ('A' for Active; 'I' for Inactive)
REMARK    1  A    between atoms: C_1  and  C_2 
REMARK    2  A    between atoms: C_2  and  C_3 
REMARK    3  A    between atoms: C_2  and  C_4 
REMARK    4  A    between atoms: C_7  and  C_11 
REMARK    5  A    between atoms: C_7  and  C_23 
REMARK    6  A    between atoms: C_11  and  C_12 
REMARK    7  A    between atoms: C_12  and  N_13 
REMARK    8  A    between atoms: N_13  and  C_14 
REMARK       I    between atoms: N_13  and  C_20 
REMARK    9  A    between atoms: C_14  and  C_15 
REMARK   10  A    between atoms: C_20  and  C_22 
REMARK   11  A    between atoms: C_28  and  O_29 
REMARK   12  A    between atoms: O_29  and  C_30 
ROOT
ATOM      1  C   LIG d   1       5.924  -0.242  -2.935  0.00  0.00     0.062 C 
ATOM      2  H   LIG d   1       6.693  -0.926  -2.576  0.00  0.00     0.060 H 
ATOM      3  C   LIG d   1       5.433  -0.703  -4.311  0.00  0.00    -0.017 C 
ATOM      4  C   LIG d   1       6.599  -0.655  -5.303  0.00  0.00     0.005 C 
ATOM      5  C   LIG d   1       7.167   0.767  -5.336  0.00  0.00    -0.019 C 
ATOM      6  C   LIG d   1       7.591   1.172  -3.921  0.00  0.00     0.049 C 
ATOM      7  O   LIG d   1       6.467   1.075  -3.043  0.00  0.00    -0.376 OA
ATOM      8  H   LIG d   1       4.635  -0.044  -4.652  0.00  0.00     0.030 H 
ATOM      9  H   LIG d   1       5.058  -1.725  -4.239  0.00  0.00     0.030 H 
ATOM     10  H   LIG d   1       8.033   0.798  -5.998  0.00  0.00     0.030 H 
ATOM     11  H   LIG d   1       6.405   1.456  -5.699  0.00  0.00     0.030 H 
ATOM     12  H   LIG d   1       8.382   0.507  -3.575  0.00  0.00     0.056 H 
ATOM     13  H   LIG d   1       7.957   2.199  -3.931  0.00  0.00     0.056 H 
ENDROOT
BRANCH   4  14
ATOM     14  C   LIG d   1       6.101  -1.039  -6.697  0.00  0.00    -0.027 C 
ATOM     15  H   LIG d   1       6.867  -1.625  -7.207  0.00  0.00     0.029 H 
ATOM     16  H   LIG d   1       5.894  -0.136  -7.271  0.00  0.00     0.029 H 
BRANCH  14  17
ATOM     17  C   LIG d   1       4.822  -1.869  -6.572  0.00  0.00     0.016 C 
ATOM     18  H   LIG d   1       5.038  -2.908  -6.820  0.00  0.00     0.046 H 
ATOM     19  H   LIG d   1       4.450  -1.811  -5.549  0.00  0.00     0.046 H 
BRANCH  17  20
ATOM     20  N   LIG d   1       3.808  -1.346  -7.491  0.00  0.00    -0.294 N 
ATOM     21  C   LIG d   1       3.520  -2.014  -8.627  0.00  0.00     0.213 C 
ATOM     22  O   LIG d   1       2.614  -1.636  -9.338  0.00  0.00    -0.276 OA
BRANCH  20  23
ATOM     23  C   LIG d   1       3.107  -0.099  -7.176  0.00  0.00     0.073 C 
ATOM     24  H   LIG d   1       2.035  -0.245  -7.297  0.00  0.00     0.054 H 
ATOM     25  H   LIG d   1       3.322   0.188  -6.147  0.00  0.00     0.054 H 
BRANCH  23  26
ATOM     26  C   LIG d   1       3.576   0.989  -8.109  0.00  0.00     0.122 A 
ATOM     27  O   LIG d   1       4.854   1.331  -8.338  0.00  0.00    -0.466 OA
ATOM     28  C   LIG d   1       4.896   2.337  -9.227  0.00  0.00     0.092 A 
ATOM     29  C   LIG d   1       3.635   2.655  -9.569  0.00  0.00    -0.024 A 
ATOM     30  H   LIG d   1       5.790   2.813  -9.600  0.00  0.00     0.103 H 
ATOM     31  C   LIG d   1       2.783   1.786  -8.848  0.00  0.00    -0.019 A 
ATOM     32  H   LIG d   1       3.330   3.426 -10.261  0.00  0.00     0.065 H 
ATOM     33  H   LIG d   1       1.703   1.765  -8.885  0.00  0.00     0.065 H 
ENDBRANCH  23  26
ENDBRANCH  20  23
BRANCH  21  34
ATOM     34  C   LIG d   1       4.325  -3.227  -9.012  0.00  0.00     0.012 C 
ATOM     35  H   LIG d   1       3.748  -3.840  -9.706  0.00  0.00     0.032 H 
ATOM     36  H   LIG d   1       5.252  -2.913  -9.491  0.00  0.00     0.032 H 
ATOM     37  H   LIG d   1       4.556  -3.810  -8.120  0.00  0.00     0.032 H 
ENDBRANCH  21  34
ENDBRANCH  17  20
ENDBRANCH  14  17
ENDBRANCH   4  14
BRANCH   4  38
ATOM     38  C   LIG d   1       7.674  -1.617  -4.868  0.00  0.00     0.001 A 
ATOM     39  C   LIG d   1       8.915  -1.597  -5.487  0.00  0.00     0.124 A 
ATOM     40  C   LIG d   1       9.903  -2.484  -5.084  0.00  0.00    -0.020 A 
ATOM     41  C   LIG d   1       9.649  -3.385  -4.068  0.00  0.00    -0.058 A 
ATOM     42  H   LIG d   1      10.870  -2.471  -5.564  0.00  0.00     0.065 H 
ATOM     43  C   LIG d   1       8.411  -3.401  -3.452  0.00  0.00    -0.061 A 
ATOM     44  H   LIG d   1      10.417  -4.075  -3.754  0.00  0.00     0.062 H 
ATOM     45  C   LIG d   1       7.426  -2.516  -3.848  0.00  0.00    -0.055 A 
ATOM     46  H   LIG d   1       8.214  -4.106  -2.657  0.00  0.00     0.062 H 
ATOM     47  H   LIG d   1       6.462  -2.529  -3.363  0.00  0.00     0.062 H 
BRANCH  39  48
ATOM     48  O   LIG d   1       9.163  -0.711  -6.487  0.00  0.00    -0.495 OA
BRANCH  48  49
ATOM     49  C   LIG d   1      10.511  -0.259  -6.634  0.00  0.00     0.079 C 
ATOM     50  H   LIG d   1      10.517   0.819  -6.795  0.00  0.00     0.066 H 
ATOM     51  H   LIG d   1      11.073  -0.495  -5.731  0.00  0.00     0.066 H 
ATOM     52  H   LIG d   1      10.970  -0.757  -7.489  0.00  0.00     0.066 H 
ENDBRANCH  48  49
ENDBRANCH  39  48
ENDBRANCH   4  38
BRANCH   1  53
ATOM     53  C   LIG d   1       4.751  -0.232  -1.953  0.00  0.00    -0.020 C 
ATOM     54  H   LIG d   1       5.130  -0.297  -0.933  0.00  0.00     0.032 H 
BRANCH  53  55
ATOM     55  C   LIG d   1       3.958   1.066  -2.119  0.00  0.00    -0.060 C 
ATOM     56  H   LIG d   1       3.755   1.235  -3.178  0.00  0.00     0.023 H 
ATOM     57  H   LIG d   1       3.016   0.989  -1.576  0.00  0.00     0.023 H 
ATOM     58  H   LIG d   1       4.538   1.900  -1.724  0.00  0.00     0.023 H 
ENDBRANCH  53  55
BRANCH  53  59
ATOM     59  C   LIG d   1       3.838  -1.427  -2.236  0.00  0.00    -0.060 C 
ATOM     60  H   LIG d   1       3.898  -2.135  -1.411  0.00  0.00     0.023 H 
ATOM     61  H   LIG d   1       2.810  -1.081  -2.345  0.00  0.00     0.023 H 
ATOM     62  H   LIG d   1       4.155  -1.916  -3.158  0.00  0.00     0.023 H 
ENDBRANCH  53  59
ENDBRANCH   1  53
TORSDOF 12
ENDMDL
MODEL 2
REMARK VINA RESULT:      -6.3      2.231      4.665
REMARK  12 active torsions:
REMARK  status: ('A' for Active; 'I' for Inactive)
REMARK    1  A    between atoms: C_1  and  C_2 
REMARK    2  A    between atoms: C_2  and  C_3 
REMARK    3  A    between atoms: C_2  and  C_4 
REMARK    4  A    between atoms: C_7  and  C_11 
REMARK    5  A    between atoms: C_7  and  C_23 
REMARK    6  A    between atoms: C_11  and  C_12 
REMARK    7  A    between atoms: C_12  and  N_13 
REMARK    8  A    between atoms: N_13  and  C_14 
REMARK       I    between atoms: N_13  and  C_20 
REMARK    9  A    between atoms: C_14  and  C_15 
REMARK   10  A    between atoms: C_20  and  C_22 
REMARK   11  A    between atoms: C_28  and  O_29 
REMARK   12  A    between atoms: O_29  and  C_30 
ROOT
ATOM      1  C   LIG d   1       3.951  -0.477  -3.646  0.00  0.00     0.062 C 
ATOM      2  H   LIG d   1       3.178  -0.473  -4.415  0.00  0.00     0.060 H 
ATOM      3  C   LIG d   1       5.300  -0.116  -4.274  0.00  0.00    -0.017 C 
ATOM      4  C   LIG d   1       5.672  -1.180  -5.311  0.00  0.00     0.005 C 
ATOM      5  C   LIG d   1       5.696  -2.553  -4.633  0.00  0.00    -0.019 C 
ATOM      6  C   LIG d   1       4.331  -2.819  -3.990  0.00  0.00     0.049 C 
ATOM      7  O   LIG d   1       4.033  -1.777  -3.059  0.00  0.00    -0.376 OA
ATOM      8  H   LIG d   1       6.065  -0.080  -3.498  0.00  0.00     0.030 H 
ATOM      9  H   LIG d   1       5.226   0.857  -4.760  0.00  0.00     0.030 H 
ATOM     10  H   LIG d   1       5.906  -3.323  -5.375  0.00  0.00     0.030 H 
ATOM     11  H   LIG d   1       6.469  -2.566  -3.865  0.00  0.00     0.030 H 
ATOM     12  H   LIG d   1       3.565  -2.847  -4.764  0.00  0.00     0.056 H 
ATOM     13  H   LIG d   1       4.357  -3.777  -3.469  0.00  0.00     0.056 H 
ENDROOT
BRANCH   4  14
ATOM     14  C   LIG d   1       7.055  -0.870  -5.889  0.00  0.00    -0.027 C 
ATOM     15  H   LIG d   1       7.130  -1.288  -6.893  0.00  0.00     0.029 H 
ATOM     16  H   LIG d   1       7.821  -1.313  -5.253  0.00  0.00     0.029 H 
BRANCH  14  17
ATOM     17  C   LIG d   1       7.255   0.645  -5.949  0.00  0.00     0.016 C 
ATOM     18  H   LIG d   1       6.295   1.144  -5.814  0.00  0.00     0.046 H 
ATOM     19  H   LIG d   1       7.938   0.953  -5.158  0.00  0.00     0.046 H 
BRANCH  17  20
ATOM     20  N   LIG d   1       7.818   1.012  -7.251  0.00  0.00    -0.294 N 
ATOM     21  C   LIG d   1       8.726   2.005  -7.336  0.00  0.00     0.213 C 
ATOM     22  O   LIG d   1       9.266   2.243  -8.395  0.00  0.00    -0.276 OA
BRANCH  20  23
ATOM     23  C   LIG d   1       7.395   0.301  -8.459  0.00  0.00     0.073 C 
ATOM     24  H   LIG d   1       8.201   0.317  -9.191  0.00  0.00     0.054 H 
ATOM     25  H   LIG d   1       7.153  -0.732  -8.207  0.00  0.00     0.054 H 
BRANCH  23  26
ATOM     26  C   LIG d   1       6.177   0.974  -9.038  0.00  0.00     0.122 A 
ATOM     27  O   LIG d   1       5.580   2.073  -8.549  0.00  0.00    -0.466 OA
ATOM     28  C   LIG d   1       4.528   2.392  -9.319  0.00  0.00     0.092 A 
ATOM     29  C   LIG d   1       4.436   1.486 -10.310  0.00  0.00    -0.024 A 
ATOM     30  H   LIG d   1       3.864   3.230  -9.167  0.00  0.00     0.103 H 
ATOM     31  C   LIG d   1       5.499   0.571 -10.128  0.00  0.00    -0.019 A 
ATOM     32  H   LIG d   1       3.693   1.461 -11.093  0.00  0.00     0.065 H 
ATOM     33  H   LIG d   1       5.725  -0.285 -10.747  0.00  0.00     0.065 H 
ENDBRANCH  23  26
ENDBRANCH  20  23
BRANCH  21  34
ATOM     34  C   LIG d   1       9.070   2.819  -6.116  0.00  0.00     0.012 C 
ATOM     35  H   LIG d   1       9.102   3.876  -6.382  0.00  0.00     0.032 H 
ATOM     36  H   LIG d   1       8.313   2.662  -5.348  0.00  0.00     0.032 H 
ATOM     37  H   LIG d   1      10.044   2.511  -5.735  0.00  0.00     0.032 H 
ENDBRANCH  21  34
ENDBRANCH  17  20
ENDBRANCH  14  17
ENDBRANCH   4  14
BRANCH   4  38
ATOM     38  C   LIG d   1       4.652  -1.184  -6.420  0.00  0.00     0.001 A 
ATOM     39  C   LIG d   1       4.682  -2.178  -7.387  0.00  0.00     0.124 A 
ATOM     40  C   LIG d   1       3.740  -2.179  -8.406  0.00  0.00    -0.020 A 
ATOM     41  C   LIG d   1       2.777  -1.191  -8.457  0.00  0.00    -0.058 A 
ATOM     42  H   LIG d   1       3.761  -2.953  -9.160  0.00  0.00     0.065 H 
ATOM     43  C   LIG d   1       2.749  -0.202  -7.491  0.00  0.00    -0.061 A 
ATOM     44  H   LIG d   1       2.044  -1.192  -9.250  0.00  0.00     0.062 H 
ATOM     45  C   LIG d   1       3.682  -0.200  -6.472  0.00  0.00    -0.055 A 
ATOM     46  H   LIG d   1       1.994   0.570  -7.532  0.00  0.00     0.062 H 
ATOM     47  H   LIG d   1       3.657   0.571  -5.717  0.00  0.00     0.062 H 
BRANCH  39  48
ATOM     48  O   LIG d   1       5.631  -3.150  -7.336  0.00  0.00    -0.495 OA
BRANCH  48  49
ATOM     49  C   LIG d   1       5.263  -4.442  -7.822  0.00  0.00     0.079 C 
ATOM     50  H   LIG d   1       4.303  -4.731  -7.395  0.00  0.00     0.066 H 
ATOM     51  H   LIG d   1       5.183  -4.412  -8.908  0.00  0.00     0.066 H 
ATOM     52  H   LIG d   1       6.022  -5.169  -7.533  0.00  0.00     0.066 H 
ENDBRANCH  48  49
ENDBRANCH  39  48
ENDBRANCH   4  38
BRANCH   1  53
ATOM     53  C   LIG d   1       3.600   0.549  -2.566  0.00  0.00    -0.020 C 
ATOM     54  H   LIG d   1       2.705   0.226  -2.035  0.00  0.00     0.032 H 
BRANCH  53  55
ATOM     55  C   LIG d   1       4.763   0.669  -1.580  0.00  0.00    -0.060 C 
ATOM     56  H   LIG d   1       4.838   1.699  -1.229  0.00  0.00     0.023 H 
ATOM     57  H   LIG d   1       4.590   0.008  -0.731  0.00  0.00     0.023 H 
ATOM     58  H   LIG d   1       5.692   0.387  -2.076  0.00  0.00     0.023 H 
ENDBRANCH  53  55
BRANCH  53  59
ATOM     59  C   LIG d   1       3.344   1.909  -3.220  0.00  0.00    -0.060 C 
ATOM     60  H   LIG d   1       3.040   1.764  -4.256  0.00  0.00     0.023 H 
ATOM     61  H   LIG d   1       2.554   2.430  -2.678  0.00  0.00     0.023 H 
ATOM     62  H   LIG d   1       4.258   2.504  -3.189  0.00  0.00     0.023 H 
ENDBRANCH  53  59
ENDBRANCH   1  53
TORSDOF 12
ENDMDL
MODEL 3
REMARK VINA RESULT:      -6.3      1.875      4.496
REMARK  12 active torsions:
REMARK  status: ('A' for Active; 'I' for Inactive)
REMARK    1  A    between atoms: C_1  and  C_2 
REMARK    2  A    between atoms: C_2  and  C_3 
REMARK    3  A    between atoms: C_2  and  C_4 
REMARK    4  A    between atoms: C_7  and  C_11 
REMARK    5  A    between atoms: C_7  and  C_23 
REMARK    6  A    between atoms: C_11  and  C_12 
REMARK    7  A    between atoms: C_12  and  N_13 
REMARK    8  A    between atoms: N_13  and  C_14 
REMARK       I    between atoms: N_13  and  C_20 
REMARK    9  A    between atoms: C_14  and  C_15 
REMARK   10  A    between atoms: C_20  and  C_22 
REMARK   11  A    between atoms: C_28  and  O_29 
REMARK   12  A    between atoms: O_29  and  C_30 
ROOT
ATOM      1  C   LIG d   1       7.456  -2.515  -5.279  0.00  0.00     0.062 C 
ATOM      2  H   LIG d   1       7.317  -2.311  -4.217  0.00  0.00     0.060 H 
ATOM      3  C   LIG d   1       6.638  -1.515  -6.101  0.00  0.00    -0.017 C 
ATOM      4  C   LIG d   1       5.151  -1.700  -5.782  0.00  0.00     0.005 C 
ATOM      5  C   LIG d   1       4.755  -3.150  -6.071  0.00  0.00    -0.019 C 
ATOM      6  C   LIG d   1       5.646  -4.087  -5.249  0.00  0.00     0.049 C 
ATOM      7  O   LIG d   1       7.016  -3.842  -5.572  0.00  0.00    -0.376 OA
ATOM      8  H   LIG d   1       6.808  -1.692  -7.164  0.00  0.00     0.030 H 
ATOM      9  H   LIG d   1       6.942  -0.499  -5.847  0.00  0.00     0.030 H 
ATOM     10  H   LIG d   1       3.711  -3.305  -5.794  0.00  0.00     0.030 H 
ATOM     11  H   LIG d   1       4.885  -3.360  -7.132  0.00  0.00     0.030 H 
ATOM     12  H   LIG d   1       5.483  -3.905  -4.187  0.00  0.00     0.056 H 
ATOM     13  H   LIG d   1       5.396  -5.122  -5.483  0.00  0.00     0.056 H 
ENDROOT
BRANCH   4  14
ATOM     14  C   LIG d   1       4.319  -0.759  -6.657  0.00  0.00    -0.027 C 
ATOM     15  H   LIG d   1       4.212   0.204  -6.155  0.00  0.00     0.029 H 
ATOM     16  H   LIG d   1       3.334  -1.193  -6.822  0.00  0.00     0.029 H 
BRANCH  14  17
ATOM     17  C   LIG d   1       5.021  -0.558  -8.001  0.00  0.00     0.016 C 
ATOM     18  H   LIG d   1       6.100  -0.626  -7.861  0.00  0.00     0.046 H 
ATOM     19  H   LIG d   1       4.696  -1.329  -8.699  0.00  0.00     0.046 H 
BRANCH  17  20
ATOM     20  N   LIG d   1       4.680   0.762  -8.538  0.00  0.00    -0.294 N 
ATOM     21  C   LIG d   1       5.658   1.640  -8.839  0.00  0.00     0.213 C 
ATOM     22  O   LIG d   1       5.383   2.693  -9.375  0.00  0.00    -0.276 OA
BRANCH  20  23
ATOM     23  C   LIG d   1       3.277   1.128  -8.748  0.00  0.00     0.073 C 
ATOM     24  H   LIG d   1       2.726   1.000  -7.817  0.00  0.00     0.054 H 
ATOM     25  H   LIG d   1       3.217   2.168  -9.066  0.00  0.00     0.054 H 
BRANCH  23  26
ATOM     26  C   LIG d   1       2.680   0.241  -9.811  0.00  0.00     0.122 A 
ATOM     27  O   LIG d   1       3.139   0.102 -11.066  0.00  0.00    -0.466 OA
ATOM     28  C   LIG d   1       2.365  -0.769 -11.731  0.00  0.00     0.092 A 
ATOM     29  C   LIG d   1       1.392  -1.192 -10.904  0.00  0.00    -0.024 A 
ATOM     30  H   LIG d   1       2.498  -1.076 -12.758  0.00  0.00     0.103 H 
ATOM     31  C   LIG d   1       1.595  -0.539  -9.666  0.00  0.00    -0.019 A 
ATOM     32  H   LIG d   1       0.605  -1.893 -11.140  0.00  0.00     0.065 H 
ATOM     33  H   LIG d   1       0.995  -0.649  -8.774  0.00  0.00     0.065 H 
ENDBRANCH  23  26
ENDBRANCH  20  23
BRANCH  21  34
ATOM     34  C   LIG d   1       7.091   1.314  -8.509  0.00  0.00     0.012 C 
ATOM     35  H   LIG d   1       7.296   0.274  -8.769  0.00  0.00     0.032 H 
ATOM     36  H   LIG d   1       7.753   1.967  -9.078  0.00  0.00     0.032 H 
ATOM     37  H   LIG d   1       7.262   1.463  -7.443  0.00  0.00     0.032 H 
ENDBRANCH  21  34
ENDBRANCH  17  20
ENDBRANCH  14  17
ENDBRANCH   4  14
BRANCH   4  38
ATOM     38  C   LIG d   1       4.903  -1.388  -4.329  0.00  0.00     0.001 A 
ATOM     39  C   LIG d   1       5.420  -0.229  -3.770  0.00  0.00     0.124 A 
ATOM     40  C   LIG d   1       5.189   0.055  -2.431  0.00  0.00    -0.020 A 
ATOM     41  C   LIG d   1       4.445  -0.816  -1.659  0.00  0.00    -0.058 A 
ATOM     42  H   LIG d   1       5.590   0.957  -1.993  0.00  0.00     0.065 H 
ATOM     43  C   LIG d   1       3.930  -1.970  -2.221  0.00  0.00    -0.061 A 
ATOM     44  H   LIG d   1       4.265  -0.595  -0.618  0.00  0.00     0.062 H 
ATOM     45  C   LIG d   1       4.154  -2.254  -3.555  0.00  0.00    -0.055 A 
ATOM     46  H   LIG d   1       3.348  -2.650  -1.615  0.00  0.00     0.062 H 
ATOM     47  H   LIG d   1       3.748  -3.154  -3.991  0.00  0.00     0.062 H 
BRANCH  39  48
ATOM     48  O   LIG d   1       6.152   0.627  -4.531  0.00  0.00    -0.495 OA
BRANCH  48  49
ATOM     49  C   LIG d   1       7.261   1.270  -3.900  0.00  0.00     0.079 C 
ATOM     50  H   LIG d   1       8.165   1.084  -4.478  0.00  0.00     0.066 H 
ATOM     51  H   LIG d   1       7.076   2.343  -3.847  0.00  0.00     0.066 H 
ATOM     52  H   LIG d   1       7.386   0.873  -2.892  0.00  0.00     0.066 H 
ENDBRANCH  48  49
ENDBRANCH  39  48
ENDBRANCH   4  38
BRANCH   1  53
ATOM     53  C   LIG d   1       8.937  -2.377  -5.636  0.00  0.00    -0.020 C 
ATOM     54  H   LIG d   1       9.535  -2.407  -4.725  0.00  0.00     0.032 H 
BRANCH  53  55
ATOM     55  C   LIG d   1       9.350  -3.529  -6.554  0.00  0.00    -0.060 C 
ATOM     56  H   LIG d   1       8.458  -3.997  -6.973  0.00  0.00     0.023 H 
ATOM     57  H   LIG d   1       9.972  -3.146  -7.362  0.00  0.00     0.023 H 
ATOM     58  H   LIG d   1       9.912  -4.267  -5.981  0.00  0.00     0.023 H 
ENDBRANCH  53  55
BRANCH  53  59
ATOM     59  C   LIG d   1       9.167  -1.046  -6.354  0.00  0.00    -0.060 C 
ATOM     60  H   LIG d   1       9.973  -1.157  -7.079  0.00  0.00     0.023 H 
ATOM     61  H   LIG d   1       8.253  -0.748  -6.869  0.00  0.00     0.023 H 
ATOM     62  H   LIG d   1       9.437  -0.281  -5.625  0.00  0.00     0.023 H 
ENDBRANCH  53  59
ENDBRANCH   1  53
TORSDOF 12
ENDMDL
MODEL 4
REMARK VINA RESULT:      -6.1      1.513      3.887
REMARK  12 active torsions:
REMARK  status: ('A' for Active; 'I' for Inactive)
REMARK    1  A    between atoms: C_1  and  C_2 
REMARK    2  A    between atoms: C_2  and  C_3 
REMARK    3  A    between atoms: C_2  and  C_4 
REMARK    4  A    between atoms: C_7  and  C_11 
REMARK    5  A    between atoms: C_7  and  C_23 
REMARK    6  A    between atoms: C_11  and  C_12 
REMARK    7  A    between atoms: C_12  and  N_13 
REMARK    8  A    between atoms: N_13  and  C_14 
REMARK       I    between atoms: N_13  and  C_20 
REMARK    9  A    between atoms: C_14  and  C_15 
REMARK   10  A    between atoms: C_20  and  C_22 
REMARK   11  A    between atoms: C_28  and  O_29 
REMARK   12  A    between atoms: O_29  and  C_30 
ROOT
ATOM      1  C   LIG d   1       7.406  -2.920  -5.076  0.00  0.00     0.062 C 
ATOM      2  H   LIG d   1       7.254  -2.636  -4.034  0.00  0.00     0.060 H 
ATOM      3  C   LIG d   1       6.678  -1.928  -5.987  0.00  0.00    -0.017 C 
ATOM      4  C   LIG d   1       5.174  -1.994  -5.703  0.00  0.00     0.005 C 
ATOM      5  C   LIG d   1       4.690  -3.433  -5.906  0.00  0.00    -0.019 C 
ATOM      6  C   LIG d   1       5.496  -4.367  -4.998  0.00  0.00     0.049 C 
ATOM      7  O   LIG d   1       6.887  -4.233  -5.294  0.00  0.00    -0.376 OA
ATOM      8  H   LIG d   1       6.864  -2.187  -7.030  0.00  0.00     0.030 H 
ATOM      9  H   LIG d   1       7.041  -0.919  -5.792  0.00  0.00     0.030 H 
ATOM     10  H   LIG d   1       3.632  -3.501  -5.652  0.00  0.00     0.030 H 
ATOM     11  H   LIG d   1       4.835  -3.722  -6.947  0.00  0.00     0.030 H 
ATOM     12  H   LIG d   1       5.317  -4.102  -3.956  0.00  0.00     0.056 H 
ATOM     13  H   LIG d   1       5.184  -5.397  -5.170  0.00  0.00     0.056 H 
ENDROOT
BRANCH   4  14
ATOM     14  C   LIG d   1       4.430  -1.063  -6.663  0.00  0.00    -0.027 C 
ATOM     15  H   LIG d   1       4.836  -0.055  -6.578  0.00  0.00     0.029 H 
ATOM     16  H   LIG d   1       3.370  -1.050  -6.407  0.00  0.00     0.029 H 
BRANCH  14  17
ATOM     17  C   LIG d   1       4.603  -1.565  -8.097  0.00  0.00     0.016 C 
ATOM     18  H   LIG d   1       5.194  -0.845  -8.665  0.00  0.00     0.046 H 
ATOM     19  H   LIG d   1       5.116  -2.526  -8.086  0.00  0.00     0.046 H 
BRANCH  17  20
ATOM     20  N   LIG d   1       3.287  -1.720  -8.723  0.00  0.00    -0.294 N 
ATOM     21  C   LIG d   1       2.992  -2.849  -9.398  0.00  0.00     0.213 C 
ATOM     22  O   LIG d   1       1.872  -3.021  -9.831  0.00  0.00    -0.276 OA
BRANCH  20  23
ATOM     23  C   LIG d   1       2.294  -0.650  -8.615  0.00  0.00     0.073 C 
ATOM     24  H   LIG d   1       1.413  -0.912  -9.199  0.00  0.00     0.054 H 
ATOM     25  H   LIG d   1       2.012  -0.520  -7.570  0.00  0.00     0.054 H 
BRANCH  23  26
ATOM     26  C   LIG d   1       2.881   0.636  -9.139  0.00  0.00     0.122 A 
ATOM     27  O   LIG d   1       3.394   0.821 -10.367  0.00  0.00    -0.466 OA
ATOM     28  C   LIG d   1       3.821   2.088 -10.486  0.00  0.00     0.092 A 
ATOM     29  C   LIG d   1       3.591   2.726  -9.324  0.00  0.00    -0.024 A 
ATOM     30  H   LIG d   1       4.276   2.521 -11.364  0.00  0.00     0.103 H 
ATOM     31  C   LIG d   1       2.985   1.789  -8.455  0.00  0.00    -0.019 A 
ATOM     32  H   LIG d   1       3.825   3.756  -9.097  0.00  0.00     0.065 H 
ATOM     33  H   LIG d   1       2.666   1.966  -7.439  0.00  0.00     0.065 H 
ENDBRANCH  23  26
ENDBRANCH  20  23
BRANCH  21  34
ATOM     34  C   LIG d   1       4.052  -3.897  -9.616  0.00  0.00     0.012 C 
ATOM     35  H   LIG d   1       4.993  -3.558  -9.179  0.00  0.00     0.032 H 
ATOM     36  H   LIG d   1       3.747  -4.829  -9.140  0.00  0.00     0.032 H 
ATOM     37  H   LIG d   1       4.187  -4.061 -10.685  0.00  0.00     0.032 H 
ENDBRANCH  21  34
ENDBRANCH  17  20
ENDBRANCH  14  17
ENDBRANCH   4  14
BRANCH   4  38
ATOM     38  C   LIG d   1       4.909  -1.569  -4.281  0.00  0.00     0.001 A 
ATOM     39  C   LIG d   1       5.436  -0.378  -3.804  0.00  0.00     0.124 A 
ATOM     40  C   LIG d   1       5.190   0.010  -2.495  0.00  0.00    -0.020 A 
ATOM     41  C   LIG d   1       4.421  -0.788  -1.671  0.00  0.00    -0.058 A 
ATOM     42  H   LIG d   1       5.598   0.937  -2.119  0.00  0.00     0.065 H 
ATOM     43  C   LIG d   1       3.896  -1.974  -2.151  0.00  0.00    -0.061 A 
ATOM     44  H   LIG d   1       4.228  -0.486  -0.653  0.00  0.00     0.062 H 
ATOM     45  C   LIG d   1       4.136  -2.362  -3.456  0.00  0.00    -0.055 A 
ATOM     46  H   LIG d   1       3.295  -2.597  -1.505  0.00  0.00     0.062 H 
ATOM     47  H   LIG d   1       3.722  -3.287  -3.829  0.00  0.00     0.062 H 
BRANCH  39  48
ATOM     48  O   LIG d   1       6.193   0.406  -4.616  0.00  0.00    -0.495 OA
BRANCH  48  49
ATOM     49  C   LIG d   1       7.255   1.139  -4.003  0.00  0.00     0.079 C 
ATOM     50  H   LIG d   1       7.581   0.621  -3.102  0.00  0.00     0.066 H 
ATOM     51  H   LIG d   1       8.090   1.218  -4.699  0.00  0.00     0.066 H 
ATOM     52  H   LIG d   1       6.904   2.138  -3.741  0.00  0.00     0.066 H 
ENDBRANCH  48  49
ENDBRANCH  39  48
ENDBRANCH   4  38
BRANCH   1  53
ATOM     53  C   LIG d   1       8.902  -2.902  -5.396  0.00  0.00    -0.020 C 
ATOM     54  H   LIG d   1       9.095  -3.526  -6.268  0.00  0.00     0.032 H 
BRANCH  53  55
ATOM     55  C   LIG d   1       9.344  -1.467  -5.689  0.00  0.00    -0.060 C 
ATOM     56  H   LIG d   1       9.508  -0.938  -4.749  0.00  0.00     0.023 H 
ATOM     57  H   LIG d   1      10.269  -1.481  -6.264  0.00  0.00     0.023 H 
ATOM     58  H   LIG d   1       8.569  -0.957  -6.261  0.00  0.00     0.023 H 
ENDBRANCH  53  55
BRANCH  53  59
ATOM     59  C   LIG d   1       9.686  -3.442  -4.197  0.00  0.00    -0.060 C 
ATOM     60  H   LIG d   1       9.095  -3.319  -3.290  0.00  0.00     0.023 H 
ATOM     61  H   LIG d   1       9.902  -4.499  -4.350  0.00  0.00     0.023 H 
ATOM     62  H   LIG d   1      10.622  -2.891  -4.098  0.00  0.00     0.023 H 
ENDBRANCH  53  59
ENDBRANCH   1  53
TORSDOF 12
ENDMDL
MODEL 5
REMARK VINA RESULT:      -6.1      1.270      2.243
REMARK  12 active torsions:
REMARK  status: ('A' for Active; 'I' for Inactive)
REMARK    1  A    between atoms: C_1  and  C_2 
REMARK    2  A    between atoms: C_2  and  C_3 
REMARK    3  A    between atoms: C_2  and  C_4 
REMARK    4  A    between atoms: C_7  and  C_11 
REMARK    5  A    between atoms: C_7  and  C_23 
REMARK    6  A    between atoms: C_11  and  C_12 
REMARK    7  A    between atoms: C_12  and  N_13 
REMARK    8  A    between atoms: N_13  and  C_14 
REMARK       I    between atoms: N_13  and  C_20 
REMARK    9  A    between atoms: C_14  and  C_15 
REMARK   10  A    between atoms: C_20  and  C_22 
REMARK   11  A    between atoms: C_28  and  O_29 
REMARK   12  A    between atoms: O_29  and  C_30 
ROOT
ATOM      1  C   LIG d   1       5.875  -0.731  -2.984  0.00  0.00     0.062 C 
ATOM      2  H   LIG d   1       6.726  -1.318  -2.636  0.00  0.00     0.060 H 
ATOM      3  C   LIG d   1       5.386  -1.285  -4.325  0.00  0.00    -0.017 C 
ATOM      4  C   LIG d   1       6.502  -1.145  -5.364  0.00  0.00     0.005 C 
ATOM      5  C   LIG d   1       6.914   0.327  -5.459  0.00  0.00    -0.019 C 
ATOM      6  C   LIG d   1       7.345   0.818  -4.074  0.00  0.00     0.049 C 
ATOM      7  O   LIG d   1       6.271   0.632  -3.149  0.00  0.00    -0.376 OA
ATOM      8  H   LIG d   1       4.510  -0.724  -4.652  0.00  0.00     0.030 H 
ATOM      9  H   LIG d   1       5.124  -2.337  -4.210  0.00  0.00     0.030 H 
ATOM     10  H   LIG d   1       7.747   0.428  -6.156  0.00  0.00     0.030 H 
ATOM     11  H   LIG d   1       6.071   0.920  -5.811  0.00  0.00     0.030 H 
ATOM     12  H   LIG d   1       8.215   0.252  -3.742  0.00  0.00     0.056 H 
ATOM     13  H   LIG d   1       7.599   1.877  -4.128  0.00  0.00     0.056 H 
ENDROOT
BRANCH   4  14
ATOM     14  C   LIG d   1       5.996  -1.624  -6.726  0.00  0.00    -0.027 C 
ATOM     15  H   LIG d   1       6.352  -2.639  -6.909  0.00  0.00     0.029 H 
ATOM     16  H   LIG d   1       6.372  -0.962  -7.506  0.00  0.00     0.029 H 
BRANCH  14  17
ATOM     17  C   LIG d   1       4.466  -1.609  -6.737  0.00  0.00     0.016 C 
ATOM     18  H   LIG d   1       4.097  -2.542  -7.162  0.00  0.00     0.046 H 
ATOM     19  H   LIG d   1       4.097  -1.504  -5.717  0.00  0.00     0.046 H 
BRANCH  17  20
ATOM     20  N   LIG d   1       3.995  -0.482  -7.546  0.00  0.00    -0.294 N 
ATOM     21  C   LIG d   1       3.236   0.480  -6.983  0.00  0.00     0.213 C 
ATOM     22  O   LIG d   1       2.928   1.462  -7.624  0.00  0.00    -0.276 OA
BRANCH  20  23
ATOM     23  C   LIG d   1       4.347  -0.401  -8.965  0.00  0.00     0.073 C 
ATOM     24  H   LIG d   1       4.574   0.632  -9.224  0.00  0.00     0.054 H 
ATOM     25  H   LIG d   1       5.219  -1.025  -9.159  0.00  0.00     0.054 H 
BRANCH  23  26
ATOM     26  C   LIG d   1       3.188  -0.886  -9.799  0.00  0.00     0.122 A 
ATOM     27  O   LIG d   1       2.389  -1.924  -9.505  0.00  0.00    -0.466 OA
ATOM     28  C   LIG d   1       1.464  -2.064 -10.468  0.00  0.00     0.092 A 
ATOM     29  C   LIG d   1       1.671  -1.114 -11.398  0.00  0.00    -0.024 A 
ATOM     30  H   LIG d   1       0.689  -2.815 -10.494  0.00  0.00     0.103 H 
ATOM     31  C   LIG d   1       2.783  -0.355 -10.967  0.00  0.00    -0.019 A 
ATOM     32  H   LIG d   1       1.099  -0.962 -12.301  0.00  0.00     0.065 H 
ATOM     33  H   LIG d   1       3.222   0.491 -11.476  0.00  0.00     0.065 H 
ENDBRANCH  23  26
ENDBRANCH  20  23
BRANCH  21  34
ATOM     34  C   LIG d   1       2.770   0.335  -5.557  0.00  0.00     0.012 C 
ATOM     35  H   LIG d   1       1.718   0.050  -5.547  0.00  0.00     0.032 H 
ATOM     36  H   LIG d   1       3.359  -0.434  -5.058  0.00  0.00     0.032 H 
ATOM     37  H   LIG d   1       2.894   1.285  -5.036  0.00  0.00     0.032 H 
ENDBRANCH  21  34
ENDBRANCH  17  20
ENDBRANCH  14  17
ENDBRANCH   4  14
BRANCH   4  38
ATOM     38  C   LIG d   1       7.688  -1.975  -4.946  0.00  0.00     0.001 A 
ATOM     39  C   LIG d   1       8.895  -1.847  -5.618  0.00  0.00     0.124 A 
ATOM     40  C   LIG d   1       9.986  -2.612  -5.231  0.00  0.00    -0.020 A 
ATOM     41  C   LIG d   1       9.868  -3.499  -4.178  0.00  0.00    -0.058 A 
ATOM     42  H   LIG d   1      10.928  -2.515  -5.751  0.00  0.00     0.065 H 
ATOM     43  C   LIG d   1       8.663  -3.624  -3.510  0.00  0.00    -0.061 A 
ATOM     44  H   LIG d   1      10.717  -4.094  -3.876  0.00  0.00     0.062 H 
ATOM     45  C   LIG d   1       7.576  -2.860  -3.891  0.00  0.00    -0.055 A 
ATOM     46  H   LIG d   1       8.573  -4.318  -2.687  0.00  0.00     0.062 H 
ATOM     47  H   LIG d   1       6.638  -2.956  -3.365  0.00  0.00     0.062 H 
BRANCH  39  48
ATOM     48  O   LIG d   1       9.010  -0.974  -6.653  0.00  0.00    -0.495 OA
BRANCH  48  49
ATOM     49  C   LIG d   1      10.292  -0.378  -6.861  0.00  0.00     0.079 C 
ATOM     50  H   LIG d   1      10.897  -0.499  -5.963  0.00  0.00     0.066 H 
ATOM     51  H   LIG d   1      10.787  -0.865  -7.701  0.00  0.00     0.066 H 
ATOM     52  H   LIG d   1      10.169   0.683  -7.076  0.00  0.00     0.066 H 
ENDBRANCH  48  49
ENDBRANCH  39  48
ENDBRANCH   4  38
BRANCH   1  53
ATOM     53  C   LIG d   1       4.745  -0.812  -1.955  0.00  0.00    -0.020 C 
ATOM     54  H   LIG d   1       5.166  -0.988  -0.966  0.00  0.00     0.032 H 
BRANCH  53  55
ATOM     55  C   LIG d   1       3.964   0.503  -1.950  0.00  0.00    -0.060 C 
ATOM     56  H   LIG d   1       3.982   0.941  -2.950  0.00  0.00     0.023 H 
ATOM     57  H   LIG d   1       2.932   0.313  -1.656  0.00  0.00     0.023 H 
ATOM     58  H   LIG d   1       4.422   1.195  -1.244  0.00  0.00     0.023 H 
ENDBRANCH  53  55
BRANCH  53  59
ATOM     59  C   LIG d   1       3.804  -1.962  -2.322  0.00  0.00    -0.060 C 
ATOM     60  H   LIG d   1       4.335  -2.909  -2.235  0.00  0.00     0.023 H 
ATOM     61  H   LIG d   1       2.948  -1.961  -1.647  0.00  0.00     0.023 H 
ATOM     62  H   LIG d   1       3.457  -1.834  -3.348  0.00  0.00     0.023 H 
ENDBRANCH  53  59
ENDBRANCH   1  53
TORSDOF 12
ENDMDL
MODEL 6
REMARK VINA RESULT:      -6.1      1.949      4.396
REMARK  12 active torsions:
REMARK  status: ('A' for Active; 'I' for Inactive)
REMARK    1  A    between atoms: C_1  and  C_2 
REMARK    2  A    between atoms: C_2  and  C_3 
REMARK    3  A    between atoms: C_2  and  C_4 
REMARK    4  A    between atoms: C_7  and  C_11 
REMARK    5  A    between atoms: C_7  and  C_23 
REMARK    6  A    between atoms: C_11  and  C_12 
REMARK    7  A    between atoms: C_12  and  N_13 
REMARK    8  A    between atoms: N_13  and  C_14 
REMARK       I    between atoms: N_13  and  C_20 
REMARK    9  A    between atoms: C_14  and  C_15 
REMARK   10  A    between atoms: C_20  and  C_22 
REMARK   11  A    between atoms: C_28  and  O_29 
REMARK   12  A    between atoms: O_29  and  C_30 
ROOT
ATOM      1  C   LIG d   1       7.656  -3.581  -4.542  0.00  0.00     0.062 C 
ATOM      2  H   LIG d   1       7.278  -3.292  -3.562  0.00  0.00     0.060 H 
ATOM      3  C   LIG d   1       7.419  -2.442  -5.538  0.00  0.00    -0.017 C 
ATOM      4  C   LIG d   1       5.913  -2.199  -5.673  0.00  0.00     0.005 C 
ATOM      5  C   LIG d   1       5.234  -3.501  -6.109  0.00  0.00    -0.019 C 
ATOM      6  C   LIG d   1       5.556  -4.600  -5.091  0.00  0.00     0.049 C 
ATOM      7  O   LIG d   1       6.973  -4.753  -4.991  0.00  0.00    -0.376 OA
ATOM      8  H   LIG d   1       7.834  -2.714  -6.508  0.00  0.00     0.030 H 
ATOM      9  H   LIG d   1       7.903  -1.535  -5.175  0.00  0.00     0.030 H 
ATOM     10  H   LIG d   1       4.155  -3.352  -6.154  0.00  0.00     0.030 H 
ATOM     11  H   LIG d   1       5.603  -3.794  -7.091  0.00  0.00     0.030 H 
ATOM     12  H   LIG d   1       5.149  -4.324  -4.118  0.00  0.00     0.056 H 
ATOM     13  H   LIG d   1       5.110  -5.539  -5.419  0.00  0.00     0.056 H 
ENDROOT
BRANCH   4  14
ATOM     14  C   LIG d   1       5.662  -1.115  -6.724  0.00  0.00    -0.027 C 
ATOM     15  H   LIG d   1       6.389  -1.215  -7.530  0.00  0.00     0.029 H 
ATOM     16  H   LIG d   1       5.764  -0.132  -6.263  0.00  0.00     0.029 H 
BRANCH  14  17
ATOM     17  C   LIG d   1       4.248  -1.269  -7.288  0.00  0.00     0.016 C 
ATOM     18  H   LIG d   1       4.261  -1.988  -8.108  0.00  0.00     0.046 H 
ATOM     19  H   LIG d   1       3.581  -1.625  -6.504  0.00  0.00     0.046 H 
BRANCH  17  20
ATOM     20  N   LIG d   1       3.775   0.027  -7.782  0.00  0.00    -0.294 N 
ATOM     21  C   LIG d   1       3.057   0.833  -6.975  0.00  0.00     0.213 C 
ATOM     22  O   LIG d   1       2.749   1.946  -7.347  0.00  0.00    -0.276 OA
BRANCH  20  23
ATOM     23  C   LIG d   1       4.083   0.446  -9.151  0.00  0.00     0.073 C 
ATOM     24  H   LIG d   1       3.995   1.529  -9.227  0.00  0.00     0.054 H 
ATOM     25  H   LIG d   1       5.100   0.145  -9.403  0.00  0.00     0.054 H 
BRANCH  23  26
ATOM     26  C   LIG d   1       3.115  -0.205 -10.106  0.00  0.00     0.122 A 
ATOM     27  O   LIG d   1       3.414  -0.676 -11.328  0.00  0.00    -0.466 OA
ATOM     28  C   LIG d   1       2.310  -1.191 -11.891  0.00  0.00     0.092 A 
ATOM     29  C   LIG d   1       1.285  -1.044 -11.032  0.00  0.00    -0.024 A 
ATOM     30  H   LIG d   1       2.252  -1.642 -12.871  0.00  0.00     0.103 H 
ATOM     31  C   LIG d   1       1.805  -0.408  -9.880  0.00  0.00    -0.019 A 
ATOM     32  H   LIG d   1       0.263  -1.351 -11.190  0.00  0.00     0.065 H 
ATOM     33  H   LIG d   1       1.255  -0.138  -8.990  0.00  0.00     0.065 H 
ENDBRANCH  23  26
ENDBRANCH  20  23
BRANCH  21  34
ATOM     34  C   LIG d   1       2.634   0.352  -5.611  0.00  0.00     0.012 C 
ATOM     35  H   LIG d   1       3.189  -0.552  -5.357  0.00  0.00     0.032 H 
ATOM     36  H   LIG d   1       2.842   1.125  -4.872  0.00  0.00     0.032 H 
ATOM     37  H   LIG d   1       1.566   0.133  -5.618  0.00  0.00     0.032 H 
ENDBRANCH  21  34
ENDBRANCH  17  20
ENDBRANCH  14  17
ENDBRANCH   4  14
BRANCH   4  38
ATOM     38  C   LIG d   1       5.350  -1.756  -4.347  0.00  0.00     0.001 A 
ATOM     39  C   LIG d   1       5.827  -0.602  -3.743  0.00  0.00     0.124 A 
ATOM     40  C   LIG d   1       5.306  -0.196  -2.522  0.00  0.00    -0.020 A 
ATOM     41  C   LIG d   1       4.316  -0.941  -1.912  0.00  0.00    -0.058 A 
ATOM     42  H   LIG d   1       5.674   0.702  -2.048  0.00  0.00     0.065 H 
ATOM     43  C   LIG d   1       3.842  -2.091  -2.519  0.00  0.00    -0.061 A 
ATOM     44  H   LIG d   1       3.910  -0.625  -0.963  0.00  0.00     0.062 H 
ATOM     45  C   LIG d   1       4.355  -2.495  -3.736  0.00  0.00    -0.055 A 
ATOM     46  H   LIG d   1       3.067  -2.672  -2.040  0.00  0.00     0.062 H 
ATOM     47  H   LIG d   1       3.982  -3.390  -4.209  0.00  0.00     0.062 H 
BRANCH  39  48
ATOM     48  O   LIG d   1       6.801   0.130  -4.344  0.00  0.00    -0.495 OA
BRANCH  48  49
ATOM     49  C   LIG d   1       7.207   1.333  -3.688  0.00  0.00     0.079 C 
ATOM     50  H   LIG d   1       7.918   1.867  -4.318  0.00  0.00     0.066 H 
ATOM     51  H   LIG d   1       6.335   1.961  -3.508  0.00  0.00     0.066 H 
ATOM     52  H   LIG d   1       7.680   1.086  -2.737  0.00  0.00     0.066 H 
ENDBRANCH  48  49
ENDBRANCH  39  48
ENDBRANCH   4  38
BRANCH   1  53
ATOM     53  C   LIG d   1       9.156  -3.870  -4.446  0.00  0.00    -0.020 C 
ATOM     54  H   LIG d   1       9.398  -4.742  -5.052  0.00  0.00     0.032 H 
BRANCH  53  55
ATOM     55  C   LIG d   1       9.942  -2.661  -4.957  0.00  0.00    -0.060 C 
ATOM     56  H   LIG d   1      10.740  -2.422  -4.253  0.00  0.00     0.023 H 
ATOM     57  H   LIG d   1      10.372  -2.891  -5.931  0.00  0.00     0.023 H 
ATOM     58  H   LIG d   1       9.273  -1.805  -5.049  0.00  0.00     0.023 H 
ENDBRANCH  53  55
BRANCH  53  59
ATOM     59  C   LIG d   1       9.530  -4.141  -2.987  0.00  0.00    -0.060 C 
ATOM     60  H   LIG d   1      10.510  -3.716  -2.777  0.00  0.00     0.023 H 
ATOM     61  H   LIG d   1       8.787  -3.687  -2.331  0.00  0.00     0.023 H 
ATOM     62  H   LIG d   1       9.556  -5.218  -2.813  0.00  0.00     0.023 H 
ENDBRANCH  53  59
ENDBRANCH   1  53
TORSDOF 12
ENDMDL
MODEL 7
REMARK VINA RESULT:      -6.1      1.809      2.874
REMARK  12 active torsions:
REMARK  status: ('A' for Active; 'I' for Inactive)
REMARK    1  A    between atoms: C_1  and  C_2 
REMARK    2  A    between atoms: C_2  and  C_3 
REMARK    3  A    between atoms: C_2  and  C_4 
REMARK    4  A    between atoms: C_7  and  C_11 
REMARK    5  A    between atoms: C_7  and  C_23 
REMARK    6  A    between atoms: C_11  and  C_12 
REMARK    7  A    between atoms: C_12  and  N_13 
REMARK    8  A    between atoms: N_13  and  C_14 
REMARK       I    between atoms: N_13  and  C_20 
REMARK    9  A    between atoms: C_14  and  C_15 
REMARK   10  A    between atoms: C_20  and  C_22 
REMARK   11  A    between atoms: C_28  and  O_29 
REMARK   12  A    between atoms: O_29  and  C_30 
ROOT
ATOM      1  C   LIG d   1       5.927  -0.971  -3.073  0.00  0.00     0.062 C 
ATOM      2  H   LIG d   1       6.710  -1.675  -2.790  0.00  0.00     0.060 H 
ATOM      3  C   LIG d   1       5.340  -1.376  -4.428  0.00  0.00    -0.017 C 
ATOM      4  C   LIG d   1       6.438  -1.302  -5.493  0.00  0.00     0.005 C 
ATOM      5  C   LIG d   1       7.020   0.114  -5.513  0.00  0.00    -0.019 C 
ATOM      6  C   LIG d   1       7.542   0.462  -4.115  0.00  0.00     0.049 C 
ATOM      7  O   LIG d   1       6.478   0.343  -3.168  0.00  0.00    -0.376 OA
ATOM      8  H   LIG d   1       4.529  -0.697  -4.692  0.00  0.00     0.030 H 
ATOM      9  H   LIG d   1       4.958  -2.396  -4.369  0.00  0.00     0.030 H 
ATOM     10  H   LIG d   1       7.840   0.161  -6.230  0.00  0.00     0.030 H 
ATOM     11  H   LIG d   1       6.244   0.823  -5.799  0.00  0.00     0.030 H 
ATOM     12  H   LIG d   1       8.346  -0.223  -3.847  0.00  0.00     0.056 H 
ATOM     13  H   LIG d   1       7.919   1.485  -4.113  0.00  0.00     0.056 H 
ENDROOT
BRANCH   4  14
ATOM     14  C   LIG d   1       5.844  -1.630  -6.865  0.00  0.00    -0.027 C 
ATOM     15  H   LIG d   1       6.101  -2.655  -7.136  0.00  0.00     0.029 H 
ATOM     16  H   LIG d   1       6.249  -0.945  -7.609  0.00  0.00     0.029 H 
BRANCH  14  17
ATOM     17  C   LIG d   1       4.322  -1.482  -6.810  0.00  0.00     0.016 C 
ATOM     18  H   LIG d   1       3.856  -2.346  -7.284  0.00  0.00     0.046 H 
ATOM     19  H   LIG d   1       4.000  -1.421  -5.771  0.00  0.00     0.046 H 
BRANCH  17  20
ATOM     20  N   LIG d   1       3.924  -0.262  -7.517  0.00  0.00    -0.294 N 
ATOM     21  C   LIG d   1       3.153   0.654  -6.897  0.00  0.00     0.213 C 
ATOM     22  O   LIG d   1       2.905   1.707  -7.445  0.00  0.00    -0.276 OA
BRANCH  20  23
ATOM     23  C   LIG d   1       4.364  -0.038  -8.896  0.00  0.00     0.073 C 
ATOM     24  H   LIG d   1       4.546   1.025  -9.051  0.00  0.00     0.054 H 
ATOM     25  H   LIG d   1       5.283  -0.595  -9.079  0.00  0.00     0.054 H 
BRANCH  23  26
ATOM     26  C   LIG d   1       3.294  -0.508  -9.848  0.00  0.00     0.122 A 
ATOM     27  O   LIG d   1       2.191  -1.197  -9.511  0.00  0.00    -0.466 OA
ATOM     28  C   LIG d   1       1.464  -1.443 -10.612  0.00  0.00     0.092 A 
ATOM     29  C   LIG d   1       2.105  -0.918 -11.672  0.00  0.00    -0.024 A 
ATOM     30  H   LIG d   1       0.525  -1.976 -10.643  0.00  0.00     0.103 H 
ATOM     31  C   LIG d   1       3.286  -0.315 -11.179  0.00  0.00    -0.019 A 
ATOM     32  H   LIG d   1       1.781  -0.950 -12.702  0.00  0.00     0.065 H 
ATOM     33  H   LIG d   1       4.036   0.202 -11.760  0.00  0.00     0.065 H 
ENDBRANCH  23  26
ENDBRANCH  20  23
BRANCH  21  34
ATOM     34  C   LIG d   1       2.598   0.369  -5.526  0.00  0.00     0.012 C 
ATOM     35  H   LIG d   1       1.774  -0.341  -5.609  0.00  0.00     0.032 H 
ATOM     36  H   LIG d   1       3.380  -0.055  -4.897  0.00  0.00     0.032 H 
ATOM     37  H   LIG d   1       2.235   1.296  -5.081  0.00  0.00     0.032 H 
ENDBRANCH  21  34
ENDBRANCH  17  20
ENDBRANCH  14  17
ENDBRANCH   4  14
BRANCH   4  38
ATOM     38  C   LIG d   1       7.528  -2.291  -5.167  0.00  0.00     0.001 A 
ATOM     39  C   LIG d   1       7.206  -3.611  -4.888  0.00  0.00     0.124 A 
ATOM     40  C   LIG d   1       8.211  -4.519  -4.588  0.00  0.00    -0.020 A 
ATOM     41  C   LIG d   1       9.529  -4.107  -4.568  0.00  0.00    -0.058 A 
ATOM     42  H   LIG d   1       7.964  -5.548  -4.371  0.00  0.00     0.065 H 
ATOM     43  C   LIG d   1       9.847  -2.790  -4.848  0.00  0.00    -0.061 A 
ATOM     44  H   LIG d   1      10.312  -4.813  -4.336  0.00  0.00     0.062 H 
ATOM     45  C   LIG d   1       8.848  -1.884  -5.151  0.00  0.00    -0.055 A 
ATOM     46  H   LIG d   1      10.878  -2.470  -4.831  0.00  0.00     0.062 H 
ATOM     47  H   LIG d   1       9.099  -0.858  -5.372  0.00  0.00     0.062 H 
BRANCH  39  48
ATOM     48  O   LIG d   1       5.908  -4.015  -4.909  0.00  0.00    -0.495 OA
BRANCH  48  49
ATOM     49  C   LIG d   1       5.595  -5.153  -5.714  0.00  0.00     0.079 C 
ATOM     50  H   LIG d   1       6.390  -5.892  -5.621  0.00  0.00     0.066 H 
ATOM     51  H   LIG d   1       4.654  -5.587  -5.379  0.00  0.00     0.066 H 
ATOM     52  H   LIG d   1       5.505  -4.847  -6.756  0.00  0.00     0.066 H 
ENDBRANCH  48  49
ENDBRANCH  39  48
ENDBRANCH   4  38
BRANCH   1  53
ATOM     53  C   LIG d   1       4.822  -0.986  -2.014  0.00  0.00    -0.020 C 
ATOM     54  H   LIG d   1       5.246  -1.264  -1.050  0.00  0.00     0.032 H 
BRANCH  53  55
ATOM     55  C   LIG d   1       4.194   0.406  -1.913  0.00  0.00    -0.060 C 
ATOM     56  H   LIG d   1       4.236   0.895  -2.887  0.00  0.00     0.023 H 
ATOM     57  H   LIG d   1       3.156   0.315  -1.596  0.00  0.00     0.023 H 
ATOM     58  H   LIG d   1       4.746   1.001  -1.185  0.00  0.00     0.023 H 
ENDBRANCH  53  55
BRANCH  53  59
ATOM     59  C   LIG d   1       3.748  -2.001  -2.412  0.00  0.00    -0.060 C 
ATOM     60  H   LIG d   1       2.837  -1.808  -1.847  0.00  0.00     0.023 H 
ATOM     61  H   LIG d   1       3.541  -1.911  -3.479  0.00  0.00     0.023 H 
ATOM     62  H   LIG d   1       4.103  -3.009  -2.196  0.00  0.00     0.023 H 
ENDBRANCH  53  59
ENDBRANCH   1  53
TORSDOF 12
ENDMDL
MODEL 8
REMARK VINA RESULT:      -6.1      1.495      3.266
REMARK  12 active torsions:
REMARK  status: ('A' for Active; 'I' for Inactive)
REMARK    1  A    between atoms: C_1  and  C_2 
REMARK    2  A    between atoms: C_2  and  C_3 
REMARK    3  A    between atoms: C_2  and  C_4 
REMARK    4  A    between atoms: C_7  and  C_11 
REMARK    5  A    between atoms: C_7  and  C_23 
REMARK    6  A    between atoms: C_11  and  C_12 
REMARK    7  A    between atoms: C_12  and  N_13 
REMARK    8  A    between atoms: N_13  and  C_14 
REMARK       I    between atoms: N_13  and  C_20 
REMARK    9  A    between atoms: C_14  and  C_15 
REMARK   10  A    between atoms: C_20  and  C_22 
REMARK   11  A    between atoms: C_28  and  O_29 
REMARK   12  A    between atoms: O_29  and  C_30 
ROOT
ATOM      1  C   LIG d   1       5.891  -0.008  -2.943  0.00  0.00     0.062 C 
ATOM      2  H   LIG d   1       6.596  -0.766  -2.603  0.00  0.00     0.060 H 
ATOM      3  C   LIG d   1       5.412  -0.352  -4.356  0.00  0.00    -0.017 C 
ATOM      4  C   LIG d   1       6.610  -0.334  -5.310  0.00  0.00     0.005 C 
ATOM      5  C   LIG d   1       7.281   1.041  -5.244  0.00  0.00    -0.019 C 
ATOM      6  C   LIG d   1       7.688   1.331  -3.796  0.00  0.00     0.049 C 
ATOM      7  O   LIG d   1       6.533   1.268  -2.957  0.00  0.00    -0.376 OA
ATOM      8  H   LIG d   1       4.676   0.384  -4.680  0.00  0.00     0.030 H 
ATOM      9  H   LIG d   1       4.961  -1.345  -4.356  0.00  0.00     0.030 H 
ATOM     10  H   LIG d   1       8.168   1.044  -5.879  0.00  0.00     0.030 H 
ATOM     11  H   LIG d   1       6.584   1.804  -5.587  0.00  0.00     0.030 H 
ATOM     12  H   LIG d   1       8.417   0.590  -3.468  0.00  0.00     0.056 H 
ATOM     13  H   LIG d   1       8.128   2.326  -3.736  0.00  0.00     0.056 H 
ENDROOT
BRANCH   4  14
ATOM     14  C   LIG d   1       6.130  -0.600  -6.739  0.00  0.00    -0.027 C 
ATOM     15  H   LIG d   1       6.748  -1.376  -7.191  0.00  0.00     0.029 H 
ATOM     16  H   LIG d   1       6.210   0.315  -7.325  0.00  0.00     0.029 H 
BRANCH  14  17
ATOM     17  C   LIG d   1       4.672  -1.062  -6.710  0.00  0.00     0.016 C 
ATOM     18  H   LIG d   1       4.515  -1.716  -5.852  0.00  0.00     0.046 H 
ATOM     19  H   LIG d   1       4.018  -0.194  -6.629  0.00  0.00     0.046 H 
BRANCH  17  20
ATOM     20  N   LIG d   1       4.365  -1.791  -7.943  0.00  0.00    -0.294 N 
ATOM     21  C   LIG d   1       3.321  -1.412  -8.708  0.00  0.00     0.213 C 
ATOM     22  O   LIG d   1       3.126  -1.951  -9.777  0.00  0.00    -0.276 OA
BRANCH  20  23
ATOM     23  C   LIG d   1       5.193  -2.931  -8.345  0.00  0.00     0.073 C 
ATOM     24  H   LIG d   1       4.803  -3.353  -9.271  0.00  0.00     0.054 H 
ATOM     25  H   LIG d   1       6.219  -2.597  -8.501  0.00  0.00     0.054 H 
BRANCH  23  26
ATOM     26  C   LIG d   1       5.165  -3.979  -7.262  0.00  0.00     0.122 A 
ATOM     27  O   LIG d   1       4.065  -4.578  -6.777  0.00  0.00    -0.466 OA
ATOM     28  C   LIG d   1       4.417  -5.458  -5.827  0.00  0.00     0.092 A 
ATOM     29  C   LIG d   1       5.754  -5.423  -5.689  0.00  0.00    -0.024 A 
ATOM     30  H   LIG d   1       3.740  -6.084  -5.265  0.00  0.00     0.103 H 
ATOM     31  C   LIG d   1       6.237  -4.468  -6.614  0.00  0.00    -0.019 A 
ATOM     32  H   LIG d   1       6.347  -6.009  -5.002  0.00  0.00     0.065 H 
ATOM     33  H   LIG d   1       7.268  -4.188  -6.772  0.00  0.00     0.065 H 
ENDBRANCH  23  26
ENDBRANCH  20  23
BRANCH  21  34
ATOM     34  C   LIG d   1       2.396  -0.322  -8.234  0.00  0.00     0.012 C 
ATOM     35  H   LIG d   1       2.828   0.651  -8.475  0.00  0.00     0.032 H 
ATOM     36  H   LIG d   1       1.431  -0.422  -8.729  0.00  0.00     0.032 H 
ATOM     37  H   LIG d   1       2.262  -0.402  -7.155  0.00  0.00     0.032 H 
ENDBRANCH  21  34
ENDBRANCH  17  20
ENDBRANCH  14  17
ENDBRANCH   4  14
BRANCH   4  38
ATOM     38  C   LIG d   1       7.597  -1.398  -4.904  0.00  0.00     0.001 A 
ATOM     39  C   LIG d   1       8.834  -1.470  -5.526  0.00  0.00     0.124 A 
ATOM     40  C   LIG d   1       9.741  -2.451  -5.149  0.00  0.00    -0.020 A 
ATOM     41  C   LIG d   1       9.410  -3.351  -4.156  0.00  0.00    -0.058 A 
ATOM     42  H   LIG d   1      10.706  -2.510  -5.632  0.00  0.00     0.065 H 
ATOM     43  C   LIG d   1       8.176  -3.275  -3.536  0.00  0.00    -0.061 A 
ATOM     44  H   LIG d   1      10.116  -4.114  -3.862  0.00  0.00     0.062 H 
ATOM     45  C   LIG d   1       7.272  -2.298  -3.907  0.00  0.00    -0.055 A 
ATOM     46  H   LIG d   1       7.919  -3.981  -2.760  0.00  0.00     0.062 H 
ATOM     47  H   LIG d   1       6.311  -2.238  -3.419  0.00  0.00     0.062 H 
BRANCH  39  48
ATOM     48  O   LIG d   1       9.158  -0.583  -6.504  0.00  0.00    -0.495 OA
BRANCH  48  49
ATOM     49  C   LIG d   1      10.529  -0.193  -6.597  0.00  0.00     0.079 C 
ATOM     50  H   LIG d   1      11.092  -0.645  -5.780  0.00  0.00     0.066 H 
ATOM     51  H   LIG d   1      10.939  -0.527  -7.550  0.00  0.00     0.066 H 
ATOM     52  H   LIG d   1      10.603   0.893  -6.530  0.00  0.00     0.066 H 
ENDBRANCH  48  49
ENDBRANCH  39  48
ENDBRANCH   4  38
BRANCH   1  53
ATOM     53  C   LIG d   1       4.691   0.035  -1.994  0.00  0.00    -0.020 C 
ATOM     54  H   LIG d   1       5.043   0.092  -0.965  0.00  0.00     0.032 H 
BRANCH  53  55
ATOM     55  C   LIG d   1       3.836   1.264  -2.309  0.00  0.00    -0.060 C 
ATOM     56  H   LIG d   1       2.914   1.224  -1.726  0.00  0.00     0.023 H 
ATOM     57  H   LIG d   1       4.388   2.167  -2.053  0.00  0.00     0.023 H 
ATOM     58  H   LIG d   1       3.593   1.275  -3.371  0.00  0.00     0.023 H 
ENDBRANCH  53  55
BRANCH  53  59
ATOM     59  C   LIG d   1       3.851  -1.231  -2.178  0.00  0.00    -0.060 C 
ATOM     60  H   LIG d   1       4.061  -1.669  -3.153  0.00  0.00     0.023 H 
ATOM     61  H   LIG d   1       4.099  -1.949  -1.395  0.00  0.00     0.023 H 
ATOM     62  H   LIG d   1       2.792  -0.977  -2.114  0.00  0.00     0.023 H 
ENDBRANCH  53  59
ENDBRANCH   1  53
TORSDOF 12
ENDMDL
MODEL 9
REMARK VINA RESULT:      -5.9      3.173      7.224
REMARK  12 active torsions:
REMARK  status: ('A' for Active; 'I' for Inactive)
REMARK    1  A    between atoms: C_1  and  C_2 
REMARK    2  A    between atoms: C_2  and  C_3 
REMARK    3  A    between atoms: C_2  and  C_4 
REMARK    4  A    between atoms: C_7  and  C_11 
REMARK    5  A    between atoms: C_7  and  C_23 
REMARK    6  A    between atoms: C_11  and  C_12 
REMARK    7  A    between atoms: C_12  and  N_13 
REMARK    8  A    between atoms: N_13  and  C_14 
REMARK       I    between atoms: N_13  and  C_20 
REMARK    9  A    between atoms: C_14  and  C_15 
REMARK   10  A    between atoms: C_20  and  C_22 
REMARK   11  A    between atoms: C_28  and  O_29 
REMARK   12  A    between atoms: O_29  and  C_30 
ROOT
ATOM      1  C   LIG d   1       4.641  -3.713  -5.890  0.00  0.00     0.062 C 
ATOM      2  H   LIG d   1       3.961  -3.173  -5.230  0.00  0.00     0.060 H 
ATOM      3  C   LIG d   1       5.919  -4.068  -5.125  0.00  0.00    -0.017 C 
ATOM      4  C   LIG d   1       6.620  -2.777  -4.691  0.00  0.00     0.005 C 
ATOM      5  C   LIG d   1       6.903  -1.921  -5.929  0.00  0.00    -0.019 C 
ATOM      6  C   LIG d   1       5.586  -1.649  -6.662  0.00  0.00     0.049 C 
ATOM      7  O   LIG d   1       4.972  -2.891  -7.011  0.00  0.00    -0.376 OA
ATOM      8  H   LIG d   1       6.582  -4.643  -5.772  0.00  0.00     0.030 H 
ATOM      9  H   LIG d   1       5.665  -4.659  -4.245  0.00  0.00     0.030 H 
ATOM     10  H   LIG d   1       7.352  -0.976  -5.623  0.00  0.00     0.030 H 
ATOM     11  H   LIG d   1       7.587  -2.452  -6.591  0.00  0.00     0.030 H 
ATOM     12  H   LIG d   1       4.920  -1.082  -6.013  0.00  0.00     0.056 H 
ATOM     13  H   LIG d   1       5.788  -1.076  -7.567  0.00  0.00     0.056 H 
ENDROOT
BRANCH   4  14
ATOM     14  C   LIG d   1       7.939  -3.120  -3.994  0.00  0.00    -0.027 C 
ATOM     15  H   LIG d   1       7.748  -3.334  -2.942  0.00  0.00     0.029 H 
ATOM     16  H   LIG d   1       8.623  -2.276  -4.074  0.00  0.00     0.029 H 
BRANCH  14  17
ATOM     17  C   LIG d   1       8.564  -4.348  -4.660  0.00  0.00     0.016 C 
ATOM     18  H   LIG d   1       7.777  -4.965  -5.095  0.00  0.00     0.046 H 
ATOM     19  H   LIG d   1       9.248  -4.026  -5.444  0.00  0.00     0.046 H 
BRANCH  17  20
ATOM     20  N   LIG d   1       9.299  -5.126  -3.659  0.00  0.00    -0.294 N 
ATOM     21  C   LIG d   1       9.192  -6.470  -3.639  0.00  0.00     0.213 C 
ATOM     22  O   LIG d   1       9.875  -7.120  -2.877  0.00  0.00    -0.276 OA
BRANCH  20  23
ATOM     23  C   LIG d   1      10.149  -4.443  -2.680  0.00  0.00     0.073 C 
ATOM     24  H   LIG d   1       9.669  -3.517  -2.366  0.00  0.00     0.054 H 
ATOM     25  H   LIG d   1      10.295  -5.089  -1.814  0.00  0.00     0.054 H 
BRANCH  23  26
ATOM     26  C   LIG d   1      11.484  -4.132  -3.306  0.00  0.00     0.122 A 
ATOM     27  O   LIG d   1      12.515  -4.985  -3.423  0.00  0.00    -0.466 OA
ATOM     28  C   LIG d   1      13.539  -4.369  -4.033  0.00  0.00     0.092 A 
ATOM     29  C   LIG d   1      13.173  -3.103  -4.305  0.00  0.00    -0.024 A 
ATOM     30  H   LIG d   1      14.497  -4.812  -4.262  0.00  0.00     0.103 H 
ATOM     31  C   LIG d   1      11.848  -2.950  -3.835  0.00  0.00    -0.019 A 
ATOM     32  H   LIG d   1      13.776  -2.348  -4.788  0.00  0.00     0.065 H 
ATOM     33  H   LIG d   1      11.243  -2.057  -3.893  0.00  0.00     0.065 H 
ENDBRANCH  23  26
ENDBRANCH  20  23
BRANCH  21  34
ATOM     34  C   LIG d   1       8.224  -7.163  -4.563  0.00  0.00     0.012 C 
ATOM     35  H   LIG d   1       7.283  -7.336  -4.038  0.00  0.00     0.032 H 
ATOM     36  H   LIG d   1       8.043  -6.537  -5.436  0.00  0.00     0.032 H 
ATOM     37  H   LIG d   1       8.644  -8.118  -4.880  0.00  0.00     0.032 H 
ENDBRANCH  21  34
ENDBRANCH  17  20
ENDBRANCH  14  17
ENDBRANCH   4  14
BRANCH   4  38
ATOM     38  C   LIG d   1       5.733  -2.014  -3.742  0.00  0.00     0.001 A 
ATOM     39  C   LIG d   1       6.087  -0.736  -3.337  0.00  0.00     0.124 A 
ATOM     40  C   LIG d   1       5.267  -0.036  -2.463  0.00  0.00    -0.020 A 
ATOM     41  C   LIG d   1       4.101  -0.612  -2.000  0.00  0.00    -0.058 A 
ATOM     42  H   LIG d   1       5.540   0.960  -2.146  0.00  0.00     0.065 H 
ATOM     43  C   LIG d   1       3.749  -1.886  -2.408  0.00  0.00    -0.061 A 
ATOM     44  H   LIG d   1       3.462  -0.067  -1.321  0.00  0.00     0.062 H 
ATOM     45  C   LIG d   1       4.562  -2.585  -3.280  0.00  0.00    -0.055 A 
ATOM     46  H   LIG d   1       2.837  -2.335  -2.044  0.00  0.00     0.062 H 
ATOM     47  H   LIG d   1       4.284  -3.578  -3.599  0.00  0.00     0.062 H 
BRANCH  39  48
ATOM     48  O   LIG d   1       7.235  -0.170  -3.793  0.00  0.00    -0.495 OA
BRANCH  48  49
ATOM     49  C   LIG d   1       7.309   1.256  -3.773  0.00  0.00     0.079 C 
ATOM     50  H   LIG d   1       6.571   1.667  -4.461  0.00  0.00     0.066 H 
ATOM     51  H   LIG d   1       7.105   1.616  -2.764  0.00  0.00     0.066 H 
ATOM     52  H   LIG d   1       8.306   1.574  -4.078  0.00  0.00     0.066 H 
ENDBRANCH  48  49
ENDBRANCH  39  48
ENDBRANCH   4  38
BRANCH   1  53
ATOM     53  C   LIG d   1       3.966  -4.996  -6.379  0.00  0.00    -0.020 C 
ATOM     54  H   LIG d   1       2.931  -5.014  -6.040  0.00  0.00     0.032 H 
BRANCH  53  55
ATOM     55  C   LIG d   1       4.002  -5.040  -7.908  0.00  0.00    -0.060 C 
ATOM     56  H   LIG d   1       3.144  -5.604  -8.275  0.00  0.00     0.023 H 
ATOM     57  H   LIG d   1       3.966  -4.026  -8.302  0.00  0.00     0.023 H 
ATOM     58  H   LIG d   1       4.922  -5.525  -8.235  0.00  0.00     0.023 H 
ENDBRANCH  53  55
BRANCH  53  59
ATOM     59  C   LIG d   1       4.710  -6.209  -5.816  0.00  0.00    -0.060 C 
ATOM     60  H   LIG d   1       4.484  -7.087  -6.420  0.00  0.00     0.023 H 
ATOM     61  H   LIG d   1       5.783  -6.019  -5.836  0.00  0.00     0.023 H 
ATOM     62  H   LIG d   1       4.392  -6.385  -4.787  0.00  0.00     0.023 H 
ENDBRANCH  53  59
ENDBRANCH   1  53
TORSDOF 12
ENDMDL
MODEL 10
REMARK VINA RESULT:      -5.8      2.116      4.476
REMARK  12 active torsions:
REMARK  status: ('A' for Active; 'I' for Inactive)
REMARK    1  A    between atoms: C_1  and  C_2 
REMARK    2  A    between atoms: C_2  and  C_3 
REMARK    3  A    between atoms: C_2  and  C_4 
REMARK    4  A    between atoms: C_7  and  C_11 
REMARK    5  A    between atoms: C_7  and  C_23 
REMARK    6  A    between atoms: C_11  and  C_12 
REMARK    7  A    between atoms: C_12  and  N_13 
REMARK    8  A    between atoms: N_13  and  C_14 
REMARK       I    between atoms: N_13  and  C_20 
REMARK    9  A    between atoms: C_14  and  C_15 
REMARK   10  A    between atoms: C_20  and  C_22 
REMARK   11  A    between atoms: C_28  and  O_29 
REMARK   12  A    between atoms: O_29  and  C_30 
ROOT
ATOM      1  C   LIG d   1       7.338  -0.360  -4.784  0.00  0.00     0.062 C 
ATOM      2  H   LIG d   1       6.664  -0.099  -3.968  0.00  0.00     0.060 H 
ATOM      3  C   LIG d   1       6.522  -0.704  -6.032  0.00  0.00    -0.017 C 
ATOM      4  C   LIG d   1       5.650  -1.929  -5.741  0.00  0.00     0.005 C 
ATOM      5  C   LIG d   1       6.548  -3.087  -5.297  0.00  0.00    -0.019 C 
ATOM      6  C   LIG d   1       7.364  -2.651  -4.076  0.00  0.00     0.049 C 
ATOM      7  O   LIG d   1       8.128  -1.489  -4.407  0.00  0.00    -0.376 OA
ATOM      8  H   LIG d   1       7.197  -0.925  -6.860  0.00  0.00     0.030 H 
ATOM      9  H   LIG d   1       5.886   0.141  -6.296  0.00  0.00     0.030 H 
ATOM     10  H   LIG d   1       5.931  -3.947  -5.034  0.00  0.00     0.030 H 
ATOM     11  H   LIG d   1       7.222  -3.358  -6.109  0.00  0.00     0.030 H 
ATOM     12  H   LIG d   1       6.689  -2.421  -3.252  0.00  0.00     0.056 H 
ATOM     13  H   LIG d   1       8.036  -3.457  -3.782  0.00  0.00     0.056 H 
ENDROOT
BRANCH   4  14
ATOM     14  C   LIG d   1       4.888  -2.328  -7.006  0.00  0.00    -0.027 C 
ATOM     15  H   LIG d   1       4.885  -1.493  -7.707  0.00  0.00     0.029 H 
ATOM     16  H   LIG d   1       3.861  -2.587  -6.746  0.00  0.00     0.029 H 
BRANCH  14  17
ATOM     17  C   LIG d   1       5.569  -3.535  -7.653  0.00  0.00     0.016 C 
ATOM     18  H   LIG d   1       6.358  -3.191  -8.322  0.00  0.00     0.046 H 
ATOM     19  H   LIG d   1       6.002  -4.167  -6.877  0.00  0.00     0.046 H 
BRANCH  17  20
ATOM     20  N   LIG d   1       4.582  -4.304  -8.415  0.00  0.00    -0.294 N 
ATOM     21  C   LIG d   1       3.863  -5.268  -7.806  0.00  0.00     0.213 C 
ATOM     22  O   LIG d   1       2.978  -5.837  -8.409  0.00  0.00    -0.276 OA
BRANCH  20  23
ATOM     23  C   LIG d   1       4.376  -4.024  -9.838  0.00  0.00     0.073 C 
ATOM     24  H   LIG d   1       5.341  -3.910 -10.329  0.00  0.00     0.054 H 
ATOM     25  H   LIG d   1       3.831  -4.851 -10.295  0.00  0.00     0.054 H 
BRANCH  23  26
ATOM     26  C   LIG d   1       3.580  -2.753  -9.990  0.00  0.00     0.122 A 
ATOM     27  O   LIG d   1       4.071  -1.557 -10.354  0.00  0.00    -0.466 OA
ATOM     28  C   LIG d   1       3.077  -0.657 -10.389  0.00  0.00     0.092 A 
ATOM     29  C   LIG d   1       1.933  -1.271 -10.035  0.00  0.00    -0.024 A 
ATOM     30  H   LIG d   1       3.178   0.386 -10.651  0.00  0.00     0.103 H 
ATOM     31  C   LIG d   1       2.258  -2.623  -9.777  0.00  0.00    -0.019 A 
ATOM     32  H   LIG d   1       0.956  -0.819  -9.961  0.00  0.00     0.065 H 
ATOM     33  H   LIG d   1       1.575  -3.402  -9.471  0.00  0.00     0.065 H 
ENDBRANCH  23  26
ENDBRANCH  20  23
BRANCH  21  34
ATOM     34  C   LIG d   1       4.160  -5.641  -6.377  0.00  0.00     0.012 C 
ATOM     35  H   LIG d   1       5.236  -5.588  -6.204  0.00  0.00     0.032 H 
ATOM     36  H   LIG d   1       3.651  -4.949  -5.706  0.00  0.00     0.032 H 
ATOM     37  H   LIG d   1       3.812  -6.656  -6.186  0.00  0.00     0.032 H 
ENDBRANCH  21  34
ENDBRANCH  17  20
ENDBRANCH  14  17
ENDBRANCH   4  14
BRANCH   4  38
ATOM     38  C   LIG d   1       4.669  -1.602  -4.644  0.00  0.00     0.001 A 
ATOM     39  C   LIG d   1       3.839  -0.497  -4.762  0.00  0.00     0.124 A 
ATOM     40  C   LIG d   1       2.937  -0.199  -3.750  0.00  0.00    -0.020 A 
ATOM     41  C   LIG d   1       2.867  -1.003  -2.629  0.00  0.00    -0.058 A 
ATOM     42  H   LIG d   1       2.289   0.660  -3.839  0.00  0.00     0.065 H 
ATOM     43  C   LIG d   1       3.695  -2.105  -2.516  0.00  0.00    -0.061 A 
ATOM     44  H   LIG d   1       2.165  -0.772  -1.843  0.00  0.00     0.062 H 
ATOM     45  C   LIG d   1       4.592  -2.407  -3.523  0.00  0.00    -0.055 A 
ATOM     46  H   LIG d   1       3.639  -2.733  -1.638  0.00  0.00     0.062 H 
ATOM     47  H   LIG d   1       5.235  -3.269  -3.434  0.00  0.00     0.062 H 
BRANCH  39  48
ATOM     48  O   LIG d   1       3.909   0.293  -5.865  0.00  0.00    -0.495 OA
BRANCH  48  49
ATOM     49  C   LIG d   1       2.719   0.427  -6.644  0.00  0.00     0.079 C 
ATOM     50  H   LIG d   1       2.089   1.204  -6.213  0.00  0.00     0.066 H 
ATOM     51  H   LIG d   1       2.982   0.698  -7.666  0.00  0.00     0.066 H 
ATOM     52  H   LIG d   1       2.178  -0.519  -6.646  0.00  0.00     0.066 H 
ENDBRANCH  48  49
ENDBRANCH  39  48
ENDBRANCH   4  38
BRANCH   1  53
ATOM     53  C   LIG d   1       8.256   0.826  -5.086  0.00  0.00    -0.020 C 
ATOM     54  H   LIG d   1       9.296   0.506  -5.028  0.00  0.00     0.032 H 
BRANCH  53  55
ATOM     55  C   LIG d   1       7.963   1.353  -6.493  0.00  0.00    -0.060 C 
ATOM     56  H   LIG d   1       8.236   0.595  -7.228  0.00  0.00     0.023 H 
ATOM     57  H   LIG d   1       6.901   1.581  -6.582  0.00  0.00     0.023 H 
ATOM     58  H   LIG d   1       8.545   2.257  -6.671  0.00  0.00     0.023 H 
ENDBRANCH  53  55
BRANCH  53  59
ATOM     59  C   LIG d   1       8.006   1.938  -4.064  0.00  0.00    -0.060 C 
ATOM     60  H   LIG d   1       7.829   1.498  -3.083  0.00  0.00     0.023 H 
ATOM     61  H   LIG d   1       8.877   2.592  -4.018  0.00  0.00     0.023 H 
ATOM     62  H   LIG d   1       7.133   2.518  -4.365  0.00  0.00     0.023 H 
ENDBRANCH  53  59
ENDBRANCH   1  53
TORSDOF 12
ENDMDL
