MODEL 1
REMARK VINA RESULT:      -6.8      0.000      0.000
REMARK  9 active torsions:
REMARK  status: ('A' for Active; 'I' for Inactive)
REMARK    1  A    between atoms: C_1  and  C_2 
REMARK    2  A    between atoms: C_4  and  O_19 
REMARK    3  A    between atoms: C_11  and  C_12 
REMARK    4  A    between atoms: O_19  and  C_20 
REMARK    5  A    between atoms: C_20  and  C_22 
REMARK    6  A    between atoms: C_23  and  O_30 
REMARK    7  A    between atoms: C_27  and  O_28 
REMARK    8  A    between atoms: O_28  and  C_29 
REMARK    9  A    between atoms: O_30  and  C_31 
ROOT
ATOM      1  C   LIG d   1       8.852   2.603  -7.005  0.00  0.00    -0.033 A 
ATOM      2  C   LIG d   1       8.239   1.399  -6.802  0.00  0.00    -0.015 A 
ATOM      3  C   LIG d   1       8.004   0.944  -5.507  0.00  0.00     0.136 A 
ATOM      4  C   LIG d   1       8.387   1.703  -4.413  0.00  0.00     0.024 A 
ATOM      5  C   LIG d   1       9.012   2.929  -4.603  0.00  0.00     0.143 A 
ATOM      6  C   LIG d   1       9.243   3.378  -5.913  0.00  0.00     0.071 A 
ATOM      7  C   LIG d   1       9.904   4.690  -5.792  0.00  0.00     0.232 A 
ATOM      8  O   LIG d   1      10.273   5.425  -6.691  0.00  0.00    -0.283 OA
ATOM      9  C   LIG d   1      10.021   4.912  -4.342  0.00  0.00     0.176 A 
ATOM     10  C   LIG d   1      10.570   5.995  -3.738  0.00  0.00    -0.007 C 
ATOM     11  O   LIG d   1       9.474   3.841  -3.720  0.00  0.00    -0.451 OA
ATOM     12  H   LIG d   1       7.937   0.799  -7.647  0.00  0.00     0.066 H 
ATOM     13  H   LIG d   1       8.200   1.341  -3.413  0.00  0.00     0.069 H 
ATOM     14  H   LIG d   1      10.903   6.833  -4.332  0.00  0.00     0.066 H 
ENDROOT
BRANCH   3  15
ATOM     15  O   LIG d   1       7.394  -0.253  -5.316  0.00  0.00    -0.422 OA
BRANCH  15  16
ATOM     16  C   LIG d   1       6.047  -0.272  -5.380  0.00  0.00     0.352 C 
ATOM     17  O   LIG d   1       5.477   0.246  -6.320  0.00  0.00    -0.244 OA
BRANCH  16  18
ATOM     18  C   LIG d   1       5.268  -0.918  -4.312  0.00  0.00     0.142 A 
ATOM     19  C   LIG d   1       5.071  -2.306  -4.322  0.00  0.00     0.138 A 
ATOM     20  C   LIG d   1       4.336  -2.904  -3.311  0.00  0.00    -0.019 A 
ATOM     21  C   LIG d   1       3.799  -2.137  -2.295  0.00  0.00    -0.055 A 
ATOM     22  H   LIG d   1       4.183  -3.973  -3.317  0.00  0.00     0.065 H 
ATOM     23  C   LIG d   1       3.988  -0.768  -2.274  0.00  0.00    -0.019 A 
ATOM     24  H   LIG d   1       3.228  -2.612  -1.511  0.00  0.00     0.062 H 
ATOM     25  C   LIG d   1       4.723  -0.149  -3.272  0.00  0.00     0.138 A 
ATOM     26  H   LIG d   1       3.564  -0.178  -1.474  0.00  0.00     0.065 H 
BRANCH  19  27
ATOM     27  O   LIG d   1       5.597  -3.062  -5.319  0.00  0.00    -0.494 OA
BRANCH  27  28
ATOM     28  C   LIG d   1       4.676  -3.753  -6.164  0.00  0.00     0.079 C 
ATOM     29  H   LIG d   1       4.836  -3.452  -7.199  0.00  0.00     0.066 H 
ATOM     30  H   LIG d   1       4.832  -4.829  -6.069  0.00  0.00     0.066 H 
ATOM     31  H   LIG d   1       3.657  -3.508  -5.868  0.00  0.00     0.066 H 
ENDBRANCH  27  28
ENDBRANCH  19  27
BRANCH  25  32
ATOM     32  O   LIG d   1       4.911   1.194  -3.247  0.00  0.00    -0.494 OA
BRANCH  32  33
ATOM     33  C   LIG d   1       3.759   2.006  -3.012  0.00  0.00     0.079 C 
ATOM     34  H   LIG d   1       3.056   1.464  -2.381  0.00  0.00     0.066 H 
ATOM     35  H   LIG d   1       4.059   2.927  -2.515  0.00  0.00     0.066 H 
ATOM     36  H   LIG d   1       3.283   2.246  -3.963  0.00  0.00     0.066 H 
ENDBRANCH  32  33
ENDBRANCH  25  32
ENDBRANCH  16  18
ENDBRANCH  15  16
ENDBRANCH   3  15
BRANCH   1  37
ATOM     37  C   LIG d   1       9.107   3.093  -8.408  0.00  0.00    -0.039 C 
ATOM     38  H   LIG d   1       8.569   4.028  -8.568  0.00  0.00     0.028 H 
ATOM     39  H   LIG d   1      10.175   3.261  -8.546  0.00  0.00     0.028 H 
ATOM     40  H   LIG d   1       8.760   2.347  -9.122  0.00  0.00     0.028 H 
ENDBRANCH   1  37
BRANCH  10  41
ATOM     41  C   LIG d   1      10.714   6.028  -2.276  0.00  0.00    -0.003 A 
ATOM     42  C   LIG d   1       9.850   6.799  -1.492  0.00  0.00     0.035 A 
ATOM     43  N   LIG d   1       9.981   6.827  -0.182  0.00  0.00    -0.263 NA
ATOM     44  H   LIG d   1       9.069   7.377  -1.965  0.00  0.00     0.084 H 
ATOM     45  C   LIG d   1      10.920   6.140   0.439  0.00  0.00     0.028 A 
ATOM     46  C   LIG d   1      11.816   5.352  -0.263  0.00  0.00    -0.043 A 
ATOM     47  H   LIG d   1      10.991   6.193   1.516  0.00  0.00     0.083 H 
ATOM     48  C   LIG d   1      11.723   5.285  -1.641  0.00  0.00    -0.052 A 
ATOM     49  H   LIG d   1      12.578   4.794   0.259  0.00  0.00     0.063 H 
ATOM     50  H   LIG d   1      12.408   4.679  -2.214  0.00  0.00     0.062 H 
ENDBRANCH  10  41
TORSDOF 9
ENDMDL
MODEL 2
REMARK VINA RESULT:      -6.8      0.078      2.257
REMARK  9 active torsions:
REMARK  status: ('A' for Active; 'I' for Inactive)
REMARK    1  A    between atoms: C_1  and  C_2 
REMARK    2  A    between atoms: C_4  and  O_19 
REMARK    3  A    between atoms: C_11  and  C_12 
REMARK    4  A    between atoms: O_19  and  C_20 
REMARK    5  A    between atoms: C_20  and  C_22 
REMARK    6  A    between atoms: C_23  and  O_30 
REMARK    7  A    between atoms: C_27  and  O_28 
REMARK    8  A    between atoms: O_28  and  C_29 
REMARK    9  A    between atoms: O_30  and  C_31 
ROOT
ATOM      1  C   LIG d   1       8.895   2.614  -6.943  0.00  0.00    -0.033 A 
ATOM      2  C   LIG d   1       8.274   1.413  -6.745  0.00  0.00    -0.015 A 
ATOM      3  C   LIG d   1       8.030   0.956  -5.453  0.00  0.00     0.136 A 
ATOM      4  C   LIG d   1       8.410   1.712  -4.355  0.00  0.00     0.024 A 
ATOM      5  C   LIG d   1       9.042   2.935  -4.539  0.00  0.00     0.143 A 
ATOM      6  C   LIG d   1       9.284   3.385  -5.846  0.00  0.00     0.071 A 
ATOM      7  C   LIG d   1       9.950   4.694  -5.719  0.00  0.00     0.232 A 
ATOM      8  O   LIG d   1      10.328   5.429  -6.615  0.00  0.00    -0.283 OA
ATOM      9  C   LIG d   1      10.059   4.912  -4.268  0.00  0.00     0.176 A 
ATOM     10  C   LIG d   1      10.610   5.991  -3.659  0.00  0.00    -0.007 C 
ATOM     11  O   LIG d   1       9.504   3.843  -3.651  0.00  0.00    -0.451 OA
ATOM     12  H   LIG d   1       7.975   0.816  -7.593  0.00  0.00     0.066 H 
ATOM     13  H   LIG d   1       8.216   1.348  -3.357  0.00  0.00     0.069 H 
ATOM     14  H   LIG d   1      10.951   6.829  -4.250  0.00  0.00     0.066 H 
ENDROOT
BRANCH   3  15
ATOM     15  O   LIG d   1       7.413  -0.239  -5.267  0.00  0.00    -0.422 OA
BRANCH  15  16
ATOM     16  C   LIG d   1       6.067  -0.250  -5.339  0.00  0.00     0.352 C 
ATOM     17  O   LIG d   1       5.505   0.265  -6.285  0.00  0.00    -0.244 OA
BRANCH  16  18
ATOM     18  C   LIG d   1       5.279  -0.886  -4.272  0.00  0.00     0.142 A 
ATOM     19  C   LIG d   1       4.729  -0.110  -3.241  0.00  0.00     0.138 A 
ATOM     20  C   LIG d   1       3.988  -0.719  -2.241  0.00  0.00    -0.019 A 
ATOM     21  C   LIG d   1       3.789  -2.087  -2.258  0.00  0.00    -0.055 A 
ATOM     22  H   LIG d   1       3.565  -0.124  -1.446  0.00  0.00     0.065 H 
ATOM     23  C   LIG d   1       4.325  -2.861  -3.270  0.00  0.00    -0.019 A 
ATOM     24  H   LIG d   1       3.210  -2.553  -1.475  0.00  0.00     0.062 H 
ATOM     25  C   LIG d   1       5.066  -2.273  -4.282  0.00  0.00     0.138 A 
ATOM     26  H   LIG d   1       4.163  -3.929  -3.273  0.00  0.00     0.065 H 
BRANCH  19  27
ATOM     27  O   LIG d   1       4.923   1.233  -3.222  0.00  0.00    -0.494 OA
BRANCH  27  28
ATOM     28  C   LIG d   1       3.772   2.052  -3.011  0.00  0.00     0.079 C 
ATOM     29  H   LIG d   1       3.888   2.611  -2.083  0.00  0.00     0.066 H 
ATOM     30  H   LIG d   1       3.663   2.748  -3.844  0.00  0.00     0.066 H 
ATOM     31  H   LIG d   1       2.885   1.422  -2.947  0.00  0.00     0.066 H 
ENDBRANCH  27  28
ENDBRANCH  19  27
BRANCH  25  32
ATOM     32  O   LIG d   1       5.586  -3.035  -5.277  0.00  0.00    -0.494 OA
BRANCH  32  33
ATOM     33  C   LIG d   1       4.676  -3.865  -6.002  0.00  0.00     0.079 C 
ATOM     34  H   LIG d   1       3.734  -3.335  -6.140  0.00  0.00     0.066 H 
ATOM     35  H   LIG d   1       5.103  -4.109  -6.974  0.00  0.00     0.066 H 
ATOM     36  H   LIG d   1       4.498  -4.784  -5.443  0.00  0.00     0.066 H 
ENDBRANCH  32  33
ENDBRANCH  25  32
ENDBRANCH  16  18
ENDBRANCH  15  16
ENDBRANCH   3  15
BRANCH   1  37
ATOM     37  C   LIG d   1       9.160   3.106  -8.343  0.00  0.00    -0.039 C 
ATOM     38  H   LIG d   1       8.814   2.362  -9.060  0.00  0.00     0.028 H 
ATOM     39  H   LIG d   1       8.627   4.042  -8.506  0.00  0.00     0.028 H 
ATOM     40  H   LIG d   1      10.230   3.269  -8.474  0.00  0.00     0.028 H 
ENDBRANCH   1  37
BRANCH  10  41
ATOM     41  C   LIG d   1      10.746   6.020  -2.196  0.00  0.00    -0.003 A 
ATOM     42  C   LIG d   1       9.884   6.798  -1.415  0.00  0.00     0.035 A 
ATOM     43  N   LIG d   1      10.008   6.823  -0.105  0.00  0.00    -0.263 NA
ATOM     44  H   LIG d   1       9.111   7.383  -1.892  0.00  0.00     0.084 H 
ATOM     45  C   LIG d   1      10.938   6.127   0.521  0.00  0.00     0.028 A 
ATOM     46  C   LIG d   1      11.830   5.332  -0.178  0.00  0.00    -0.043 A 
ATOM     47  H   LIG d   1      11.002   6.177   1.598  0.00  0.00     0.083 H 
ATOM     48  C   LIG d   1      11.745   5.268  -1.556  0.00  0.00    -0.052 A 
ATOM     49  H   LIG d   1      12.584   4.767   0.348  0.00  0.00     0.063 H 
ATOM     50  H   LIG d   1      12.428   4.657  -2.126  0.00  0.00     0.062 H 
ENDBRANCH  10  41
TORSDOF 9
ENDMDL
MODEL 3
REMARK VINA RESULT:      -6.6      2.156      3.975
REMARK  9 active torsions:
REMARK  status: ('A' for Active; 'I' for Inactive)
REMARK    1  A    between atoms: C_1  and  C_2 
REMARK    2  A    between atoms: C_4  and  O_19 
REMARK    3  A    between atoms: C_11  and  C_12 
REMARK    4  A    between atoms: O_19  and  C_20 
REMARK    5  A    between atoms: C_20  and  C_22 
REMARK    6  A    between atoms: C_23  and  O_30 
REMARK    7  A    between atoms: C_27  and  O_28 
REMARK    8  A    between atoms: O_28  and  C_29 
REMARK    9  A    between atoms: O_30  and  C_31 
ROOT
ATOM      1  C   LIG d   1       8.606  -1.386  -5.125  0.00  0.00    -0.033 A 
ATOM      2  C   LIG d   1       7.529  -1.942  -4.493  0.00  0.00    -0.015 A 
ATOM      3  C   LIG d   1       6.730  -1.166  -3.659  0.00  0.00     0.136 A 
ATOM      4  C   LIG d   1       7.015   0.176  -3.460  0.00  0.00     0.024 A 
ATOM      5  C   LIG d   1       8.105   0.757  -4.095  0.00  0.00     0.143 A 
ATOM      6  C   LIG d   1       8.904  -0.037  -4.934  0.00  0.00     0.071 A 
ATOM      7  C   LIG d   1       9.961   0.847  -5.459  0.00  0.00     0.232 A 
ATOM      8  O   LIG d   1      10.861   0.558  -6.228  0.00  0.00    -0.283 OA
ATOM      9  C   LIG d   1       9.686   2.156  -4.844  0.00  0.00     0.176 A 
ATOM     10  C   LIG d   1      10.400   3.294  -5.028  0.00  0.00    -0.007 C 
ATOM     11  O   LIG d   1       8.587   2.019  -4.067  0.00  0.00    -0.451 OA
ATOM     12  H   LIG d   1       7.300  -2.986  -4.640  0.00  0.00     0.066 H 
ATOM     13  H   LIG d   1       6.388   0.770  -2.811  0.00  0.00     0.069 H 
ATOM     14  H   LIG d   1      11.214   3.312  -5.739  0.00  0.00     0.066 H 
ENDROOT
BRANCH   3  15
ATOM     15  O   LIG d   1       5.663  -1.727  -3.035  0.00  0.00    -0.422 OA
BRANCH  15  16
ATOM     16  C   LIG d   1       4.653  -2.155  -3.818  0.00  0.00     0.352 C 
ATOM     17  O   LIG d   1       4.288  -3.312  -3.761  0.00  0.00    -0.244 OA
BRANCH  16  18
ATOM     18  C   LIG d   1       3.992  -1.220  -4.743  0.00  0.00     0.142 A 
ATOM     19  C   LIG d   1       3.175  -0.194  -4.246  0.00  0.00     0.138 A 
ATOM     20  C   LIG d   1       2.558   0.680  -5.126  0.00  0.00    -0.019 A 
ATOM     21  C   LIG d   1       2.746   0.545  -6.488  0.00  0.00    -0.055 A 
ATOM     22  H   LIG d   1       1.928   1.471  -4.745  0.00  0.00     0.065 H 
ATOM     23  C   LIG d   1       3.549  -0.462  -6.989  0.00  0.00    -0.019 A 
ATOM     24  H   LIG d   1       2.260   1.231  -7.166  0.00  0.00     0.062 H 
ATOM     25  C   LIG d   1       4.180  -1.346  -6.128  0.00  0.00     0.138 A 
ATOM     26  H   LIG d   1       3.689  -0.558  -8.055  0.00  0.00     0.065 H 
BRANCH  19  27
ATOM     27  O   LIG d   1       2.989  -0.059  -2.909  0.00  0.00    -0.494 OA
BRANCH  27  28
ATOM     28  C   LIG d   1       3.594   1.073  -2.281  0.00  0.00     0.079 C 
ATOM     29  H   LIG d   1       4.648   1.118  -2.552  0.00  0.00     0.066 H 
ATOM     30  H   LIG d   1       3.093   1.983  -2.611  0.00  0.00     0.066 H 
ATOM     31  H   LIG d   1       3.501   0.981  -1.199  0.00  0.00     0.066 H 
ENDBRANCH  27  28
ENDBRANCH  19  27
BRANCH  25  32
ATOM     32  O   LIG d   1       4.972  -2.330  -6.622  0.00  0.00    -0.494 OA
BRANCH  32  33
ATOM     33  C   LIG d   1       5.758  -2.013  -7.773  0.00  0.00     0.079 C 
ATOM     34  H   LIG d   1       5.363  -1.115  -8.245  0.00  0.00     0.066 H 
ATOM     35  H   LIG d   1       6.791  -1.842  -7.471  0.00  0.00     0.066 H 
ATOM     36  H   LIG d   1       5.719  -2.843  -8.479  0.00  0.00     0.066 H 
ENDBRANCH  32  33
ENDBRANCH  25  32
ENDBRANCH  16  18
ENDBRANCH  15  16
ENDBRANCH   3  15
BRANCH   1  37
ATOM     37  C   LIG d   1       9.471  -2.229  -6.027  0.00  0.00    -0.039 C 
ATOM     38  H   LIG d   1       8.954  -3.161  -6.258  0.00  0.00     0.028 H 
ATOM     39  H   LIG d   1       9.670  -1.686  -6.951  0.00  0.00     0.028 H 
ATOM     40  H   LIG d   1      10.412  -2.450  -5.525  0.00  0.00     0.028 H 
ENDBRANCH   1  37
BRANCH  10  41
ATOM     41  C   LIG d   1      10.069   4.502  -4.261  0.00  0.00    -0.003 A 
ATOM     42  C   LIG d   1      10.368   4.584  -2.896  0.00  0.00     0.035 A 
ATOM     43  N   LIG d   1      10.070   5.668  -2.211  0.00  0.00    -0.263 NA
ATOM     44  H   LIG d   1      10.847   3.752  -2.402  0.00  0.00     0.084 H 
ATOM     45  C   LIG d   1       9.484   6.709  -2.771  0.00  0.00     0.028 A 
ATOM     46  C   LIG d   1       9.155   6.708  -4.115  0.00  0.00    -0.043 A 
ATOM     47  H   LIG d   1       9.257   7.577  -2.169  0.00  0.00     0.083 H 
ATOM     48  C   LIG d   1       9.446   5.596  -4.883  0.00  0.00    -0.052 A 
ATOM     49  H   LIG d   1       8.677   7.567  -4.560  0.00  0.00     0.063 H 
ATOM     50  H   LIG d   1       9.199   5.568  -5.935  0.00  0.00     0.062 H 
ENDBRANCH  10  41
TORSDOF 9
ENDMDL
MODEL 4
REMARK VINA RESULT:      -6.6      6.082      8.306
REMARK  9 active torsions:
REMARK  status: ('A' for Active; 'I' for Inactive)
REMARK    1  A    between atoms: C_1  and  C_2 
REMARK    2  A    between atoms: C_4  and  O_19 
REMARK    3  A    between atoms: C_11  and  C_12 
REMARK    4  A    between atoms: O_19  and  C_20 
REMARK    5  A    between atoms: C_20  and  C_22 
REMARK    6  A    between atoms: C_23  and  O_30 
REMARK    7  A    between atoms: C_27  and  O_28 
REMARK    8  A    between atoms: O_28  and  C_29 
REMARK    9  A    between atoms: O_30  and  C_31 
ROOT
ATOM      1  C   LIG d   1       5.185  -1.682  -3.183  0.00  0.00    -0.033 A 
ATOM      2  C   LIG d   1       6.430  -2.242  -3.115  0.00  0.00    -0.015 A 
ATOM      3  C   LIG d   1       7.258  -2.243  -4.235  0.00  0.00     0.136 A 
ATOM      4  C   LIG d   1       6.832  -1.677  -5.426  0.00  0.00     0.024 A 
ATOM      5  C   LIG d   1       5.570  -1.105  -5.512  0.00  0.00     0.143 A 
ATOM      6  C   LIG d   1       4.743  -1.111  -4.377  0.00  0.00     0.071 A 
ATOM      7  C   LIG d   1       3.492  -0.437  -4.770  0.00  0.00     0.232 A 
ATOM      8  O   LIG d   1       2.510  -0.225  -4.080  0.00  0.00    -0.283 OA
ATOM      9  C   LIG d   1       3.694  -0.080  -6.184  0.00  0.00     0.176 A 
ATOM     10  C   LIG d   1       2.806   0.559  -6.983  0.00  0.00    -0.007 C 
ATOM     11  O   LIG d   1       4.930  -0.501  -6.538  0.00  0.00    -0.451 OA
ATOM     12  H   LIG d   1       6.771  -2.686  -2.193  0.00  0.00     0.066 H 
ATOM     13  H   LIG d   1       7.483  -1.683  -6.289  0.00  0.00     0.069 H 
ATOM     14  H   LIG d   1       1.876   0.926  -6.573  0.00  0.00     0.066 H 
ENDROOT
BRANCH   3  15
ATOM     15  O   LIG d   1       8.493  -2.801  -4.158  0.00  0.00    -0.422 OA
BRANCH  15  16
ATOM     16  C   LIG d   1       8.815  -3.707  -5.103  0.00  0.00     0.352 C 
ATOM     17  O   LIG d   1       9.452  -3.365  -6.079  0.00  0.00    -0.244 OA
BRANCH  16  18
ATOM     18  C   LIG d   1       8.395  -5.109  -4.952  0.00  0.00     0.142 A 
ATOM     19  C   LIG d   1       9.052  -5.949  -4.041  0.00  0.00     0.138 A 
ATOM     20  C   LIG d   1       8.647  -7.267  -3.908  0.00  0.00    -0.019 A 
ATOM     21  C   LIG d   1       7.600  -7.754  -4.667  0.00  0.00    -0.055 A 
ATOM     22  H   LIG d   1       9.152  -7.917  -3.208  0.00  0.00     0.065 H 
ATOM     23  C   LIG d   1       6.945  -6.935  -5.566  0.00  0.00    -0.019 A 
ATOM     24  H   LIG d   1       7.291  -8.784  -4.555  0.00  0.00     0.062 H 
ATOM     25  C   LIG d   1       7.329  -5.612  -5.714  0.00  0.00     0.138 A 
ATOM     26  H   LIG d   1       6.127  -7.326  -6.153  0.00  0.00     0.065 H 
BRANCH  19  27
ATOM     27  O   LIG d   1      10.080  -5.474  -3.295  0.00  0.00    -0.494 OA
BRANCH  27  28
ATOM     28  C   LIG d   1       9.836  -5.280  -1.901  0.00  0.00     0.079 C 
ATOM     29  H   LIG d   1      10.479  -4.484  -1.527  0.00  0.00     0.066 H 
ATOM     30  H   LIG d   1       8.791  -5.006  -1.750  0.00  0.00     0.066 H 
ATOM     31  H   LIG d   1      10.049  -6.204  -1.363  0.00  0.00     0.066 H 
ENDBRANCH  27  28
ENDBRANCH  19  27
BRANCH  25  32
ATOM     32  O   LIG d   1       6.681  -4.808  -6.594  0.00  0.00    -0.494 OA
BRANCH  32  33
ATOM     33  C   LIG d   1       5.256  -4.754  -6.494  0.00  0.00     0.079 C 
ATOM     34  H   LIG d   1       4.949  -5.091  -5.505  0.00  0.00     0.066 H 
ATOM     35  H   LIG d   1       4.920  -3.730  -6.651  0.00  0.00     0.066 H 
ATOM     36  H   LIG d   1       4.814  -5.401  -7.252  0.00  0.00     0.066 H 
ENDBRANCH  32  33
ENDBRANCH  25  32
ENDBRANCH  16  18
ENDBRANCH  15  16
ENDBRANCH   3  15
BRANCH   1  37
ATOM     37  C   LIG d   1       4.289  -1.684  -1.971  0.00  0.00    -0.039 C 
ATOM     38  H   LIG d   1       3.433  -2.334  -2.153  0.00  0.00     0.028 H 
ATOM     39  H   LIG d   1       4.846  -2.052  -1.109  0.00  0.00     0.028 H 
ATOM     40  H   LIG d   1       3.942  -0.670  -1.774  0.00  0.00     0.028 H 
ENDBRANCH   1  37
BRANCH  10  41
ATOM     41  C   LIG d   1       3.106   0.752  -8.409  0.00  0.00    -0.003 A 
ATOM     42  C   LIG d   1       2.957  -0.301  -9.318  0.00  0.00     0.035 A 
ATOM     43  N   LIG d   1       3.227  -0.126 -10.594  0.00  0.00    -0.263 NA
ATOM     44  H   LIG d   1       2.617  -1.265  -8.969  0.00  0.00     0.084 H 
ATOM     45  C   LIG d   1       3.645   1.033 -11.066  0.00  0.00     0.028 A 
ATOM     46  C   LIG d   1       3.819   2.125 -10.233  0.00  0.00    -0.043 A 
ATOM     47  H   LIG d   1       3.855   1.132 -12.121  0.00  0.00     0.083 H 
ATOM     48  C   LIG d   1       3.549   1.997  -8.883  0.00  0.00    -0.052 A 
ATOM     49  H   LIG d   1       4.160   3.068 -10.634  0.00  0.00     0.063 H 
ATOM     50  H   LIG d   1       3.677   2.833  -8.211  0.00  0.00     0.062 H 
ENDBRANCH  10  41
TORSDOF 9
ENDMDL
MODEL 5
REMARK VINA RESULT:      -6.5      6.046      8.309
REMARK  9 active torsions:
REMARK  status: ('A' for Active; 'I' for Inactive)
REMARK    1  A    between atoms: C_1  and  C_2 
REMARK    2  A    between atoms: C_4  and  O_19 
REMARK    3  A    between atoms: C_11  and  C_12 
REMARK    4  A    between atoms: O_19  and  C_20 
REMARK    5  A    between atoms: C_20  and  C_22 
REMARK    6  A    between atoms: C_23  and  O_30 
REMARK    7  A    between atoms: C_27  and  O_28 
REMARK    8  A    between atoms: O_28  and  C_29 
REMARK    9  A    between atoms: O_30  and  C_31 
ROOT
ATOM      1  C   LIG d   1       5.111  -1.574  -3.243  0.00  0.00    -0.033 A 
ATOM      2  C   LIG d   1       6.306  -2.229  -3.145  0.00  0.00    -0.015 A 
ATOM      3  C   LIG d   1       7.124  -2.364  -4.263  0.00  0.00     0.136 A 
ATOM      4  C   LIG d   1       6.738  -1.837  -5.485  0.00  0.00     0.024 A 
ATOM      5  C   LIG d   1       5.526  -1.169  -5.603  0.00  0.00     0.143 A 
ATOM      6  C   LIG d   1       4.710  -1.039  -4.468  0.00  0.00     0.071 A 
ATOM      7  C   LIG d   1       3.516  -0.290  -4.900  0.00  0.00     0.232 A 
ATOM      8  O   LIG d   1       2.558   0.042  -4.222  0.00  0.00    -0.283 OA
ATOM      9  C   LIG d   1       3.737  -0.035  -6.332  0.00  0.00     0.176 A 
ATOM     10  C   LIG d   1       2.899   0.626  -7.168  0.00  0.00    -0.007 C 
ATOM     11  O   LIG d   1       4.932  -0.577  -6.663  0.00  0.00    -0.451 OA
ATOM     12  H   LIG d   1       6.615  -2.643  -2.197  0.00  0.00     0.066 H 
ATOM     13  H   LIG d   1       7.381  -1.947  -6.347  0.00  0.00     0.069 H 
ATOM     14  H   LIG d   1       2.005   1.092  -6.779  0.00  0.00     0.066 H 
ENDROOT
BRANCH   3  15
ATOM     15  O   LIG d   1       8.309  -3.016  -4.154  0.00  0.00    -0.422 OA
BRANCH  15  16
ATOM     16  C   LIG d   1       8.599  -3.922  -5.110  0.00  0.00     0.352 C 
ATOM     17  O   LIG d   1       9.173  -3.575  -6.122  0.00  0.00    -0.244 OA
BRANCH  16  18
ATOM     18  C   LIG d   1       8.219  -5.332  -4.925  0.00  0.00     0.142 A 
ATOM     19  C   LIG d   1       7.090  -5.850  -5.577  0.00  0.00     0.138 A 
ATOM     20  C   LIG d   1       6.742  -7.179  -5.397  0.00  0.00    -0.019 A 
ATOM     21  C   LIG d   1       7.503  -7.993  -4.578  0.00  0.00    -0.055 A 
ATOM     22  H   LIG d   1       5.873  -7.580  -5.897  0.00  0.00     0.065 H 
ATOM     23  C   LIG d   1       8.617  -7.493  -3.932  0.00  0.00    -0.019 A 
ATOM     24  H   LIG d   1       7.223  -9.027  -4.444  0.00  0.00     0.062 H 
ATOM     25  C   LIG d   1       8.987  -6.168  -4.101  0.00  0.00     0.138 A 
ATOM     26  H   LIG d   1       9.204  -8.138  -3.295  0.00  0.00     0.065 H 
BRANCH  19  27
ATOM     27  O   LIG d   1       6.342  -5.054  -6.381  0.00  0.00    -0.494 OA
BRANCH  27  28
ATOM     28  C   LIG d   1       4.945  -4.970  -6.093  0.00  0.00     0.079 C 
ATOM     29  H   LIG d   1       4.797  -4.407  -5.172  0.00  0.00     0.066 H 
ATOM     30  H   LIG d   1       4.434  -4.466  -6.914  0.00  0.00     0.066 H 
ATOM     31  H   LIG d   1       4.538  -5.974  -5.975  0.00  0.00     0.066 H 
ENDBRANCH  27  28
ENDBRANCH  19  27
BRANCH  25  32
ATOM     32  O   LIG d   1      10.084  -5.681  -3.469  0.00  0.00    -0.494 OA
BRANCH  32  33
ATOM     33  C   LIG d   1       9.996  -5.514  -2.052  0.00  0.00     0.079 C 
ATOM     34  H   LIG d   1      10.924  -5.848  -1.590  0.00  0.00     0.066 H 
ATOM     35  H   LIG d   1       9.832  -4.463  -1.821  0.00  0.00     0.066 H 
ATOM     36  H   LIG d   1       9.164  -6.105  -1.667  0.00  0.00     0.066 H 
ENDBRANCH  32  33
ENDBRANCH  25  32
ENDBRANCH  16  18
ENDBRANCH  15  16
ENDBRANCH   3  15
BRANCH   1  37
ATOM     37  C   LIG d   1       4.226  -1.430  -2.032  0.00  0.00    -0.039 C 
ATOM     38  H   LIG d   1       4.734  -0.824  -1.282  0.00  0.00     0.028 H 
ATOM     39  H   LIG d   1       3.293  -0.945  -2.319  0.00  0.00     0.028 H 
ATOM     40  H   LIG d   1       4.012  -2.416  -1.619  0.00  0.00     0.028 H 
ENDBRANCH   1  37
BRANCH  10  41
ATOM     41  C   LIG d   1       3.205   0.709  -8.602  0.00  0.00    -0.003 A 
ATOM     42  C   LIG d   1       4.025   1.729  -9.099  0.00  0.00     0.035 A 
ATOM     43  N   LIG d   1       4.296   1.801 -10.385  0.00  0.00    -0.263 NA
ATOM     44  H   LIG d   1       4.436   2.462  -8.422  0.00  0.00     0.084 H 
ATOM     45  C   LIG d   1       3.815   0.928 -11.250  0.00  0.00     0.028 A 
ATOM     46  C   LIG d   1       2.997  -0.111 -10.840  0.00  0.00    -0.043 A 
ATOM     47  H   LIG d   1       4.065   1.026 -12.297  0.00  0.00     0.083 H 
ATOM     48  C   LIG d   1       2.679  -0.234  -9.500  0.00  0.00    -0.052 A 
ATOM     49  H   LIG d   1       2.612  -0.818 -11.559  0.00  0.00     0.063 H 
ATOM     50  H   LIG d   1       2.043  -1.035  -9.153  0.00  0.00     0.062 H 
ENDBRANCH  10  41
TORSDOF 9
ENDMDL
MODEL 6
REMARK VINA RESULT:      -6.4      1.839      2.834
REMARK  9 active torsions:
REMARK  status: ('A' for Active; 'I' for Inactive)
REMARK    1  A    between atoms: C_1  and  C_2 
REMARK    2  A    between atoms: C_4  and  O_19 
REMARK    3  A    between atoms: C_11  and  C_12 
REMARK    4  A    between atoms: O_19  and  C_20 
REMARK    5  A    between atoms: C_20  and  C_22 
REMARK    6  A    between atoms: C_23  and  O_30 
REMARK    7  A    between atoms: C_27  and  O_28 
REMARK    8  A    between atoms: O_28  and  C_29 
REMARK    9  A    between atoms: O_30  and  C_31 
ROOT
ATOM      1  C   LIG d   1      10.169   0.543  -5.011  0.00  0.00    -0.033 A 
ATOM      2  C   LIG d   1       8.950   0.247  -5.555  0.00  0.00    -0.015 A 
ATOM      3  C   LIG d   1       7.887   1.135  -5.414  0.00  0.00     0.136 A 
ATOM      4  C   LIG d   1       8.051   2.326  -4.724  0.00  0.00     0.024 A 
ATOM      5  C   LIG d   1       9.283   2.641  -4.165  0.00  0.00     0.143 A 
ATOM      6  C   LIG d   1      10.347   1.738  -4.313  0.00  0.00     0.071 A 
ATOM      7  C   LIG d   1      11.504   2.343  -3.629  0.00  0.00     0.232 A 
ATOM      8  O   LIG d   1      12.631   1.888  -3.524  0.00  0.00    -0.283 OA
ATOM      9  C   LIG d   1      10.995   3.618  -3.099  0.00  0.00     0.176 A 
ATOM     10  C   LIG d   1      11.701   4.529  -2.386  0.00  0.00    -0.007 C 
ATOM     11  O   LIG d   1       9.693   3.717  -3.457  0.00  0.00    -0.451 OA
ATOM     12  H   LIG d   1       8.811  -0.678  -6.093  0.00  0.00     0.066 H 
ATOM     13  H   LIG d   1       7.220   3.009  -4.621  0.00  0.00     0.069 H 
ATOM     14  H   LIG d   1      12.760   4.387  -2.227  0.00  0.00     0.066 H 
ENDROOT
BRANCH   3  15
ATOM     15  O   LIG d   1       6.681   0.833  -5.958  0.00  0.00    -0.422 OA
BRANCH  15  16
ATOM     16  C   LIG d   1       6.224  -0.422  -5.774  0.00  0.00     0.352 C 
ATOM     17  O   LIG d   1       6.463  -1.282  -6.597  0.00  0.00    -0.244 OA
BRANCH  16  18
ATOM     18  C   LIG d   1       5.434  -0.748  -4.577  0.00  0.00     0.142 A 
ATOM     19  C   LIG d   1       4.077  -0.398  -4.507  0.00  0.00     0.138 A 
ATOM     20  C   LIG d   1       3.343  -0.711  -3.375  0.00  0.00    -0.019 A 
ATOM     21  C   LIG d   1       3.943  -1.366  -2.316  0.00  0.00    -0.055 A 
ATOM     22  H   LIG d   1       2.299  -0.441  -3.319  0.00  0.00     0.065 H 
ATOM     23  C   LIG d   1       5.278  -1.717  -2.374  0.00  0.00    -0.019 A 
ATOM     24  H   LIG d   1       3.362  -1.606  -1.438  0.00  0.00     0.062 H 
ATOM     25  C   LIG d   1       6.031  -1.419  -3.498  0.00  0.00     0.138 A 
ATOM     26  H   LIG d   1       5.736  -2.230  -1.541  0.00  0.00     0.065 H 
BRANCH  19  27
ATOM     27  O   LIG d   1       3.487   0.246  -5.545  0.00  0.00    -0.494 OA
BRANCH  27  28
ATOM     28  C   LIG d   1       2.230   0.875  -5.288  0.00  0.00     0.079 C 
ATOM     29  H   LIG d   1       2.315   1.512  -4.409  0.00  0.00     0.066 H 
ATOM     30  H   LIG d   1       1.942   1.479  -6.149  0.00  0.00     0.066 H 
ATOM     31  H   LIG d   1       1.472   0.112  -5.112  0.00  0.00     0.066 H 
ENDBRANCH  27  28
ENDBRANCH  19  27
BRANCH  25  32
ATOM     32  O   LIG d   1       7.340  -1.769  -3.554  0.00  0.00    -0.494 OA
BRANCH  32  33
ATOM     33  C   LIG d   1       7.635  -3.123  -3.906  0.00  0.00     0.079 C 
ATOM     34  H   LIG d   1       7.503  -3.255  -4.979  0.00  0.00     0.066 H 
ATOM     35  H   LIG d   1       8.664  -3.352  -3.634  0.00  0.00     0.066 H 
ATOM     36  H   LIG d   1       6.961  -3.792  -3.371  0.00  0.00     0.066 H 
ENDBRANCH  32  33
ENDBRANCH  25  32
ENDBRANCH  16  18
ENDBRANCH  15  16
ENDBRANCH   3  15
BRANCH   1  37
ATOM     37  C   LIG d   1      11.317  -0.421  -5.163  0.00  0.00    -0.039 C 
ATOM     38  H   LIG d   1      11.694  -0.377  -6.185  0.00  0.00     0.028 H 
ATOM     39  H   LIG d   1      12.113  -0.149  -4.470  0.00  0.00     0.028 H 
ATOM     40  H   LIG d   1      10.974  -1.432  -4.944  0.00  0.00     0.028 H 
ENDBRANCH   1  37
BRANCH  10  41
ATOM     41  C   LIG d   1      11.026   5.710  -1.829  0.00  0.00    -0.003 A 
ATOM     42  C   LIG d   1      10.813   5.825  -0.450  0.00  0.00     0.035 A 
ATOM     43  N   LIG d   1      10.208   6.883   0.046  0.00  0.00    -0.263 NA
ATOM     44  H   LIG d   1      11.147   5.038   0.211  0.00  0.00     0.084 H 
ATOM     45  C   LIG d   1       9.781   7.867  -0.721  0.00  0.00     0.028 A 
ATOM     46  C   LIG d   1       9.953   7.831  -2.094  0.00  0.00    -0.043 A 
ATOM     47  H   LIG d   1       9.290   8.717  -0.270  0.00  0.00     0.083 H 
ATOM     48  C   LIG d   1      10.583   6.743  -2.670  0.00  0.00    -0.052 A 
ATOM     49  H   LIG d   1       9.600   8.644  -2.710  0.00  0.00     0.063 H 
ATOM     50  H   LIG d   1      10.729   6.688  -3.739  0.00  0.00     0.062 H 
ENDBRANCH  10  41
TORSDOF 9
ENDMDL
MODEL 7
REMARK VINA RESULT:      -6.3      2.996      5.546
REMARK  9 active torsions:
REMARK  status: ('A' for Active; 'I' for Inactive)
REMARK    1  A    between atoms: C_1  and  C_2 
REMARK    2  A    between atoms: C_4  and  O_19 
REMARK    3  A    between atoms: C_11  and  C_12 
REMARK    4  A    between atoms: O_19  and  C_20 
REMARK    5  A    between atoms: C_20  and  C_22 
REMARK    6  A    between atoms: C_23  and  O_30 
REMARK    7  A    between atoms: C_27  and  O_28 
REMARK    8  A    between atoms: O_28  and  C_29 
REMARK    9  A    between atoms: O_30  and  C_31 
ROOT
ATOM      1  C   LIG d   1       8.681   2.185  -4.853  0.00  0.00    -0.033 A 
ATOM      2  C   LIG d   1       7.922   1.050  -4.914  0.00  0.00    -0.015 A 
ATOM      3  C   LIG d   1       7.473   0.574  -6.143  0.00  0.00     0.136 A 
ATOM      4  C   LIG d   1       7.789   1.243  -7.315  0.00  0.00     0.024 A 
ATOM      5  C   LIG d   1       8.559   2.398  -7.271  0.00  0.00     0.143 A 
ATOM      6  C   LIG d   1       9.006   2.868  -6.026  0.00  0.00     0.071 A 
ATOM      7  C   LIG d   1       9.791   4.086  -6.299  0.00  0.00     0.232 A 
ATOM      8  O   LIG d   1      10.361   4.802  -5.494  0.00  0.00    -0.283 OA
ATOM      9  C   LIG d   1       9.729   4.245  -7.761  0.00  0.00     0.176 A 
ATOM     10  C   LIG d   1      10.306   5.234  -8.485  0.00  0.00    -0.007 C 
ATOM     11  O   LIG d   1       8.995   3.218  -8.252  0.00  0.00    -0.451 OA
ATOM     12  H   LIG d   1       7.669   0.522  -4.007  0.00  0.00     0.066 H 
ATOM     13  H   LIG d   1       7.435   0.865  -8.264  0.00  0.00     0.069 H 
ATOM     14  H   LIG d   1      10.942   5.959  -7.997  0.00  0.00     0.066 H 
ENDROOT
BRANCH   3  15
ATOM     15  O   LIG d   1       6.720  -0.554  -6.194  0.00  0.00    -0.422 OA
BRANCH  15  16
ATOM     16  C   LIG d   1       5.412  -0.431  -5.889  0.00  0.00     0.352 C 
ATOM     17  O   LIG d   1       4.669   0.178  -6.634  0.00  0.00    -0.244 OA
BRANCH  16  18
ATOM     18  C   LIG d   1       4.884  -1.034  -4.655  0.00  0.00     0.142 A 
ATOM     19  C   LIG d   1       4.502  -0.220  -3.579  0.00  0.00     0.138 A 
ATOM     20  C   LIG d   1       4.006  -0.798  -2.422  0.00  0.00    -0.019 A 
ATOM     21  C   LIG d   1       3.887  -2.172  -2.326  0.00  0.00    -0.055 A 
ATOM     22  H   LIG d   1       3.712  -0.174  -1.591  0.00  0.00     0.065 H 
ATOM     23  C   LIG d   1       4.259  -2.983  -3.381  0.00  0.00    -0.019 A 
ATOM     24  H   LIG d   1       3.499  -2.614  -1.420  0.00  0.00     0.062 H 
ATOM     25  C   LIG d   1       4.754  -2.427  -4.550  0.00  0.00     0.138 A 
ATOM     26  H   LIG d   1       4.161  -4.056  -3.296  0.00  0.00     0.065 H 
BRANCH  19  27
ATOM     27  O   LIG d   1       4.618   1.129  -3.669  0.00  0.00    -0.494 OA
BRANCH  27  28
ATOM     28  C   LIG d   1       3.710   1.912  -2.894  0.00  0.00     0.079 C 
ATOM     29  H   LIG d   1       3.351   1.323  -2.050  0.00  0.00     0.066 H 
ATOM     30  H   LIG d   1       4.221   2.803  -2.525  0.00  0.00     0.066 H 
ATOM     31  H   LIG d   1       2.865   2.210  -3.515  0.00  0.00     0.066 H 
ENDBRANCH  27  28
ENDBRANCH  19  27
BRANCH  25  32
ATOM     32  O   LIG d   1       5.114  -3.226  -5.586  0.00  0.00    -0.494 OA
BRANCH  32  33
ATOM     33  C   LIG d   1       6.107  -4.219  -5.324  0.00  0.00     0.079 C 
ATOM     34  H   LIG d   1       6.191  -4.372  -4.248  0.00  0.00     0.066 H 
ATOM     35  H   LIG d   1       5.821  -5.154  -5.803  0.00  0.00     0.066 H 
ATOM     36  H   LIG d   1       7.067  -3.887  -5.720  0.00  0.00     0.066 H 
ENDBRANCH  32  33
ENDBRANCH  25  32
ENDBRANCH  16  18
ENDBRANCH  15  16
ENDBRANCH   3  15
BRANCH   1  37
ATOM     37  C   LIG d   1       9.165   2.699  -3.522  0.00  0.00    -0.039 C 
ATOM     38  H   LIG d   1      10.051   3.316  -3.671  0.00  0.00     0.028 H 
ATOM     39  H   LIG d   1       8.381   3.296  -3.056  0.00  0.00     0.028 H 
ATOM     40  H   LIG d   1       9.413   1.857  -2.876  0.00  0.00     0.028 H 
ENDBRANCH   1  37
BRANCH  10  41
ATOM     41  C   LIG d   1      10.067   5.323  -9.932  0.00  0.00    -0.003 A 
ATOM     42  C   LIG d   1       8.938   5.985 -10.428  0.00  0.00     0.035 A 
ATOM     43  N   LIG d   1       8.726   6.062 -11.725  0.00  0.00    -0.263 NA
ATOM     44  H   LIG d   1       8.236   6.435  -9.742  0.00  0.00     0.084 H 
ATOM     45  C   LIG d   1       9.554   5.527 -12.601  0.00  0.00     0.028 A 
ATOM     46  C   LIG d   1      10.694   4.855 -12.192  0.00  0.00    -0.043 A 
ATOM     47  H   LIG d   1       9.340   5.615 -13.656  0.00  0.00     0.083 H 
ATOM     48  C   LIG d   1      10.966   4.744 -10.841  0.00  0.00    -0.052 A 
ATOM     49  H   LIG d   1      11.363   4.424 -12.921  0.00  0.00     0.063 H 
ATOM     50  H   LIG d   1      11.848   4.225 -10.495  0.00  0.00     0.062 H 
ENDBRANCH  10  41
TORSDOF 9
ENDMDL
MODEL 8
REMARK VINA RESULT:      -6.3      1.808      2.588
REMARK  9 active torsions:
REMARK  status: ('A' for Active; 'I' for Inactive)
REMARK    1  A    between atoms: C_1  and  C_2 
REMARK    2  A    between atoms: C_4  and  O_19 
REMARK    3  A    between atoms: C_11  and  C_12 
REMARK    4  A    between atoms: O_19  and  C_20 
REMARK    5  A    between atoms: C_20  and  C_22 
REMARK    6  A    between atoms: C_23  and  O_30 
REMARK    7  A    between atoms: C_27  and  O_28 
REMARK    8  A    between atoms: O_28  and  C_29 
REMARK    9  A    between atoms: O_30  and  C_31 
ROOT
ATOM      1  C   LIG d   1       9.793  -0.075  -5.315  0.00  0.00    -0.033 A 
ATOM      2  C   LIG d   1       8.582  -0.319  -5.900  0.00  0.00    -0.015 A 
ATOM      3  C   LIG d   1       7.562   0.624  -5.816  0.00  0.00     0.136 A 
ATOM      4  C   LIG d   1       7.761   1.819  -5.143  0.00  0.00     0.024 A 
ATOM      5  C   LIG d   1       8.986   2.083  -4.543  0.00  0.00     0.143 A 
ATOM      6  C   LIG d   1      10.007   1.124  -4.634  0.00  0.00     0.071 A 
ATOM      7  C   LIG d   1      11.167   1.684  -3.918  0.00  0.00     0.232 A 
ATOM      8  O   LIG d   1      12.264   1.175  -3.762  0.00  0.00    -0.283 OA
ATOM      9  C   LIG d   1      10.704   2.993  -3.431  0.00  0.00     0.176 A 
ATOM     10  C   LIG d   1      11.430   3.882  -2.709  0.00  0.00    -0.007 C 
ATOM     11  O   LIG d   1       9.424   3.151  -3.841  0.00  0.00    -0.451 OA
ATOM     12  H   LIG d   1       8.416  -1.247  -6.426  0.00  0.00     0.066 H 
ATOM     13  H   LIG d   1       6.963   2.545  -5.084  0.00  0.00     0.069 H 
ATOM     14  H   LIG d   1      12.474   3.690  -2.508  0.00  0.00     0.066 H 
ENDROOT
BRANCH   3  15
ATOM     15  O   LIG d   1       6.363   0.372  -6.400  0.00  0.00    -0.422 OA
BRANCH  15  16
ATOM     16  C   LIG d   1       5.800  -0.827  -6.151  0.00  0.00     0.352 C 
ATOM     17  O   LIG d   1       6.031  -1.770  -6.882  0.00  0.00    -0.244 OA
BRANCH  16  18
ATOM     18  C   LIG d   1       4.907  -0.995  -4.993  0.00  0.00     0.142 A 
ATOM     19  C   LIG d   1       5.223  -1.918  -3.985  0.00  0.00     0.138 A 
ATOM     20  C   LIG d   1       4.374  -2.066  -2.900  0.00  0.00    -0.019 A 
ATOM     21  C   LIG d   1       3.222  -1.310  -2.808  0.00  0.00    -0.055 A 
ATOM     22  H   LIG d   1       4.615  -2.777  -2.123  0.00  0.00     0.065 H 
ATOM     23  C   LIG d   1       2.902  -0.397  -3.795  0.00  0.00    -0.019 A 
ATOM     24  H   LIG d   1       2.567  -1.433  -1.958  0.00  0.00     0.062 H 
ATOM     25  C   LIG d   1       3.737  -0.228  -4.888  0.00  0.00     0.138 A 
ATOM     26  H   LIG d   1       1.998   0.190  -3.713  0.00  0.00     0.065 H 
BRANCH  19  27
ATOM     27  O   LIG d   1       6.354  -2.662  -4.072  0.00  0.00    -0.494 OA
BRANCH  27  28
ATOM     28  C   LIG d   1       7.439  -2.296  -3.219  0.00  0.00     0.079 C 
ATOM     29  H   LIG d   1       7.131  -1.476  -2.571  0.00  0.00     0.066 H 
ATOM     30  H   LIG d   1       7.728  -3.153  -2.610  0.00  0.00     0.066 H 
ATOM     31  H   LIG d   1       8.287  -1.980  -3.826  0.00  0.00     0.066 H 
ENDBRANCH  27  28
ENDBRANCH  19  27
BRANCH  25  32
ATOM     32  O   LIG d   1       3.423   0.673  -5.853  0.00  0.00    -0.494 OA
BRANCH  32  33
ATOM     33  C   LIG d   1       2.710   0.182  -6.990  0.00  0.00     0.079 C 
ATOM     34  H   LIG d   1       1.752   0.697  -7.067  0.00  0.00     0.066 H 
ATOM     35  H   LIG d   1       3.294   0.363  -7.891  0.00  0.00     0.066 H 
ATOM     36  H   LIG d   1       2.538  -0.889  -6.878  0.00  0.00     0.066 H 
ENDBRANCH  32  33
ENDBRANCH  25  32
ENDBRANCH  16  18
ENDBRANCH  15  16
ENDBRANCH   3  15
BRANCH   1  37
ATOM     37  C   LIG d   1      10.895  -1.099  -5.405  0.00  0.00    -0.039 C 
ATOM     38  H   LIG d   1      11.073  -1.349  -6.451  0.00  0.00     0.028 H 
ATOM     39  H   LIG d   1      11.807  -0.690  -4.970  0.00  0.00     0.028 H 
ATOM     40  H   LIG d   1      10.603  -1.996  -4.861  0.00  0.00     0.028 H 
ENDBRANCH   1  37
BRANCH  10  41
ATOM     41  C   LIG d   1      10.797   5.107  -2.200  0.00  0.00    -0.003 A 
ATOM     42  C   LIG d   1      10.762   5.373  -0.827  0.00  0.00     0.035 A 
ATOM     43  N   LIG d   1      10.193   6.471  -0.373  0.00  0.00    -0.263 NA
ATOM     44  H   LIG d   1      11.204   4.673  -0.134  0.00  0.00     0.084 H 
ATOM     45  C   LIG d   1       9.639   7.354  -1.181  0.00  0.00     0.028 A 
ATOM     46  C   LIG d   1       9.631   7.166  -2.552  0.00  0.00    -0.043 A 
ATOM     47  H   LIG d   1       9.184   8.241  -0.764  0.00  0.00     0.083 H 
ATOM     48  C   LIG d   1      10.215   6.030  -3.083  0.00  0.00    -0.052 A 
ATOM     49  H   LIG d   1       9.175   7.898  -3.200  0.00  0.00     0.063 H 
ATOM     50  H   LIG d   1      10.222   5.858  -4.149  0.00  0.00     0.062 H 
ENDBRANCH  10  41
TORSDOF 9
ENDMDL
MODEL 9
REMARK VINA RESULT:      -6.0      2.775      4.950
REMARK  9 active torsions:
REMARK  status: ('A' for Active; 'I' for Inactive)
REMARK    1  A    between atoms: C_1  and  C_2 
REMARK    2  A    between atoms: C_4  and  O_19 
REMARK    3  A    between atoms: C_11  and  C_12 
REMARK    4  A    between atoms: O_19  and  C_20 
REMARK    5  A    between atoms: C_20  and  C_22 
REMARK    6  A    between atoms: C_23  and  O_30 
REMARK    7  A    between atoms: C_27  and  O_28 
REMARK    8  A    between atoms: O_28  and  C_29 
REMARK    9  A    between atoms: O_30  and  C_31 
ROOT
ATOM      1  C   LIG d   1       9.421   3.317  -3.902  0.00  0.00    -0.033 A 
ATOM      2  C   LIG d   1       8.832   2.094  -3.746  0.00  0.00    -0.015 A 
ATOM      3  C   LIG d   1       8.434   1.362  -4.861  0.00  0.00     0.136 A 
ATOM      4  C   LIG d   1       8.630   1.862  -6.139  0.00  0.00     0.024 A 
ATOM      5  C   LIG d   1       9.227   3.104  -6.315  0.00  0.00     0.143 A 
ATOM      6  C   LIG d   1       9.624   3.833  -5.183  0.00  0.00     0.071 A 
ATOM      7  C   LIG d   1      10.220   5.085  -5.683  0.00  0.00     0.232 A 
ATOM      8  O   LIG d   1      10.696   5.998  -5.030  0.00  0.00    -0.283 OA
ATOM      9  C   LIG d   1      10.110   4.987  -7.147  0.00  0.00     0.176 A 
ATOM     10  C   LIG d   1      10.527   5.913  -8.046  0.00  0.00    -0.007 C 
ATOM     11  O   LIG d   1       9.524   3.802  -7.434  0.00  0.00    -0.451 OA
ATOM     12  H   LIG d   1       8.674   1.695  -2.756  0.00  0.00     0.066 H 
ATOM     13  H   LIG d   1       8.318   1.286  -6.998  0.00  0.00     0.069 H 
ATOM     14  H   LIG d   1      11.060   6.790  -7.710  0.00  0.00     0.066 H 
ENDROOT
BRANCH   3  15
ATOM     15  O   LIG d   1       7.851   0.148  -4.696  0.00  0.00    -0.422 OA
BRANCH  15  16
ATOM     16  C   LIG d   1       6.546   0.046  -5.020  0.00  0.00     0.352 C 
ATOM     17  O   LIG d   1       6.128   0.576  -6.031  0.00  0.00    -0.244 OA
BRANCH  16  18
ATOM     18  C   LIG d   1       5.628  -0.705  -4.150  0.00  0.00     0.142 A 
ATOM     19  C   LIG d   1       5.536  -2.100  -4.256  0.00  0.00     0.138 A 
ATOM     20  C   LIG d   1       4.668  -2.797  -3.431  0.00  0.00    -0.019 A 
ATOM     21  C   LIG d   1       3.896  -2.122  -2.505  0.00  0.00    -0.055 A 
ATOM     22  H   LIG d   1       4.595  -3.871  -3.512  0.00  0.00     0.065 H 
ATOM     23  C   LIG d   1       3.979  -0.747  -2.390  0.00  0.00    -0.019 A 
ATOM     24  H   LIG d   1       3.222  -2.674  -1.866  0.00  0.00     0.062 H 
ATOM     25  C   LIG d   1       4.843  -0.030  -3.202  0.00  0.00     0.138 A 
ATOM     26  H   LIG d   1       3.371  -0.230  -1.663  0.00  0.00     0.065 H 
BRANCH  19  27
ATOM     27  O   LIG d   1       6.293  -2.766  -5.165  0.00  0.00    -0.494 OA
BRANCH  27  28
ATOM     28  C   LIG d   1       7.288  -3.654  -4.654  0.00  0.00     0.079 C 
ATOM     29  H   LIG d   1       8.239  -3.455  -5.146  0.00  0.00     0.066 H 
ATOM     30  H   LIG d   1       7.394  -3.502  -3.580  0.00  0.00     0.066 H 
ATOM     31  H   LIG d   1       6.988  -4.684  -4.846  0.00  0.00     0.066 H 
ENDBRANCH  27  28
ENDBRANCH  19  27
BRANCH  25  32
ATOM     32  O   LIG d   1       4.927   1.319  -3.084  0.00  0.00    -0.494 OA
BRANCH  32  33
ATOM     33  C   LIG d   1       3.696   2.046  -3.060  0.00  0.00     0.079 C 
ATOM     34  H   LIG d   1       3.861   3.050  -3.449  0.00  0.00     0.066 H 
ATOM     35  H   LIG d   1       2.960   1.532  -3.676  0.00  0.00     0.066 H 
ATOM     36  H   LIG d   1       3.332   2.108  -2.034  0.00  0.00     0.066 H 
ENDBRANCH  32  33
ENDBRANCH  25  32
ENDBRANCH  16  18
ENDBRANCH  15  16
ENDBRANCH   3  15
BRANCH   1  37
ATOM     37  C   LIG d   1       9.850   4.109  -2.693  0.00  0.00    -0.039 C 
ATOM     38  H   LIG d   1      10.476   3.485  -2.055  0.00  0.00     0.028 H 
ATOM     39  H   LIG d   1      10.416   4.983  -3.014  0.00  0.00     0.028 H 
ATOM     40  H   LIG d   1       8.968   4.429  -2.138  0.00  0.00     0.028 H 
ENDBRANCH   1  37
BRANCH  10  41
ATOM     41  C   LIG d   1      10.251   5.724  -9.477  0.00  0.00    -0.003 A 
ATOM     42  C   LIG d   1      11.111   4.959 -10.274  0.00  0.00     0.035 A 
ATOM     43  N   LIG d   1      10.862   4.792 -11.555  0.00  0.00    -0.263 NA
ATOM     44  H   LIG d   1      11.985   4.503  -9.833  0.00  0.00     0.084 H 
ATOM     45  C   LIG d   1       9.808   5.331 -12.138  0.00  0.00     0.028 A 
ATOM     46  C   LIG d   1       8.908   6.101 -11.421  0.00  0.00    -0.043 A 
ATOM     47  H   LIG d   1       9.643   5.167 -13.193  0.00  0.00     0.083 H 
ATOM     48  C   LIG d   1       9.121   6.309 -10.070  0.00  0.00    -0.052 A 
ATOM     49  H   LIG d   1       8.050   6.535 -11.910  0.00  0.00     0.063 H 
ATOM     50  H   LIG d   1       8.436   6.907  -9.487  0.00  0.00     0.062 H 
ENDBRANCH  10  41
TORSDOF 9
ENDMDL
MODEL 10
REMARK VINA RESULT:      -5.9      4.993      8.682
REMARK  9 active torsions:
REMARK  status: ('A' for Active; 'I' for Inactive)
REMARK    1  A    between atoms: C_1  and  C_2 
REMARK    2  A    between atoms: C_4  and  O_19 
REMARK    3  A    between atoms: C_11  and  C_12 
REMARK    4  A    between atoms: O_19  and  C_20 
REMARK    5  A    between atoms: C_20  and  C_22 
REMARK    6  A    between atoms: C_23  and  O_30 
REMARK    7  A    between atoms: C_27  and  O_28 
REMARK    8  A    between atoms: O_28  and  C_29 
REMARK    9  A    between atoms: O_30  and  C_31 
ROOT
ATOM      1  C   LIG d   1       4.912  -1.027  -3.473  0.00  0.00    -0.033 A 
ATOM      2  C   LIG d   1       5.869  -1.986  -3.294  0.00  0.00    -0.015 A 
ATOM      3  C   LIG d   1       6.367  -2.690  -4.387  0.00  0.00     0.136 A 
ATOM      4  C   LIG d   1       5.901  -2.427  -5.666  0.00  0.00     0.024 A 
ATOM      5  C   LIG d   1       4.929  -1.455  -5.865  0.00  0.00     0.143 A 
ATOM      6  C   LIG d   1       4.434  -0.752  -4.755  0.00  0.00     0.071 A 
ATOM      7  C   LIG d   1       3.436   0.200  -5.277  0.00  0.00     0.232 A 
ATOM      8  O   LIG d   1       2.772   1.005  -4.647  0.00  0.00    -0.283 OA
ATOM      9  C   LIG d   1       3.420  -0.042  -6.728  0.00  0.00     0.176 A 
ATOM     10  C   LIG d   1       2.648   0.600  -7.639  0.00  0.00    -0.007 C 
ATOM     11  O   LIG d   1       4.320  -1.019  -6.990  0.00  0.00    -0.451 OA
ATOM     12  H   LIG d   1       6.238  -2.200  -2.303  0.00  0.00     0.066 H 
ATOM     13  H   LIG d   1       6.294  -2.978  -6.507  0.00  0.00     0.069 H 
ATOM     14  H   LIG d   1       2.021   1.425  -7.331  0.00  0.00     0.066 H 
ENDROOT
BRANCH   3  15
ATOM     15  O   LIG d   1       7.317  -3.640  -4.199  0.00  0.00    -0.422 OA
BRANCH  15  16
ATOM     16  C   LIG d   1       8.309  -3.702  -5.110  0.00  0.00     0.352 C 
ATOM     17  O   LIG d   1       8.119  -4.245  -6.180  0.00  0.00    -0.244 OA
BRANCH  16  18
ATOM     18  C   LIG d   1       9.623  -3.113  -4.807  0.00  0.00     0.142 A 
ATOM     19  C   LIG d   1      10.561  -3.829  -4.048  0.00  0.00     0.138 A 
ATOM     20  C   LIG d   1      11.795  -3.264  -3.769  0.00  0.00    -0.019 A 
ATOM     21  C   LIG d   1      12.103  -2.001  -4.236  0.00  0.00    -0.055 A 
ATOM     22  H   LIG d   1      12.518  -3.813  -3.184  0.00  0.00     0.065 H 
ATOM     23  C   LIG d   1      11.188  -1.287  -4.986  0.00  0.00    -0.019 A 
ATOM     24  H   LIG d   1      13.068  -1.569  -4.014  0.00  0.00     0.062 H 
ATOM     25  C   LIG d   1       9.949  -1.833  -5.281  0.00  0.00     0.138 A 
ATOM     26  H   LIG d   1      11.440  -0.301  -5.346  0.00  0.00     0.065 H 
BRANCH  19  27
ATOM     27  O   LIG d   1      10.260  -5.070  -3.587  0.00  0.00    -0.494 OA
BRANCH  27  28
ATOM     28  C   LIG d   1      11.219  -6.101  -3.827  0.00  0.00     0.079 C 
ATOM     29  H   LIG d   1      10.737  -7.074  -3.735  0.00  0.00     0.066 H 
ATOM     30  H   LIG d   1      11.628  -5.991  -4.832  0.00  0.00     0.066 H 
ATOM     31  H   LIG d   1      12.025  -6.024  -3.098  0.00  0.00     0.066 H 
ENDBRANCH  27  28
ENDBRANCH  19  27
BRANCH  25  32
ATOM     32  O   LIG d   1       9.054  -1.132  -6.021  0.00  0.00    -0.494 OA
BRANCH  32  33
ATOM     33  C   LIG d   1       8.590   0.105  -5.476  0.00  0.00     0.079 C 
ATOM     34  H   LIG d   1       7.965  -0.095  -4.606  0.00  0.00     0.066 H 
ATOM     35  H   LIG d   1       9.442   0.714  -5.181  0.00  0.00     0.066 H 
ATOM     36  H   LIG d   1       8.006   0.637  -6.228  0.00  0.00     0.066 H 
ENDBRANCH  32  33
ENDBRANCH  25  32
ENDBRANCH  16  18
ENDBRANCH  15  16
ENDBRANCH   3  15
BRANCH   1  37
ATOM     37  C   LIG d   1       4.373  -0.267  -2.288  0.00  0.00    -0.039 C 
ATOM     38  H   LIG d   1       5.150   0.387  -1.893  0.00  0.00     0.028 H 
ATOM     39  H   LIG d   1       3.518   0.332  -2.599  0.00  0.00     0.028 H 
ATOM     40  H   LIG d   1       4.063  -0.971  -1.516  0.00  0.00     0.028 H 
ENDBRANCH   1  37
BRANCH  10  41
ATOM     41  C   LIG d   1       2.662   0.175  -9.046  0.00  0.00    -0.003 A 
ATOM     42  C   LIG d   1       3.601   0.700  -9.940  0.00  0.00     0.035 A 
ATOM     43  N   LIG d   1       3.611   0.318 -11.200  0.00  0.00    -0.263 NA
ATOM     44  H   LIG d   1       4.322   1.426  -9.594  0.00  0.00     0.084 H 
ATOM     45  C   LIG d   1       2.748  -0.564 -11.668  0.00  0.00     0.028 A 
ATOM     46  C   LIG d   1       1.788  -1.132 -10.849  0.00  0.00    -0.043 A 
ATOM     47  H   LIG d   1       2.794  -0.849 -12.709  0.00  0.00     0.083 H 
ATOM     48  C   LIG d   1       1.732  -0.766  -9.517  0.00  0.00    -0.052 A 
ATOM     49  H   LIG d   1       1.090  -1.853 -11.246  0.00  0.00     0.063 H 
ATOM     50  H   LIG d   1       0.993  -1.193  -8.855  0.00  0.00     0.062 H 
ENDBRANCH  10  41
TORSDOF 9
ENDMDL
