MODEL 1
REMARK VINA RESULT:      -6.0      0.000      0.000
REMARK  6 active torsions:
REMARK  status: ('A' for Active; 'I' for Inactive)
REMARK    1  A    between atoms: C_1  and  N_2 
REMARK       I    between atoms: N_5  and  C_8 
REMARK    2  A    between atoms: C_8  and  C_10 
REMARK    3  A    between atoms: C_10  and  C_11 
REMARK    4  A    between atoms: C_17  and  C_19 
REMARK    5  A    between atoms: C_19  and  C_20 
REMARK    6  A    between atoms: C_22  and  C_25 
ROOT
ATOM      1  C   LIG d   1       5.642  -0.555  -3.414  0.00  0.00    -0.020 C 
ATOM      2  H   LIG d   1       5.535   0.085  -2.526  0.00  0.00     0.031 H 
ATOM      3  C   LIG d   1       5.306  -2.004  -3.049  0.00  0.00    -0.009 C 
ATOM      4  C   LIG d   1       3.845  -2.085  -2.600  0.00  0.00    -0.033 C 
ATOM      5  N   LIG d   1       2.972  -1.620  -3.685  0.00  0.00     0.227 N 
ATOM      6  C   LIG d   1       3.244  -0.217  -4.022  0.00  0.00    -0.030 C 
ATOM      7  C   LIG d   1       4.688  -0.078  -4.512  0.00  0.00     0.008 C 
ATOM      8  H   LIG d   1       4.897   0.975  -4.751  0.00  0.00     0.036 H 
ATOM      9  H   LIG d   1       5.458  -2.648  -3.926  0.00  0.00     0.032 H 
ATOM     10  H   LIG d   1       5.961  -2.336  -2.230  0.00  0.00     0.032 H 
ATOM     11  H   LIG d   1       3.596  -3.126  -2.350  0.00  0.00     0.081 H 
ATOM     12  H   LIG d   1       3.697  -1.450  -1.714  0.00  0.00     0.081 H 
ATOM     13  H   LIG d   1       3.142  -2.235  -4.581  0.00  0.00     0.201 HD
ATOM     14  H   LIG d   1       2.556   0.111  -4.815  0.00  0.00     0.082 H 
ATOM     15  H   LIG d   1       3.099   0.410  -3.129  0.00  0.00     0.082 H 
ATOM     16  H   LIG d   1       1.921  -1.708  -3.374  0.00  0.00     0.201 HD
ENDROOT
BRANCH   1  17
ATOM     17  C   LIG d   1       7.084  -0.478  -3.921  0.00  0.00     0.028 C 
ATOM     18  H   LIG d   1       7.128  -0.840  -4.958  0.00  0.00     0.036 H 
ATOM     19  H   LIG d   1       7.729  -1.102  -3.286  0.00  0.00     0.036 H 
BRANCH  17  20
ATOM     20  C   LIG d   1       7.559   0.952  -3.868  0.00  0.00     0.216 C 
ATOM     21  N   LIG d   1       8.680   1.315  -4.523  0.00  0.00    -0.299 N 
ATOM     22  C   LIG d   1       9.160   2.704  -4.485  0.00  0.00     0.028 C 
ATOM     23  C   LIG d   1       9.457   0.329  -5.291  0.00  0.00     0.028 C 
ATOM     24  C   LIG d   1       9.408   3.174  -5.921  0.00  0.00     0.015 C 
ATOM     25  H   LIG d   1      10.099   2.760  -3.913  0.00  0.00     0.048 H 
ATOM     26  H   LIG d   1       8.406   3.349  -4.012  0.00  0.00     0.048 H 
ATOM     27  N   LIG d   1      10.305   2.224  -6.595  0.00  0.00    -0.302 N 
ATOM     28  H   LIG d   1       9.873   4.170  -5.907  0.00  0.00     0.044 H 
ATOM     29  H   LIG d   1       8.452   3.222  -6.463  0.00  0.00     0.044 H 
ATOM     30  C   LIG d   1       9.689   0.894  -6.702  0.00  0.00     0.015 C 
ATOM     31  H   LIG d   1       8.728   0.976  -7.229  0.00  0.00     0.044 H 
ATOM     32  H   LIG d   1      10.359   0.225  -7.261  0.00  0.00     0.044 H 
ATOM     33  H   LIG d   1      10.420   0.153  -4.791  0.00  0.00     0.048 H 
ATOM     34  H   LIG d   1       8.895  -0.614  -5.350  0.00  0.00     0.048 H 
ATOM     35  O   LIG d   1       6.933   1.775  -3.235  0.00  0.00    -0.276 OA
BRANCH  27  36
ATOM     36  C   LIG d   1      10.705   2.726  -7.917  0.00  0.00    -0.013 C 
ATOM     37  H   LIG d   1      10.307   3.741  -8.060  0.00  0.00     0.039 H 
ATOM     38  H   LIG d   1      10.304   2.062  -8.698  0.00  0.00     0.039 H 
ATOM     39  H   LIG d   1      11.802   2.749  -7.983  0.00  0.00     0.039 H 
ENDBRANCH  27  36
ENDBRANCH  17  20
ENDBRANCH   1  17
BRANCH   7  40
ATOM     40  C   LIG d   1       4.884  -0.932  -5.766  0.00  0.00     0.001 C 
ATOM     41  H   LIG d   1       5.799  -1.534  -5.660  0.00  0.00     0.033 H 
ATOM     42  H   LIG d   1       4.019  -1.598  -5.895  0.00  0.00     0.033 H 
BRANCH  40  43
ATOM     43  C   LIG d   1       5.012  -0.034  -6.970  0.00  0.00     0.085 A 
ATOM     44  N   LIG d   1       6.006   0.761  -7.244  0.00  0.00    -0.083 NA
ATOM     45  O   LIG d   1       5.834   1.357  -8.282  0.00  0.00    -0.353 OA
ATOM     46  C   LIG d   1       4.657   1.032  -8.849  0.00  0.00     0.183 A 
ATOM     47  C   LIG d   1       4.076   0.113  -8.017  0.00  0.00     0.009 A 
ATOM     48  H   LIG d   1       3.125  -0.384  -8.134  0.00  0.00     0.068 H 
BRANCH  46  49
ATOM     49  C   LIG d   1       4.106   1.558 -10.110  0.00  0.00     0.110 C 
ATOM     50  O   LIG d   1       3.501   2.612 -10.116  0.00  0.00    -0.541 OA
ATOM     51  O   LIG d   1       4.272   0.871 -11.258  0.00  0.00    -0.541 OA
ENDBRANCH  46  49
ENDBRANCH  40  43
ENDBRANCH   7  40
TORSDOF 6
ENDMDL
MODEL 2
REMARK VINA RESULT:      -5.9      3.853      6.283
REMARK  6 active torsions:
REMARK  status: ('A' for Active; 'I' for Inactive)
REMARK    1  A    between atoms: C_1  and  N_2 
REMARK       I    between atoms: N_5  and  C_8 
REMARK    2  A    between atoms: C_8  and  C_10 
REMARK    3  A    between atoms: C_10  and  C_11 
REMARK    4  A    between atoms: C_17  and  C_19 
REMARK    5  A    between atoms: C_19  and  C_20 
REMARK    6  A    between atoms: C_22  and  C_25 
ROOT
ATOM      1  C   LIG d   1       4.260  -0.487  -4.630  0.00  0.00    -0.020 C 
ATOM      2  H   LIG d   1       3.403   0.194  -4.513  0.00  0.00     0.031 H 
ATOM      3  C   LIG d   1       5.439   0.023  -3.797  0.00  0.00    -0.009 C 
ATOM      4  C   LIG d   1       5.050   0.019  -2.317  0.00  0.00    -0.033 C 
ATOM      5  N   LIG d   1       4.692  -1.345  -1.908  0.00  0.00     0.227 N 
ATOM      6  C   LIG d   1       3.532  -1.838  -2.661  0.00  0.00    -0.030 C 
ATOM      7  C   LIG d   1       3.873  -1.889  -4.152  0.00  0.00     0.008 C 
ATOM      8  H   LIG d   1       3.000  -2.245  -4.719  0.00  0.00     0.036 H 
ATOM      9  H   LIG d   1       6.308  -0.633  -3.952  0.00  0.00     0.032 H 
ATOM     10  H   LIG d   1       5.692   1.046  -4.109  0.00  0.00     0.032 H 
ATOM     11  H   LIG d   1       5.901   0.370  -1.714  0.00  0.00     0.081 H 
ATOM     12  H   LIG d   1       4.190   0.686  -2.161  0.00  0.00     0.081 H 
ATOM     13  H   LIG d   1       5.542  -2.019  -2.092  0.00  0.00     0.201 HD
ATOM     14  H   LIG d   1       3.269  -2.848  -2.312  0.00  0.00     0.082 H 
ATOM     15  H   LIG d   1       2.678  -1.162  -2.504  0.00  0.00     0.082 H 
ATOM     16  H   LIG d   1       4.444  -1.353  -0.836  0.00  0.00     0.201 HD
ENDROOT
BRANCH   1  17
ATOM     17  C   LIG d   1       4.662  -0.542  -6.106  0.00  0.00     0.028 C 
ATOM     18  H   LIG d   1       4.767  -1.591  -6.418  0.00  0.00     0.036 H 
ATOM     19  H   LIG d   1       5.620  -0.020  -6.244  0.00  0.00     0.036 H 
BRANCH  17  20
ATOM     20  C   LIG d   1       3.601   0.126  -6.941  0.00  0.00     0.216 C 
ATOM     21  N   LIG d   1       3.471  -0.190  -8.245  0.00  0.00    -0.299 N 
ATOM     22  C   LIG d   1       2.441   0.449  -9.079  0.00  0.00     0.028 C 
ATOM     23  C   LIG d   1       4.358  -1.182  -8.873  0.00  0.00     0.028 C 
ATOM     24  C   LIG d   1       1.649  -0.646  -9.799  0.00  0.00     0.015 C 
ATOM     25  H   LIG d   1       2.917   1.108  -9.821  0.00  0.00     0.048 H 
ATOM     26  H   LIG d   1       1.762   1.040  -8.447  0.00  0.00     0.048 H 
ATOM     27  N   LIG d   1       2.578  -1.522 -10.524  0.00  0.00    -0.302 N 
ATOM     28  H   LIG d   1       0.949  -0.184 -10.511  0.00  0.00     0.044 H 
ATOM     29  H   LIG d   1       1.085  -1.237  -9.063  0.00  0.00     0.044 H 
ATOM     30  C   LIG d   1       3.485  -2.217  -9.600  0.00  0.00     0.015 C 
ATOM     31  H   LIG d   1       2.896  -2.784  -8.865  0.00  0.00     0.044 H 
ATOM     32  H   LIG d   1       4.127  -2.907 -10.168  0.00  0.00     0.044 H 
ATOM     33  H   LIG d   1       5.022  -0.677  -9.589  0.00  0.00     0.048 H 
ATOM     34  H   LIG d   1       4.963  -1.675  -8.098  0.00  0.00     0.048 H 
ATOM     35  O   LIG d   1       2.864   0.949  -6.441  0.00  0.00    -0.276 OA
BRANCH  27  36
ATOM     36  C   LIG d   1       1.850  -2.480 -11.367  0.00  0.00    -0.013 C 
ATOM     37  H   LIG d   1       2.514  -3.318 -11.627  0.00  0.00     0.039 H 
ATOM     38  H   LIG d   1       1.515  -1.978 -12.287  0.00  0.00     0.039 H 
ATOM     39  H   LIG d   1       0.976  -2.860 -10.818  0.00  0.00     0.039 H 
ENDBRANCH  27  36
ENDBRANCH  17  20
ENDBRANCH   1  17
BRANCH   7  40
ATOM     40  C   LIG d   1       5.047  -2.845  -4.374  0.00  0.00     0.001 C 
ATOM     41  H   LIG d   1       5.873  -2.305  -4.860  0.00  0.00     0.033 H 
ATOM     42  H   LIG d   1       5.385  -3.241  -3.406  0.00  0.00     0.033 H 
BRANCH  40  43
ATOM     43  C   LIG d   1       4.606  -3.985  -5.257  0.00  0.00     0.085 A 
ATOM     44  N   LIG d   1       4.136  -5.134  -4.865  0.00  0.00    -0.083 NA
ATOM     45  O   LIG d   1       3.861  -5.851  -5.799  0.00  0.00    -0.353 OA
ATOM     46  C   LIG d   1       4.133  -5.256  -6.976  0.00  0.00     0.183 A 
ATOM     47  C   LIG d   1       4.628  -4.017  -6.669  0.00  0.00     0.009 A 
ATOM     48  H   LIG d   1       4.958  -3.245  -7.347  0.00  0.00     0.068 H 
BRANCH  46  49
ATOM     49  C   LIG d   1       3.937  -5.823  -8.321  0.00  0.00     0.110 C 
ATOM     50  O   LIG d   1       4.857  -5.837  -9.115  0.00  0.00    -0.541 OA
ATOM     51  O   LIG d   1       2.737  -6.325  -8.674  0.00  0.00    -0.541 OA
ENDBRANCH  46  49
ENDBRANCH  40  43
ENDBRANCH   7  40
TORSDOF 6
ENDMDL
MODEL 3
REMARK VINA RESULT:      -5.9      3.765      6.167
REMARK  6 active torsions:
REMARK  status: ('A' for Active; 'I' for Inactive)
REMARK    1  A    between atoms: C_1  and  N_2 
REMARK       I    between atoms: N_5  and  C_8 
REMARK    2  A    between atoms: C_8  and  C_10 
REMARK    3  A    between atoms: C_10  and  C_11 
REMARK    4  A    between atoms: C_17  and  C_19 
REMARK    5  A    between atoms: C_19  and  C_20 
REMARK    6  A    between atoms: C_22  and  C_25 
ROOT
ATOM      1  C   LIG d   1       3.546   0.678  -7.913  0.00  0.00    -0.020 C 
ATOM      2  H   LIG d   1       4.513   0.920  -7.448  0.00  0.00     0.031 H 
ATOM      3  C   LIG d   1       2.881   1.962  -8.418  0.00  0.00    -0.009 C 
ATOM      4  C   LIG d   1       3.762   2.595  -9.497  0.00  0.00    -0.033 C 
ATOM      5  N   LIG d   1       3.939   1.646 -10.604  0.00  0.00     0.227 N 
ATOM      6  C   LIG d   1       4.618   0.425 -10.153  0.00  0.00    -0.030 C 
ATOM      7  C   LIG d   1       3.764  -0.273  -9.092  0.00  0.00     0.008 C 
ATOM      8  H   LIG d   1       4.278  -1.181  -8.743  0.00  0.00     0.036 H 
ATOM      9  H   LIG d   1       1.895   1.723  -8.840  0.00  0.00     0.032 H 
ATOM     10  H   LIG d   1       2.762   2.666  -7.581  0.00  0.00     0.032 H 
ATOM     11  H   LIG d   1       3.281   3.510  -9.873  0.00  0.00     0.081 H 
ATOM     12  H   LIG d   1       4.744   2.846  -9.070  0.00  0.00     0.081 H 
ATOM     13  H   LIG d   1       2.955   1.371 -11.012  0.00  0.00     0.201 HD
ATOM     14  H   LIG d   1       4.762  -0.252 -11.009  0.00  0.00     0.082 H 
ATOM     15  H   LIG d   1       5.596   0.686  -9.722  0.00  0.00     0.082 H 
ATOM     16  H   LIG d   1       4.546   2.114 -11.394  0.00  0.00     0.201 HD
ENDROOT
BRANCH   1  17
ATOM     17  C   LIG d   1       2.641   0.009  -6.876  0.00  0.00     0.028 C 
ATOM     18  H   LIG d   1       2.622  -1.077  -7.052  0.00  0.00     0.036 H 
ATOM     19  H   LIG d   1       1.622   0.413  -6.963  0.00  0.00     0.036 H 
BRANCH  17  20
ATOM     20  C   LIG d   1       3.173   0.283  -5.493  0.00  0.00     0.216 C 
ATOM     21  N   LIG d   1       3.960  -0.625  -4.881  0.00  0.00    -0.299 N 
ATOM     22  C   LIG d   1       4.491  -0.377  -3.532  0.00  0.00     0.028 C 
ATOM     23  C   LIG d   1       4.307  -1.891  -5.544  0.00  0.00     0.028 C 
ATOM     24  C   LIG d   1       6.005  -0.609  -3.554  0.00  0.00     0.015 C 
ATOM     25  H   LIG d   1       4.024  -1.066  -2.814  0.00  0.00     0.048 H 
ATOM     26  H   LIG d   1       4.284   0.661  -3.233  0.00  0.00     0.048 H 
ATOM     27  N   LIG d   1       6.284  -1.947  -4.095  0.00  0.00    -0.302 N 
ATOM     28  H   LIG d   1       6.403  -0.538  -2.531  0.00  0.00     0.044 H 
ATOM     29  H   LIG d   1       6.485   0.150  -4.189  0.00  0.00     0.044 H 
ATOM     30  C   LIG d   1       5.834  -2.062  -5.489  0.00  0.00     0.015 C 
ATOM     31  H   LIG d   1       6.313  -1.280  -6.095  0.00  0.00     0.044 H 
ATOM     32  H   LIG d   1       6.108  -3.052  -5.882  0.00  0.00     0.044 H 
ATOM     33  H   LIG d   1       3.815  -2.724  -5.022  0.00  0.00     0.048 H 
ATOM     34  H   LIG d   1       3.967  -1.862  -6.590  0.00  0.00     0.048 H 
ATOM     35  O   LIG d   1       2.894   1.320  -4.930  0.00  0.00    -0.276 OA
BRANCH  27  36
ATOM     36  C   LIG d   1       7.710  -2.277  -3.974  0.00  0.00    -0.013 C 
ATOM     37  H   LIG d   1       7.822  -3.354  -3.779  0.00  0.00     0.039 H 
ATOM     38  H   LIG d   1       8.149  -1.706  -3.142  0.00  0.00     0.039 H 
ATOM     39  H   LIG d   1       8.227  -2.018  -4.909  0.00  0.00     0.039 H 
ENDBRANCH  27  36
ENDBRANCH  17  20
ENDBRANCH   1  17
BRANCH   7  40
ATOM     40  C   LIG d   1       2.411  -0.656  -9.696  0.00  0.00     0.001 C 
ATOM     41  H   LIG d   1       1.602  -0.271  -9.058  0.00  0.00     0.033 H 
ATOM     42  H   LIG d   1       2.324  -0.221 -10.702  0.00  0.00     0.033 H 
BRANCH  40  43
ATOM     43  C   LIG d   1       2.308  -2.157  -9.786  0.00  0.00     0.085 A 
ATOM     44  N   LIG d   1       1.411  -2.836 -10.441  0.00  0.00    -0.083 NA
ATOM     45  O   LIG d   1       1.581  -4.028 -10.336  0.00  0.00    -0.353 OA
ATOM     46  C   LIG d   1       2.645  -4.308  -9.559  0.00  0.00     0.183 A 
ATOM     47  C   LIG d   1       3.160  -3.101  -9.171  0.00  0.00     0.009 A 
ATOM     48  H   LIG d   1       4.017  -2.913  -8.543  0.00  0.00     0.068 H 
BRANCH  46  49
ATOM     49  C   LIG d   1       3.152  -5.644  -9.199  0.00  0.00     0.110 C 
ATOM     50  O   LIG d   1       3.349  -6.473 -10.066  0.00  0.00    -0.541 OA
ATOM     51  O   LIG d   1       3.397  -5.948  -7.909  0.00  0.00    -0.541 OA
ENDBRANCH  46  49
ENDBRANCH  40  43
ENDBRANCH   7  40
TORSDOF 6
ENDMDL
MODEL 4
REMARK VINA RESULT:      -5.8      4.368      8.439
REMARK  6 active torsions:
REMARK  status: ('A' for Active; 'I' for Inactive)
REMARK    1  A    between atoms: C_1  and  N_2 
REMARK       I    between atoms: N_5  and  C_8 
REMARK    2  A    between atoms: C_8  and  C_10 
REMARK    3  A    between atoms: C_10  and  C_11 
REMARK    4  A    between atoms: C_17  and  C_19 
REMARK    5  A    between atoms: C_19  and  C_20 
REMARK    6  A    between atoms: C_22  and  C_25 
ROOT
ATOM      1  C   LIG d   1       2.558  -0.207  -9.476  0.00  0.00    -0.020 C 
ATOM      2  H   LIG d   1       1.634   0.111  -9.982  0.00  0.00     0.031 H 
ATOM      3  C   LIG d   1       3.747  -0.050 -10.428  0.00  0.00    -0.009 C 
ATOM      4  C   LIG d   1       3.910   1.428 -10.792  0.00  0.00    -0.033 C 
ATOM      5  N   LIG d   1       4.132   2.211  -9.569  0.00  0.00     0.227 N 
ATOM      6  C   LIG d   1       2.983   2.114  -8.660  0.00  0.00    -0.030 C 
ATOM      7  C   LIG d   1       2.790   0.657  -8.234  0.00  0.00     0.008 C 
ATOM      8  H   LIG d   1       1.920   0.580  -7.563  0.00  0.00     0.036 H 
ATOM      9  H   LIG d   1       4.661  -0.412  -9.936  0.00  0.00     0.032 H 
ATOM     10  H   LIG d   1       3.564  -0.636 -11.341  0.00  0.00     0.032 H 
ATOM     11  H   LIG d   1       4.772   1.546 -11.464  0.00  0.00     0.081 H 
ATOM     12  H   LIG d   1       3.000   1.785 -11.295  0.00  0.00     0.081 H 
ATOM     13  H   LIG d   1       5.025   1.834  -9.049  0.00  0.00     0.201 HD
ATOM     14  H   LIG d   1       3.165   2.734  -7.770  0.00  0.00     0.082 H 
ATOM     15  H   LIG d   1       2.077   2.467  -9.174  0.00  0.00     0.082 H 
ATOM     16  H   LIG d   1       4.281   3.268  -9.834  0.00  0.00     0.201 HD
ENDROOT
BRANCH   1  17
ATOM     17  C   LIG d   1       2.426  -1.675  -9.061  0.00  0.00     0.028 C 
ATOM     18  H   LIG d   1       1.720  -1.756  -8.222  0.00  0.00     0.036 H 
ATOM     19  H   LIG d   1       3.409  -2.058  -8.754  0.00  0.00     0.036 H 
BRANCH  17  20
ATOM     20  C   LIG d   1       1.914  -2.482 -10.227  0.00  0.00     0.216 C 
ATOM     21  N   LIG d   1       2.423  -3.705 -10.475  0.00  0.00    -0.299 N 
ATOM     22  C   LIG d   1       1.938  -4.510 -11.607  0.00  0.00     0.028 C 
ATOM     23  C   LIG d   1       3.483  -4.267  -9.624  0.00  0.00     0.028 C 
ATOM     24  C   LIG d   1       1.570  -5.904 -11.090  0.00  0.00     0.015 C 
ATOM     25  H   LIG d   1       2.726  -4.597 -12.369  0.00  0.00     0.048 H 
ATOM     26  H   LIG d   1       1.051  -4.036 -12.050  0.00  0.00     0.048 H 
ATOM     27  N   LIG d   1       2.716  -6.474 -10.369  0.00  0.00    -0.302 N 
ATOM     28  H   LIG d   1       1.311  -6.553 -11.939  0.00  0.00     0.044 H 
ATOM     29  H   LIG d   1       0.709  -5.829 -10.410  0.00  0.00     0.044 H 
ATOM     30  C   LIG d   1       3.049  -5.675  -9.182  0.00  0.00     0.015 C 
ATOM     31  H   LIG d   1       2.166  -5.600  -8.530  0.00  0.00     0.044 H 
ATOM     32  H   LIG d   1       3.871  -6.159  -8.634  0.00  0.00     0.044 H 
ATOM     33  H   LIG d   1       4.421  -4.324 -10.196  0.00  0.00     0.048 H 
ATOM     34  H   LIG d   1       3.628  -3.623  -8.744  0.00  0.00     0.048 H 
ATOM     35  O   LIG d   1       1.044  -2.031 -10.941  0.00  0.00    -0.276 OA
BRANCH  27  36
ATOM     36  C   LIG d   1       2.465  -7.875 -10.006  0.00  0.00    -0.013 C 
ATOM     37  H   LIG d   1       1.383  -8.071 -10.027  0.00  0.00     0.039 H 
ATOM     38  H   LIG d   1       2.854  -8.067  -8.994  0.00  0.00     0.039 H 
ATOM     39  H   LIG d   1       2.972  -8.536 -10.724  0.00  0.00     0.039 H 
ENDBRANCH  27  36
ENDBRANCH  17  20
ENDBRANCH   1  17
BRANCH   7  40
ATOM     40  C   LIG d   1       4.041   0.170  -7.500  0.00  0.00     0.001 C 
ATOM     41  H   LIG d   1       4.387  -0.772  -7.950  0.00  0.00     0.033 H 
ATOM     42  H   LIG d   1       4.832   0.929  -7.581  0.00  0.00     0.033 H 
BRANCH  40  43
ATOM     43  C   LIG d   1       3.713  -0.061  -6.046  0.00  0.00     0.085 A 
ATOM     44  N   LIG d   1       2.821   0.572  -5.342  0.00  0.00    -0.083 NA
ATOM     45  O   LIG d   1       2.776   0.170  -4.203  0.00  0.00    -0.353 OA
ATOM     46  C   LIG d   1       3.673  -0.812  -3.990  0.00  0.00     0.183 A 
ATOM     47  C   LIG d   1       4.318  -1.000  -5.183  0.00  0.00     0.009 A 
ATOM     48  H   LIG d   1       5.105  -1.703  -5.411  0.00  0.00     0.068 H 
BRANCH  46  49
ATOM     49  C   LIG d   1       3.912  -1.536  -2.730  0.00  0.00     0.110 C 
ATOM     50  O   LIG d   1       3.758  -2.740  -2.682  0.00  0.00    -0.541 OA
ATOM     51  O   LIG d   1       4.301  -0.863  -1.628  0.00  0.00    -0.541 OA
ENDBRANCH  46  49
ENDBRANCH  40  43
ENDBRANCH   7  40
TORSDOF 6
ENDMDL
MODEL 5
REMARK VINA RESULT:      -5.7      4.317      6.622
REMARK  6 active torsions:
REMARK  status: ('A' for Active; 'I' for Inactive)
REMARK    1  A    between atoms: C_1  and  N_2 
REMARK       I    between atoms: N_5  and  C_8 
REMARK    2  A    between atoms: C_8  and  C_10 
REMARK    3  A    between atoms: C_10  and  C_11 
REMARK    4  A    between atoms: C_17  and  C_19 
REMARK    5  A    between atoms: C_19  and  C_20 
REMARK    6  A    between atoms: C_22  and  C_25 
ROOT
ATOM      1  C   LIG d   1       5.186  -0.803  -5.280  0.00  0.00    -0.020 C 
ATOM      2  H   LIG d   1       4.525  -0.093  -4.761  0.00  0.00     0.031 H 
ATOM      3  C   LIG d   1       6.542  -0.145  -5.547  0.00  0.00    -0.009 C 
ATOM      4  C   LIG d   1       7.204   0.206  -4.213  0.00  0.00    -0.033 C 
ATOM      5  N   LIG d   1       7.382  -1.016  -3.418  0.00  0.00     0.227 N 
ATOM      6  C   LIG d   1       6.090  -1.641  -3.109  0.00  0.00    -0.030 C 
ATOM      7  C   LIG d   1       5.392  -2.045  -4.410  0.00  0.00     0.008 C 
ATOM      8  H   LIG d   1       4.417  -2.501  -4.179  0.00  0.00     0.036 H 
ATOM      9  H   LIG d   1       7.184  -0.840  -6.106  0.00  0.00     0.032 H 
ATOM     10  H   LIG d   1       6.394   0.772  -6.137  0.00  0.00     0.032 H 
ATOM     11  H   LIG d   1       8.186   0.666  -4.401  0.00  0.00     0.081 H 
ATOM     12  H   LIG d   1       6.568   0.912  -3.661  0.00  0.00     0.081 H 
ATOM     13  H   LIG d   1       7.994  -1.735  -3.983  0.00  0.00     0.201 HD
ATOM     14  H   LIG d   1       6.253  -2.535  -2.489  0.00  0.00     0.082 H 
ATOM     15  H   LIG d   1       5.457  -0.926  -2.562  0.00  0.00     0.082 H 
ATOM     16  H   LIG d   1       7.887  -0.768  -2.473  0.00  0.00     0.201 HD
ENDROOT
BRANCH   1  17
ATOM     17  C   LIG d   1       4.545  -1.211  -6.609  0.00  0.00     0.028 C 
ATOM     18  H   LIG d   1       3.632  -1.792  -6.413  0.00  0.00     0.036 H 
ATOM     19  H   LIG d   1       5.254  -1.822  -7.185  0.00  0.00     0.036 H 
BRANCH  17  20
ATOM     20  C   LIG d   1       4.193   0.025  -7.396  0.00  0.00     0.216 C 
ATOM     21  N   LIG d   1       4.663   0.183  -8.650  0.00  0.00    -0.299 N 
ATOM     22  C   LIG d   1       4.331   1.381  -9.436  0.00  0.00     0.028 C 
ATOM     23  C   LIG d   1       5.526  -0.837  -9.265  0.00  0.00     0.028 C 
ATOM     24  C   LIG d   1       3.797   0.935 -10.801  0.00  0.00     0.015 C 
ATOM     25  H   LIG d   1       5.232   1.997  -9.577  0.00  0.00     0.048 H 
ATOM     26  H   LIG d   1       3.563   1.970  -8.915  0.00  0.00     0.048 H 
ATOM     27  N   LIG d   1       4.767   0.028 -11.430  0.00  0.00    -0.302 N 
ATOM     28  H   LIG d   1       3.649   1.817 -11.442  0.00  0.00     0.044 H 
ATOM     29  H   LIG d   1       2.838   0.413 -10.668  0.00  0.00     0.044 H 
ATOM     30  C   LIG d   1       4.939  -1.198 -10.640  0.00  0.00     0.015 C 
ATOM     31  H   LIG d   1       3.964  -1.689 -10.506  0.00  0.00     0.044 H 
ATOM     32  H   LIG d   1       5.624  -1.879 -11.166  0.00  0.00     0.044 H 
ATOM     33  H   LIG d   1       6.542  -0.435  -9.382  0.00  0.00     0.048 H 
ATOM     34  H   LIG d   1       5.556  -1.729  -8.622  0.00  0.00     0.048 H 
ATOM     35  O   LIG d   1       3.487   0.878  -6.902  0.00  0.00    -0.276 OA
BRANCH  27  36
ATOM     36  C   LIG d   1       4.375  -0.286 -12.810  0.00  0.00    -0.013 C 
ATOM     37  H   LIG d   1       5.024   0.262 -13.510  0.00  0.00     0.039 H 
ATOM     38  H   LIG d   1       3.328   0.014 -12.971  0.00  0.00     0.039 H 
ATOM     39  H   LIG d   1       4.477  -1.367 -12.983  0.00  0.00     0.039 H 
ENDBRANCH  27  36
ENDBRANCH  17  20
ENDBRANCH   1  17
BRANCH   7  40
ATOM     40  C   LIG d   1       6.261  -3.057  -5.161  0.00  0.00     0.001 C 
ATOM     41  H   LIG d   1       6.470  -2.680  -6.173  0.00  0.00     0.033 H 
ATOM     42  H   LIG d   1       7.206  -3.201  -4.619  0.00  0.00     0.033 H 
BRANCH  40  43
ATOM     43  C   LIG d   1       5.530  -4.372  -5.257  0.00  0.00     0.085 A 
ATOM     44  N   LIG d   1       4.288  -4.596  -4.940  0.00  0.00    -0.083 NA
ATOM     45  O   LIG d   1       3.975  -5.749  -5.126  0.00  0.00    -0.353 OA
ATOM     46  C   LIG d   1       5.009  -6.471  -5.598  0.00  0.00     0.183 A 
ATOM     47  C   LIG d   1       6.062  -5.603  -5.702  0.00  0.00     0.009 A 
ATOM     48  H   LIG d   1       7.065  -5.809  -6.044  0.00  0.00     0.068 H 
BRANCH  46  49
ATOM     49  C   LIG d   1       5.007  -7.906  -5.935  0.00  0.00     0.110 C 
ATOM     50  O   LIG d   1       5.643  -8.307  -6.889  0.00  0.00    -0.541 OA
ATOM     51  O   LIG d   1       4.299  -8.773  -5.185  0.00  0.00    -0.541 OA
ENDBRANCH  46  49
ENDBRANCH  40  43
ENDBRANCH   7  40
TORSDOF 6
ENDMDL
MODEL 6
REMARK VINA RESULT:      -5.7      8.246     10.982
REMARK  6 active torsions:
REMARK  status: ('A' for Active; 'I' for Inactive)
REMARK    1  A    between atoms: C_1  and  N_2 
REMARK       I    between atoms: N_5  and  C_8 
REMARK    2  A    between atoms: C_8  and  C_10 
REMARK    3  A    between atoms: C_10  and  C_11 
REMARK    4  A    between atoms: C_17  and  C_19 
REMARK    5  A    between atoms: C_19  and  C_20 
REMARK    6  A    between atoms: C_22  and  C_25 
ROOT
ATOM      1  C   LIG d   1      10.350   9.494  -0.792  0.00  0.00    -0.020 C 
ATOM      2  H   LIG d   1      11.280   9.000  -0.473  0.00  0.00     0.031 H 
ATOM      3  C   LIG d   1       9.887  10.470   0.293  0.00  0.00    -0.009 C 
ATOM      4  C   LIG d   1      10.945  11.560   0.476  0.00  0.00    -0.033 C 
ATOM      5  N   LIG d   1      11.141  12.270  -0.795  0.00  0.00     0.227 N 
ATOM      6  C   LIG d   1      11.630  11.363  -1.840  0.00  0.00    -0.030 C 
ATOM      7  C   LIG d   1      10.594  10.265  -2.092  0.00  0.00     0.008 C 
ATOM      8  H   LIG d   1      10.966   9.576  -2.865  0.00  0.00     0.036 H 
ATOM      9  H   LIG d   1       8.934  10.927  -0.007  0.00  0.00     0.032 H 
ATOM     10  H   LIG d   1       9.751   9.927   1.240  0.00  0.00     0.032 H 
ATOM     11  H   LIG d   1      10.609  12.272   1.244  0.00  0.00     0.081 H 
ATOM     12  H   LIG d   1      11.894  11.103   0.789  0.00  0.00     0.081 H 
ATOM     13  H   LIG d   1      10.185  12.703  -1.125  0.00  0.00     0.201 HD
ATOM     14  H   LIG d   1      11.796  11.928  -2.770  0.00  0.00     0.082 H 
ATOM     15  H   LIG d   1      12.577  10.905  -1.516  0.00  0.00     0.082 H 
ATOM     16  H   LIG d   1      11.878  13.075  -0.655  0.00  0.00     0.201 HD
ENDROOT
BRANCH   1  17
ATOM     17  C   LIG d   1       9.269   8.435  -1.021  0.00  0.00     0.028 C 
ATOM     18  H   LIG d   1       8.825   8.573  -2.018  0.00  0.00     0.036 H 
ATOM     19  H   LIG d   1       8.488   8.537  -0.254  0.00  0.00     0.036 H 
BRANCH  17  20
ATOM     20  C   LIG d   1       9.884   7.062  -0.932  0.00  0.00     0.216 C 
ATOM     21  N   LIG d   1      10.061   6.329  -2.050  0.00  0.00    -0.299 N 
ATOM     22  C   LIG d   1      10.661   4.987  -1.986  0.00  0.00     0.028 C 
ATOM     23  C   LIG d   1       9.655   6.848  -3.365  0.00  0.00     0.028 C 
ATOM     24  C   LIG d   1      11.805   4.916  -3.001  0.00  0.00     0.015 C 
ATOM     25  H   LIG d   1       9.904   4.227  -2.231  0.00  0.00     0.048 H 
ATOM     26  H   LIG d   1      11.053   4.800  -0.976  0.00  0.00     0.048 H 
ATOM     27  N   LIG d   1      11.306   5.310  -4.326  0.00  0.00    -0.302 N 
ATOM     28  H   LIG d   1      12.192   3.887  -3.047  0.00  0.00     0.044 H 
ATOM     29  H   LIG d   1      12.612   5.598  -2.695  0.00  0.00     0.044 H 
ATOM     30  C   LIG d   1      10.846   6.706  -4.327  0.00  0.00     0.015 C 
ATOM     31  H   LIG d   1      11.665   7.362  -3.999  0.00  0.00     0.044 H 
ATOM     32  H   LIG d   1      10.534   6.987  -5.344  0.00  0.00     0.044 H 
ATOM     33  H   LIG d   1       8.797   6.270  -3.738  0.00  0.00     0.048 H 
ATOM     34  H   LIG d   1       9.371   7.906  -3.269  0.00  0.00     0.048 H 
ATOM     35  O   LIG d   1      10.220   6.617   0.144  0.00  0.00    -0.276 OA
BRANCH  27  36
ATOM     36  C   LIG d   1      12.326   5.091  -5.360  0.00  0.00    -0.013 C 
ATOM     37  H   LIG d   1      11.911   4.455  -6.155  0.00  0.00     0.039 H 
ATOM     38  H   LIG d   1      13.201   4.595  -4.912  0.00  0.00     0.039 H 
ATOM     39  H   LIG d   1      12.631   6.059  -5.784  0.00  0.00     0.039 H 
ENDBRANCH  27  36
ENDBRANCH  17  20
ENDBRANCH   1  17
BRANCH   7  40
ATOM     40  C   LIG d   1       9.284  10.898  -2.564  0.00  0.00     0.001 C 
ATOM     41  H   LIG d   1       8.458  10.186  -2.416  0.00  0.00     0.033 H 
ATOM     42  H   LIG d   1       9.089  11.812  -1.984  0.00  0.00     0.033 H 
BRANCH  40  43
ATOM     43  C   LIG d   1       9.392  11.244  -4.027  0.00  0.00     0.085 A 
ATOM     44  N   LIG d   1       9.449  10.406  -5.021  0.00  0.00    -0.083 NA
ATOM     45  O   LIG d   1       9.528  10.972  -6.086  0.00  0.00    -0.353 OA
ATOM     46  C   LIG d   1       9.545  12.310  -5.933  0.00  0.00     0.183 A 
ATOM     47  C   LIG d   1       9.458  12.539  -4.587  0.00  0.00     0.009 A 
ATOM     48  H   LIG d   1       9.441  13.488  -4.072  0.00  0.00     0.068 H 
BRANCH  46  49
ATOM     49  C   LIG d   1       9.641  13.322  -7.000  0.00  0.00     0.110 C 
ATOM     50  O   LIG d   1      10.280  14.339  -6.817  0.00  0.00    -0.541 OA
ATOM     51  O   LIG d   1       9.017  13.122  -8.178  0.00  0.00    -0.541 OA
ENDBRANCH  46  49
ENDBRANCH  40  43
ENDBRANCH   7  40
TORSDOF 6
ENDMDL
MODEL 7
REMARK VINA RESULT:      -5.6      4.682      9.038
REMARK  6 active torsions:
REMARK  status: ('A' for Active; 'I' for Inactive)
REMARK    1  A    between atoms: C_1  and  N_2 
REMARK       I    between atoms: N_5  and  C_8 
REMARK    2  A    between atoms: C_8  and  C_10 
REMARK    3  A    between atoms: C_10  and  C_11 
REMARK    4  A    between atoms: C_17  and  C_19 
REMARK    5  A    between atoms: C_19  and  C_20 
REMARK    6  A    between atoms: C_22  and  C_25 
ROOT
ATOM      1  C   LIG d   1       2.392  -0.176  -9.661  0.00  0.00    -0.020 C 
ATOM      2  H   LIG d   1       1.519   0.404  -9.996  0.00  0.00     0.031 H 
ATOM      3  C   LIG d   1       3.635   0.271 -10.436  0.00  0.00    -0.009 C 
ATOM      4  C   LIG d   1       3.918   1.744 -10.130  0.00  0.00    -0.033 C 
ATOM      5  N   LIG d   1       4.132   1.912  -8.687  0.00  0.00     0.227 N 
ATOM      6  C   LIG d   1       2.935   1.534  -7.925  0.00  0.00    -0.030 C 
ATOM      7  C   LIG d   1       2.621   0.056  -8.165  0.00  0.00     0.008 C 
ATOM      8  H   LIG d   1       1.716  -0.225  -7.605  0.00  0.00     0.036 H 
ATOM      9  H   LIG d   1       4.496  -0.341 -10.132  0.00  0.00     0.032 H 
ATOM     10  H   LIG d   1       3.459   0.146 -11.514  0.00  0.00     0.032 H 
ATOM     11  H   LIG d   1       4.819   2.064 -10.674  0.00  0.00     0.081 H 
ATOM     12  H   LIG d   1       3.061   2.356 -10.447  0.00  0.00     0.081 H 
ATOM     13  H   LIG d   1       4.970   1.276  -8.364  0.00  0.00     0.201 HD
ATOM     14  H   LIG d   1       3.116   1.700  -6.852  0.00  0.00     0.082 H 
ATOM     15  H   LIG d   1       2.083   2.147  -8.252  0.00  0.00     0.082 H 
ATOM     16  H   LIG d   1       4.367   2.965  -8.472  0.00  0.00     0.201 HD
ENDROOT
BRANCH   1  17
ATOM     17  C   LIG d   1       2.139  -1.663  -9.915  0.00  0.00     0.028 C 
ATOM     18  H   LIG d   1       1.655  -2.109  -9.034  0.00  0.00     0.036 H 
ATOM     19  H   LIG d   1       3.095  -2.170 -10.105  0.00  0.00     0.036 H 
BRANCH  17  20
ATOM     20  C   LIG d   1       1.240  -1.822 -11.115  0.00  0.00     0.216 C 
ATOM     21  N   LIG d   1       0.909  -3.053 -11.551  0.00  0.00    -0.299 N 
ATOM     22  C   LIG d   1       0.032  -3.230 -12.719  0.00  0.00     0.028 C 
ATOM     23  C   LIG d   1       1.419  -4.256 -10.874  0.00  0.00     0.028 C 
ATOM     24  C   LIG d   1      -1.100  -4.189 -12.338  0.00  0.00     0.015 C 
ATOM     25  H   LIG d   1       0.606  -3.654 -13.557  0.00  0.00     0.048 H 
ATOM     26  H   LIG d   1      -0.392  -2.262 -13.019  0.00  0.00     0.048 H 
ATOM     27  N   LIG d   1      -0.526  -5.430 -11.798  0.00  0.00    -0.302 N 
ATOM     28  H   LIG d   1      -1.701  -4.421 -13.229  0.00  0.00     0.044 H 
ATOM     29  H   LIG d   1      -1.739  -3.719 -11.576  0.00  0.00     0.044 H 
ATOM     30  C   LIG d   1       0.226  -5.174 -10.562  0.00  0.00     0.015 C 
ATOM     31  H   LIG d   1      -0.431  -4.688  -9.827  0.00  0.00     0.044 H 
ATOM     32  H   LIG d   1       0.593  -6.128 -10.153  0.00  0.00     0.044 H 
ATOM     33  H   LIG d   1       2.131  -4.772 -11.534  0.00  0.00     0.048 H 
ATOM     34  H   LIG d   1       1.925  -3.965  -9.943  0.00  0.00     0.048 H 
ATOM     35  O   LIG d   1       0.814  -0.841 -11.687  0.00  0.00    -0.276 OA
BRANCH  27  36
ATOM     36  C   LIG d   1      -1.568  -6.441 -11.581  0.00  0.00    -0.013 C 
ATOM     37  H   LIG d   1      -2.461  -5.962 -11.152  0.00  0.00     0.039 H 
ATOM     38  H   LIG d   1      -1.195  -7.209 -10.886  0.00  0.00     0.039 H 
ATOM     39  H   LIG d   1      -1.829  -6.911 -12.540  0.00  0.00     0.039 H 
ENDBRANCH  27  36
ENDBRANCH  17  20
ENDBRANCH   1  17
BRANCH   7  40
ATOM     40  C   LIG d   1       3.798  -0.799  -7.690  0.00  0.00     0.001 C 
ATOM     41  H   LIG d   1       3.514  -1.862  -7.720  0.00  0.00     0.033 H 
ATOM     42  H   LIG d   1       4.662  -0.631  -8.349  0.00  0.00     0.033 H 
BRANCH  40  43
ATOM     43  C   LIG d   1       4.159  -0.416  -6.278  0.00  0.00     0.085 A 
ATOM     44  N   LIG d   1       5.294   0.075  -5.873  0.00  0.00    -0.083 NA
ATOM     45  O   LIG d   1       5.294   0.290  -4.683  0.00  0.00    -0.353 OA
ATOM     46  C   LIG d   1       4.121  -0.054  -4.119  0.00  0.00     0.183 A 
ATOM     47  C   LIG d   1       3.336  -0.527  -5.136  0.00  0.00     0.009 A 
ATOM     48  H   LIG d   1       2.324  -0.898  -5.079  0.00  0.00     0.068 H 
BRANCH  46  49
ATOM     49  C   LIG d   1       3.756   0.056  -2.696  0.00  0.00     0.110 C 
ATOM     50  O   LIG d   1       3.983  -0.865  -1.937  0.00  0.00    -0.541 OA
ATOM     51  O   LIG d   1       3.168   1.178  -2.235  0.00  0.00    -0.541 OA
ENDBRANCH  46  49
ENDBRANCH  40  43
ENDBRANCH   7  40
TORSDOF 6
ENDMDL
MODEL 8
REMARK VINA RESULT:      -5.6      6.567     10.440
REMARK  6 active torsions:
REMARK  status: ('A' for Active; 'I' for Inactive)
REMARK    1  A    between atoms: C_1  and  N_2 
REMARK       I    between atoms: N_5  and  C_8 
REMARK    2  A    between atoms: C_8  and  C_10 
REMARK    3  A    between atoms: C_10  and  C_11 
REMARK    4  A    between atoms: C_17  and  C_19 
REMARK    5  A    between atoms: C_19  and  C_20 
REMARK    6  A    between atoms: C_22  and  C_25 
ROOT
ATOM      1  C   LIG d   1      10.377   5.312  -3.909  0.00  0.00    -0.020 C 
ATOM      2  H   LIG d   1      11.174   5.090  -4.635  0.00  0.00     0.031 H 
ATOM      3  C   LIG d   1       9.656   4.017  -3.526  0.00  0.00    -0.009 C 
ATOM      4  C   LIG d   1      10.646   3.071  -2.843  0.00  0.00    -0.033 C 
ATOM      5  N   LIG d   1      11.197   3.718  -1.646  0.00  0.00     0.227 N 
ATOM      6  C   LIG d   1      11.935   4.939  -1.994  0.00  0.00    -0.030 C 
ATOM      7  C   LIG d   1      10.984   5.942  -2.653  0.00  0.00     0.008 C 
ATOM      8  H   LIG d   1      11.539   6.851  -2.927  0.00  0.00     0.036 H 
ATOM      9  H   LIG d   1       8.831   4.247  -2.836  0.00  0.00     0.032 H 
ATOM     10  H   LIG d   1       9.255   3.539  -4.432  0.00  0.00     0.032 H 
ATOM     11  H   LIG d   1      10.128   2.145  -2.553  0.00  0.00     0.081 H 
ATOM     12  H   LIG d   1      11.464   2.831  -3.538  0.00  0.00     0.081 H 
ATOM     13  H   LIG d   1      10.377   3.987  -0.963  0.00  0.00     0.201 HD
ATOM     14  H   LIG d   1      12.360   5.384  -1.082  0.00  0.00     0.082 H 
ATOM     15  H   LIG d   1      12.746   4.691  -2.694  0.00  0.00     0.082 H 
ATOM     16  H   LIG d   1      11.884   3.026  -1.138  0.00  0.00     0.201 HD
ENDROOT
BRANCH   1  17
ATOM     17  C   LIG d   1       9.378   6.286  -4.538  0.00  0.00     0.028 C 
ATOM     18  H   LIG d   1       9.497   7.279  -4.081  0.00  0.00     0.036 H 
ATOM     19  H   LIG d   1       8.355   5.923  -4.367  0.00  0.00     0.036 H 
BRANCH  17  20
ATOM     20  C   LIG d   1       9.636   6.382  -6.020  0.00  0.00     0.216 C 
ATOM     21  N   LIG d   1       9.591   7.580  -6.636  0.00  0.00    -0.299 N 
ATOM     22  C   LIG d   1       9.840   7.697  -8.081  0.00  0.00     0.028 C 
ATOM     23  C   LIG d   1       9.288   8.806  -5.881  0.00  0.00     0.028 C 
ATOM     24  C   LIG d   1      10.900   8.779  -8.307  0.00  0.00     0.015 C 
ATOM     25  H   LIG d   1       8.912   7.978  -8.599  0.00  0.00     0.048 H 
ATOM     26  H   LIG d   1      10.205   6.738  -8.477  0.00  0.00     0.048 H 
ATOM     27  N   LIG d   1      10.475  10.022  -7.648  0.00  0.00    -0.302 N 
ATOM     28  H   LIG d   1      11.018   8.958  -9.386  0.00  0.00     0.044 H 
ATOM     29  H   LIG d   1      11.860   8.449  -7.883  0.00  0.00     0.044 H 
ATOM     30  C   LIG d   1      10.376   9.846  -6.193  0.00  0.00     0.015 C 
ATOM     31  H   LIG d   1      11.342   9.497  -5.799  0.00  0.00     0.044 H 
ATOM     32  H   LIG d   1      10.113  10.806  -5.725  0.00  0.00     0.044 H 
ATOM     33  H   LIG d   1       8.302   9.188  -6.184  0.00  0.00     0.048 H 
ATOM     34  H   LIG d   1       9.279   8.580  -4.804  0.00  0.00     0.048 H 
ATOM     35  O   LIG d   1       9.883   5.381  -6.659  0.00  0.00    -0.276 OA
BRANCH  27  36
ATOM     36  C   LIG d   1      11.377  11.132  -7.984  0.00  0.00    -0.013 C 
ATOM     37  H   LIG d   1      11.656  11.668  -7.065  0.00  0.00     0.039 H 
ATOM     38  H   LIG d   1      10.867  11.824  -8.671  0.00  0.00     0.039 H 
ATOM     39  H   LIG d   1      12.281  10.735  -8.468  0.00  0.00     0.039 H 
ENDBRANCH  27  36
ENDBRANCH  17  20
ENDBRANCH   1  17
BRANCH   7  40
ATOM     40  C   LIG d   1       9.866   6.304  -1.673  0.00  0.00     0.001 C 
ATOM     41  H   LIG d   1       9.235   7.092  -2.112  0.00  0.00     0.033 H 
ATOM     42  H   LIG d   1       9.255   5.414  -1.469  0.00  0.00     0.033 H 
BRANCH  40  43
ATOM     43  C   LIG d   1      10.470   6.806  -0.386  0.00  0.00     0.085 A 
ATOM     44  N   LIG d   1      10.702   6.108   0.688  0.00  0.00    -0.083 NA
ATOM     45  O   LIG d   1      11.197   6.777   1.564  0.00  0.00    -0.353 OA
ATOM     46  C   LIG d   1      11.356   8.057   1.177  0.00  0.00     0.183 A 
ATOM     47  C   LIG d   1      10.889   8.126  -0.107  0.00  0.00     0.009 A 
ATOM     48  H   LIG d   1      10.850   8.987  -0.757  0.00  0.00     0.068 H 
BRANCH  46  49
ATOM     49  C   LIG d   1      11.918   9.161   1.976  0.00  0.00     0.110 C 
ATOM     50  O   LIG d   1      12.119  10.242   1.461  0.00  0.00    -0.541 OA
ATOM     51  O   LIG d   1      12.210   8.970   3.278  0.00  0.00    -0.541 OA
ENDBRANCH  46  49
ENDBRANCH  40  43
ENDBRANCH   7  40
TORSDOF 6
ENDMDL
MODEL 9
REMARK VINA RESULT:      -5.5      4.019      8.612
REMARK  6 active torsions:
REMARK  status: ('A' for Active; 'I' for Inactive)
REMARK    1  A    between atoms: C_1  and  N_2 
REMARK       I    between atoms: N_5  and  C_8 
REMARK    2  A    between atoms: C_8  and  C_10 
REMARK    3  A    between atoms: C_10  and  C_11 
REMARK    4  A    between atoms: C_17  and  C_19 
REMARK    5  A    between atoms: C_19  and  C_20 
REMARK    6  A    between atoms: C_22  and  C_25 
ROOT
ATOM      1  C   LIG d   1       9.037   3.174  -4.857  0.00  0.00    -0.020 C 
ATOM      2  H   LIG d   1       8.094   3.231  -5.421  0.00  0.00     0.031 H 
ATOM      3  C   LIG d   1      10.186   2.830  -5.808  0.00  0.00    -0.009 C 
ATOM      4  C   LIG d   1      10.338   3.950  -6.841  0.00  0.00    -0.033 C 
ATOM      5  N   LIG d   1      10.611   5.217  -6.152  0.00  0.00     0.227 N 
ATOM      6  C   LIG d   1       9.500   5.592  -5.268  0.00  0.00    -0.030 C 
ATOM      7  C   LIG d   1       9.321   4.522  -4.189  0.00  0.00     0.008 C 
ATOM      8  H   LIG d   1       8.480   4.794  -3.534  0.00  0.00     0.036 H 
ATOM      9  H   LIG d   1      11.118   2.728  -5.235  0.00  0.00     0.032 H 
ATOM     10  H   LIG d   1       9.965   1.883  -6.322  0.00  0.00     0.032 H 
ATOM     11  H   LIG d   1      11.172   3.713  -7.517  0.00  0.00     0.081 H 
ATOM     12  H   LIG d   1       9.409   4.042  -7.422  0.00  0.00     0.081 H 
ATOM     13  H   LIG d   1      11.524   5.116  -5.546  0.00  0.00     0.201 HD
ATOM     14  H   LIG d   1       9.721   6.559  -4.791  0.00  0.00     0.082 H 
ATOM     15  H   LIG d   1       8.575   5.676  -5.857  0.00  0.00     0.082 H 
ATOM     16  H   LIG d   1      10.752   6.015  -6.896  0.00  0.00     0.201 HD
ENDROOT
BRANCH   1  17
ATOM     17  C   LIG d   1       8.918   2.087  -3.785  0.00  0.00     0.028 C 
ATOM     18  H   LIG d   1       9.017   2.542  -2.789  0.00  0.00     0.036 H 
ATOM     19  H   LIG d   1       9.714   1.343  -3.929  0.00  0.00     0.036 H 
BRANCH  17  20
ATOM     20  C   LIG d   1       7.574   1.415  -3.899  0.00  0.00     0.216 C 
ATOM     21  N   LIG d   1       7.456   0.255  -4.576  0.00  0.00    -0.299 N 
ATOM     22  C   LIG d   1       6.154  -0.418  -4.698  0.00  0.00     0.028 C 
ATOM     23  C   LIG d   1       8.625  -0.367  -5.216  0.00  0.00     0.028 C 
ATOM     24  C   LIG d   1       6.320  -1.881  -4.275  0.00  0.00     0.015 C 
ATOM     25  H   LIG d   1       5.807  -0.375  -5.742  0.00  0.00     0.048 H 
ATOM     26  H   LIG d   1       5.416   0.071  -4.047  0.00  0.00     0.048 H 
ATOM     27  N   LIG d   1       7.410  -2.491  -5.049  0.00  0.00    -0.302 N 
ATOM     28  H   LIG d   1       5.385  -2.427  -4.466  0.00  0.00     0.044 H 
ATOM     29  H   LIG d   1       6.561  -1.928  -3.202  0.00  0.00     0.044 H 
ATOM     30  C   LIG d   1       8.695  -1.836  -4.766  0.00  0.00     0.015 C 
ATOM     31  H   LIG d   1       8.900  -1.881  -3.687  0.00  0.00     0.044 H 
ATOM     32  H   LIG d   1       9.497  -2.351  -5.314  0.00  0.00     0.044 H 
ATOM     33  H   LIG d   1       8.517  -0.312  -6.309  0.00  0.00     0.048 H 
ATOM     34  H   LIG d   1       9.537   0.165  -4.909  0.00  0.00     0.048 H 
ATOM     35  O   LIG d   1       6.599   1.917  -3.381  0.00  0.00    -0.276 OA
BRANCH  27  36
ATOM     36  C   LIG d   1       7.490  -3.936  -4.798  0.00  0.00    -0.013 C 
ATOM     37  H   LIG d   1       8.201  -4.127  -3.980  0.00  0.00     0.039 H 
ATOM     38  H   LIG d   1       7.833  -4.448  -5.709  0.00  0.00     0.039 H 
ATOM     39  H   LIG d   1       6.497  -4.314  -4.517  0.00  0.00     0.039 H 
ENDBRANCH  27  36
ENDBRANCH  17  20
ENDBRANCH   1  17
BRANCH   7  40
ATOM     40  C   LIG d   1      10.600   4.418  -3.356  0.00  0.00     0.001 C 
ATOM     41  H   LIG d   1      10.761   3.371  -3.059  0.00  0.00     0.033 H 
ATOM     42  H   LIG d   1      11.455   4.767  -3.953  0.00  0.00     0.033 H 
BRANCH  40  43
ATOM     43  C   LIG d   1      10.466   5.274  -2.122  0.00  0.00     0.085 A 
ATOM     44  N   LIG d   1       9.573   6.196  -1.909  0.00  0.00    -0.083 NA
ATOM     45  O   LIG d   1       9.709   6.716  -0.826  0.00  0.00    -0.353 OA
ATOM     46  C   LIG d   1      10.754   6.195  -0.157  0.00  0.00     0.183 A 
ATOM     47  C   LIG d   1      11.289   5.236  -0.974  0.00  0.00     0.009 A 
ATOM     48  H   LIG d   1      12.139   4.598  -0.786  0.00  0.00     0.068 H 
BRANCH  46  49
ATOM     49  C   LIG d   1      11.228   6.580   1.184  0.00  0.00     0.110 C 
ATOM     50  O   LIG d   1      11.785   7.647   1.349  0.00  0.00    -0.541 OA
ATOM     51  O   LIG d   1      11.046   5.748   2.229  0.00  0.00    -0.541 OA
ENDBRANCH  46  49
ENDBRANCH  40  43
ENDBRANCH   7  40
TORSDOF 6
ENDMDL
