MODEL 1
REMARK VINA RESULT:      -5.8      0.000      0.000
REMARK  1 active torsions:
REMARK  status: ('A' for Active; 'I' for Inactive)
REMARK    1  A    between atoms: C_1  and  C_2 
ROOT
ATOM      1  C   LIG d   1       4.542  -1.225  -2.502  0.00  0.00    -0.050 A 
ATOM      2  C   LIG d   1       4.190   0.044  -2.065  0.00  0.00    -0.055 A 
ATOM      3  C   LIG d   1       4.971   1.137  -2.372  0.00  0.00    -0.018 A 
ATOM      4  C   LIG d   1       6.126   0.976  -3.130  0.00  0.00     0.139 A 
ATOM      5  C   LIG d   1       6.480  -0.309  -3.573  0.00  0.00     0.066 A 
ATOM      6  C   LIG d   1       5.682  -1.407  -3.255  0.00  0.00    -0.044 A 
ATOM      7  C   LIG d   1       7.709  -0.461  -4.376  0.00  0.00     0.210 A 
ATOM      8  O   LIG d   1       8.071  -1.548  -4.790  0.00  0.00    -0.286 OA
ATOM      9  C   LIG d   1       8.478   0.768  -4.652  0.00  0.00     0.134 A 
ATOM     10  C   LIG d   1       8.013   1.952  -4.158  0.00  0.00     0.114 A 
ATOM     11  O   LIG d   1       6.897   2.039  -3.437  0.00  0.00    -0.461 OA
ATOM     12  C   LIG d   1       9.683   0.718  -5.423  0.00  0.00     0.106 C 
ATOM     13  N   LIG d   1      10.640   0.680  -6.033  0.00  0.00    -0.191 NA
ATOM     14  H   LIG d   1       3.295   0.175  -1.476  0.00  0.00     0.062 H 
ATOM     15  H   LIG d   1       4.685   2.119  -2.024  0.00  0.00     0.065 H 
ATOM     16  H   LIG d   1       5.956  -2.394  -3.596  0.00  0.00     0.063 H 
ATOM     17  H   LIG d   1       8.573   2.854  -4.359  0.00  0.00     0.104 H 
ENDROOT
BRANCH   1  18
ATOM     18  C   LIG d   1       3.676  -2.407  -2.155  0.00  0.00    -0.040 C 
ATOM     19  H   LIG d   1       2.633  -2.093  -2.106  0.00  0.00     0.028 H 
ATOM     20  H   LIG d   1       3.787  -3.177  -2.919  0.00  0.00     0.028 H 
ATOM     21  H   LIG d   1       3.979  -2.809  -1.188  0.00  0.00     0.028 H 
ENDBRANCH   1  18
TORSDOF 1
ENDMDL
MODEL 2
REMARK VINA RESULT:      -5.8      3.418      4.524
REMARK  1 active torsions:
REMARK  status: ('A' for Active; 'I' for Inactive)
REMARK    1  A    between atoms: C_1  and  C_2 
ROOT
ATOM      1  C   LIG d   1       4.547  -0.134  -2.471  0.00  0.00    -0.050 A 
ATOM      2  C   LIG d   1       4.293  -1.390  -1.939  0.00  0.00    -0.055 A 
ATOM      3  C   LIG d   1       4.206  -2.497  -2.756  0.00  0.00    -0.018 A 
ATOM      4  C   LIG d   1       4.375  -2.363  -4.130  0.00  0.00     0.139 A 
ATOM      5  C   LIG d   1       4.633  -1.091  -4.667  0.00  0.00     0.066 A 
ATOM      6  C   LIG d   1       4.719   0.021  -3.830  0.00  0.00    -0.044 A 
ATOM      7  C   LIG d   1       4.810  -0.967  -6.127  0.00  0.00     0.210 A 
ATOM      8  O   LIG d   1       5.036   0.107  -6.654  0.00  0.00    -0.286 OA
ATOM      9  C   LIG d   1       4.699  -2.209  -6.916  0.00  0.00     0.134 A 
ATOM     10  C   LIG d   1       4.444  -3.378  -6.260  0.00  0.00     0.114 A 
ATOM     11  O   LIG d   1       4.293  -3.439  -4.938  0.00  0.00    -0.461 OA
ATOM     12  C   LIG d   1       4.855  -2.186  -8.339  0.00  0.00     0.106 C 
ATOM     13  N   LIG d   1       4.978  -2.170  -9.468  0.00  0.00    -0.191 NA
ATOM     14  H   LIG d   1       4.161  -1.501  -0.874  0.00  0.00     0.062 H 
ATOM     15  H   LIG d   1       4.007  -3.469  -2.329  0.00  0.00     0.065 H 
ATOM     16  H   LIG d   1       4.917   0.998  -4.244  0.00  0.00     0.063 H 
ATOM     17  H   LIG d   1       4.364  -4.289  -6.834  0.00  0.00     0.104 H 
ENDROOT
BRANCH   1  18
ATOM     18  C   LIG d   1       4.638   1.063  -1.562  0.00  0.00    -0.040 C 
ATOM     19  H   LIG d   1       5.650   1.467  -1.590  0.00  0.00     0.028 H 
ATOM     20  H   LIG d   1       3.933   1.826  -1.893  0.00  0.00     0.028 H 
ATOM     21  H   LIG d   1       4.396   0.763  -0.541  0.00  0.00     0.028 H 
ENDBRANCH   1  18
TORSDOF 1
ENDMDL
MODEL 3
REMARK VINA RESULT:      -5.4      2.620      3.887
REMARK  1 active torsions:
REMARK  status: ('A' for Active; 'I' for Inactive)
REMARK    1  A    between atoms: C_1  and  C_2 
ROOT
ATOM      1  C   LIG d   1       4.685  -0.172  -2.321  0.00  0.00    -0.050 A 
ATOM      2  C   LIG d   1       3.544  -0.962  -2.350  0.00  0.00    -0.055 A 
ATOM      3  C   LIG d   1       3.527  -2.149  -3.050  0.00  0.00    -0.018 A 
ATOM      4  C   LIG d   1       4.662  -2.568  -3.737  0.00  0.00     0.139 A 
ATOM      5  C   LIG d   1       5.815  -1.768  -3.705  0.00  0.00     0.066 A 
ATOM      6  C   LIG d   1       5.820  -0.569  -2.993  0.00  0.00    -0.044 A 
ATOM      7  C   LIG d   1       7.011  -2.228  -4.438  0.00  0.00     0.210 A 
ATOM      8  O   LIG d   1       8.042  -1.580  -4.450  0.00  0.00    -0.286 OA
ATOM      9  C   LIG d   1       6.894  -3.511  -5.157  0.00  0.00     0.134 A 
ATOM     10  C   LIG d   1       5.709  -4.185  -5.101  0.00  0.00     0.114 A 
ATOM     11  O   LIG d   1       4.657  -3.728  -4.424  0.00  0.00    -0.461 OA
ATOM     12  C   LIG d   1       8.002  -4.037  -5.897  0.00  0.00     0.106 C 
ATOM     13  N   LIG d   1       8.879  -4.455  -6.485  0.00  0.00    -0.191 NA
ATOM     14  H   LIG d   1       2.660  -0.642  -1.820  0.00  0.00     0.062 H 
ATOM     15  H   LIG d   1       2.633  -2.754  -3.065  0.00  0.00     0.065 H 
ATOM     16  H   LIG d   1       6.708   0.046  -2.969  0.00  0.00     0.063 H 
ATOM     17  H   LIG d   1       5.620  -5.125  -5.625  0.00  0.00     0.104 H 
ENDROOT
BRANCH   1  18
ATOM     18  C   LIG d   1       4.682   1.122  -1.550  0.00  0.00    -0.040 C 
ATOM     19  H   LIG d   1       4.174   1.891  -2.132  0.00  0.00     0.028 H 
ATOM     20  H   LIG d   1       4.162   0.981  -0.603  0.00  0.00     0.028 H 
ATOM     21  H   LIG d   1       5.709   1.433  -1.358  0.00  0.00     0.028 H 
ENDBRANCH   1  18
TORSDOF 1
ENDMDL
MODEL 4
REMARK VINA RESULT:      -5.1      2.952      4.089
REMARK  1 active torsions:
REMARK  status: ('A' for Active; 'I' for Inactive)
REMARK    1  A    between atoms: C_1  and  C_2 
ROOT
ATOM      1  C   LIG d   1       4.801   0.447  -2.838  0.00  0.00    -0.050 A 
ATOM      2  C   LIG d   1       6.032   1.054  -3.045  0.00  0.00    -0.055 A 
ATOM      3  C   LIG d   1       7.063   0.367  -3.650  0.00  0.00    -0.018 A 
ATOM      4  C   LIG d   1       6.875  -0.949  -4.061  0.00  0.00     0.139 A 
ATOM      5  C   LIG d   1       5.629  -1.560  -3.852  0.00  0.00     0.066 A 
ATOM      6  C   LIG d   1       4.594  -0.854  -3.239  0.00  0.00    -0.044 A 
ATOM      7  C   LIG d   1       5.447  -2.956  -4.296  0.00  0.00     0.210 A 
ATOM      8  O   LIG d   1       4.390  -3.542  -4.143  0.00  0.00    -0.286 OA
ATOM      9  C   LIG d   1       6.608  -3.606  -4.932  0.00  0.00     0.134 A 
ATOM     10  C   LIG d   1       7.761  -2.889  -5.071  0.00  0.00     0.114 A 
ATOM     11  O   LIG d   1       7.876  -1.630  -4.655  0.00  0.00    -0.461 OA
ATOM     12  C   LIG d   1       6.526  -4.959  -5.394  0.00  0.00     0.106 C 
ATOM     13  N   LIG d   1       6.462  -6.032  -5.760  0.00  0.00    -0.191 NA
ATOM     14  H   LIG d   1       6.185   2.074  -2.727  0.00  0.00     0.062 H 
ATOM     15  H   LIG d   1       8.016   0.850  -3.803  0.00  0.00     0.065 H 
ATOM     16  H   LIG d   1       3.635  -1.325  -3.079  0.00  0.00     0.063 H 
ATOM     17  H   LIG d   1       8.613  -3.362  -5.538  0.00  0.00     0.104 H 
ENDROOT
BRANCH   1  18
ATOM     18  C   LIG d   1       3.688   1.215  -2.174  0.00  0.00    -0.040 C 
ATOM     19  H   LIG d   1       3.179   0.572  -1.457  0.00  0.00     0.028 H 
ATOM     20  H   LIG d   1       4.102   2.081  -1.657  0.00  0.00     0.028 H 
ATOM     21  H   LIG d   1       2.977   1.550  -2.930  0.00  0.00     0.028 H 
ENDBRANCH   1  18
TORSDOF 1
ENDMDL
MODEL 5
REMARK VINA RESULT:      -5.1      4.469      5.556
REMARK  1 active torsions:
REMARK  status: ('A' for Active; 'I' for Inactive)
REMARK    1  A    between atoms: C_1  and  C_2 
ROOT
ATOM      1  C   LIG d   1       2.810  -0.670  -8.276  0.00  0.00    -0.050 A 
ATOM      2  C   LIG d   1       3.661  -1.755  -8.427  0.00  0.00    -0.055 A 
ATOM      3  C   LIG d   1       4.497  -2.143  -7.401  0.00  0.00    -0.018 A 
ATOM      4  C   LIG d   1       4.492  -1.444  -6.199  0.00  0.00     0.139 A 
ATOM      5  C   LIG d   1       3.629  -0.347  -6.048  0.00  0.00     0.066 A 
ATOM      6  C   LIG d   1       2.789   0.035  -7.093  0.00  0.00    -0.044 A 
ATOM      7  C   LIG d   1       3.637   0.382  -4.765  0.00  0.00     0.210 A 
ATOM      8  O   LIG d   1       2.913   1.342  -4.571  0.00  0.00    -0.286 OA
ATOM      9  C   LIG d   1       4.566  -0.108  -3.729  0.00  0.00     0.134 A 
ATOM     10  C   LIG d   1       5.348  -1.190  -4.014  0.00  0.00     0.114 A 
ATOM     11  O   LIG d   1       5.305  -1.815  -5.189  0.00  0.00    -0.461 OA
ATOM     12  C   LIG d   1       4.643   0.536  -2.453  0.00  0.00     0.106 C 
ATOM     13  N   LIG d   1       4.707   1.047  -1.440  0.00  0.00    -0.191 NA
ATOM     14  H   LIG d   1       3.670  -2.301  -9.358  0.00  0.00     0.062 H 
ATOM     15  H   LIG d   1       5.155  -2.989  -7.532  0.00  0.00     0.065 H 
ATOM     16  H   LIG d   1       2.125   0.879  -6.976  0.00  0.00     0.063 H 
ATOM     17  H   LIG d   1       6.029  -1.552  -3.258  0.00  0.00     0.104 H 
ENDROOT
BRANCH   1  18
ATOM     18  C   LIG d   1       1.905  -0.262  -9.410  0.00  0.00    -0.040 C 
ATOM     19  H   LIG d   1       1.321   0.609  -9.114  0.00  0.00     0.028 H 
ATOM     20  H   LIG d   1       2.507  -0.016 -10.285  0.00  0.00     0.028 H 
ATOM     21  H   LIG d   1       1.232  -1.085  -9.652  0.00  0.00     0.028 H 
ENDBRANCH   1  18
TORSDOF 1
ENDMDL
MODEL 6
REMARK VINA RESULT:      -5.0      3.412      5.138
REMARK  1 active torsions:
REMARK  status: ('A' for Active; 'I' for Inactive)
REMARK    1  A    between atoms: C_1  and  C_2 
ROOT
ATOM      1  C   LIG d   1       7.384  -3.993  -5.505  0.00  0.00    -0.050 A 
ATOM      2  C   LIG d   1       6.221  -4.732  -5.676  0.00  0.00    -0.055 A 
ATOM      3  C   LIG d   1       5.038  -4.327  -5.098  0.00  0.00    -0.018 A 
ATOM      4  C   LIG d   1       4.998  -3.165  -4.334  0.00  0.00     0.139 A 
ATOM      5  C   LIG d   1       6.175  -2.418  -4.163  0.00  0.00     0.066 A 
ATOM      6  C   LIG d   1       7.366  -2.839  -4.753  0.00  0.00    -0.044 A 
ATOM      7  C   LIG d   1       6.115  -1.187  -3.351  0.00  0.00     0.210 A 
ATOM      8  O   LIG d   1       7.100  -0.496  -3.164  0.00  0.00    -0.286 OA
ATOM      9  C   LIG d   1       4.802  -0.837  -2.774  0.00  0.00     0.134 A 
ATOM     10  C   LIG d   1       3.740  -1.658  -3.024  0.00  0.00     0.114 A 
ATOM     11  O   LIG d   1       3.845  -2.759  -3.766  0.00  0.00    -0.461 OA
ATOM     12  C   LIG d   1       4.647   0.338  -1.971  0.00  0.00     0.106 C 
ATOM     13  N   LIG d   1       4.523   1.269  -1.334  0.00  0.00    -0.191 NA
ATOM     14  H   LIG d   1       6.245  -5.635  -6.266  0.00  0.00     0.062 H 
ATOM     15  H   LIG d   1       4.141  -4.912  -5.238  0.00  0.00     0.065 H 
ATOM     16  H   LIG d   1       8.271  -2.264  -4.621  0.00  0.00     0.063 H 
ATOM     17  H   LIG d   1       2.778  -1.403  -2.605  0.00  0.00     0.104 H 
ENDROOT
BRANCH   1  18
ATOM     18  C   LIG d   1       8.667  -4.454  -6.144  0.00  0.00    -0.040 C 
ATOM     19  H   LIG d   1       8.455  -5.256  -6.851  0.00  0.00     0.028 H 
ATOM     20  H   LIG d   1       9.132  -3.620  -6.669  0.00  0.00     0.028 H 
ATOM     21  H   LIG d   1       9.346  -4.821  -5.373  0.00  0.00     0.028 H 
ENDBRANCH   1  18
TORSDOF 1
ENDMDL
MODEL 7
REMARK VINA RESULT:      -4.9      3.601      4.883
REMARK  1 active torsions:
REMARK  status: ('A' for Active; 'I' for Inactive)
REMARK    1  A    between atoms: C_1  and  C_2 
ROOT
ATOM      1  C   LIG d   1       5.504  -4.826  -5.310  0.00  0.00    -0.050 A 
ATOM      2  C   LIG d   1       6.878  -4.635  -5.332  0.00  0.00    -0.055 A 
ATOM      3  C   LIG d   1       7.441  -3.503  -4.784  0.00  0.00    -0.018 A 
ATOM      4  C   LIG d   1       6.630  -2.535  -4.200  0.00  0.00     0.139 A 
ATOM      5  C   LIG d   1       5.240  -2.730  -4.178  0.00  0.00     0.066 A 
ATOM      6  C   LIG d   1       4.682  -3.880  -4.736  0.00  0.00    -0.044 A 
ATOM      7  C   LIG d   1       4.394  -1.694  -3.554  0.00  0.00     0.210 A 
ATOM      8  O   LIG d   1       3.182  -1.804  -3.503  0.00  0.00    -0.286 OA
ATOM      9  C   LIG d   1       5.090  -0.519  -2.996  0.00  0.00     0.134 A 
ATOM     10  C   LIG d   1       6.450  -0.462  -3.087  0.00  0.00     0.114 A 
ATOM     11  O   LIG d   1       7.170  -1.424  -3.660  0.00  0.00    -0.461 OA
ATOM     12  C   LIG d   1       4.352   0.538  -2.371  0.00  0.00     0.106 C 
ATOM     13  N   LIG d   1       3.769   1.377  -1.876  0.00  0.00    -0.191 NA
ATOM     14  H   LIG d   1       7.513  -5.382  -5.784  0.00  0.00     0.062 H 
ATOM     15  H   LIG d   1       8.512  -3.366  -4.809  0.00  0.00     0.065 H 
ATOM     16  H   LIG d   1       3.613  -4.029  -4.718  0.00  0.00     0.063 H 
ATOM     17  H   LIG d   1       6.963   0.397  -2.678  0.00  0.00     0.104 H 
ENDROOT
BRANCH   1  18
ATOM     18  C   LIG d   1       4.908  -6.070  -5.915  0.00  0.00    -0.040 C 
ATOM     19  H   LIG d   1       4.774  -6.824  -5.139  0.00  0.00     0.028 H 
ATOM     20  H   LIG d   1       3.943  -5.832  -6.361  0.00  0.00     0.028 H 
ATOM     21  H   LIG d   1       5.578  -6.457  -6.684  0.00  0.00     0.028 H 
ENDBRANCH   1  18
TORSDOF 1
ENDMDL
MODEL 8
REMARK VINA RESULT:      -4.8     16.795     17.891
REMARK  1 active torsions:
REMARK  status: ('A' for Active; 'I' for Inactive)
REMARK    1  A    between atoms: C_1  and  C_2 
ROOT
ATOM      1  C   LIG d   1       1.669  11.424 -16.488  0.00  0.00    -0.050 A 
ATOM      2  C   LIG d   1       0.765  12.384 -16.919  0.00  0.00    -0.055 A 
ATOM      3  C   LIG d   1      -0.593  12.177 -16.802  0.00  0.00    -0.018 A 
ATOM      4  C   LIG d   1      -1.070  10.995 -16.246  0.00  0.00     0.139 A 
ATOM      5  C   LIG d   1      -0.154  10.025 -15.810  0.00  0.00     0.066 A 
ATOM      6  C   LIG d   1       1.217  10.246 -15.934  0.00  0.00    -0.044 A 
ATOM      7  C   LIG d   1      -0.678   8.776 -15.222  0.00  0.00     0.210 A 
ATOM      8  O   LIG d   1       0.064   7.896 -14.825  0.00  0.00    -0.286 OA
ATOM      9  C   LIG d   1      -2.146   8.647 -15.140  0.00  0.00     0.134 A 
ATOM     10  C   LIG d   1      -2.917   9.673 -15.603  0.00  0.00     0.114 A 
ATOM     11  O   LIG d   1      -2.396  10.782 -16.126  0.00  0.00    -0.461 OA
ATOM     12  C   LIG d   1      -2.746   7.472 -14.585  0.00  0.00     0.106 C 
ATOM     13  N   LIG d   1      -3.223   6.540 -14.146  0.00  0.00    -0.191 NA
ATOM     14  H   LIG d   1       1.129  13.304 -17.352  0.00  0.00     0.062 H 
ATOM     15  H   LIG d   1      -1.285  12.932 -17.142  0.00  0.00     0.065 H 
ATOM     16  H   LIG d   1       1.921   9.500 -15.598  0.00  0.00     0.063 H 
ATOM     17  H   LIG d   1      -3.992   9.583 -15.544  0.00  0.00     0.104 H 
ENDROOT
BRANCH   1  18
ATOM     18  C   LIG d   1       3.149  11.670 -16.626  0.00  0.00    -0.040 C 
ATOM     19  H   LIG d   1       3.391  11.856 -17.672  0.00  0.00     0.028 H 
ATOM     20  H   LIG d   1       3.430  12.537 -16.029  0.00  0.00     0.028 H 
ATOM     21  H   LIG d   1       3.697  10.795 -16.276  0.00  0.00     0.028 H 
ENDBRANCH   1  18
TORSDOF 1
ENDMDL
MODEL 9
REMARK VINA RESULT:      -4.8      5.471      6.277
REMARK  1 active torsions:
REMARK  status: ('A' for Active; 'I' for Inactive)
REMARK    1  A    between atoms: C_1  and  C_2 
ROOT
ATOM      1  C   LIG d   1       3.879   0.539 -10.022  0.00  0.00    -0.050 A 
ATOM      2  C   LIG d   1       3.183   1.668  -9.614  0.00  0.00    -0.055 A 
ATOM      3  C   LIG d   1       2.833   1.840  -8.291  0.00  0.00    -0.018 A 
ATOM      4  C   LIG d   1       3.179   0.877  -7.349  0.00  0.00     0.139 A 
ATOM      5  C   LIG d   1       3.884  -0.264  -7.764  0.00  0.00     0.066 A 
ATOM      6  C   LIG d   1       4.232  -0.426  -9.104  0.00  0.00    -0.044 A 
ATOM      7  C   LIG d   1       4.243  -1.275  -6.751  0.00  0.00     0.210 A 
ATOM      8  O   LIG d   1       4.854  -2.286  -7.046  0.00  0.00    -0.286 OA
ATOM      9  C   LIG d   1       3.824  -1.001  -5.363  0.00  0.00     0.134 A 
ATOM     10  C   LIG d   1       3.143   0.153  -5.103  0.00  0.00     0.114 A 
ATOM     11  O   LIG d   1       2.842   1.036  -6.053  0.00  0.00    -0.461 OA
ATOM     12  C   LIG d   1       4.128  -1.925  -4.312  0.00  0.00     0.106 C 
ATOM     13  N   LIG d   1       4.367  -2.657  -3.478  0.00  0.00    -0.191 NA
ATOM     14  H   LIG d   1       2.911   2.419 -10.340  0.00  0.00     0.062 H 
ATOM     15  H   LIG d   1       2.290   2.723  -7.988  0.00  0.00     0.065 H 
ATOM     16  H   LIG d   1       4.775  -1.304  -9.422  0.00  0.00     0.063 H 
ATOM     17  H   LIG d   1       2.836   0.357  -4.088  0.00  0.00     0.104 H 
ENDROOT
BRANCH   1  18
ATOM     18  C   LIG d   1       4.251   0.370 -11.471  0.00  0.00    -0.040 C 
ATOM     19  H   LIG d   1       3.563   0.941 -12.093  0.00  0.00     0.028 H 
ATOM     20  H   LIG d   1       5.268   0.729 -11.630  0.00  0.00     0.028 H 
ATOM     21  H   LIG d   1       4.193  -0.685 -11.741  0.00  0.00     0.028 H 
ENDBRANCH   1  18
TORSDOF 1
ENDMDL
MODEL 10
REMARK VINA RESULT:      -4.8      4.339      5.208
REMARK  1 active torsions:
REMARK  status: ('A' for Active; 'I' for Inactive)
REMARK    1  A    between atoms: C_1  and  C_2 
ROOT
ATOM      1  C   LIG d   1       4.419  -1.805  -3.417  0.00  0.00    -0.050 A 
ATOM      2  C   LIG d   1       4.972  -2.992  -3.876  0.00  0.00    -0.055 A 
ATOM      3  C   LIG d   1       5.097  -3.234  -5.227  0.00  0.00    -0.018 A 
ATOM      4  C   LIG d   1       4.668  -2.284  -6.148  0.00  0.00     0.139 A 
ATOM      5  C   LIG d   1       4.110  -1.083  -5.681  0.00  0.00     0.066 A 
ATOM      6  C   LIG d   1       3.989  -0.849  -4.312  0.00  0.00    -0.044 A 
ATOM      7  C   LIG d   1       3.660  -0.085  -6.672  0.00  0.00     0.210 A 
ATOM      8  O   LIG d   1       3.168   0.976  -6.332  0.00  0.00    -0.286 OA
ATOM      9  C   LIG d   1       3.836  -0.437  -8.094  0.00  0.00     0.134 A 
ATOM     10  C   LIG d   1       4.396  -1.643  -8.403  0.00  0.00     0.114 A 
ATOM     11  O   LIG d   1       4.786  -2.511  -7.472  0.00  0.00    -0.461 OA
ATOM     12  C   LIG d   1       3.429   0.468  -9.126  0.00  0.00     0.106 C 
ATOM     13  N   LIG d   1       3.106   1.184  -9.946  0.00  0.00    -0.191 NA
ATOM     14  H   LIG d   1       5.306  -3.734  -3.168  0.00  0.00     0.062 H 
ATOM     15  H   LIG d   1       5.528  -4.163  -5.571  0.00  0.00     0.065 H 
ATOM     16  H   LIG d   1       3.559   0.075  -3.955  0.00  0.00     0.063 H 
ATOM     17  H   LIG d   1       4.527  -1.903  -9.443  0.00  0.00     0.104 H 
ENDROOT
BRANCH   1  18
ATOM     18  C   LIG d   1       4.291  -1.559  -1.937  0.00  0.00    -0.040 C 
ATOM     19  H   LIG d   1       3.350  -1.048  -1.733  0.00  0.00     0.028 H 
ATOM     20  H   LIG d   1       4.309  -2.511  -1.407  0.00  0.00     0.028 H 
ATOM     21  H   LIG d   1       5.121  -0.939  -1.598  0.00  0.00     0.028 H 
ENDBRANCH   1  18
TORSDOF 1
ENDMDL
