MODEL 1
REMARK VINA RESULT:      -4.6      0.000      0.000
REMARK  12 active torsions:
REMARK  status: ('A' for Active; 'I' for Inactive)
REMARK    1  A    between atoms: C_1  and  C_2 
REMARK    2  A    between atoms: C_2  and  C_4 
REMARK    3  A    between atoms: C_2  and  N_38 
REMARK    4  A    between atoms: C_7  and  O_11 
REMARK    5  A    between atoms: C_8  and  O_10 
REMARK    6  A    between atoms: O_11  and  C_12 
REMARK    7  A    between atoms: C_13  and  C_14 
REMARK    8  A    between atoms: C_13  and  N_38 
REMARK    9  A    between atoms: C_14  and  O_15 
REMARK   10  A    between atoms: C_14  and  O_17 
REMARK   11  A    between atoms: O_15  and  C_16 
REMARK   12  A    between atoms: O_17  and  C_18 
ROOT
ATOM      1  C   LIG d   1       3.329   0.386  -3.441  0.00  0.00     0.001 C 
ATOM      2  H   LIG d   1       2.416  -0.157  -3.197  0.00  0.00     0.090 H 
ENDROOT
BRANCH   1   3
ATOM      3  C   LIG d   1       3.663   1.359  -2.309  0.00  0.00    -0.017 C 
ATOM      4  H   LIG d   1       3.535   0.857  -1.350  0.00  0.00     0.029 H 
ATOM      5  H   LIG d   1       4.696   1.692  -2.409  0.00  0.00     0.029 H 
ATOM      6  H   LIG d   1       2.997   2.220  -2.360  0.00  0.00     0.029 H 
ENDBRANCH   1   3
BRANCH   1   7
ATOM      7  C   LIG d   1       4.463  -0.591  -3.616  0.00  0.00     0.004 A 
ATOM      8  C   LIG d   1       5.764  -0.131  -3.691  0.00  0.00    -0.008 A 
ATOM      9  C   LIG d   1       6.809  -1.028  -3.852  0.00  0.00     0.159 A 
ATOM     10  H   LIG d   1       5.967   0.928  -3.623  0.00  0.00     0.066 H 
ATOM     11  C   LIG d   1       6.543  -2.391  -3.938  0.00  0.00     0.161 A 
ATOM     12  C   LIG d   1       5.235  -2.845  -3.868  0.00  0.00    -0.016 A 
ATOM     13  C   LIG d   1       4.199  -1.945  -3.702  0.00  0.00    -0.050 A 
ATOM     14  H   LIG d   1       5.026  -3.902  -3.939  0.00  0.00     0.066 H 
ATOM     15  H   LIG d   1       3.181  -2.301  -3.644  0.00  0.00     0.062 H 
BRANCH   9  16
ATOM     16  O   LIG d   1       8.089  -0.578  -3.925  0.00  0.00    -0.503 OA
ATOM     17  H   LIG d   1       8.290  -0.096  -4.740  0.00  0.00     0.292 HD
ENDBRANCH   9  16
BRANCH  11  18
ATOM     18  O   LIG d   1       7.564  -3.276  -4.096  0.00  0.00    -0.491 OA
BRANCH  18  19
ATOM     19  C   LIG d   1       7.397  -4.288  -5.091  0.00  0.00     0.079 C 
ATOM     20  H   LIG d   1       6.890  -3.865  -5.959  0.00  0.00     0.066 H 
ATOM     21  H   LIG d   1       6.800  -5.103  -4.682  0.00  0.00     0.066 H 
ATOM     22  H   LIG d   1       8.374  -4.668  -5.390  0.00  0.00     0.066 H 
ENDBRANCH  18  19
ENDBRANCH  11  18
ENDBRANCH   1   7
BRANCH   1  23
ATOM     23  N   LIG d   1       3.140   1.137  -4.697  0.00  0.00     0.236 N 
ATOM     24  H   LIG d   1       4.055   1.429  -5.058  0.00  0.00     0.202 HD
ATOM     25  H   LIG d   1       2.565   1.968  -4.511  0.00  0.00     0.202 HD
BRANCH  23  26
ATOM     26  C   LIG d   1       2.465   0.293  -5.702  0.00  0.00     0.019 C 
ATOM     27  H   LIG d   1       2.577  -0.757  -5.432  0.00  0.00     0.086 H 
ATOM     28  H   LIG d   1       1.407   0.548  -5.743  0.00  0.00     0.086 H 
BRANCH  26  29
ATOM     29  C   LIG d   1       3.103   0.538  -7.070  0.00  0.00     0.199 C 
ATOM     30  H   LIG d   1       2.669  -0.144  -7.801  0.00  0.00     0.097 H 
BRANCH  29  31
ATOM     31  O   LIG d   1       2.861   1.887  -7.475  0.00  0.00    -0.350 OA
BRANCH  31  32
ATOM     32  C   LIG d   1       3.251   2.170  -8.820  0.00  0.00     0.040 C 
ATOM     33  H   LIG d   1       2.364   2.342  -9.429  0.00  0.00     0.052 H 
ATOM     34  H   LIG d   1       3.881   3.060  -8.836  0.00  0.00     0.052 H 
ATOM     35  H   LIG d   1       3.809   1.324  -9.223  0.00  0.00     0.052 H 
ENDBRANCH  31  32
ENDBRANCH  29  31
BRANCH  29  36
ATOM     36  O   LIG d   1       4.512   0.312  -6.987  0.00  0.00    -0.350 OA
BRANCH  36  37
ATOM     37  C   LIG d   1       4.905  -1.029  -7.288  0.00  0.00     0.040 C 
ATOM     38  H   LIG d   1       4.210  -1.458  -8.009  0.00  0.00     0.052 H 
ATOM     39  H   LIG d   1       5.910  -1.026  -7.709  0.00  0.00     0.052 H 
ATOM     40  H   LIG d   1       4.895  -1.624  -6.375  0.00  0.00     0.052 H 
ENDBRANCH  36  37
ENDBRANCH  29  36
ENDBRANCH  26  29
ENDBRANCH  23  26
ENDBRANCH   1  23
TORSDOF 12
ENDMDL
MODEL 2
REMARK VINA RESULT:      -4.5      2.488      4.018
REMARK  12 active torsions:
REMARK  status: ('A' for Active; 'I' for Inactive)
REMARK    1  A    between atoms: C_1  and  C_2 
REMARK    2  A    between atoms: C_2  and  C_4 
REMARK    3  A    between atoms: C_2  and  N_38 
REMARK    4  A    between atoms: C_7  and  O_11 
REMARK    5  A    between atoms: C_8  and  O_10 
REMARK    6  A    between atoms: O_11  and  C_12 
REMARK    7  A    between atoms: C_13  and  C_14 
REMARK    8  A    between atoms: C_13  and  N_38 
REMARK    9  A    between atoms: C_14  and  O_15 
REMARK   10  A    between atoms: C_14  and  O_17 
REMARK   11  A    between atoms: O_15  and  C_16 
REMARK   12  A    between atoms: O_17  and  C_18 
ROOT
ATOM      1  C   LIG d   1       3.285   0.434  -7.940  0.00  0.00     0.001 C 
ATOM      2  H   LIG d   1       4.232   0.259  -8.449  0.00  0.00     0.090 H 
ENDROOT
BRANCH   1   3
ATOM      3  C   LIG d   1       2.171  -0.333  -8.656  0.00  0.00    -0.017 C 
ATOM      4  H   LIG d   1       1.289  -0.372  -8.017  0.00  0.00     0.029 H 
ATOM      5  H   LIG d   1       1.922   0.175  -9.587  0.00  0.00     0.029 H 
ATOM      6  H   LIG d   1       2.509  -1.346  -8.873  0.00  0.00     0.029 H 
ENDBRANCH   1   3
BRANCH   1   7
ATOM      7  C   LIG d   1       3.385  -0.041  -6.513  0.00  0.00     0.004 A 
ATOM      8  C   LIG d   1       4.307  -1.015  -6.174  0.00  0.00    -0.008 A 
ATOM      9  C   LIG d   1       4.400  -1.454  -4.863  0.00  0.00     0.159 A 
ATOM     10  H   LIG d   1       4.954  -1.432  -6.931  0.00  0.00     0.066 H 
ATOM     11  C   LIG d   1       3.565  -0.913  -3.890  0.00  0.00     0.161 A 
ATOM     12  C   LIG d   1       2.640   0.059  -4.238  0.00  0.00    -0.016 A 
ATOM     13  C   LIG d   1       2.555   0.495  -5.547  0.00  0.00    -0.050 A 
ATOM     14  H   LIG d   1       1.987   0.477  -3.486  0.00  0.00     0.066 H 
ATOM     15  H   LIG d   1       1.836   1.255  -5.817  0.00  0.00     0.062 H 
BRANCH   9  16
ATOM     16  O   LIG d   1       5.306  -2.410  -4.527  0.00  0.00    -0.503 OA
ATOM     17  H   LIG d   1       5.791  -2.222  -3.711  0.00  0.00     0.292 HD
ENDBRANCH   9  16
BRANCH  11  18
ATOM     18  O   LIG d   1       3.652  -1.340  -2.602  0.00  0.00    -0.491 OA
BRANCH  18  19
ATOM     19  C   LIG d   1       4.441  -0.551  -1.708  0.00  0.00     0.079 C 
ATOM     20  H   LIG d   1       4.330   0.504  -1.961  0.00  0.00     0.066 H 
ATOM     21  H   LIG d   1       5.488  -0.838  -1.800  0.00  0.00     0.066 H 
ATOM     22  H   LIG d   1       4.106  -0.717  -0.685  0.00  0.00     0.066 H 
ENDBRANCH  18  19
ENDBRANCH  11  18
ENDBRANCH   1   7
BRANCH   1  23
ATOM     23  N   LIG d   1       2.975   1.877  -7.948  0.00  0.00     0.236 N 
ATOM     24  H   LIG d   1       3.269   2.292  -7.057  0.00  0.00     0.202 HD
ATOM     25  H   LIG d   1       1.963   2.004  -8.067  0.00  0.00     0.202 HD
BRANCH  23  26
ATOM     26  C   LIG d   1       3.684   2.546  -9.055  0.00  0.00     0.019 C 
ATOM     27  H   LIG d   1       2.993   2.722  -9.879  0.00  0.00     0.086 H 
ATOM     28  H   LIG d   1       4.088   3.497  -8.709  0.00  0.00     0.086 H 
BRANCH  26  29
ATOM     29  C   LIG d   1       4.828   1.649  -9.531  0.00  0.00     0.199 C 
ATOM     30  H   LIG d   1       4.852   0.741  -8.929  0.00  0.00     0.097 H 
BRANCH  29  31
ATOM     31  O   LIG d   1       4.626   1.306 -10.903  0.00  0.00    -0.350 OA
BRANCH  31  32
ATOM     32  C   LIG d   1       4.979  -0.041 -11.224  0.00  0.00     0.040 C 
ATOM     33  H   LIG d   1       4.315  -0.417 -12.002  0.00  0.00     0.052 H 
ATOM     34  H   LIG d   1       6.009  -0.072 -11.579  0.00  0.00     0.052 H 
ATOM     35  H   LIG d   1       4.884  -0.664 -10.335  0.00  0.00     0.052 H 
ENDBRANCH  31  32
ENDBRANCH  29  31
BRANCH  29  36
ATOM     36  O   LIG d   1       6.069   2.345  -9.393  0.00  0.00    -0.350 OA
BRANCH  36  37
ATOM     37  C   LIG d   1       6.970   1.746  -8.459  0.00  0.00     0.040 C 
ATOM     38  H   LIG d   1       7.137   2.428  -7.626  0.00  0.00     0.052 H 
ATOM     39  H   LIG d   1       6.542   0.816  -8.087  0.00  0.00     0.052 H 
ATOM     40  H   LIG d   1       7.920   1.538  -8.953  0.00  0.00     0.052 H 
ENDBRANCH  36  37
ENDBRANCH  29  36
ENDBRANCH  26  29
ENDBRANCH  23  26
ENDBRANCH   1  23
TORSDOF 12
ENDMDL
MODEL 3
REMARK VINA RESULT:      -4.3      8.939     10.761
REMARK  12 active torsions:
REMARK  status: ('A' for Active; 'I' for Inactive)
REMARK    1  A    between atoms: C_1  and  C_2 
REMARK    2  A    between atoms: C_2  and  C_4 
REMARK    3  A    between atoms: C_2  and  N_38 
REMARK    4  A    between atoms: C_7  and  O_11 
REMARK    5  A    between atoms: C_8  and  O_10 
REMARK    6  A    between atoms: O_11  and  C_12 
REMARK    7  A    between atoms: C_13  and  C_14 
REMARK    8  A    between atoms: C_13  and  N_38 
REMARK    9  A    between atoms: C_14  and  O_15 
REMARK   10  A    between atoms: C_14  and  O_17 
REMARK   11  A    between atoms: O_15  and  C_16 
REMARK   12  A    between atoms: O_17  and  C_18 
ROOT
ATOM      1  C   LIG d   1      10.145   7.896  -4.321  0.00  0.00     0.001 C 
ATOM      2  H   LIG d   1      11.124   7.501  -4.051  0.00  0.00     0.090 H 
ENDROOT
BRANCH   1   3
ATOM      3  C   LIG d   1      10.129   9.411  -4.104  0.00  0.00    -0.017 C 
ATOM      4  H   LIG d   1      10.880   9.679  -3.361  0.00  0.00     0.029 H 
ATOM      5  H   LIG d   1      10.352   9.914  -5.044  0.00  0.00     0.029 H 
ATOM      6  H   LIG d   1       9.144   9.717  -3.752  0.00  0.00     0.029 H 
ENDBRANCH   1   3
BRANCH   1   7
ATOM      7  C   LIG d   1       9.862   7.593  -5.770  0.00  0.00     0.004 A 
ATOM      8  C   LIG d   1       9.269   8.549  -6.571  0.00  0.00    -0.008 A 
ATOM      9  C   LIG d   1       9.007   8.272  -7.904  0.00  0.00     0.159 A 
ATOM     10  H   LIG d   1       9.009   9.513  -6.159  0.00  0.00     0.066 H 
ATOM     11  C   LIG d   1       9.344   7.029  -8.431  0.00  0.00     0.161 A 
ATOM     12  C   LIG d   1       9.934   6.072  -7.620  0.00  0.00    -0.016 A 
ATOM     13  C   LIG d   1      10.196   6.358  -6.293  0.00  0.00    -0.050 A 
ATOM     14  H   LIG d   1      10.192   5.105  -8.026  0.00  0.00     0.066 H 
ATOM     15  H   LIG d   1      10.659   5.612  -5.663  0.00  0.00     0.062 H 
BRANCH   9  16
ATOM     16  O   LIG d   1       8.424   9.212  -8.694  0.00  0.00    -0.503 OA
ATOM     17  H   LIG d   1       7.567   8.945  -9.055  0.00  0.00     0.292 HD
ENDBRANCH   9  16
BRANCH  11  18
ATOM     18  O   LIG d   1       9.089   6.751  -9.738  0.00  0.00    -0.491 OA
BRANCH  18  19
ATOM     19  C   LIG d   1       9.123   5.377 -10.128  0.00  0.00     0.079 C 
ATOM     20  H   LIG d   1       9.288   4.754  -9.248  0.00  0.00     0.066 H 
ATOM     21  H   LIG d   1       9.932   5.221 -10.841  0.00  0.00     0.066 H 
ATOM     22  H   LIG d   1       8.173   5.107 -10.590  0.00  0.00     0.066 H 
ENDBRANCH  18  19
ENDBRANCH  11  18
ENDBRANCH   1   7
BRANCH   1  23
ATOM     23  N   LIG d   1       9.106   7.267  -3.483  0.00  0.00     0.236 N 
ATOM     24  H   LIG d   1       8.513   6.671  -4.070  0.00  0.00     0.202 HD
ATOM     25  H   LIG d   1       8.532   8.000  -3.049  0.00  0.00     0.202 HD
BRANCH  23  26
ATOM     26  C   LIG d   1       9.729   6.446  -2.426  0.00  0.00     0.019 C 
ATOM     27  H   LIG d   1       9.117   5.564  -2.240  0.00  0.00     0.086 H 
ATOM     28  H   LIG d   1      10.725   6.138  -2.742  0.00  0.00     0.086 H 
BRANCH  26  29
ATOM     29  C   LIG d   1       9.832   7.274  -1.145  0.00  0.00     0.199 C 
ATOM     30  H   LIG d   1      10.620   8.020  -1.257  0.00  0.00     0.097 H 
BRANCH  29  31
ATOM     31  O   LIG d   1       8.588   7.931  -0.900  0.00  0.00    -0.350 OA
BRANCH  31  32
ATOM     32  C   LIG d   1       8.705   9.337  -0.678  0.00  0.00     0.040 C 
ATOM     33  H   LIG d   1       8.601   9.549   0.386  0.00  0.00     0.052 H 
ATOM     34  H   LIG d   1       9.681   9.679  -1.022  0.00  0.00     0.052 H 
ATOM     35  H   LIG d   1       7.923   9.860  -1.229  0.00  0.00     0.052 H 
ENDBRANCH  31  32
ENDBRANCH  29  31
BRANCH  29  36
ATOM     36  O   LIG d   1      10.142   6.416  -0.045  0.00  0.00    -0.350 OA
BRANCH  36  37
ATOM     37  C   LIG d   1      11.142   6.935   0.834  0.00  0.00     0.040 C 
ATOM     38  H   LIG d   1      11.723   7.696   0.315  0.00  0.00     0.052 H 
ATOM     39  H   LIG d   1      10.664   7.375   1.708  0.00  0.00     0.052 H 
ATOM     40  H   LIG d   1      11.803   6.127   1.150  0.00  0.00     0.052 H 
ENDBRANCH  36  37
ENDBRANCH  29  36
ENDBRANCH  26  29
ENDBRANCH  23  26
ENDBRANCH   1  23
TORSDOF 12
ENDMDL
MODEL 4
REMARK VINA RESULT:      -4.3      2.325      4.950
REMARK  12 active torsions:
REMARK  status: ('A' for Active; 'I' for Inactive)
REMARK    1  A    between atoms: C_1  and  C_2 
REMARK    2  A    between atoms: C_2  and  C_4 
REMARK    3  A    between atoms: C_2  and  N_38 
REMARK    4  A    between atoms: C_7  and  O_11 
REMARK    5  A    between atoms: C_8  and  O_10 
REMARK    6  A    between atoms: O_11  and  C_12 
REMARK    7  A    between atoms: C_13  and  C_14 
REMARK    8  A    between atoms: C_13  and  N_38 
REMARK    9  A    between atoms: C_14  and  O_15 
REMARK   10  A    between atoms: C_14  and  O_17 
REMARK   11  A    between atoms: O_15  and  C_16 
REMARK   12  A    between atoms: O_17  and  C_18 
ROOT
ATOM      1  C   LIG d   1       4.347  -0.651  -2.967  0.00  0.00     0.001 C 
ATOM      2  H   LIG d   1       3.844   0.044  -2.294  0.00  0.00     0.090 H 
ENDROOT
BRANCH   1   3
ATOM      3  C   LIG d   1       4.035  -2.088  -2.542  0.00  0.00    -0.017 C 
ATOM      4  H   LIG d   1       4.913  -2.712  -2.706  0.00  0.00     0.029 H 
ATOM      5  H   LIG d   1       3.770  -2.104  -1.485  0.00  0.00     0.029 H 
ATOM      6  H   LIG d   1       3.203  -2.469  -3.133  0.00  0.00     0.029 H 
ENDBRANCH   1   3
BRANCH   1   7
ATOM      7  C   LIG d   1       3.861  -0.426  -4.376  0.00  0.00     0.004 A 
ATOM      8  C   LIG d   1       4.474  -1.079  -5.429  0.00  0.00    -0.008 A 
ATOM      9  C   LIG d   1       4.029  -0.874  -6.725  0.00  0.00     0.159 A 
ATOM     10  H   LIG d   1       5.299  -1.750  -5.241  0.00  0.00     0.066 H 
ATOM     11  C   LIG d   1       2.965  -0.009  -6.963  0.00  0.00     0.161 A 
ATOM     12  C   LIG d   1       2.358   0.646  -5.903  0.00  0.00    -0.016 A 
ATOM     13  C   LIG d   1       2.804   0.433  -4.612  0.00  0.00    -0.050 A 
ATOM     14  H   LIG d   1       1.535   1.321  -6.085  0.00  0.00     0.066 H 
ATOM     15  H   LIG d   1       2.328   0.942  -3.786  0.00  0.00     0.062 H 
BRANCH   9  16
ATOM     16  O   LIG d   1       4.630  -1.515  -7.762  0.00  0.00    -0.503 OA
ATOM     17  H   LIG d   1       4.632  -2.479  -7.680  0.00  0.00     0.292 HD
ENDBRANCH   9  16
BRANCH  11  18
ATOM     18  O   LIG d   1       2.524   0.196  -8.233  0.00  0.00    -0.491 OA
BRANCH  18  19
ATOM     19  C   LIG d   1       2.746   1.491  -8.796  0.00  0.00     0.079 C 
ATOM     20  H   LIG d   1       3.244   2.125  -8.062  0.00  0.00     0.066 H 
ATOM     21  H   LIG d   1       1.790   1.935  -9.072  0.00  0.00     0.066 H 
ATOM     22  H   LIG d   1       3.374   1.399  -9.682  0.00  0.00     0.066 H 
ENDBRANCH  18  19
ENDBRANCH  11  18
ENDBRANCH   1   7
BRANCH   1  23
ATOM     23  N   LIG d   1       5.804  -0.426  -2.916  0.00  0.00     0.236 N 
ATOM     24  H   LIG d   1       6.256  -0.963  -3.665  0.00  0.00     0.202 HD
ATOM     25  H   LIG d   1       6.163  -0.741  -2.006  0.00  0.00     0.202 HD
BRANCH  23  26
ATOM     26  C   LIG d   1       6.108   1.007  -3.091  0.00  0.00     0.019 C 
ATOM     27  H   LIG d   1       5.299   1.487  -3.642  0.00  0.00     0.086 H 
ATOM     28  H   LIG d   1       6.216   1.480  -2.116  0.00  0.00     0.086 H 
BRANCH  26  29
ATOM     29  C   LIG d   1       7.413   1.149  -3.876  0.00  0.00     0.199 C 
ATOM     30  H   LIG d   1       8.032   0.266  -3.715  0.00  0.00     0.097 H 
BRANCH  29  31
ATOM     31  O   LIG d   1       7.122   1.279  -5.268  0.00  0.00    -0.350 OA
BRANCH  31  32
ATOM     32  C   LIG d   1       7.732   0.280  -6.086  0.00  0.00     0.040 C 
ATOM     33  H   LIG d   1       7.306   0.319  -7.088  0.00  0.00     0.052 H 
ATOM     34  H   LIG d   1       8.806   0.461  -6.141  0.00  0.00     0.052 H 
ATOM     35  H   LIG d   1       7.553  -0.704  -5.654  0.00  0.00     0.052 H 
ENDBRANCH  31  32
ENDBRANCH  29  31
BRANCH  29  36
ATOM     36  O   LIG d   1       8.115   2.310  -3.426  0.00  0.00    -0.350 OA
BRANCH  36  37
ATOM     37  C   LIG d   1       9.535   2.222  -3.568  0.00  0.00     0.040 C 
ATOM     38  H   LIG d   1       9.780   1.900  -4.580  0.00  0.00     0.052 H 
ATOM     39  H   LIG d   1       9.979   3.199  -3.381  0.00  0.00     0.052 H 
ATOM     40  H   LIG d   1       9.928   1.501  -2.852  0.00  0.00     0.052 H 
ENDBRANCH  36  37
ENDBRANCH  29  36
ENDBRANCH  26  29
ENDBRANCH  23  26
ENDBRANCH   1  23
TORSDOF 12
ENDMDL
MODEL 5
REMARK VINA RESULT:      -4.2      5.380      7.481
REMARK  12 active torsions:
REMARK  status: ('A' for Active; 'I' for Inactive)
REMARK    1  A    between atoms: C_1  and  C_2 
REMARK    2  A    between atoms: C_2  and  C_4 
REMARK    3  A    between atoms: C_2  and  N_38 
REMARK    4  A    between atoms: C_7  and  O_11 
REMARK    5  A    between atoms: C_8  and  O_10 
REMARK    6  A    between atoms: O_11  and  C_12 
REMARK    7  A    between atoms: C_13  and  C_14 
REMARK    8  A    between atoms: C_13  and  N_38 
REMARK    9  A    between atoms: C_14  and  O_15 
REMARK   10  A    between atoms: C_14  and  O_17 
REMARK   11  A    between atoms: O_15  and  C_16 
REMARK   12  A    between atoms: O_17  and  C_18 
ROOT
ATOM      1  C   LIG d   1       8.958   2.539  -5.027  0.00  0.00     0.001 C 
ATOM      2  H   LIG d   1       8.946   2.831  -6.076  0.00  0.00     0.090 H 
ENDROOT
BRANCH   1   3
ATOM      3  C   LIG d   1       9.898   1.346  -4.840  0.00  0.00    -0.017 C 
ATOM      4  H   LIG d   1      10.407   1.432  -3.880  0.00  0.00     0.029 H 
ATOM      5  H   LIG d   1       9.321   0.422  -4.863  0.00  0.00     0.029 H 
ATOM      6  H   LIG d   1      10.635   1.335  -5.642  0.00  0.00     0.029 H 
ENDBRANCH   1   3
BRANCH   1   7
ATOM      7  C   LIG d   1       9.440   3.695  -4.189  0.00  0.00     0.004 A 
ATOM      8  C   LIG d   1      10.099   3.456  -2.997  0.00  0.00    -0.008 A 
ATOM      9  C   LIG d   1      10.543   4.518  -2.225  0.00  0.00     0.159 A 
ATOM     10  H   LIG d   1      10.269   2.441  -2.669  0.00  0.00     0.066 H 
ATOM     11  C   LIG d   1      10.324   5.824  -2.653  0.00  0.00     0.161 A 
ATOM     12  C   LIG d   1       9.657   6.056  -3.846  0.00  0.00    -0.016 A 
ATOM     13  C   LIG d   1       9.222   4.992  -4.613  0.00  0.00    -0.050 A 
ATOM     14  H   LIG d   1       9.482   7.069  -4.177  0.00  0.00     0.066 H 
ATOM     15  H   LIG d   1       8.705   5.175  -5.544  0.00  0.00     0.062 H 
BRANCH   9  16
ATOM     16  O   LIG d   1      11.192   4.285  -1.054  0.00  0.00    -0.503 OA
ATOM     17  H   LIG d   1      12.112   4.586  -1.048  0.00  0.00     0.292 HD
ENDBRANCH   9  16
BRANCH  11  18
ATOM     18  O   LIG d   1      10.757   6.870  -1.899  0.00  0.00    -0.491 OA
BRANCH  18  19
ATOM     19  C   LIG d   1       9.768   7.593  -1.163  0.00  0.00     0.079 C 
ATOM     20  H   LIG d   1       9.022   6.898  -0.777  0.00  0.00     0.066 H 
ATOM     21  H   LIG d   1       9.285   8.317  -1.819  0.00  0.00     0.066 H 
ATOM     22  H   LIG d   1      10.244   8.114  -0.332  0.00  0.00     0.066 H 
ENDBRANCH  18  19
ENDBRANCH  11  18
ENDBRANCH   1   7
BRANCH   1  23
ATOM     23  N   LIG d   1       7.596   2.165  -4.598  0.00  0.00     0.236 N 
ATOM     24  H   LIG d   1       6.998   2.059  -5.424  0.00  0.00     0.202 HD
ATOM     25  H   LIG d   1       7.218   2.905  -3.994  0.00  0.00     0.202 HD
BRANCH  23  26
ATOM     26  C   LIG d   1       7.626   0.894  -3.850  0.00  0.00     0.019 C 
ATOM     27  H   LIG d   1       8.076   0.117  -4.467  0.00  0.00     0.086 H 
ATOM     28  H   LIG d   1       8.211   1.018  -2.939  0.00  0.00     0.086 H 
BRANCH  26  29
ATOM     29  C   LIG d   1       6.195   0.493  -3.487  0.00  0.00     0.199 C 
ATOM     30  H   LIG d   1       5.578   0.500  -4.386  0.00  0.00     0.097 H 
BRANCH  29  31
ATOM     31  O   LIG d   1       6.196  -0.818  -2.920  0.00  0.00    -0.350 OA
BRANCH  31  32
ATOM     32  C   LIG d   1       6.657  -1.837  -3.810  0.00  0.00     0.040 C 
ATOM     33  H   LIG d   1       6.685  -2.792  -3.286  0.00  0.00     0.052 H 
ATOM     34  H   LIG d   1       5.981  -1.909  -4.661  0.00  0.00     0.052 H 
ATOM     35  H   LIG d   1       7.658  -1.587  -4.161  0.00  0.00     0.052 H 
ENDBRANCH  31  32
ENDBRANCH  29  31
BRANCH  29  36
ATOM     36  O   LIG d   1       5.666   1.421  -2.539  0.00  0.00    -0.350 OA
BRANCH  36  37
ATOM     37  C   LIG d   1       4.571   0.912  -1.775  0.00  0.00     0.040 C 
ATOM     38  H   LIG d   1       4.898   0.723  -0.753  0.00  0.00     0.052 H 
ATOM     39  H   LIG d   1       3.762   1.641  -1.769  0.00  0.00     0.052 H 
ATOM     40  H   LIG d   1       4.218  -0.019  -2.220  0.00  0.00     0.052 H 
ENDBRANCH  36  37
ENDBRANCH  29  36
ENDBRANCH  26  29
ENDBRANCH  23  26
ENDBRANCH   1  23
TORSDOF 12
ENDMDL
MODEL 6
REMARK VINA RESULT:      -4.2      3.700      6.622
REMARK  12 active torsions:
REMARK  status: ('A' for Active; 'I' for Inactive)
REMARK    1  A    between atoms: C_1  and  C_2 
REMARK    2  A    between atoms: C_2  and  C_4 
REMARK    3  A    between atoms: C_2  and  N_38 
REMARK    4  A    between atoms: C_7  and  O_11 
REMARK    5  A    between atoms: C_8  and  O_10 
REMARK    6  A    between atoms: O_11  and  C_12 
REMARK    7  A    between atoms: C_13  and  C_14 
REMARK    8  A    between atoms: C_13  and  N_38 
REMARK    9  A    between atoms: C_14  and  O_15 
REMARK   10  A    between atoms: C_14  and  O_17 
REMARK   11  A    between atoms: O_15  and  C_16 
REMARK   12  A    between atoms: O_17  and  C_18 
ROOT
ATOM      1  C   LIG d   1       3.226   0.194  -7.865  0.00  0.00     0.001 C 
ATOM      2  H   LIG d   1       4.310   0.104  -7.809  0.00  0.00     0.090 H 
ENDROOT
BRANCH   1   3
ATOM      3  C   LIG d   1       2.854   1.604  -8.328  0.00  0.00    -0.017 C 
ATOM      4  H   LIG d   1       1.987   1.553  -8.986  0.00  0.00     0.029 H 
ATOM      5  H   LIG d   1       2.616   2.220  -7.461  0.00  0.00     0.029 H 
ATOM      6  H   LIG d   1       3.693   2.043  -8.867  0.00  0.00     0.029 H 
ENDBRANCH   1   3
BRANCH   1   7
ATOM      7  C   LIG d   1       2.687  -0.816  -8.845  0.00  0.00     0.004 A 
ATOM      8  C   LIG d   1       1.747  -0.433  -9.783  0.00  0.00    -0.008 A 
ATOM      9  C   LIG d   1       1.250  -1.360 -10.686  0.00  0.00     0.159 A 
ATOM     10  H   LIG d   1       1.400   0.589  -9.813  0.00  0.00     0.066 H 
ATOM     11  C   LIG d   1       1.700  -2.677 -10.644  0.00  0.00     0.161 A 
ATOM     12  C   LIG d   1       2.639  -3.055  -9.697  0.00  0.00    -0.016 A 
ATOM     13  C   LIG d   1       3.134  -2.124  -8.804  0.00  0.00    -0.050 A 
ATOM     14  H   LIG d   1       2.987  -4.077  -9.660  0.00  0.00     0.066 H 
ATOM     15  H   LIG d   1       3.868  -2.419  -8.069  0.00  0.00     0.062 H 
BRANCH   9  16
ATOM     16  O   LIG d   1       0.326  -0.986 -11.609  0.00  0.00    -0.503 OA
ATOM     17  H   LIG d   1      -0.305  -1.682 -11.839  0.00  0.00     0.292 HD
ENDBRANCH   9  16
BRANCH  11  18
ATOM     18  O   LIG d   1       1.216  -3.591 -11.527  0.00  0.00    -0.491 OA
BRANCH  18  19
ATOM     19  C   LIG d   1       0.221  -4.495 -11.044  0.00  0.00     0.079 C 
ATOM     20  H   LIG d   1       0.458  -5.507 -11.376  0.00  0.00     0.066 H 
ATOM     21  H   LIG d   1      -0.754  -4.204 -11.435  0.00  0.00     0.066 H 
ATOM     22  H   LIG d   1       0.200  -4.466  -9.955  0.00  0.00     0.066 H 
ENDBRANCH  18  19
ENDBRANCH  11  18
ENDBRANCH   1   7
BRANCH   1  23
ATOM     23  N   LIG d   1       2.637  -0.060  -6.536  0.00  0.00     0.236 N 
ATOM     24  H   LIG d   1       2.041  -0.894  -6.583  0.00  0.00     0.202 HD
ATOM     25  H   LIG d   1       2.070   0.750  -6.258  0.00  0.00     0.202 HD
BRANCH  23  26
ATOM     26  C   LIG d   1       3.701  -0.277  -5.537  0.00  0.00     0.019 C 
ATOM     27  H   LIG d   1       3.968  -1.333  -5.510  0.00  0.00     0.086 H 
ATOM     28  H   LIG d   1       4.577   0.313  -5.802  0.00  0.00     0.086 H 
BRANCH  26  29
ATOM     29  C   LIG d   1       3.191   0.155  -4.161  0.00  0.00     0.199 C 
ATOM     30  H   LIG d   1       2.240   0.675  -4.274  0.00  0.00     0.097 H 
BRANCH  29  31
ATOM     31  O   LIG d   1       3.009  -0.997  -3.337  0.00  0.00    -0.350 OA
BRANCH  31  32
ATOM     32  C   LIG d   1       4.022  -1.992  -3.494  0.00  0.00     0.040 C 
ATOM     33  H   LIG d   1       4.758  -1.891  -2.696  0.00  0.00     0.052 H 
ATOM     34  H   LIG d   1       3.570  -2.982  -3.447  0.00  0.00     0.052 H 
ATOM     35  H   LIG d   1       4.513  -1.862  -4.458  0.00  0.00     0.052 H 
ENDBRANCH  31  32
ENDBRANCH  29  31
BRANCH  29  36
ATOM     36  O   LIG d   1       4.143   1.030  -3.553  0.00  0.00    -0.350 OA
BRANCH  36  37
ATOM     37  C   LIG d   1       3.848   1.355  -2.192  0.00  0.00     0.040 C 
ATOM     38  H   LIG d   1       4.643   0.978  -1.549  0.00  0.00     0.052 H 
ATOM     39  H   LIG d   1       3.775   2.436  -2.085  0.00  0.00     0.052 H 
ATOM     40  H   LIG d   1       2.901   0.896  -1.906  0.00  0.00     0.052 H 
ENDBRANCH  36  37
ENDBRANCH  29  36
ENDBRANCH  26  29
ENDBRANCH  23  26
ENDBRANCH   1  23
TORSDOF 12
ENDMDL
MODEL 7
REMARK VINA RESULT:      -4.2      9.559     11.787
REMARK  12 active torsions:
REMARK  status: ('A' for Active; 'I' for Inactive)
REMARK    1  A    between atoms: C_1  and  C_2 
REMARK    2  A    between atoms: C_2  and  C_4 
REMARK    3  A    between atoms: C_2  and  N_38 
REMARK    4  A    between atoms: C_7  and  O_11 
REMARK    5  A    between atoms: C_8  and  O_10 
REMARK    6  A    between atoms: O_11  and  C_12 
REMARK    7  A    between atoms: C_13  and  C_14 
REMARK    8  A    between atoms: C_13  and  N_38 
REMARK    9  A    between atoms: C_14  and  O_15 
REMARK   10  A    between atoms: C_14  and  O_17 
REMARK   11  A    between atoms: O_15  and  C_16 
REMARK   12  A    between atoms: O_17  and  C_18 
ROOT
ATOM      1  C   LIG d   1       9.822   6.708  -4.572  0.00  0.00     0.001 C 
ATOM      2  H   LIG d   1       9.295   5.905  -5.087  0.00  0.00     0.090 H 
ENDROOT
BRANCH   1   3
ATOM      3  C   LIG d   1      11.251   6.260  -4.258  0.00  0.00    -0.017 C 
ATOM      4  H   LIG d   1      11.907   7.130  -4.234  0.00  0.00     0.029 H 
ATOM      5  H   LIG d   1      11.271   5.764  -3.288  0.00  0.00     0.029 H 
ATOM      6  H   LIG d   1      11.593   5.568  -5.028  0.00  0.00     0.029 H 
ENDBRANCH   1   3
BRANCH   1   7
ATOM      7  C   LIG d   1       9.860   7.930  -5.452  0.00  0.00     0.004 A 
ATOM      8  C   LIG d   1       9.180   7.935  -6.656  0.00  0.00    -0.008 A 
ATOM      9  C   LIG d   1       9.214   9.058  -7.467  0.00  0.00     0.159 A 
ATOM     10  H   LIG d   1       8.622   7.063  -6.963  0.00  0.00     0.066 H 
ATOM     11  C   LIG d   1       9.934  10.180  -7.067  0.00  0.00     0.161 A 
ATOM     12  C   LIG d   1      10.618  10.166  -5.861  0.00  0.00    -0.016 A 
ATOM     13  C   LIG d   1      10.576   9.044  -5.055  0.00  0.00    -0.050 A 
ATOM     14  H   LIG d   1      11.182  11.034  -5.550  0.00  0.00     0.066 H 
ATOM     15  H   LIG d   1      11.106   9.036  -4.114  0.00  0.00     0.062 H 
BRANCH   9  16
ATOM     16  O   LIG d   1       8.546   9.065  -8.650  0.00  0.00    -0.503 OA
ATOM     17  H   LIG d   1       9.122   9.105  -9.427  0.00  0.00     0.292 HD
ENDBRANCH   9  16
BRANCH  11  18
ATOM     18  O   LIG d   1       9.971  11.284  -7.858  0.00  0.00    -0.491 OA
BRANCH  18  19
ATOM     19  C   LIG d   1       9.679  12.538  -7.238  0.00  0.00     0.079 C 
ATOM     20  H   LIG d   1      10.567  13.171  -7.261  0.00  0.00     0.066 H 
ATOM     21  H   LIG d   1       9.379  12.370  -6.203  0.00  0.00     0.066 H 
ATOM     22  H   LIG d   1       8.868  13.030  -7.776  0.00  0.00     0.066 H 
ENDBRANCH  18  19
ENDBRANCH  11  18
ENDBRANCH   1   7
BRANCH   1  23
ATOM     23  N   LIG d   1       9.122   7.038  -3.315  0.00  0.00     0.236 N 
ATOM     24  H   LIG d   1       8.160   6.682  -3.360  0.00  0.00     0.202 HD
ATOM     25  H   LIG d   1       9.104   8.058  -3.196  0.00  0.00     0.202 HD
BRANCH  23  26
ATOM     26  C   LIG d   1       9.816   6.424  -2.166  0.00  0.00     0.019 C 
ATOM     27  H   LIG d   1       9.267   5.543  -1.836  0.00  0.00     0.086 H 
ATOM     28  H   LIG d   1      10.824   6.136  -2.460  0.00  0.00     0.086 H 
BRANCH  26  29
ATOM     29  C   LIG d   1       9.886   7.439  -1.025  0.00  0.00     0.199 C 
ATOM     30  H   LIG d   1      10.636   8.196  -1.257  0.00  0.00     0.097 H 
BRANCH  29  31
ATOM     31  O   LIG d   1       8.612   8.065  -0.864  0.00  0.00    -0.350 OA
BRANCH  31  32
ATOM     32  C   LIG d   1       8.675   9.485  -0.717  0.00  0.00     0.040 C 
ATOM     33  H   LIG d   1       9.470   9.744  -0.017  0.00  0.00     0.052 H 
ATOM     34  H   LIG d   1       8.881   9.942  -1.685  0.00  0.00     0.052 H 
ATOM     35  H   LIG d   1       7.723   9.855  -0.336  0.00  0.00     0.052 H 
ENDBRANCH  31  32
ENDBRANCH  29  31
BRANCH  29  36
ATOM     36  O   LIG d   1      10.244   6.771   0.186  0.00  0.00    -0.350 OA
BRANCH  36  37
ATOM     37  C   LIG d   1      11.218   5.739   0.015  0.00  0.00     0.040 C 
ATOM     38  H   LIG d   1      11.373   5.225   0.963  0.00  0.00     0.052 H 
ATOM     39  H   LIG d   1      10.866   5.028  -0.731  0.00  0.00     0.052 H 
ATOM     40  H   LIG d   1      12.159   6.179  -0.317  0.00  0.00     0.052 H 
ENDBRANCH  36  37
ENDBRANCH  29  36
ENDBRANCH  26  29
ENDBRANCH  23  26
ENDBRANCH   1  23
TORSDOF 12
ENDMDL
MODEL 8
REMARK VINA RESULT:      -4.1      3.714      6.905
REMARK  12 active torsions:
REMARK  status: ('A' for Active; 'I' for Inactive)
REMARK    1  A    between atoms: C_1  and  C_2 
REMARK    2  A    between atoms: C_2  and  C_4 
REMARK    3  A    between atoms: C_2  and  N_38 
REMARK    4  A    between atoms: C_7  and  O_11 
REMARK    5  A    between atoms: C_8  and  O_10 
REMARK    6  A    between atoms: O_11  and  C_12 
REMARK    7  A    between atoms: C_13  and  C_14 
REMARK    8  A    between atoms: C_13  and  N_38 
REMARK    9  A    between atoms: C_14  and  O_15 
REMARK   10  A    between atoms: C_14  and  O_17 
REMARK   11  A    between atoms: O_15  and  C_16 
REMARK   12  A    between atoms: O_17  and  C_18 
ROOT
ATOM      1  C   LIG d   1       3.234   0.497  -8.183  0.00  0.00     0.001 C 
ATOM      2  H   LIG d   1       4.314   0.437  -8.049  0.00  0.00     0.090 H 
ENDROOT
BRANCH   1   3
ATOM      3  C   LIG d   1       2.801   1.965  -8.187  0.00  0.00    -0.017 C 
ATOM      4  H   LIG d   1       3.531   2.560  -7.641  0.00  0.00     0.029 H 
ATOM      5  H   LIG d   1       2.738   2.321  -9.215  0.00  0.00     0.029 H 
ATOM      6  H   LIG d   1       1.826   2.057  -7.710  0.00  0.00     0.029 H 
ENDBRANCH   1   3
BRANCH   1   7
ATOM      7  C   LIG d   1       2.855  -0.143  -9.494  0.00  0.00     0.004 A 
ATOM      8  C   LIG d   1       1.817  -1.056  -9.541  0.00  0.00    -0.008 A 
ATOM      9  C   LIG d   1       1.467  -1.646 -10.745  0.00  0.00     0.159 A 
ATOM     10  H   LIG d   1       1.280  -1.308  -8.639  0.00  0.00     0.066 H 
ATOM     11  C   LIG d   1       2.162  -1.317 -11.905  0.00  0.00     0.161 A 
ATOM     12  C   LIG d   1       3.204  -0.405 -11.850  0.00  0.00    -0.016 A 
ATOM     13  C   LIG d   1       3.545   0.183 -10.646  0.00  0.00    -0.050 A 
ATOM     14  H   LIG d   1       3.748  -0.151 -12.748  0.00  0.00     0.066 H 
ATOM     15  H   LIG d   1       4.356   0.897 -10.605  0.00  0.00     0.062 H 
BRANCH   9  16
ATOM     16  O   LIG d   1       0.447  -2.543 -10.794  0.00  0.00    -0.503 OA
ATOM     17  H   LIG d   1       0.063  -2.654 -11.675  0.00  0.00     0.292 HD
ENDBRANCH   9  16
BRANCH  11  18
ATOM     18  O   LIG d   1       1.823  -1.892 -13.089  0.00  0.00    -0.491 OA
BRANCH  18  19
ATOM     19  C   LIG d   1       2.814  -1.893 -14.118  0.00  0.00     0.079 C 
ATOM     20  H   LIG d   1       3.095  -2.921 -14.351  0.00  0.00     0.066 H 
ATOM     21  H   LIG d   1       3.692  -1.346 -13.777  0.00  0.00     0.066 H 
ATOM     22  H   LIG d   1       2.412  -1.416 -15.012  0.00  0.00     0.066 H 
ENDBRANCH  18  19
ENDBRANCH  11  18
ENDBRANCH   1   7
BRANCH   1  23
ATOM     23  N   LIG d   1       2.555  -0.214  -7.083  0.00  0.00     0.236 N 
ATOM     24  H   LIG d   1       2.948  -1.159  -6.997  0.00  0.00     0.202 HD
ATOM     25  H   LIG d   1       1.552  -0.278  -7.291  0.00  0.00     0.202 HD
BRANCH  23  26
ATOM     26  C   LIG d   1       2.745   0.510  -5.811  0.00  0.00     0.019 C 
ATOM     27  H   LIG d   1       3.263   1.450  -5.999  0.00  0.00     0.086 H 
ATOM     28  H   LIG d   1       1.776   0.713  -5.358  0.00  0.00     0.086 H 
BRANCH  26  29
ATOM     29  C   LIG d   1       3.581  -0.353  -4.865  0.00  0.00     0.199 C 
ATOM     30  H   LIG d   1       3.715  -1.344  -5.299  0.00  0.00     0.097 H 
BRANCH  29  31
ATOM     31  O   LIG d   1       4.859   0.256  -4.668  0.00  0.00    -0.350 OA
BRANCH  31  32
ATOM     32  C   LIG d   1       5.922  -0.381  -5.378  0.00  0.00     0.040 C 
ATOM     33  H   LIG d   1       6.220   0.240  -6.223  0.00  0.00     0.052 H 
ATOM     34  H   LIG d   1       6.774  -0.518  -4.712  0.00  0.00     0.052 H 
ATOM     35  H   LIG d   1       5.587  -1.352  -5.743  0.00  0.00     0.052 H 
ENDBRANCH  31  32
ENDBRANCH  29  31
BRANCH  29  36
ATOM     36  O   LIG d   1       2.911  -0.470  -3.608  0.00  0.00    -0.350 OA
BRANCH  36  37
ATOM     37  C   LIG d   1       3.398  -1.533  -2.786  0.00  0.00     0.040 C 
ATOM     38  H   LIG d   1       2.679  -1.737  -1.993  0.00  0.00     0.052 H 
ATOM     39  H   LIG d   1       3.533  -2.428  -3.392  0.00  0.00     0.052 H 
ATOM     40  H   LIG d   1       4.352  -1.244  -2.345  0.00  0.00     0.052 H 
ENDBRANCH  36  37
ENDBRANCH  29  36
ENDBRANCH  26  29
ENDBRANCH  23  26
ENDBRANCH   1  23
TORSDOF 12
ENDMDL
MODEL 9
REMARK VINA RESULT:      -4.0      1.254      1.986
REMARK  12 active torsions:
REMARK  status: ('A' for Active; 'I' for Inactive)
REMARK    1  A    between atoms: C_1  and  C_2 
REMARK    2  A    between atoms: C_2  and  C_4 
REMARK    3  A    between atoms: C_2  and  N_38 
REMARK    4  A    between atoms: C_7  and  O_11 
REMARK    5  A    between atoms: C_8  and  O_10 
REMARK    6  A    between atoms: O_11  and  C_12 
REMARK    7  A    between atoms: C_13  and  C_14 
REMARK    8  A    between atoms: C_13  and  N_38 
REMARK    9  A    between atoms: C_14  and  O_15 
REMARK   10  A    between atoms: C_14  and  O_17 
REMARK   11  A    between atoms: O_15  and  C_16 
REMARK   12  A    between atoms: O_17  and  C_18 
ROOT
ATOM      1  C   LIG d   1       3.822  -0.929  -3.766  0.00  0.00     0.001 C 
ATOM      2  H   LIG d   1       2.857  -1.418  -3.899  0.00  0.00     0.090 H 
ENDROOT
BRANCH   1   3
ATOM      3  C   LIG d   1       3.962  -0.460  -2.317  0.00  0.00    -0.017 C 
ATOM      4  H   LIG d   1       3.972  -1.326  -1.655  0.00  0.00     0.029 H 
ATOM      5  H   LIG d   1       4.892   0.095  -2.203  0.00  0.00     0.029 H 
ATOM      6  H   LIG d   1       3.120   0.183  -2.060  0.00  0.00     0.029 H 
ENDBRANCH   1   3
BRANCH   1   7
ATOM      7  C   LIG d   1       4.927  -1.903  -4.088  0.00  0.00     0.004 A 
ATOM      8  C   LIG d   1       6.197  -1.695  -3.584  0.00  0.00    -0.008 A 
ATOM      9  C   LIG d   1       7.214  -2.589  -3.880  0.00  0.00     0.159 A 
ATOM     10  H   LIG d   1       6.397  -0.837  -2.960  0.00  0.00     0.066 H 
ATOM     11  C   LIG d   1       6.953  -3.694  -4.684  0.00  0.00     0.161 A 
ATOM     12  C   LIG d   1       5.678  -3.893  -5.190  0.00  0.00    -0.016 A 
ATOM     13  C   LIG d   1       4.667  -3.000  -4.888  0.00  0.00    -0.050 A 
ATOM     14  H   LIG d   1       5.474  -4.747  -5.819  0.00  0.00     0.066 H 
ATOM     15  H   LIG d   1       3.673  -3.158  -5.280  0.00  0.00     0.062 H 
BRANCH   9  16
ATOM     16  O   LIG d   1       8.464  -2.387  -3.385  0.00  0.00    -0.503 OA
ATOM     17  H   LIG d   1       8.503  -2.350  -2.419  0.00  0.00     0.292 HD
ENDBRANCH   9  16
BRANCH  11  18
ATOM     18  O   LIG d   1       7.947  -4.574  -4.977  0.00  0.00    -0.491 OA
BRANCH  18  19
ATOM     19  C   LIG d   1       7.910  -5.191  -6.266  0.00  0.00     0.079 C 
ATOM     20  H   LIG d   1       8.713  -4.789  -6.884  0.00  0.00     0.066 H 
ATOM     21  H   LIG d   1       6.950  -4.985  -6.739  0.00  0.00     0.066 H 
ATOM     22  H   LIG d   1       8.039  -6.268  -6.158  0.00  0.00     0.066 H 
ENDBRANCH  18  19
ENDBRANCH  11  18
ENDBRANCH   1   7
BRANCH   1  23
ATOM     23  N   LIG d   1       3.921   0.232  -4.672  0.00  0.00     0.236 N 
ATOM     24  H   LIG d   1       4.772   0.148  -5.239  0.00  0.00     0.202 HD
ATOM     25  H   LIG d   1       3.965   1.093  -4.114  0.00  0.00     0.202 HD
BRANCH  23  26
ATOM     26  C   LIG d   1       2.745   0.288  -5.562  0.00  0.00     0.019 C 
ATOM     27  H   LIG d   1       2.183  -0.642  -5.484  0.00  0.00     0.086 H 
ATOM     28  H   LIG d   1       2.109   1.124  -5.276  0.00  0.00     0.086 H 
BRANCH  26  29
ATOM     29  C   LIG d   1       3.219   0.477  -7.004  0.00  0.00     0.199 C 
ATOM     30  H   LIG d   1       4.300   0.344  -7.052  0.00  0.00     0.097 H 
BRANCH  29  31
ATOM     31  O   LIG d   1       2.583  -0.486  -7.846  0.00  0.00    -0.350 OA
BRANCH  31  32
ATOM     32  C   LIG d   1       3.440  -1.550  -8.263  0.00  0.00     0.040 C 
ATOM     33  H   LIG d   1       2.960  -2.112  -9.064  0.00  0.00     0.052 H 
ATOM     34  H   LIG d   1       4.383  -1.139  -8.622  0.00  0.00     0.052 H 
ATOM     35  H   LIG d   1       3.632  -2.214  -7.419  0.00  0.00     0.052 H 
ENDBRANCH  31  32
ENDBRANCH  29  31
BRANCH  29  36
ATOM     36  O   LIG d   1       2.882   1.793  -7.448  0.00  0.00    -0.350 OA
BRANCH  36  37
ATOM     37  C   LIG d   1       3.310   2.086  -8.780  0.00  0.00     0.040 C 
ATOM     38  H   LIG d   1       2.440   2.292  -9.403  0.00  0.00     0.052 H 
ATOM     39  H   LIG d   1       3.963   2.957  -8.768  0.00  0.00     0.052 H 
ATOM     40  H   LIG d   1       3.851   1.230  -9.184  0.00  0.00     0.052 H 
ENDBRANCH  36  37
ENDBRANCH  29  36
ENDBRANCH  26  29
ENDBRANCH  23  26
ENDBRANCH   1  23
TORSDOF 12
ENDMDL
MODEL 10
REMARK VINA RESULT:      -3.9     12.033     15.218
REMARK  12 active torsions:
REMARK  status: ('A' for Active; 'I' for Inactive)
REMARK    1  A    between atoms: C_1  and  C_2 
REMARK    2  A    between atoms: C_2  and  C_4 
REMARK    3  A    between atoms: C_2  and  N_38 
REMARK    4  A    between atoms: C_7  and  O_11 
REMARK    5  A    between atoms: C_8  and  O_10 
REMARK    6  A    between atoms: O_11  and  C_12 
REMARK    7  A    between atoms: C_13  and  C_14 
REMARK    8  A    between atoms: C_13  and  N_38 
REMARK    9  A    between atoms: C_14  and  O_15 
REMARK   10  A    between atoms: C_14  and  O_17 
REMARK   11  A    between atoms: O_15  and  C_16 
REMARK   12  A    between atoms: O_17  and  C_18 
ROOT
ATOM      1  C   LIG d   1      -3.873   6.472 -14.198  0.00  0.00     0.001 C 
ATOM      2  H   LIG d   1      -4.076   6.604 -13.135  0.00  0.00     0.090 H 
ENDROOT
BRANCH   1   3
ATOM      3  C   LIG d   1      -5.194   6.437 -14.969  0.00  0.00    -0.017 C 
ATOM      4  H   LIG d   1      -5.350   5.438 -15.376  0.00  0.00     0.029 H 
ATOM      5  H   LIG d   1      -6.014   6.687 -14.297  0.00  0.00     0.029 H 
ATOM      6  H   LIG d   1      -5.158   7.159 -15.784  0.00  0.00     0.029 H 
ENDBRANCH   1   3
BRANCH   1   7
ATOM      7  C   LIG d   1      -3.031   7.620 -14.694  0.00  0.00     0.004 A 
ATOM      8  C   LIG d   1      -1.653   7.516 -14.692  0.00  0.00    -0.008 A 
ATOM      9  C   LIG d   1      -0.877   8.571 -15.147  0.00  0.00     0.159 A 
ATOM     10  H   LIG d   1      -1.180   6.613 -14.336  0.00  0.00     0.066 H 
ATOM     11  C   LIG d   1      -1.490   9.733 -15.606  0.00  0.00     0.161 A 
ATOM     12  C   LIG d   1      -2.873   9.833 -15.600  0.00  0.00    -0.016 A 
ATOM     13  C   LIG d   1      -3.640   8.775 -15.149  0.00  0.00    -0.050 A 
ATOM     14  H   LIG d   1      -3.350  10.735 -15.951  0.00  0.00     0.066 H 
ATOM     15  H   LIG d   1      -4.717   8.853 -15.148  0.00  0.00     0.062 H 
BRANCH   9  16
ATOM     16  O   LIG d   1       0.478   8.470 -15.147  0.00  0.00    -0.503 OA
ATOM     17  H   LIG d   1       0.924   9.165 -15.652  0.00  0.00     0.292 HD
ENDBRANCH   9  16
BRANCH  11  18
ATOM     18  O   LIG d   1      -0.734  10.771 -16.054  0.00  0.00    -0.491 OA
BRANCH  18  19
ATOM     19  C   LIG d   1      -1.431  11.935 -16.503  0.00  0.00     0.079 C 
ATOM     20  H   LIG d   1      -1.899  12.430 -15.651  0.00  0.00     0.066 H 
ATOM     21  H   LIG d   1      -2.198  11.645 -17.220  0.00  0.00     0.066 H 
ATOM     22  H   LIG d   1      -0.728  12.619 -16.978  0.00  0.00     0.066 H 
ENDBRANCH  18  19
ENDBRANCH  11  18
ENDBRANCH   1   7
BRANCH   1  23
ATOM     23  N   LIG d   1      -3.142   5.209 -14.412  0.00  0.00     0.236 N 
ATOM     24  H   LIG d   1      -2.608   4.978 -13.567  0.00  0.00     0.202 HD
ATOM     25  H   LIG d   1      -2.497   5.322 -15.204  0.00  0.00     0.202 HD
BRANCH  23  26
ATOM     26  C   LIG d   1      -4.087   4.114 -14.706  0.00  0.00     0.019 C 
ATOM     27  H   LIG d   1      -5.104   4.505 -14.727  0.00  0.00     0.086 H 
ATOM     28  H   LIG d   1      -3.847   3.672 -15.672  0.00  0.00     0.086 H 
BRANCH  26  29
ATOM     29  C   LIG d   1      -3.973   3.049 -13.614  0.00  0.00     0.199 C 
ATOM     30  H   LIG d   1      -4.760   2.306 -13.748  0.00  0.00     0.097 H 
BRANCH  29  31
ATOM     31  O   LIG d   1      -2.698   2.412 -13.701  0.00  0.00    -0.350 OA
BRANCH  31  32
ATOM     32  C   LIG d   1      -2.726   1.012 -13.420  0.00  0.00     0.040 C 
ATOM     33  H   LIG d   1      -2.051   0.490 -14.098  0.00  0.00     0.052 H 
ATOM     34  H   LIG d   1      -2.411   0.840 -12.391  0.00  0.00     0.052 H 
ATOM     35  H   LIG d   1      -3.740   0.634 -13.556  0.00  0.00     0.052 H 
ENDBRANCH  31  32
ENDBRANCH  29  31
BRANCH  29  36
ATOM     36  O   LIG d   1      -4.112   3.664 -12.332  0.00  0.00    -0.350 OA
BRANCH  36  37
ATOM     37  C   LIG d   1      -5.351   3.376 -11.680  0.00  0.00     0.040 C 
ATOM     38  H   LIG d   1      -5.195   3.342 -10.602  0.00  0.00     0.052 H 
ATOM     39  H   LIG d   1      -6.075   4.155 -11.917  0.00  0.00     0.052 H 
ATOM     40  H   LIG d   1      -5.728   2.412 -12.023  0.00  0.00     0.052 H 
ENDBRANCH  36  37
ENDBRANCH  29  36
ENDBRANCH  26  29
ENDBRANCH  23  26
ENDBRANCH   1  23
TORSDOF 12
ENDMDL
