MODEL 1
REMARK VINA RESULT:      -6.1      0.000      0.000
REMARK  8 active torsions:
REMARK  status: ('A' for Active; 'I' for Inactive)
REMARK    1  A    between atoms: C_1  and  C_2 
REMARK    2  A    between atoms: C_2  and  C_3 
REMARK    3  A    between atoms: C_8  and  O_9 
REMARK    4  A    between atoms: O_9  and  C_10 
REMARK    5  A    between atoms: C_10  and  C_12 
REMARK    6  A    between atoms: C_10  and  C_13 
REMARK    7  A    between atoms: C_17  and  C_20 
REMARK    8  A    between atoms: C_22  and  C_25 
ROOT
ATOM      1  C   LIG d   1       5.217  -1.860  -3.621  0.00  0.00    -0.005 A 
ATOM      2  C   LIG d   1       5.627  -0.575  -3.407  0.00  0.00    -0.041 A 
ATOM      3  C   LIG d   1       6.854  -0.146  -3.912  0.00  0.00     0.065 A 
ATOM      4  C   LIG d   1       7.672  -1.029  -4.640  0.00  0.00     0.142 A 
ATOM      5  C   LIG d   1       7.240  -2.331  -4.849  0.00  0.00     0.023 A 
ATOM      6  C   LIG d   1       6.022  -2.744  -4.336  0.00  0.00     0.128 A 
ATOM      7  O   LIG d   1       8.858  -0.614  -5.126  0.00  0.00    -0.462 OA
ATOM      8  C   LIG d   1       9.327   0.624  -4.959  0.00  0.00     0.106 A 
ATOM      9  C   LIG d   1       8.641   1.581  -4.277  0.00  0.00     0.089 A 
ATOM     10  C   LIG d   1       7.329   1.235  -3.701  0.00  0.00     0.202 A 
ATOM     11  O   LIG d   1       6.668   2.048  -3.079  0.00  0.00    -0.286 OA
ATOM     12  H   LIG d   1       5.002   0.108  -2.849  0.00  0.00     0.063 H 
ATOM     13  H   LIG d   1       7.856  -3.023  -5.405  0.00  0.00     0.069 H 
ATOM     14  H   LIG d   1      10.289   0.877  -5.382  0.00  0.00     0.104 H 
ENDROOT
BRANCH   6  15
ATOM     15  O   LIG d   1       5.605  -4.020  -4.535  0.00  0.00    -0.483 OA
BRANCH  15  16
ATOM     16  C   LIG d   1       5.316  -4.405  -5.881  0.00  0.00     0.136 C 
ATOM     17  H   LIG d   1       6.237  -4.714  -6.377  0.00  0.00     0.079 H 
BRANCH  16  18
ATOM     18  C   LIG d   1       4.707  -3.218  -6.630  0.00  0.00    -0.022 C 
ATOM     19  H   LIG d   1       5.165  -3.138  -7.616  0.00  0.00     0.027 H 
ATOM     20  H   LIG d   1       3.633  -3.369  -6.739  0.00  0.00     0.027 H 
ATOM     21  H   LIG d   1       4.889  -2.301  -6.069  0.00  0.00     0.027 H 
ENDBRANCH  16  18
BRANCH  16  22
ATOM     22  C   LIG d   1       4.338  -5.551  -5.877  0.00  0.00     0.082 C 
ATOM     23  O   LIG d   1       3.269  -5.436  -6.429  0.00  0.00    -0.546 OA
ATOM     24  O   LIG d   1       4.655  -6.701  -5.260  0.00  0.00    -0.546 OA
ENDBRANCH  16  22
ENDBRANCH  15  16
ENDBRANCH   6  15
BRANCH   1  25
ATOM     25  C   LIG d   1       3.892  -2.325  -3.076  0.00  0.00    -0.027 C 
ATOM     26  H   LIG d   1       4.034  -2.734  -2.076  0.00  0.00     0.031 H 
ATOM     27  H   LIG d   1       3.480  -3.094  -3.729  0.00  0.00     0.031 H 
BRANCH  25  28
ATOM     28  C   LIG d   1       2.924  -1.141  -3.009  0.00  0.00    -0.061 C 
ATOM     29  H   LIG d   1       2.112  -1.375  -2.320  0.00  0.00     0.023 H 
ATOM     30  H   LIG d   1       2.515  -0.949  -4.001  0.00  0.00     0.023 H 
ATOM     31  H   LIG d   1       3.456  -0.256  -2.658  0.00  0.00     0.023 H 
ENDBRANCH  25  28
ENDBRANCH   1  25
BRANCH   9  32
ATOM     32  C   LIG d   1       9.198   2.939  -4.117  0.00  0.00     0.115 A 
ATOM     33  S   LIG d   1       9.619   4.148  -5.364  0.00  0.00    -0.075 SA
ATOM     34  C   LIG d   1      10.194   5.423  -4.249  0.00  0.00    -0.001 A 
ATOM     35  C   LIG d   1      10.010   4.810  -3.052  0.00  0.00     0.046 A 
ATOM     36  H   LIG d   1      10.581   6.408  -4.467  0.00  0.00     0.071 H 
ATOM     37  N   LIG d   1       9.515   3.594  -3.007  0.00  0.00    -0.244 NA
BRANCH  35  38
ATOM     38  C   LIG d   1      10.367   5.526  -1.774  0.00  0.00    -0.022 C 
ATOM     39  H   LIG d   1      10.338   6.602  -1.941  0.00  0.00     0.029 H 
ATOM     40  H   LIG d   1       9.651   5.259  -0.996  0.00  0.00     0.029 H 
ATOM     41  H   LIG d   1      11.369   5.232  -1.461  0.00  0.00     0.029 H 
ENDBRANCH  35  38
ENDBRANCH   9  32
TORSDOF 8
ENDMDL
MODEL 2
REMARK VINA RESULT:      -5.9      5.700      9.017
REMARK  8 active torsions:
REMARK  status: ('A' for Active; 'I' for Inactive)
REMARK    1  A    between atoms: C_1  and  C_2 
REMARK    2  A    between atoms: C_2  and  C_3 
REMARK    3  A    between atoms: C_8  and  O_9 
REMARK    4  A    between atoms: O_9  and  C_10 
REMARK    5  A    between atoms: C_10  and  C_12 
REMARK    6  A    between atoms: C_10  and  C_13 
REMARK    7  A    between atoms: C_17  and  C_20 
REMARK    8  A    between atoms: C_22  and  C_25 
ROOT
ATOM      1  C   LIG d   1       4.857  -1.686  -6.153  0.00  0.00    -0.005 A 
ATOM      2  C   LIG d   1       4.526  -2.303  -7.326  0.00  0.00    -0.041 A 
ATOM      3  C   LIG d   1       3.576  -1.725  -8.169  0.00  0.00     0.065 A 
ATOM      4  C   LIG d   1       2.958  -0.512  -7.818  0.00  0.00     0.142 A 
ATOM      5  C   LIG d   1       3.306   0.102  -6.623  0.00  0.00     0.023 A 
ATOM      6  C   LIG d   1       4.246  -0.487  -5.794  0.00  0.00     0.128 A 
ATOM      7  O   LIG d   1       2.040   0.045  -8.632  0.00  0.00    -0.462 OA
ATOM      8  C   LIG d   1       1.664  -0.496  -9.793  0.00  0.00     0.106 A 
ATOM      9  C   LIG d   1       2.180  -1.667 -10.256  0.00  0.00     0.089 A 
ATOM     10  C   LIG d   1       3.195  -2.363  -9.442  0.00  0.00     0.202 A 
ATOM     11  O   LIG d   1       3.693  -3.414  -9.804  0.00  0.00    -0.286 OA
ATOM     12  H   LIG d   1       4.998  -3.235  -7.600  0.00  0.00     0.063 H 
ATOM     13  H   LIG d   1       2.841   1.034  -6.338  0.00  0.00     0.069 H 
ATOM     14  H   LIG d   1       0.921   0.014 -10.388  0.00  0.00     0.104 H 
ENDROOT
BRANCH   6  15
ATOM     15  O   LIG d   1       4.580   0.112  -4.622  0.00  0.00    -0.483 OA
BRANCH  15  16
ATOM     16  C   LIG d   1       3.559   0.203  -3.627  0.00  0.00     0.136 C 
ATOM     17  H   LIG d   1       2.583   0.062  -4.093  0.00  0.00     0.079 H 
BRANCH  16  18
ATOM     18  C   LIG d   1       3.613   1.582  -2.965  0.00  0.00    -0.022 C 
ATOM     19  H   LIG d   1       4.363   1.576  -2.175  0.00  0.00     0.027 H 
ATOM     20  H   LIG d   1       3.877   2.332  -3.711  0.00  0.00     0.027 H 
ATOM     21  H   LIG d   1       2.638   1.820  -2.540  0.00  0.00     0.027 H 
ENDBRANCH  16  18
BRANCH  16  22
ATOM     22  C   LIG d   1       3.777  -0.863  -2.585  0.00  0.00     0.082 C 
ATOM     23  O   LIG d   1       4.431  -0.620  -1.598  0.00  0.00    -0.546 OA
ATOM     24  O   LIG d   1       3.244  -2.085  -2.753  0.00  0.00    -0.546 OA
ENDBRANCH  16  22
ENDBRANCH  15  16
ENDBRANCH   6  15
BRANCH   1  25
ATOM     25  C   LIG d   1       5.882  -2.308  -5.242  0.00  0.00    -0.027 C 
ATOM     26  H   LIG d   1       5.979  -1.706  -4.339  0.00  0.00     0.031 H 
ATOM     27  H   LIG d   1       6.843  -2.354  -5.753  0.00  0.00     0.031 H 
BRANCH  25  28
ATOM     28  C   LIG d   1       5.437  -3.723  -4.864  0.00  0.00    -0.061 C 
ATOM     29  H   LIG d   1       5.961  -4.447  -5.489  0.00  0.00     0.023 H 
ATOM     30  H   LIG d   1       4.363  -3.820  -5.016  0.00  0.00     0.023 H 
ATOM     31  H   LIG d   1       5.674  -3.910  -3.815  0.00  0.00     0.023 H 
ENDBRANCH  25  28
ENDBRANCH   1  25
BRANCH   9  32
ATOM     32  C   LIG d   1       1.735  -2.230 -11.547  0.00  0.00     0.115 A 
ATOM     33  S   LIG d   1       0.526  -3.505 -11.872  0.00  0.00    -0.075 SA
ATOM     34  C   LIG d   1       0.672  -3.496 -13.655  0.00  0.00    -0.001 A 
ATOM     35  C   LIG d   1       1.615  -2.533 -13.824  0.00  0.00     0.046 A 
ATOM     36  H   LIG d   1       0.154  -4.090 -14.393  0.00  0.00     0.071 H 
ATOM     37  N   LIG d   1       2.120  -1.920 -12.778  0.00  0.00    -0.244 NA
BRANCH  35  38
ATOM     38  C   LIG d   1       2.078  -2.164 -15.211  0.00  0.00    -0.022 C 
ATOM     39  H   LIG d   1       1.645  -2.855 -15.933  0.00  0.00     0.029 H 
ATOM     40  H   LIG d   1       1.757  -1.149 -15.441  0.00  0.00     0.029 H 
ATOM     41  H   LIG d   1       3.165  -2.221 -15.257  0.00  0.00     0.029 H 
ENDBRANCH  35  38
ENDBRANCH   9  32
TORSDOF 8
ENDMDL
MODEL 3
REMARK VINA RESULT:      -5.8      6.902     10.567
REMARK  8 active torsions:
REMARK  status: ('A' for Active; 'I' for Inactive)
REMARK    1  A    between atoms: C_1  and  C_2 
REMARK    2  A    between atoms: C_2  and  C_3 
REMARK    3  A    between atoms: C_8  and  O_9 
REMARK    4  A    between atoms: O_9  and  C_10 
REMARK    5  A    between atoms: C_10  and  C_12 
REMARK    6  A    between atoms: C_10  and  C_13 
REMARK    7  A    between atoms: C_17  and  C_20 
REMARK    8  A    between atoms: C_22  and  C_25 
ROOT
ATOM      1  C   LIG d   1       2.824   0.592  -8.665  0.00  0.00    -0.005 A 
ATOM      2  C   LIG d   1       2.127   0.118  -9.739  0.00  0.00    -0.041 A 
ATOM      3  C   LIG d   1       2.092  -1.254  -9.992  0.00  0.00     0.065 A 
ATOM      4  C   LIG d   1       2.769  -2.150  -9.147  0.00  0.00     0.142 A 
ATOM      5  C   LIG d   1       3.473  -1.652  -8.059  0.00  0.00     0.023 A 
ATOM      6  C   LIG d   1       3.504  -0.288  -7.825  0.00  0.00     0.128 A 
ATOM      7  O   LIG d   1       2.736  -3.475  -9.392  0.00  0.00    -0.462 OA
ATOM      8  C   LIG d   1       2.078  -4.014 -10.420  0.00  0.00     0.106 A 
ATOM      9  C   LIG d   1       1.379  -3.265 -11.316  0.00  0.00     0.089 A 
ATOM     10  C   LIG d   1       1.349  -1.801 -11.143  0.00  0.00     0.202 A 
ATOM     11  O   LIG d   1       0.741  -1.078 -11.912  0.00  0.00    -0.286 OA
ATOM     12  H   LIG d   1       1.604   0.802 -10.392  0.00  0.00     0.063 H 
ATOM     13  H   LIG d   1       4.000  -2.326  -7.400  0.00  0.00     0.069 H 
ATOM     14  H   LIG d   1       2.101  -5.087 -10.547  0.00  0.00     0.104 H 
ENDROOT
BRANCH   6  15
ATOM     15  O   LIG d   1       4.198   0.198  -6.764  0.00  0.00    -0.483 OA
BRANCH  15  16
ATOM     16  C   LIG d   1       3.885  -0.346  -5.481  0.00  0.00     0.136 C 
ATOM     17  H   LIG d   1       3.611  -1.397  -5.588  0.00  0.00     0.079 H 
BRANCH  16  18
ATOM     18  C   LIG d   1       2.714   0.426  -4.871  0.00  0.00    -0.022 C 
ATOM     19  H   LIG d   1       3.033   0.897  -3.941  0.00  0.00     0.027 H 
ATOM     20  H   LIG d   1       2.381   1.193  -5.571  0.00  0.00     0.027 H 
ATOM     21  H   LIG d   1       1.892  -0.260  -4.668  0.00  0.00     0.027 H 
ENDBRANCH  16  18
BRANCH  16  22
ATOM     22  C   LIG d   1       5.087  -0.231  -4.579  0.00  0.00     0.082 C 
ATOM     23  O   LIG d   1       5.882  -1.138  -4.513  0.00  0.00    -0.546 OA
ATOM     24  O   LIG d   1       5.275   0.881  -3.850  0.00  0.00    -0.546 OA
ENDBRANCH  16  22
ENDBRANCH  15  16
ENDBRANCH   6  15
BRANCH   1  25
ATOM     25  C   LIG d   1       2.863   2.073  -8.391  0.00  0.00    -0.027 C 
ATOM     26  H   LIG d   1       3.105   2.241  -7.341  0.00  0.00     0.031 H 
ATOM     27  H   LIG d   1       1.890   2.509  -8.614  0.00  0.00     0.031 H 
BRANCH  25  28
ATOM     28  C   LIG d   1       3.931   2.727  -9.271  0.00  0.00    -0.061 C 
ATOM     29  H   LIG d   1       4.007   2.184 -10.212  0.00  0.00     0.023 H 
ATOM     30  H   LIG d   1       4.891   2.703  -8.757  0.00  0.00     0.023 H 
ATOM     31  H   LIG d   1       3.651   3.763  -9.470  0.00  0.00     0.023 H 
ENDBRANCH  25  28
ENDBRANCH   1  25
BRANCH   9  32
ATOM     32  C   LIG d   1       0.665  -3.904 -12.440  0.00  0.00     0.115 A 
ATOM     33  S   LIG d   1       1.240  -4.263 -14.094  0.00  0.00    -0.075 SA
ATOM     34  C   LIG d   1      -0.271  -5.009 -14.694  0.00  0.00    -0.001 A 
ATOM     35  C   LIG d   1      -1.053  -4.913 -13.589  0.00  0.00     0.046 A 
ATOM     36  H   LIG d   1      -0.497  -5.421 -15.666  0.00  0.00     0.071 H 
ATOM     37  N   LIG d   1      -0.575  -4.374 -12.491  0.00  0.00    -0.244 NA
BRANCH  35  38
ATOM     38  C   LIG d   1      -2.469  -5.432 -13.619  0.00  0.00    -0.022 C 
ATOM     39  H   LIG d   1      -2.462  -6.512 -13.475  0.00  0.00     0.029 H 
ATOM     40  H   LIG d   1      -3.045  -4.963 -12.822  0.00  0.00     0.029 H 
ATOM     41  H   LIG d   1      -2.921  -5.195 -14.582  0.00  0.00     0.029 H 
ENDBRANCH  35  38
ENDBRANCH   9  32
TORSDOF 8
ENDMDL
MODEL 4
REMARK VINA RESULT:      -5.6      4.471      9.032
REMARK  8 active torsions:
REMARK  status: ('A' for Active; 'I' for Inactive)
REMARK    1  A    between atoms: C_1  and  C_2 
REMARK    2  A    between atoms: C_2  and  C_3 
REMARK    3  A    between atoms: C_8  and  O_9 
REMARK    4  A    between atoms: O_9  and  C_10 
REMARK    5  A    between atoms: C_10  and  C_12 
REMARK    6  A    between atoms: C_10  and  C_13 
REMARK    7  A    between atoms: C_17  and  C_20 
REMARK    8  A    between atoms: C_22  and  C_25 
ROOT
ATOM      1  C   LIG d   1       5.317  -2.249  -4.056  0.00  0.00    -0.005 A 
ATOM      2  C   LIG d   1       4.722  -3.360  -4.584  0.00  0.00    -0.041 A 
ATOM      3  C   LIG d   1       5.509  -4.372  -5.135  0.00  0.00     0.065 A 
ATOM      4  C   LIG d   1       6.910  -4.254  -5.151  0.00  0.00     0.142 A 
ATOM      5  C   LIG d   1       7.499  -3.119  -4.611  0.00  0.00     0.023 A 
ATOM      6  C   LIG d   1       6.704  -2.121  -4.073  0.00  0.00     0.128 A 
ATOM      7  O   LIG d   1       7.669  -5.231  -5.685  0.00  0.00    -0.462 OA
ATOM      8  C   LIG d   1       7.163  -6.345  -6.219  0.00  0.00     0.106 A 
ATOM      9  C   LIG d   1       5.826  -6.590  -6.270  0.00  0.00     0.089 A 
ATOM     10  C   LIG d   1       4.901  -5.585  -5.713  0.00  0.00     0.202 A 
ATOM     11  O   LIG d   1       3.694  -5.748  -5.730  0.00  0.00    -0.286 OA
ATOM     12  H   LIG d   1       3.646  -3.456  -4.574  0.00  0.00     0.063 H 
ATOM     13  H   LIG d   1       8.573  -3.012  -4.616  0.00  0.00     0.069 H 
ATOM     14  H   LIG d   1       7.842  -7.080  -6.627  0.00  0.00     0.104 H 
ENDROOT
BRANCH   6  15
ATOM     15  O   LIG d   1       7.282  -1.008  -3.551  0.00  0.00    -0.483 OA
BRANCH  15  16
ATOM     16  C   LIG d   1       7.474   0.098  -4.435  0.00  0.00     0.136 C 
ATOM     17  H   LIG d   1       6.738   0.052  -5.240  0.00  0.00     0.079 H 
BRANCH  16  18
ATOM     18  C   LIG d   1       8.883   0.037  -5.028  0.00  0.00    -0.022 C 
ATOM     19  H   LIG d   1       9.476   0.864  -4.640  0.00  0.00     0.027 H 
ATOM     20  H   LIG d   1       9.352  -0.908  -4.754  0.00  0.00     0.027 H 
ATOM     21  H   LIG d   1       8.824   0.111  -6.114  0.00  0.00     0.027 H 
ENDBRANCH  16  18
BRANCH  16  22
ATOM     22  C   LIG d   1       7.304   1.386  -3.672  0.00  0.00     0.082 C 
ATOM     23  O   LIG d   1       6.221   1.689  -3.231  0.00  0.00    -0.546 OA
ATOM     24  O   LIG d   1       8.358   2.197  -3.482  0.00  0.00    -0.546 OA
ENDBRANCH  16  22
ENDBRANCH  15  16
ENDBRANCH   6  15
BRANCH   1  25
ATOM     25  C   LIG d   1       4.469  -1.156  -3.461  0.00  0.00    -0.027 C 
ATOM     26  H   LIG d   1       3.813  -0.747  -4.229  0.00  0.00     0.031 H 
ATOM     27  H   LIG d   1       5.113  -0.367  -3.074  0.00  0.00     0.031 H 
BRANCH  25  28
ATOM     28  C   LIG d   1       3.623  -1.729  -2.322  0.00  0.00    -0.061 C 
ATOM     29  H   LIG d   1       3.503  -2.803  -2.464  0.00  0.00     0.023 H 
ATOM     30  H   LIG d   1       2.645  -1.250  -2.318  0.00  0.00     0.023 H 
ATOM     31  H   LIG d   1       4.122  -1.543  -1.369  0.00  0.00     0.023 H 
ENDBRANCH  25  28
ENDBRANCH   1  25
BRANCH   9  32
ATOM     32  C   LIG d   1       5.309  -7.837  -6.870  0.00  0.00     0.115 A 
ATOM     33  S   LIG d   1       4.869  -8.182  -8.567  0.00  0.00    -0.075 SA
ATOM     34  C   LIG d   1       4.371  -9.883  -8.322  0.00  0.00    -0.001 A 
ATOM     35  C   LIG d   1       4.588 -10.018  -6.989  0.00  0.00     0.046 A 
ATOM     36  H   LIG d   1       4.001 -10.603  -9.037  0.00  0.00     0.071 H 
ATOM     37  N   LIG d   1       5.054  -9.005  -6.295  0.00  0.00    -0.244 NA
BRANCH  35  38
ATOM     38  C   LIG d   1       4.301 -11.331  -6.306  0.00  0.00    -0.022 C 
ATOM     39  H   LIG d   1       3.566 -11.178  -5.518  0.00  0.00     0.029 H 
ATOM     40  H   LIG d   1       3.912 -12.041  -7.035  0.00  0.00     0.029 H 
ATOM     41  H   LIG d   1       5.223 -11.723  -5.875  0.00  0.00     0.029 H 
ENDBRANCH  35  38
ENDBRANCH   9  32
TORSDOF 8
ENDMDL
MODEL 5
REMARK VINA RESULT:      -5.6      5.340      8.770
REMARK  8 active torsions:
REMARK  status: ('A' for Active; 'I' for Inactive)
REMARK    1  A    between atoms: C_1  and  C_2 
REMARK    2  A    between atoms: C_2  and  C_3 
REMARK    3  A    between atoms: C_8  and  O_9 
REMARK    4  A    between atoms: O_9  and  C_10 
REMARK    5  A    between atoms: C_10  and  C_12 
REMARK    6  A    between atoms: C_10  and  C_13 
REMARK    7  A    between atoms: C_17  and  C_20 
REMARK    8  A    between atoms: C_22  and  C_25 
ROOT
ATOM      1  C   LIG d   1       9.622   6.296  -3.780  0.00  0.00    -0.005 A 
ATOM      2  C   LIG d   1       9.940   7.291  -2.901  0.00  0.00    -0.041 A 
ATOM      3  C   LIG d   1      10.462   6.968  -1.648  0.00  0.00     0.065 A 
ATOM      4  C   LIG d   1      10.663   5.623  -1.287  0.00  0.00     0.142 A 
ATOM      5  C   LIG d   1      10.334   4.625  -2.193  0.00  0.00     0.023 A 
ATOM      6  C   LIG d   1       9.811   4.962  -3.430  0.00  0.00     0.128 A 
ATOM      7  O   LIG d   1      11.166   5.312  -0.076  0.00  0.00    -0.462 OA
ATOM      8  C   LIG d   1      11.501   6.226   0.837  0.00  0.00     0.106 A 
ATOM      9  C   LIG d   1      11.361   7.562   0.621  0.00  0.00     0.089 A 
ATOM     10  C   LIG d   1      10.817   8.015  -0.673  0.00  0.00     0.202 A 
ATOM     11  O   LIG d   1      10.668   9.198  -0.925  0.00  0.00    -0.286 OA
ATOM     12  H   LIG d   1       9.788   8.326  -3.173  0.00  0.00     0.063 H 
ATOM     13  H   LIG d   1      10.481   3.587  -1.932  0.00  0.00     0.069 H 
ATOM     14  H   LIG d   1      11.898   5.892   1.784  0.00  0.00     0.104 H 
ENDROOT
BRANCH   6  15
ATOM     15  O   LIG d   1       9.484   3.983  -4.312  0.00  0.00    -0.483 OA
BRANCH  15  16
ATOM     16  C   LIG d   1       9.344   2.660  -3.790  0.00  0.00     0.136 C 
ATOM     17  H   LIG d   1       9.402   2.691  -2.701  0.00  0.00     0.079 H 
BRANCH  16  18
ATOM     18  C   LIG d   1      10.465   1.774  -4.336  0.00  0.00    -0.022 C 
ATOM     19  H   LIG d   1      10.033   0.923  -4.860  0.00  0.00     0.027 H 
ATOM     20  H   LIG d   1      11.081   2.353  -5.026  0.00  0.00     0.027 H 
ATOM     21  H   LIG d   1      11.082   1.419  -3.511  0.00  0.00     0.027 H 
ENDBRANCH  16  18
BRANCH  16  22
ATOM     22  C   LIG d   1       8.010   2.095  -4.205  0.00  0.00     0.082 C 
ATOM     23  O   LIG d   1       7.733   1.998  -5.377  0.00  0.00    -0.546 OA
ATOM     24  O   LIG d   1       7.129   1.699  -3.272  0.00  0.00    -0.546 OA
ENDBRANCH  16  22
ENDBRANCH  15  16
ENDBRANCH   6  15
BRANCH   1  25
ATOM     25  C   LIG d   1       9.057   6.644  -5.133  0.00  0.00    -0.027 C 
ATOM     26  H   LIG d   1       7.973   6.536  -5.113  0.00  0.00     0.031 H 
ATOM     27  H   LIG d   1       9.476   5.975  -5.884  0.00  0.00     0.031 H 
BRANCH  25  28
ATOM     28  C   LIG d   1       9.418   8.090  -5.481  0.00  0.00    -0.061 C 
ATOM     29  H   LIG d   1      10.476   8.258  -5.281  0.00  0.00     0.023 H 
ATOM     30  H   LIG d   1       8.820   8.770  -4.875  0.00  0.00     0.023 H 
ATOM     31  H   LIG d   1       9.216   8.271  -6.538  0.00  0.00     0.023 H 
ENDBRANCH  25  28
ENDBRANCH   1  25
BRANCH   9  32
ATOM     32  C   LIG d   1      11.744   8.538   1.660  0.00  0.00     0.115 A 
ATOM     33  S   LIG d   1      12.251  10.244   1.483  0.00  0.00    -0.075 SA
ATOM     34  C   LIG d   1      12.496  10.580   3.223  0.00  0.00    -0.001 A 
ATOM     35  C   LIG d   1      12.172   9.376   3.759  0.00  0.00     0.046 A 
ATOM     36  H   LIG d   1      12.815  11.489   3.711  0.00  0.00     0.071 H 
ATOM     37  N   LIG d   1      11.799   8.388   2.977  0.00  0.00    -0.244 NA
BRANCH  35  38
ATOM     38  C   LIG d   1      12.231   9.174   5.252  0.00  0.00    -0.022 C 
ATOM     39  H   LIG d   1      11.672   8.277   5.520  0.00  0.00     0.029 H 
ATOM     40  H   LIG d   1      13.269   9.062   5.563  0.00  0.00     0.029 H 
ATOM     41  H   LIG d   1      11.793  10.038   5.752  0.00  0.00     0.029 H 
ENDBRANCH  35  38
ENDBRANCH   9  32
TORSDOF 8
ENDMDL
MODEL 6
REMARK VINA RESULT:      -5.5      6.487      9.694
REMARK  8 active torsions:
REMARK  status: ('A' for Active; 'I' for Inactive)
REMARK    1  A    between atoms: C_1  and  C_2 
REMARK    2  A    between atoms: C_2  and  C_3 
REMARK    3  A    between atoms: C_8  and  O_9 
REMARK    4  A    between atoms: O_9  and  C_10 
REMARK    5  A    between atoms: C_10  and  C_12 
REMARK    6  A    between atoms: C_10  and  C_13 
REMARK    7  A    between atoms: C_17  and  C_20 
REMARK    8  A    between atoms: C_22  and  C_25 
ROOT
ATOM      1  C   LIG d   1       3.278  -3.636  -9.407  0.00  0.00    -0.005 A 
ATOM      2  C   LIG d   1       3.382  -4.943  -9.026  0.00  0.00    -0.041 A 
ATOM      3  C   LIG d   1       3.998  -5.267  -7.817  0.00  0.00     0.065 A 
ATOM      4  C   LIG d   1       4.512  -4.254  -6.988  0.00  0.00     0.142 A 
ATOM      5  C   LIG d   1       4.398  -2.930  -7.389  0.00  0.00     0.023 A 
ATOM      6  C   LIG d   1       3.790  -2.626  -8.595  0.00  0.00     0.128 A 
ATOM      7  O   LIG d   1       5.109  -4.567  -5.821  0.00  0.00    -0.462 OA
ATOM      8  C   LIG d   1       5.248  -5.819  -5.381  0.00  0.00     0.106 A 
ATOM      9  C   LIG d   1       4.797  -6.895  -6.081  0.00  0.00     0.089 A 
ATOM     10  C   LIG d   1       4.128  -6.667  -7.375  0.00  0.00     0.202 A 
ATOM     11  O   LIG d   1       3.703  -7.591  -8.046  0.00  0.00    -0.286 OA
ATOM     12  H   LIG d   1       2.988  -5.725  -9.660  0.00  0.00     0.063 H 
ATOM     13  H   LIG d   1       4.788  -2.140  -6.765  0.00  0.00     0.069 H 
ATOM     14  H   LIG d   1       5.739  -5.985  -4.433  0.00  0.00     0.104 H 
ENDROOT
BRANCH   6  15
ATOM     15  O   LIG d   1       3.685  -1.330  -8.989  0.00  0.00    -0.483 OA
BRANCH  15  16
ATOM     16  C   LIG d   1       2.666  -0.544  -8.367  0.00  0.00     0.136 C 
ATOM     17  H   LIG d   1       2.071  -1.177  -7.707  0.00  0.00     0.079 H 
BRANCH  16  18
ATOM     18  C   LIG d   1       1.764   0.064  -9.442  0.00  0.00    -0.022 C 
ATOM     19  H   LIG d   1       2.375   0.411 -10.275  0.00  0.00     0.027 H 
ATOM     20  H   LIG d   1       1.062  -0.691  -9.796  0.00  0.00     0.027 H 
ATOM     21  H   LIG d   1       1.212   0.904  -9.021  0.00  0.00     0.027 H 
ENDBRANCH  16  18
BRANCH  16  22
ATOM     22  C   LIG d   1       3.304   0.559  -7.562  0.00  0.00     0.082 C 
ATOM     23  O   LIG d   1       4.083   1.318  -8.089  0.00  0.00    -0.546 OA
ATOM     24  O   LIG d   1       3.006   0.698  -6.260  0.00  0.00    -0.546 OA
ENDBRANCH  16  22
ENDBRANCH  15  16
ENDBRANCH   6  15
BRANCH   1  25
ATOM     25  C   LIG d   1       2.613  -3.285 -10.712  0.00  0.00    -0.027 C 
ATOM     26  H   LIG d   1       2.983  -3.945 -11.496  0.00  0.00     0.031 H 
ATOM     27  H   LIG d   1       2.840  -2.251 -10.969  0.00  0.00     0.031 H 
BRANCH  25  28
ATOM     28  C   LIG d   1       1.098  -3.456 -10.576  0.00  0.00    -0.061 C 
ATOM     29  H   LIG d   1       0.599  -2.923 -11.385  0.00  0.00     0.023 H 
ATOM     30  H   LIG d   1       0.771  -3.055  -9.618  0.00  0.00     0.023 H 
ATOM     31  H   LIG d   1       0.847  -4.517 -10.631  0.00  0.00     0.023 H 
ENDBRANCH  25  28
ENDBRANCH   1  25
BRANCH   9  32
ATOM     32  C   LIG d   1       4.973  -8.264  -5.555  0.00  0.00     0.115 A 
ATOM     33  S   LIG d   1       6.268  -9.450  -5.888  0.00  0.00    -0.075 SA
ATOM     34  C   LIG d   1       5.643 -10.758  -4.839  0.00  0.00    -0.001 A 
ATOM     35  C   LIG d   1       4.524 -10.169  -4.345  0.00  0.00     0.046 A 
ATOM     36  H   LIG d   1       6.044 -11.742  -4.652  0.00  0.00     0.071 H 
ATOM     37  N   LIG d   1       4.215  -8.943  -4.704  0.00  0.00    -0.244 NA
BRANCH  35  38
ATOM     38  C   LIG d   1       3.640 -10.917  -3.380  0.00  0.00    -0.022 C 
ATOM     39  H   LIG d   1       3.999 -11.941  -3.278  0.00  0.00     0.029 H 
ATOM     40  H   LIG d   1       3.664 -10.425  -2.409  0.00  0.00     0.029 H 
ATOM     41  H   LIG d   1       2.617 -10.925  -3.758  0.00  0.00     0.029 H 
ENDBRANCH  35  38
ENDBRANCH   9  32
TORSDOF 8
ENDMDL
MODEL 7
REMARK VINA RESULT:      -5.5      5.220     11.139
REMARK  8 active torsions:
REMARK  status: ('A' for Active; 'I' for Inactive)
REMARK    1  A    between atoms: C_1  and  C_2 
REMARK    2  A    between atoms: C_2  and  C_3 
REMARK    3  A    between atoms: C_8  and  O_9 
REMARK    4  A    between atoms: O_9  and  C_10 
REMARK    5  A    between atoms: C_10  and  C_12 
REMARK    6  A    between atoms: C_10  and  C_13 
REMARK    7  A    between atoms: C_17  and  C_20 
REMARK    8  A    between atoms: C_22  and  C_25 
ROOT
ATOM      1  C   LIG d   1      10.682   6.962  -0.137  0.00  0.00    -0.005 A 
ATOM      2  C   LIG d   1      10.643   5.783  -0.826  0.00  0.00    -0.041 A 
ATOM      3  C   LIG d   1      10.187   5.766  -2.144  0.00  0.00     0.065 A 
ATOM      4  C   LIG d   1       9.768   6.954  -2.767  0.00  0.00     0.142 A 
ATOM      5  C   LIG d   1       9.814   8.144  -2.054  0.00  0.00     0.023 A 
ATOM      6  C   LIG d   1      10.263   8.144  -0.744  0.00  0.00     0.128 A 
ATOM      7  O   LIG d   1       9.326   6.936  -4.040  0.00  0.00    -0.462 OA
ATOM      8  C   LIG d   1       9.258   5.826  -4.778  0.00  0.00     0.106 A 
ATOM      9  C   LIG d   1       9.632   4.607  -4.302  0.00  0.00     0.089 A 
ATOM     10  C   LIG d   1      10.131   4.511  -2.918  0.00  0.00     0.202 A 
ATOM     11  O   LIG d   1      10.481   3.448  -2.436  0.00  0.00    -0.286 OA
ATOM     12  H   LIG d   1      10.965   4.867  -0.351  0.00  0.00     0.063 H 
ATOM     13  H   LIG d   1       9.495   9.066  -2.516  0.00  0.00     0.069 H 
ATOM     14  H   LIG d   1       8.891   5.897  -5.792  0.00  0.00     0.104 H 
ENDROOT
BRANCH   6  15
ATOM     15  O   LIG d   1      10.301   9.308  -0.045  0.00  0.00    -0.483 OA
BRANCH  15  16
ATOM     16  C   LIG d   1      11.112  10.357  -0.578  0.00  0.00     0.136 C 
ATOM     17  H   LIG d   1      11.064  10.336  -1.668  0.00  0.00     0.079 H 
BRANCH  16  18
ATOM     18  C   LIG d   1      12.560  10.161  -0.128  0.00  0.00    -0.022 C 
ATOM     19  H   LIG d   1      13.035   9.403  -0.750  0.00  0.00     0.027 H 
ATOM     20  H   LIG d   1      13.102  11.103  -0.226  0.00  0.00     0.027 H 
ATOM     21  H   LIG d   1      12.577   9.840   0.914  0.00  0.00     0.027 H 
ENDBRANCH  16  18
BRANCH  16  22
ATOM     22  C   LIG d   1      10.605  11.686  -0.079  0.00  0.00     0.082 C 
ATOM     23  O   LIG d   1      10.252  12.532  -0.866  0.00  0.00    -0.546 OA
ATOM     24  O   LIG d   1      10.545  11.928   1.241  0.00  0.00    -0.546 OA
ENDBRANCH  16  22
ENDBRANCH  15  16
ENDBRANCH   6  15
BRANCH   1  25
ATOM     25  C   LIG d   1      11.175   6.983   1.286  0.00  0.00    -0.027 C 
ATOM     26  H   LIG d   1      10.640   7.752   1.844  0.00  0.00     0.031 H 
ATOM     27  H   LIG d   1      12.242   7.200   1.299  0.00  0.00     0.031 H 
BRANCH  25  28
ATOM     28  C   LIG d   1      10.924   5.619   1.933  0.00  0.00    -0.061 C 
ATOM     29  H   LIG d   1      10.259   5.033   1.299  0.00  0.00     0.023 H 
ATOM     30  H   LIG d   1      10.465   5.758   2.911  0.00  0.00     0.023 H 
ATOM     31  H   LIG d   1      11.873   5.092   2.049  0.00  0.00     0.023 H 
ENDBRANCH  25  28
ENDBRANCH   1  25
BRANCH   9  32
ATOM     32  C   LIG d   1       9.540   3.404  -5.154  0.00  0.00     0.115 A 
ATOM     33  S   LIG d   1      10.758   2.698  -6.255  0.00  0.00    -0.075 SA
ATOM     34  C   LIG d   1       9.770   1.315  -6.816  0.00  0.00    -0.001 A 
ATOM     35  C   LIG d   1       8.625   1.526  -6.117  0.00  0.00     0.046 A 
ATOM     36  H   LIG d   1      10.016   0.531  -7.516  0.00  0.00     0.071 H 
ATOM     37  N   LIG d   1       8.534   2.553  -5.302  0.00  0.00    -0.244 NA
BRANCH  35  38
ATOM     38  C   LIG d   1       7.463   0.579  -6.270  0.00  0.00    -0.022 C 
ATOM     39  H   LIG d   1       6.530   1.141  -6.239  0.00  0.00     0.029 H 
ATOM     40  H   LIG d   1       7.542   0.057  -7.223  0.00  0.00     0.029 H 
ATOM     41  H   LIG d   1       7.478  -0.147  -5.456  0.00  0.00     0.029 H 
ENDBRANCH  35  38
ENDBRANCH   9  32
TORSDOF 8
ENDMDL
MODEL 8
REMARK VINA RESULT:      -5.4      5.167      9.515
REMARK  8 active torsions:
REMARK  status: ('A' for Active; 'I' for Inactive)
REMARK    1  A    between atoms: C_1  and  C_2 
REMARK    2  A    between atoms: C_2  and  C_3 
REMARK    3  A    between atoms: C_8  and  O_9 
REMARK    4  A    between atoms: O_9  and  C_10 
REMARK    5  A    between atoms: C_10  and  C_12 
REMARK    6  A    between atoms: C_10  and  C_13 
REMARK    7  A    between atoms: C_17  and  C_20 
REMARK    8  A    between atoms: C_22  and  C_25 
ROOT
ATOM      1  C   LIG d   1       3.570  -0.279  -7.372  0.00  0.00    -0.005 A 
ATOM      2  C   LIG d   1       3.202  -1.231  -8.279  0.00  0.00    -0.041 A 
ATOM      3  C   LIG d   1       3.611  -2.553  -8.101  0.00  0.00     0.065 A 
ATOM      4  C   LIG d   1       4.401  -2.910  -6.994  0.00  0.00     0.142 A 
ATOM      5  C   LIG d   1       4.767  -1.930  -6.082  0.00  0.00     0.023 A 
ATOM      6  C   LIG d   1       4.358  -0.621  -6.275  0.00  0.00     0.128 A 
ATOM      7  O   LIG d   1       4.798  -4.186  -6.824  0.00  0.00    -0.462 OA
ATOM      8  C   LIG d   1       4.479  -5.172  -7.665  0.00  0.00     0.106 A 
ATOM      9  C   LIG d   1       3.720  -4.969  -8.776  0.00  0.00     0.089 A 
ATOM     10  C   LIG d   1       3.232  -3.607  -9.060  0.00  0.00     0.202 A 
ATOM     11  O   LIG d   1       2.549  -3.363 -10.039  0.00  0.00    -0.286 OA
ATOM     12  H   LIG d   1       2.595  -0.962  -9.131  0.00  0.00     0.063 H 
ATOM     13  H   LIG d   1       5.374  -2.186  -5.226  0.00  0.00     0.069 H 
ATOM     14  H   LIG d   1       4.837  -6.170  -7.456  0.00  0.00     0.104 H 
ENDROOT
BRANCH   6  15
ATOM     15  O   LIG d   1       4.722   0.337  -5.385  0.00  0.00    -0.483 OA
BRANCH  15  16
ATOM     16  C   LIG d   1       4.524   0.044  -4.000  0.00  0.00     0.136 C 
ATOM     17  H   LIG d   1       4.774  -1.001  -3.810  0.00  0.00     0.079 H 
BRANCH  16  18
ATOM     18  C   LIG d   1       3.061   0.293  -3.631  0.00  0.00    -0.022 C 
ATOM     19  H   LIG d   1       2.416  -0.283  -4.293  0.00  0.00     0.027 H 
ATOM     20  H   LIG d   1       2.890  -0.015  -2.598  0.00  0.00     0.027 H 
ATOM     21  H   LIG d   1       2.835   1.354  -3.734  0.00  0.00     0.027 H 
ENDBRANCH  16  18
BRANCH  16  22
ATOM     22  C   LIG d   1       5.412   0.932  -3.167  0.00  0.00     0.082 C 
ATOM     23  O   LIG d   1       6.372   1.468  -3.669  0.00  0.00    -0.546 OA
ATOM     24  O   LIG d   1       5.135   1.128  -1.868  0.00  0.00    -0.546 OA
ENDBRANCH  16  22
ENDBRANCH  15  16
ENDBRANCH   6  15
BRANCH   1  25
ATOM     25  C   LIG d   1       3.129   1.149  -7.563  0.00  0.00    -0.027 C 
ATOM     26  H   LIG d   1       3.554   1.768  -6.773  0.00  0.00     0.031 H 
ATOM     27  H   LIG d   1       2.041   1.202  -7.521  0.00  0.00     0.031 H 
BRANCH  25  28
ATOM     28  C   LIG d   1       3.613   1.656  -8.923  0.00  0.00    -0.061 C 
ATOM     29  H   LIG d   1       3.167   2.629  -9.127  0.00  0.00     0.023 H 
ATOM     30  H   LIG d   1       3.319   0.951  -9.700  0.00  0.00     0.023 H 
ATOM     31  H   LIG d   1       4.700   1.750  -8.910  0.00  0.00     0.023 H 
ENDBRANCH  25  28
ENDBRANCH   1  25
BRANCH   9  32
ATOM     32  C   LIG d   1       3.391  -6.090  -9.680  0.00  0.00     0.115 A 
ATOM     33  S   LIG d   1       4.343  -6.780 -11.026  0.00  0.00    -0.075 SA
ATOM     34  C   LIG d   1       3.170  -8.046 -11.498  0.00  0.00    -0.001 A 
ATOM     35  C   LIG d   1       2.182  -7.820 -10.594  0.00  0.00     0.046 A 
ATOM     36  H   LIG d   1       3.231  -8.784 -12.284  0.00  0.00     0.071 H 
ATOM     37  N   LIG d   1       2.311  -6.860  -9.707  0.00  0.00    -0.244 NA
BRANCH  35  38
ATOM     38  C   LIG d   1       0.940  -8.676 -10.604  0.00  0.00    -0.022 C 
ATOM     39  H   LIG d   1       1.137  -9.594 -11.157  0.00  0.00     0.029 H 
ATOM     40  H   LIG d   1       0.660  -8.920  -9.581  0.00  0.00     0.029 H 
ATOM     41  H   LIG d   1       0.128  -8.129 -11.083  0.00  0.00     0.029 H 
ENDBRANCH  35  38
ENDBRANCH   9  32
TORSDOF 8
ENDMDL
MODEL 9
REMARK VINA RESULT:      -5.4      2.047      2.539
REMARK  8 active torsions:
REMARK  status: ('A' for Active; 'I' for Inactive)
REMARK    1  A    between atoms: C_1  and  C_2 
REMARK    2  A    between atoms: C_2  and  C_3 
REMARK    3  A    between atoms: C_8  and  O_9 
REMARK    4  A    between atoms: O_9  and  C_10 
REMARK    5  A    between atoms: C_10  and  C_12 
REMARK    6  A    between atoms: C_10  and  C_13 
REMARK    7  A    between atoms: C_17  and  C_20 
REMARK    8  A    between atoms: C_22  and  C_25 
ROOT
ATOM      1  C   LIG d   1       5.975   0.148  -3.675  0.00  0.00    -0.005 A 
ATOM      2  C   LIG d   1       6.954   1.065  -3.419  0.00  0.00    -0.041 A 
ATOM      3  C   LIG d   1       7.787   1.496  -4.452  0.00  0.00     0.065 A 
ATOM      4  C   LIG d   1       7.625   0.990  -5.754  0.00  0.00     0.142 A 
ATOM      5  C   LIG d   1       6.626   0.059  -5.997  0.00  0.00     0.023 A 
ATOM      6  C   LIG d   1       5.811  -0.364  -4.960  0.00  0.00     0.128 A 
ATOM      7  O   LIG d   1       8.432   1.406  -6.750  0.00  0.00    -0.462 OA
ATOM      8  C   LIG d   1       9.409   2.298  -6.580  0.00  0.00     0.106 A 
ATOM      9  C   LIG d   1       9.677   2.869  -5.374  0.00  0.00     0.089 A 
ATOM     10  C   LIG d   1       8.854   2.485  -4.212  0.00  0.00     0.202 A 
ATOM     11  O   LIG d   1       9.046   2.962  -3.107  0.00  0.00    -0.286 OA
ATOM     12  H   LIG d   1       7.082   1.457  -2.420  0.00  0.00     0.063 H 
ATOM     13  H   LIG d   1       6.488  -0.341  -6.991  0.00  0.00     0.069 H 
ATOM     14  H   LIG d   1      10.012   2.578  -7.432  0.00  0.00     0.104 H 
ENDROOT
BRANCH   6  15
ATOM     15  O   LIG d   1       4.838  -1.280  -5.199  0.00  0.00    -0.483 OA
BRANCH  15  16
ATOM     16  C   LIG d   1       5.235  -2.494  -5.840  0.00  0.00     0.136 C 
ATOM     17  H   LIG d   1       6.308  -2.469  -6.035  0.00  0.00     0.079 H 
BRANCH  16  18
ATOM     18  C   LIG d   1       4.479  -2.643  -7.162  0.00  0.00    -0.022 C 
ATOM     19  H   LIG d   1       5.163  -2.471  -7.993  0.00  0.00     0.027 H 
ATOM     20  H   LIG d   1       4.068  -3.651  -7.233  0.00  0.00     0.027 H 
ATOM     21  H   LIG d   1       3.668  -1.917  -7.201  0.00  0.00     0.027 H 
ENDBRANCH  16  18
BRANCH  16  22
ATOM     22  C   LIG d   1       4.915  -3.663  -4.944  0.00  0.00     0.082 C 
ATOM     23  O   LIG d   1       4.315  -3.485  -3.910  0.00  0.00    -0.546 OA
ATOM     24  O   LIG d   1       5.297  -4.902  -5.294  0.00  0.00    -0.546 OA
ENDBRANCH  16  22
ENDBRANCH  15  16
ENDBRANCH   6  15
BRANCH   1  25
ATOM     25  C   LIG d   1       5.075  -0.318  -2.561  0.00  0.00    -0.027 C 
ATOM     26  H   LIG d   1       5.634  -0.971  -1.891  0.00  0.00     0.031 H 
ATOM     27  H   LIG d   1       4.231  -0.865  -2.981  0.00  0.00     0.031 H 
BRANCH  25  28
ATOM     28  C   LIG d   1       4.560   0.893  -1.780  0.00  0.00    -0.061 C 
ATOM     29  H   LIG d   1       4.362   0.601  -0.748  0.00  0.00     0.023 H 
ATOM     30  H   LIG d   1       3.642   1.258  -2.238  0.00  0.00     0.023 H 
ATOM     31  H   LIG d   1       5.314   1.682  -1.796  0.00  0.00     0.023 H 
ENDBRANCH  25  28
ENDBRANCH   1  25
BRANCH   9  32
ATOM     32  C   LIG d   1      10.769   3.853  -5.231  0.00  0.00     0.115 A 
ATOM     33  S   LIG d   1      12.519   3.580  -4.988  0.00  0.00    -0.075 SA
ATOM     34  C   LIG d   1      13.003   5.301  -4.934  0.00  0.00    -0.001 A 
ATOM     35  C   LIG d   1      11.799   5.906  -5.105  0.00  0.00     0.046 A 
ATOM     36  H   LIG d   1      13.982   5.738  -4.802  0.00  0.00     0.071 H 
ATOM     37  N   LIG d   1      10.716   5.179  -5.255  0.00  0.00    -0.244 NA
BRANCH  35  38
ATOM     38  C   LIG d   1      11.707   7.411  -5.130  0.00  0.00    -0.022 C 
ATOM     39  H   LIG d   1      11.002   7.744  -4.369  0.00  0.00     0.029 H 
ATOM     40  H   LIG d   1      12.689   7.838  -4.929  0.00  0.00     0.029 H 
ATOM     41  H   LIG d   1      11.364   7.736  -6.113  0.00  0.00     0.029 H 
ENDBRANCH  35  38
ENDBRANCH   9  32
TORSDOF 8
ENDMDL
MODEL 10
REMARK VINA RESULT:      -5.4      6.886     10.230
REMARK  8 active torsions:
REMARK  status: ('A' for Active; 'I' for Inactive)
REMARK    1  A    between atoms: C_1  and  C_2 
REMARK    2  A    between atoms: C_2  and  C_3 
REMARK    3  A    between atoms: C_8  and  O_9 
REMARK    4  A    between atoms: O_9  and  C_10 
REMARK    5  A    between atoms: C_10  and  C_12 
REMARK    6  A    between atoms: C_10  and  C_13 
REMARK    7  A    between atoms: C_17  and  C_20 
REMARK    8  A    between atoms: C_22  and  C_25 
ROOT
ATOM      1  C   LIG d   1       9.974   4.999  -4.305  0.00  0.00    -0.005 A 
ATOM      2  C   LIG d   1      10.098   4.970  -5.665  0.00  0.00    -0.041 A 
ATOM      3  C   LIG d   1       9.816   6.115  -6.411  0.00  0.00     0.065 A 
ATOM      4  C   LIG d   1       9.406   7.298  -5.770  0.00  0.00     0.142 A 
ATOM      5  C   LIG d   1       9.285   7.310  -4.388  0.00  0.00     0.023 A 
ATOM      6  C   LIG d   1       9.562   6.164  -3.662  0.00  0.00     0.128 A 
ATOM      7  O   LIG d   1       9.133   8.403  -6.491  0.00  0.00    -0.462 OA
ATOM      8  C   LIG d   1       9.230   8.454  -7.821  0.00  0.00     0.106 A 
ATOM      9  C   LIG d   1       9.616   7.385  -8.569  0.00  0.00     0.089 A 
ATOM     10  C   LIG d   1       9.940   6.121  -7.880  0.00  0.00     0.202 A 
ATOM     11  O   LIG d   1      10.291   5.129  -8.495  0.00  0.00    -0.286 OA
ATOM     12  H   LIG d   1      10.413   4.064  -6.162  0.00  0.00     0.063 H 
ATOM     13  H   LIG d   1       8.970   8.210  -3.879  0.00  0.00     0.069 H 
ATOM     14  H   LIG d   1       8.993   9.380  -8.325  0.00  0.00     0.104 H 
ENDROOT
BRANCH   6  15
ATOM     15  O   LIG d   1       9.437   6.176  -2.310  0.00  0.00    -0.483 OA
BRANCH  15  16
ATOM     16  C   LIG d   1      10.370   6.976  -1.580  0.00  0.00     0.136 C 
ATOM     17  H   LIG d   1      11.062   7.452  -2.276  0.00  0.00     0.079 H 
BRANCH  16  18
ATOM     18  C   LIG d   1      11.152   6.088  -0.610  0.00  0.00    -0.022 C 
ATOM     19  H   LIG d   1      12.035   5.693  -1.110  0.00  0.00     0.027 H 
ATOM     20  H   LIG d   1      11.458   6.678   0.255  0.00  0.00     0.027 H 
ATOM     21  H   LIG d   1      10.519   5.264  -0.281  0.00  0.00     0.027 H 
ENDBRANCH  16  18
BRANCH  16  22
ATOM     22  C   LIG d   1       9.627   8.034  -0.806  0.00  0.00     0.082 C 
ATOM     23  O   LIG d   1       8.419   8.043  -0.802  0.00  0.00    -0.546 OA
ATOM     24  O   LIG d   1      10.308   8.967  -0.121  0.00  0.00    -0.546 OA
ENDBRANCH  16  22
ENDBRANCH  15  16
ENDBRANCH   6  15
BRANCH   1  25
ATOM     25  C   LIG d   1      10.277   3.764  -3.499  0.00  0.00    -0.027 C 
ATOM     26  H   LIG d   1      10.383   4.033  -2.448  0.00  0.00     0.031 H 
ATOM     27  H   LIG d   1      11.205   3.316  -3.854  0.00  0.00     0.031 H 
BRANCH  25  28
ATOM     28  C   LIG d   1       9.134   2.758  -3.654  0.00  0.00    -0.061 C 
ATOM     29  H   LIG d   1       9.467   1.923  -4.270  0.00  0.00     0.023 H 
ATOM     30  H   LIG d   1       8.283   3.245  -4.130  0.00  0.00     0.023 H 
ATOM     31  H   LIG d   1       8.839   2.389  -2.671  0.00  0.00     0.023 H 
ENDBRANCH  25  28
ENDBRANCH   1  25
BRANCH   9  32
ATOM     32  C   LIG d   1       9.711   7.486 -10.039  0.00  0.00     0.115 A 
ATOM     33  S   LIG d   1       9.229   6.305 -11.291  0.00  0.00    -0.075 SA
ATOM     34  C   LIG d   1       9.710   7.283 -12.710  0.00  0.00    -0.001 A 
ATOM     35  C   LIG d   1      10.183   8.398 -12.097  0.00  0.00     0.046 A 
ATOM     36  H   LIG d   1       9.643   7.050 -13.763  0.00  0.00     0.071 H 
ATOM     37  N   LIG d   1      10.170   8.481 -10.786  0.00  0.00    -0.244 NA
BRANCH  35  38
ATOM     38  C   LIG d   1      10.717   9.543 -12.920  0.00  0.00    -0.022 C 
ATOM     39  H   LIG d   1      11.803   9.570 -12.842  0.00  0.00     0.029 H 
ATOM     40  H   LIG d   1      10.430   9.406 -13.962  0.00  0.00     0.029 H 
ATOM     41  H   LIG d   1      10.301  10.480 -12.549  0.00  0.00     0.029 H 
ENDBRANCH  35  38
ENDBRANCH   9  32
TORSDOF 8
ENDMDL
