MODEL 1
REMARK VINA RESULT:      -5.0      0.000      0.000
REMARK  4 active torsions:
REMARK  status: ('A' for Active; 'I' for Inactive)
REMARK    1  A    between atoms: C_2  and  C_3 
REMARK    2  A    between atoms: C_3  and  O_5 
REMARK    3  A    between atoms: O_5  and  C_6 
REMARK    4  A    between atoms: C_6  and  C_7 
ROOT
ATOM      1  C   LIG d   1       2.794   0.340  -4.211  0.00  0.00     0.093 C 
ATOM      2  H   LIG d   1       1.749   0.652  -4.212  0.00  0.00     0.063 H 
ATOM      3  C   LIG d   1       2.982  -0.855  -3.256  0.00  0.00    -0.021 C 
ATOM      4  C   LIG d   1       3.953  -0.325  -2.173  0.00  0.00    -0.027 C 
ATOM      5  C   LIG d   1       3.782   1.210  -2.305  0.00  0.00     0.048 C 
ATOM      6  O   LIG d   1       3.623   1.410  -3.730  0.00  0.00    -0.373 OA
ATOM      7  H   LIG d   1       2.030  -1.140  -2.809  0.00  0.00     0.029 H 
ATOM      8  H   LIG d   1       3.425  -1.699  -3.784  0.00  0.00     0.029 H 
ATOM      9  H   LIG d   1       3.653  -0.664  -1.181  0.00  0.00     0.029 H 
ATOM     10  H   LIG d   1       4.979  -0.622  -2.390  0.00  0.00     0.029 H 
ATOM     11  H   LIG d   1       2.894   1.545  -1.770  0.00  0.00     0.056 H 
ATOM     12  H   LIG d   1       4.667   1.729  -1.939  0.00  0.00     0.056 H 
ENDROOT
BRANCH   1  13
ATOM     13  C   LIG d   1       3.219  -0.054  -5.627  0.00  0.00     0.119 C 
ATOM     14  H   LIG d   1       4.248  -0.413  -5.610  0.00  0.00     0.072 H 
ATOM     15  H   LIG d   1       2.565  -0.843  -5.997  0.00  0.00     0.072 H 
BRANCH  13  16
ATOM     16  O   LIG d   1       3.124   1.103  -6.500  0.00  0.00    -0.459 OA
BRANCH  16  17
ATOM     17  C   LIG d   1       2.868   0.867  -7.802  0.00  0.00     0.332 C 
ATOM     18  O   LIG d   1       2.687  -0.271  -8.189  0.00  0.00    -0.246 OA
BRANCH  17  19
ATOM     19  C   LIG d   1       2.808   1.986  -8.754  0.00  0.00     0.015 C 
ATOM     20  C   LIG d   1       3.932   2.541  -9.199  0.00  0.00    -0.092 C 
ATOM     21  H   LIG d   1       3.887   3.362  -9.899  0.00  0.00     0.054 H 
ATOM     22  H   LIG d   1       4.888   2.171  -8.861  0.00  0.00     0.054 H 
ATOM     23  H   LIG d   1       1.851   2.355  -9.092  0.00  0.00     0.068 H 
ENDBRANCH  17  19
ENDBRANCH  16  17
ENDBRANCH  13  16
ENDBRANCH   1  13
TORSDOF 4
ENDMDL
MODEL 2
REMARK VINA RESULT:      -4.8      1.424      4.976
REMARK  4 active torsions:
REMARK  status: ('A' for Active; 'I' for Inactive)
REMARK    1  A    between atoms: C_2  and  C_3 
REMARK    2  A    between atoms: C_3  and  O_5 
REMARK    3  A    between atoms: O_5  and  C_6 
REMARK    4  A    between atoms: C_6  and  C_7 
ROOT
ATOM      1  C   LIG d   1       4.189  -0.360  -7.080  0.00  0.00     0.093 C 
ATOM      2  H   LIG d   1       4.425  -1.314  -7.553  0.00  0.00     0.063 H 
ATOM      3  C   LIG d   1       2.753   0.064  -7.443  0.00  0.00    -0.021 C 
ATOM      4  C   LIG d   1       2.935   1.387  -8.227  0.00  0.00    -0.027 C 
ATOM      5  C   LIG d   1       4.410   1.290  -8.691  0.00  0.00     0.048 C 
ATOM      6  O   LIG d   1       5.076   0.659  -7.570  0.00  0.00    -0.373 OA
ATOM      7  H   LIG d   1       2.280  -0.690  -8.072  0.00  0.00     0.029 H 
ATOM      8  H   LIG d   1       2.166   0.233  -6.541  0.00  0.00     0.029 H 
ATOM      9  H   LIG d   1       2.261   1.428  -9.083  0.00  0.00     0.029 H 
ATOM     10  H   LIG d   1       2.788   2.248  -7.575  0.00  0.00     0.029 H 
ATOM     11  H   LIG d   1       4.493   0.671  -9.583  0.00  0.00     0.056 H 
ATOM     12  H   LIG d   1       4.822   2.282  -8.874  0.00  0.00     0.056 H 
ENDROOT
BRANCH   1  13
ATOM     13  C   LIG d   1       4.328  -0.484  -5.562  0.00  0.00     0.119 C 
ATOM     14  H   LIG d   1       3.953  -1.457  -5.242  0.00  0.00     0.072 H 
ATOM     15  H   LIG d   1       5.378  -0.391  -5.283  0.00  0.00     0.072 H 
BRANCH  13  16
ATOM     16  O   LIG d   1       3.560   0.567  -4.918  0.00  0.00    -0.459 OA
BRANCH  16  17
ATOM     17  C   LIG d   1       3.173   0.348  -3.645  0.00  0.00     0.332 C 
ATOM     18  O   LIG d   1       2.449  -0.591  -3.382  0.00  0.00    -0.246 OA
BRANCH  17  19
ATOM     19  C   LIG d   1       3.626   1.248  -2.575  0.00  0.00     0.015 C 
ATOM     20  C   LIG d   1       4.555   0.842  -1.713  0.00  0.00    -0.092 C 
ATOM     21  H   LIG d   1       4.888   1.504  -0.927  0.00  0.00     0.054 H 
ATOM     22  H   LIG d   1       4.975  -0.149  -1.799  0.00  0.00     0.054 H 
ATOM     23  H   LIG d   1       3.206   2.240  -2.489  0.00  0.00     0.068 H 
ENDBRANCH  17  19
ENDBRANCH  16  17
ENDBRANCH  13  16
ENDBRANCH   1  13
TORSDOF 4
ENDMDL
MODEL 3
REMARK VINA RESULT:      -4.5      2.459      3.481
REMARK  4 active torsions:
REMARK  status: ('A' for Active; 'I' for Inactive)
REMARK    1  A    between atoms: C_2  and  C_3 
REMARK    2  A    between atoms: C_3  and  O_5 
REMARK    3  A    between atoms: O_5  and  C_6 
REMARK    4  A    between atoms: C_6  and  C_7 
ROOT
ATOM      1  C   LIG d   1       3.178   0.349  -3.795  0.00  0.00     0.093 C 
ATOM      2  H   LIG d   1       2.212   0.851  -3.736  0.00  0.00     0.063 H 
ATOM      3  C   LIG d   1       3.197  -0.864  -2.847  0.00  0.00    -0.021 C 
ATOM      4  C   LIG d   1       4.313  -0.530  -1.827  0.00  0.00    -0.027 C 
ATOM      5  C   LIG d   1       4.423   1.010  -1.958  0.00  0.00     0.048 C 
ATOM      6  O   LIG d   1       4.220   1.244  -3.372  0.00  0.00    -0.373 OA
ATOM      7  H   LIG d   1       2.238  -0.969  -2.341  0.00  0.00     0.029 H 
ATOM      8  H   LIG d   1       3.442  -1.774  -3.395  0.00  0.00     0.029 H 
ATOM      9  H   LIG d   1       4.015  -0.813  -0.817  0.00  0.00     0.029 H 
ATOM     10  H   LIG d   1       5.250  -1.012  -2.103  0.00  0.00     0.029 H 
ATOM     11  H   LIG d   1       3.647   1.503  -1.373  0.00  0.00     0.056 H 
ATOM     12  H   LIG d   1       5.411   1.353  -1.649  0.00  0.00     0.056 H 
ENDROOT
BRANCH   1  13
ATOM     13  C   LIG d   1       3.436  -0.109  -5.232  0.00  0.00     0.119 C 
ATOM     14  H   LIG d   1       3.215  -1.173  -5.319  0.00  0.00     0.072 H 
ATOM     15  H   LIG d   1       2.796   0.452  -5.914  0.00  0.00     0.072 H 
BRANCH  13  16
ATOM     16  O   LIG d   1       4.829   0.125  -5.572  0.00  0.00    -0.459 OA
BRANCH  16  17
ATOM     17  C   LIG d   1       5.605  -0.962  -5.750  0.00  0.00     0.332 C 
ATOM     18  O   LIG d   1       5.495  -1.630  -6.760  0.00  0.00    -0.246 OA
BRANCH  17  19
ATOM     19  C   LIG d   1       6.586  -1.342  -4.723  0.00  0.00     0.015 C 
ATOM     20  C   LIG d   1       6.471  -2.508  -4.092  0.00  0.00    -0.092 C 
ATOM     21  H   LIG d   1       7.192  -2.787  -3.338  0.00  0.00     0.054 H 
ATOM     22  H   LIG d   1       5.658  -3.175  -4.334  0.00  0.00     0.054 H 
ATOM     23  H   LIG d   1       7.399  -0.674  -4.481  0.00  0.00     0.068 H 
ENDBRANCH  17  19
ENDBRANCH  16  17
ENDBRANCH  13  16
ENDBRANCH   1  13
TORSDOF 4
ENDMDL
MODEL 4
REMARK VINA RESULT:      -4.3      2.951      4.938
REMARK  4 active torsions:
REMARK  status: ('A' for Active; 'I' for Inactive)
REMARK    1  A    between atoms: C_2  and  C_3 
REMARK    2  A    between atoms: C_3  and  O_5 
REMARK    3  A    between atoms: O_5  and  C_6 
REMARK    4  A    between atoms: C_6  and  C_7 
ROOT
ATOM      1  C   LIG d   1       6.765  -0.407  -4.468  0.00  0.00     0.093 C 
ATOM      2  H   LIG d   1       7.829  -0.643  -4.465  0.00  0.00     0.063 H 
ATOM      3  C   LIG d   1       5.946  -1.684  -4.738  0.00  0.00    -0.021 C 
ATOM      4  C   LIG d   1       5.217  -1.392  -6.072  0.00  0.00    -0.027 C 
ATOM      5  C   LIG d   1       6.087  -0.261  -6.678  0.00  0.00     0.048 C 
ATOM      6  O   LIG d   1       6.473   0.523  -5.524  0.00  0.00    -0.373 OA
ATOM      7  H   LIG d   1       6.606  -2.544  -4.845  0.00  0.00     0.029 H 
ATOM      8  H   LIG d   1       5.225  -1.852  -3.939  0.00  0.00     0.029 H 
ATOM      9  H   LIG d   1       5.218  -2.270  -6.718  0.00  0.00     0.029 H 
ATOM     10  H   LIG d   1       4.199  -1.045  -5.891  0.00  0.00     0.029 H 
ATOM     11  H   LIG d   1       6.966  -0.676  -7.171  0.00  0.00     0.056 H 
ATOM     12  H   LIG d   1       5.505   0.340  -7.376  0.00  0.00     0.056 H 
ENDROOT
BRANCH   1  13
ATOM     13  C   LIG d   1       6.362   0.193  -3.119  0.00  0.00     0.119 C 
ATOM     14  H   LIG d   1       5.784  -0.539  -2.555  0.00  0.00     0.072 H 
ATOM     15  H   LIG d   1       7.258   0.459  -2.558  0.00  0.00     0.072 H 
BRANCH  13  16
ATOM     16  O   LIG d   1       5.557   1.382  -3.339  0.00  0.00    -0.459 OA
BRANCH  16  17
ATOM     17  C   LIG d   1       4.245   1.294  -3.042  0.00  0.00     0.332 C 
ATOM     18  O   LIG d   1       3.490   2.195  -3.351  0.00  0.00    -0.246 OA
BRANCH  17  19
ATOM     19  C   LIG d   1       3.728   0.109  -2.343  0.00  0.00     0.015 C 
ATOM     20  C   LIG d   1       2.798  -0.649  -2.917  0.00  0.00    -0.092 C 
ATOM     21  H   LIG d   1       2.418  -1.520  -2.403  0.00  0.00     0.054 H 
ATOM     22  H   LIG d   1       2.422  -0.394  -3.897  0.00  0.00     0.054 H 
ATOM     23  H   LIG d   1       4.104  -0.147  -1.363  0.00  0.00     0.068 H 
ENDBRANCH  17  19
ENDBRANCH  16  17
ENDBRANCH  13  16
ENDBRANCH   1  13
TORSDOF 4
ENDMDL
MODEL 5
REMARK VINA RESULT:      -4.3      1.460      5.244
REMARK  4 active torsions:
REMARK  status: ('A' for Active; 'I' for Inactive)
REMARK    1  A    between atoms: C_2  and  C_3 
REMARK    2  A    between atoms: C_3  and  O_5 
REMARK    3  A    between atoms: O_5  and  C_6 
REMARK    4  A    between atoms: C_6  and  C_7 
ROOT
ATOM      1  C   LIG d   1       4.381   0.255  -8.126  0.00  0.00     0.093 C 
ATOM      2  H   LIG d   1       4.621  -0.475  -8.900  0.00  0.00     0.063 H 
ATOM      3  C   LIG d   1       2.883   0.609  -8.187  0.00  0.00    -0.021 C 
ATOM      4  C   LIG d   1       2.864   2.120  -8.521  0.00  0.00    -0.027 C 
ATOM      5  C   LIG d   1       4.269   2.335  -9.138  0.00  0.00     0.048 C 
ATOM      6  O   LIG d   1       5.119   1.467  -8.351  0.00  0.00    -0.373 OA
ATOM      7  H   LIG d   1       2.388   0.038  -8.973  0.00  0.00     0.029 H 
ATOM      8  H   LIG d   1       2.408   0.425  -7.224  0.00  0.00     0.029 H 
ATOM      9  H   LIG d   1       2.082   2.349  -9.246  0.00  0.00     0.029 H 
ATOM     10  H   LIG d   1       2.740   2.717  -7.617  0.00  0.00     0.029 H 
ATOM     11  H   LIG d   1       4.279   2.035 -10.185  0.00  0.00     0.056 H 
ATOM     12  H   LIG d   1       4.579   3.375  -9.035  0.00  0.00     0.056 H 
ENDROOT
BRANCH   1  13
ATOM     13  C   LIG d   1       4.725  -0.317  -6.749  0.00  0.00     0.119 C 
ATOM     14  H   LIG d   1       4.774  -1.404  -6.810  0.00  0.00     0.072 H 
ATOM     15  H   LIG d   1       5.691   0.073  -6.425  0.00  0.00     0.072 H 
BRANCH  13  16
ATOM     16  O   LIG d   1       3.701   0.069  -5.795  0.00  0.00    -0.459 OA
BRANCH  16  17
ATOM     17  C   LIG d   1       3.979  -0.121  -4.490  0.00  0.00     0.332 C 
ATOM     18  O   LIG d   1       4.352   0.812  -3.805  0.00  0.00    -0.246 OA
BRANCH  17  19
ATOM     19  C   LIG d   1       3.833  -1.457  -3.894  0.00  0.00     0.015 C 
ATOM     20  C   LIG d   1       3.497  -1.581  -2.613  0.00  0.00    -0.092 C 
ATOM     21  H   LIG d   1       3.389  -2.563  -2.176  0.00  0.00     0.054 H 
ATOM     22  H   LIG d   1       3.333  -0.701  -2.010  0.00  0.00     0.054 H 
ATOM     23  H   LIG d   1       3.997  -2.337  -4.498  0.00  0.00     0.068 H 
ENDBRANCH  17  19
ENDBRANCH  16  17
ENDBRANCH  13  16
ENDBRANCH   1  13
TORSDOF 4
ENDMDL
MODEL 6
REMARK VINA RESULT:      -4.2      3.099      4.787
REMARK  4 active torsions:
REMARK  status: ('A' for Active; 'I' for Inactive)
REMARK    1  A    between atoms: C_2  and  C_3 
REMARK    2  A    between atoms: C_3  and  O_5 
REMARK    3  A    between atoms: O_5  and  C_6 
REMARK    4  A    between atoms: C_6  and  C_7 
ROOT
ATOM      1  C   LIG d   1       6.270  -0.753  -4.569  0.00  0.00     0.093 C 
ATOM      2  H   LIG d   1       6.419   0.227  -4.116  0.00  0.00     0.063 H 
ATOM      3  C   LIG d   1       6.362  -1.848  -3.490  0.00  0.00    -0.021 C 
ATOM      4  C   LIG d   1       7.581  -2.701  -3.918  0.00  0.00    -0.027 C 
ATOM      5  C   LIG d   1       8.356  -1.722  -4.836  0.00  0.00     0.048 C 
ATOM      6  O   LIG d   1       7.307  -1.008  -5.531  0.00  0.00    -0.373 OA
ATOM      7  H   LIG d   1       6.532  -1.405  -2.510  0.00  0.00     0.029 H 
ATOM      8  H   LIG d   1       5.456  -2.454  -3.484  0.00  0.00     0.029 H 
ATOM      9  H   LIG d   1       8.183  -2.981  -3.053  0.00  0.00     0.029 H 
ATOM     10  H   LIG d   1       7.263  -3.585  -4.472  0.00  0.00     0.029 H 
ATOM     11  H   LIG d   1       8.960  -1.035  -4.243  0.00  0.00     0.056 H 
ATOM     12  H   LIG d   1       8.983  -2.270  -5.540  0.00  0.00     0.056 H 
ENDROOT
BRANCH   1  13
ATOM     13  C   LIG d   1       4.902  -0.807  -5.252  0.00  0.00     0.119 C 
ATOM     14  H   LIG d   1       4.782   0.065  -5.894  0.00  0.00     0.072 H 
ATOM     15  H   LIG d   1       4.832  -1.714  -5.854  0.00  0.00     0.072 H 
BRANCH  13  16
ATOM     16  O   LIG d   1       3.857  -0.814  -4.243  0.00  0.00    -0.459 OA
BRANCH  16  17
ATOM     17  C   LIG d   1       3.418   0.385  -3.811  0.00  0.00     0.332 C 
ATOM     18  O   LIG d   1       3.024   1.212  -4.608  0.00  0.00    -0.246 OA
BRANCH  17  19
ATOM     19  C   LIG d   1       3.416   0.692  -2.373  0.00  0.00     0.015 C 
ATOM     20  C   LIG d   1       4.562   0.937  -1.743  0.00  0.00    -0.092 C 
ATOM     21  H   LIG d   1       4.561   1.163  -0.687  0.00  0.00     0.054 H 
ATOM     22  H   LIG d   1       5.494   0.910  -2.288  0.00  0.00     0.054 H 
ATOM     23  H   LIG d   1       2.484   0.719  -1.828  0.00  0.00     0.068 H 
ENDBRANCH  17  19
ENDBRANCH  16  17
ENDBRANCH  13  16
ENDBRANCH   1  13
TORSDOF 4
ENDMDL
MODEL 7
REMARK VINA RESULT:      -4.0      3.955      5.252
REMARK  4 active torsions:
REMARK  status: ('A' for Active; 'I' for Inactive)
REMARK    1  A    between atoms: C_2  and  C_3 
REMARK    2  A    between atoms: C_3  and  O_5 
REMARK    3  A    between atoms: O_5  and  C_6 
REMARK    4  A    between atoms: C_6  and  C_7 
ROOT
ATOM      1  C   LIG d   1       5.603   0.228  -3.718  0.00  0.00     0.093 C 
ATOM      2  H   LIG d   1       5.211   0.029  -4.716  0.00  0.00     0.063 H 
ATOM      3  C   LIG d   1       5.207  -0.912  -2.761  0.00  0.00    -0.021 C 
ATOM      4  C   LIG d   1       4.317  -0.223  -1.698  0.00  0.00    -0.027 C 
ATOM      5  C   LIG d   1       3.864   1.062  -2.437  0.00  0.00     0.048 C 
ATOM      6  O   LIG d   1       5.032   1.442  -3.202  0.00  0.00    -0.373 OA
ATOM      7  H   LIG d   1       4.641  -1.677  -3.293  0.00  0.00     0.029 H 
ATOM      8  H   LIG d   1       6.091  -1.345  -2.296  0.00  0.00     0.029 H 
ATOM      9  H   LIG d   1       3.460  -0.846  -1.443  0.00  0.00     0.029 H 
ATOM     10  H   LIG d   1       4.896   0.024  -0.808  0.00  0.00     0.029 H 
ATOM     11  H   LIG d   1       3.025   0.849  -3.098  0.00  0.00     0.056 H 
ATOM     12  H   LIG d   1       3.600   1.843  -1.724  0.00  0.00     0.056 H 
ENDROOT
BRANCH   1  13
ATOM     13  C   LIG d   1       7.127   0.353  -3.776  0.00  0.00     0.119 C 
ATOM     14  H   LIG d   1       7.576  -0.368  -3.092  0.00  0.00     0.072 H 
ATOM     15  H   LIG d   1       7.470   0.153  -4.791  0.00  0.00     0.072 H 
BRANCH  13  16
ATOM     16  O   LIG d   1       7.518   1.697  -3.388  0.00  0.00    -0.459 OA
BRANCH  16  17
ATOM     17  C   LIG d   1       8.397   2.332  -4.187  0.00  0.00     0.332 C 
ATOM     18  O   LIG d   1       8.131   2.517  -5.358  0.00  0.00    -0.246 OA
BRANCH  17  19
ATOM     19  C   LIG d   1       9.680   2.801  -3.642  0.00  0.00     0.015 C 
ATOM     20  C   LIG d   1       9.751   3.980  -3.030  0.00  0.00    -0.092 C 
ATOM     21  H   LIG d   1      10.693   4.324  -2.629  0.00  0.00     0.054 H 
ATOM     22  H   LIG d   1       8.868   4.593  -2.934  0.00  0.00     0.054 H 
ATOM     23  H   LIG d   1      10.564   2.188  -3.739  0.00  0.00     0.068 H 
ENDBRANCH  17  19
ENDBRANCH  16  17
ENDBRANCH  13  16
ENDBRANCH   1  13
TORSDOF 4
ENDMDL
MODEL 8
REMARK VINA RESULT:      -4.0      4.119      6.116
REMARK  4 active torsions:
REMARK  status: ('A' for Active; 'I' for Inactive)
REMARK    1  A    between atoms: C_2  and  C_3 
REMARK    2  A    between atoms: C_3  and  O_5 
REMARK    3  A    between atoms: O_5  and  C_6 
REMARK    4  A    between atoms: C_6  and  C_7 
ROOT
ATOM      1  C   LIG d   1       7.764   1.596  -4.501  0.00  0.00     0.093 C 
ATOM      2  H   LIG d   1       7.163   2.409  -4.910  0.00  0.00     0.063 H 
ATOM      3  C   LIG d   1       8.933   2.172  -3.679  0.00  0.00    -0.021 C 
ATOM      4  C   LIG d   1      10.198   1.686  -4.428  0.00  0.00    -0.027 C 
ATOM      5  C   LIG d   1       9.641   1.374  -5.840  0.00  0.00     0.048 C 
ATOM      6  O   LIG d   1       8.331   0.822  -5.571  0.00  0.00    -0.373 OA
ATOM      7  H   LIG d   1       8.892   3.261  -3.667  0.00  0.00     0.029 H 
ATOM      8  H   LIG d   1       8.916   1.777  -2.664  0.00  0.00     0.029 H 
ATOM      9  H   LIG d   1      10.951   2.474  -4.473  0.00  0.00     0.029 H 
ATOM     10  H   LIG d   1      10.605   0.788  -3.963  0.00  0.00     0.029 H 
ATOM     11  H   LIG d   1       9.559   2.286  -6.431  0.00  0.00     0.056 H 
ATOM     12  H   LIG d   1      10.271   0.644  -6.349  0.00  0.00     0.056 H 
ENDROOT
BRANCH   1  13
ATOM     13  C   LIG d   1       6.895   0.702  -3.615  0.00  0.00     0.119 C 
ATOM     14  H   LIG d   1       6.262   0.074  -4.243  0.00  0.00     0.072 H 
ATOM     15  H   LIG d   1       7.534   0.071  -2.997  0.00  0.00     0.072 H 
BRANCH  13  16
ATOM     16  O   LIG d   1       6.061   1.531  -2.761  0.00  0.00    -0.459 OA
BRANCH  16  17
ATOM     17  C   LIG d   1       4.782   1.141  -2.594  0.00  0.00     0.332 C 
ATOM     18  O   LIG d   1       3.883   1.758  -3.131  0.00  0.00    -0.246 OA
BRANCH  17  19
ATOM     19  C   LIG d   1       4.473  -0.030  -1.760  0.00  0.00     0.015 C 
ATOM     20  C   LIG d   1       3.830  -1.069  -2.285  0.00  0.00    -0.092 C 
ATOM     21  H   LIG d   1       3.604  -1.930  -1.673  0.00  0.00     0.054 H 
ATOM     22  H   LIG d   1       3.533  -1.053  -3.323  0.00  0.00     0.054 H 
ATOM     23  H   LIG d   1       4.770  -0.046  -0.722  0.00  0.00     0.068 H 
ENDBRANCH  17  19
ENDBRANCH  16  17
ENDBRANCH  13  16
ENDBRANCH   1  13
TORSDOF 4
ENDMDL
MODEL 9
REMARK VINA RESULT:      -3.8      3.653      5.669
REMARK  4 active torsions:
REMARK  status: ('A' for Active; 'I' for Inactive)
REMARK    1  A    between atoms: C_2  and  C_3 
REMARK    2  A    between atoms: C_3  and  O_5 
REMARK    3  A    between atoms: O_5  and  C_6 
REMARK    4  A    between atoms: C_6  and  C_7 
ROOT
ATOM      1  C   LIG d   1       5.602  -2.959  -5.948  0.00  0.00     0.093 C 
ATOM      2  H   LIG d   1       6.360  -2.775  -6.710  0.00  0.00     0.063 H 
ATOM      3  C   LIG d   1       5.944  -4.244  -5.170  0.00  0.00    -0.021 C 
ATOM      4  C   LIG d   1       4.757  -5.194  -5.466  0.00  0.00    -0.027 C 
ATOM      5  C   LIG d   1       4.172  -4.587  -6.766  0.00  0.00     0.048 C 
ATOM      6  O   LIG d   1       4.323  -3.160  -6.571  0.00  0.00    -0.373 OA
ATOM      7  H   LIG d   1       6.876  -4.675  -5.535  0.00  0.00     0.029 H 
ATOM      8  H   LIG d   1       6.009  -4.038  -4.102  0.00  0.00     0.029 H 
ATOM      9  H   LIG d   1       5.107  -6.212  -5.637  0.00  0.00     0.029 H 
ATOM     10  H   LIG d   1       4.025  -5.165  -4.659  0.00  0.00     0.029 H 
ATOM     11  H   LIG d   1       4.741  -4.917  -7.635  0.00  0.00     0.056 H 
ATOM     12  H   LIG d   1       3.120  -4.852  -6.875  0.00  0.00     0.056 H 
ENDROOT
BRANCH   1  13
ATOM     13  C   LIG d   1       5.533  -1.771  -4.986  0.00  0.00     0.119 C 
ATOM     14  H   LIG d   1       6.116  -1.994  -4.092  0.00  0.00     0.072 H 
ATOM     15  H   LIG d   1       5.939  -0.885  -5.474  0.00  0.00     0.072 H 
BRANCH  13  16
ATOM     16  O   LIG d   1       4.150  -1.530  -4.615  0.00  0.00    -0.459 OA
BRANCH  16  17
ATOM     17  C   LIG d   1       3.843  -1.628  -3.306  0.00  0.00     0.332 C 
ATOM     18  O   LIG d   1       3.826  -2.716  -2.765  0.00  0.00    -0.246 OA
BRANCH  17  19
ATOM     19  C   LIG d   1       3.527  -0.418  -2.532  0.00  0.00     0.015 C 
ATOM     20  C   LIG d   1       4.481   0.190  -1.832  0.00  0.00    -0.092 C 
ATOM     21  H   LIG d   1       4.249   1.079  -1.264  0.00  0.00     0.054 H 
ATOM     22  H   LIG d   1       5.486  -0.205  -1.830  0.00  0.00     0.054 H 
ATOM     23  H   LIG d   1       2.522  -0.023  -2.534  0.00  0.00     0.068 H 
ENDBRANCH  17  19
ENDBRANCH  16  17
ENDBRANCH  13  16
ENDBRANCH   1  13
TORSDOF 4
ENDMDL
MODEL 10
REMARK VINA RESULT:      -3.8     10.177     11.545
REMARK  4 active torsions:
REMARK  status: ('A' for Active; 'I' for Inactive)
REMARK    1  A    between atoms: C_2  and  C_3 
REMARK    2  A    between atoms: C_3  and  O_5 
REMARK    3  A    between atoms: O_5  and  C_6 
REMARK    4  A    between atoms: C_6  and  C_7 
ROOT
ATOM      1  C   LIG d   1      10.346   5.955  -1.251  0.00  0.00     0.093 C 
ATOM      2  H   LIG d   1       9.995   4.977  -1.579  0.00  0.00     0.063 H 
ATOM      3  C   LIG d   1      11.817   6.151  -1.667  0.00  0.00    -0.021 C 
ATOM      4  C   LIG d   1      12.575   6.295  -0.325  0.00  0.00    -0.027 C 
ATOM      5  C   LIG d   1      11.591   5.639   0.677  0.00  0.00     0.048 C 
ATOM      6  O   LIG d   1      10.290   6.038   0.183  0.00  0.00    -0.373 OA
ATOM      7  H   LIG d   1      12.177   5.281  -2.216  0.00  0.00     0.029 H 
ATOM      8  H   LIG d   1      11.927   7.054  -2.266  0.00  0.00     0.029 H 
ATOM      9  H   LIG d   1      13.520   5.754  -0.351  0.00  0.00     0.029 H 
ATOM     10  H   LIG d   1      12.736   7.345  -0.080  0.00  0.00     0.029 H 
ATOM     11  H   LIG d   1      11.692   4.554   0.659  0.00  0.00     0.056 H 
ATOM     12  H   LIG d   1      11.755   6.021   1.684  0.00  0.00     0.056 H 
ENDROOT
BRANCH   1  13
ATOM     13  C   LIG d   1       9.479   7.053  -1.870  0.00  0.00     0.119 C 
ATOM     14  H   LIG d   1      10.096   7.684  -2.511  0.00  0.00     0.072 H 
ATOM     15  H   LIG d   1       8.686   6.598  -2.463  0.00  0.00     0.072 H 
BRANCH  13  16
ATOM     16  O   LIG d   1       8.894   7.861  -0.815  0.00  0.00    -0.459 OA
BRANCH  16  17
ATOM     17  C   LIG d   1       9.211   9.171  -0.801  0.00  0.00     0.332 C 
ATOM     18  O   LIG d   1       8.364  10.004  -1.055  0.00  0.00    -0.246 OA
BRANCH  17  19
ATOM     19  C   LIG d   1      10.582   9.592  -0.478  0.00  0.00     0.015 C 
ATOM     20  C   LIG d   1      11.030   9.500   0.771  0.00  0.00    -0.092 C 
ATOM     21  H   LIG d   1      12.037   9.809   1.008  0.00  0.00     0.054 H 
ATOM     22  H   LIG d   1      10.385   9.118   1.549  0.00  0.00     0.054 H 
ATOM     23  H   LIG d   1      11.226   9.974  -1.256  0.00  0.00     0.068 H 
ENDBRANCH  17  19
ENDBRANCH  16  17
ENDBRANCH  13  16
ENDBRANCH   1  13
TORSDOF 4
ENDMDL
