MODEL 1
REMARK VINA RESULT:      -6.5      0.000      0.000
REMARK  7 active torsions:
REMARK  status: ('A' for Active; 'I' for Inactive)
REMARK    1  A    between atoms: C_1  and  C_2 
REMARK    2  A    between atoms: C_5  and  N_46 
REMARK    3  A    between atoms: C_8  and  C_9 
REMARK    4  A    between atoms: C_8  and  N_46 
REMARK    5  A    between atoms: C_9  and  O_17 
REMARK    6  A    between atoms: C_13  and  C_15 
REMARK    7  A    between atoms: C_13  and  C_16 
ROOT
ATOM      1  C   LIG d   1       2.606   0.549  -5.530  0.00  0.00    -0.004 C 
ATOM      2  H   LIG d   1       1.538   0.739  -5.426  0.00  0.00     0.084 H 
ATOM      3  H   LIG d   1       3.110   1.465  -5.833  0.00  0.00     0.084 H 
ENDROOT
BRANCH   1   4
ATOM      4  C   LIG d   1       3.171   0.074  -4.189  0.00  0.00     0.110 C 
ATOM      5  C   LIG d   1       4.475  -0.694  -4.425  0.00  0.00     0.010 C 
ATOM      6  C   LIG d   1       5.074  -1.097  -3.074  0.00  0.00     0.067 C 
ATOM      7  H   LIG d   1       4.270  -1.589  -5.014  0.00  0.00     0.032 H 
ATOM      8  H   LIG d   1       5.180  -0.058  -4.961  0.00  0.00     0.032 H 
ATOM      9  O   LIG d   1       5.287   0.073  -2.281  0.00  0.00    -0.374 OA
ATOM     10  C   LIG d   1       4.094   0.806  -1.989  0.00  0.00     0.051 C 
ATOM     11  C   LIG d   1       3.459   1.285  -3.296  0.00  0.00     0.005 C 
ATOM     12  H   LIG d   1       4.341   1.667  -1.367  0.00  0.00     0.056 H 
ATOM     13  H   LIG d   1       3.393   0.162  -1.457  0.00  0.00     0.056 H 
ATOM     14  H   LIG d   1       4.143   1.961  -3.808  0.00  0.00     0.032 H 
ATOM     15  H   LIG d   1       2.527   1.807  -3.079  0.00  0.00     0.032 H 
BRANCH   6  16
ATOM     16  C   LIG d   1       4.108  -2.036  -2.348  0.00  0.00    -0.036 C 
ATOM     17  H   LIG d   1       4.326  -2.026  -1.281  0.00  0.00     0.026 H 
ATOM     18  H   LIG d   1       3.084  -1.701  -2.513  0.00  0.00     0.026 H 
ATOM     19  H   LIG d   1       4.226  -3.048  -2.735  0.00  0.00     0.026 H 
ENDBRANCH   6  16
BRANCH   6  20
ATOM     20  C   LIG d   1       6.408  -1.811  -3.301  0.00  0.00    -0.036 C 
ATOM     21  H   LIG d   1       6.820  -1.515  -4.265  0.00  0.00     0.026 H 
ATOM     22  H   LIG d   1       7.105  -1.538  -2.509  0.00  0.00     0.026 H 
ATOM     23  H   LIG d   1       6.249  -2.890  -3.290  0.00  0.00     0.026 H 
ENDBRANCH   6  20
BRANCH   4  24
ATOM     24  O   LIG d   1       2.222  -0.781  -3.547  0.00  0.00    -0.383 OA
ATOM     25  H   LIG d   1       2.116  -1.641  -3.974  0.00  0.00     0.210 HD
ENDBRANCH   4  24
ENDBRANCH   1   4
BRANCH   1  26
ATOM     26  N   LIG d   1       2.827  -0.499  -6.545  0.00  0.00     0.231 N 
ATOM     27  H   LIG d   1       3.729  -0.956  -6.369  0.00  0.00     0.202 HD
ATOM     28  H   LIG d   1       2.073  -1.193  -6.484  0.00  0.00     0.202 HD
BRANCH  26  29
ATOM     29  C   LIG d   1       2.837   0.093  -7.897  0.00  0.00    -0.022 C 
ATOM     30  C   LIG d   1       2.922   1.615  -7.777  0.00  0.00    -0.009 C 
ATOM     31  C   LIG d   1       2.937   2.236  -9.176  0.00  0.00    -0.045 C 
ATOM     32  H   LIG d   1       2.058   1.985  -7.225  0.00  0.00     0.032 H 
ATOM     33  H   LIG d   1       3.835   1.888  -7.249  0.00  0.00     0.032 H 
ATOM     34  C   LIG d   1       4.150   1.717  -9.951  0.00  0.00    -0.043 C 
ATOM     35  H   LIG d   1       2.024   1.964  -9.705  0.00  0.00     0.027 H 
ATOM     36  H   LIG d   1       2.998   3.321  -9.091  0.00  0.00     0.027 H 
ATOM     37  C   LIG d   1       4.065   0.194 -10.070  0.00  0.00    -0.045 C 
ATOM     38  H   LIG d   1       4.161   2.159 -10.947  0.00  0.00     0.030 H 
ATOM     39  C   LIG d   1       4.050  -0.427  -8.671  0.00  0.00    -0.009 C 
ATOM     40  H   LIG d   1       3.152  -0.079 -10.599  0.00  0.00     0.027 H 
ATOM     41  H   LIG d   1       4.929  -0.176 -10.622  0.00  0.00     0.027 H 
ATOM     42  H   LIG d   1       4.962  -0.154  -8.143  0.00  0.00     0.032 H 
ATOM     43  H   LIG d   1       3.989  -1.512  -8.757  0.00  0.00     0.032 H 
ATOM     44  H   LIG d   1       1.923  -0.180  -8.425  0.00  0.00     0.085 H 
BRANCH  34  45
ATOM     45  C   LIG d   1       5.432   2.100  -9.209  0.00  0.00    -0.062 C 
ATOM     46  H   LIG d   1       6.286   1.981  -9.875  0.00  0.00     0.023 H 
ATOM     47  H   LIG d   1       5.367   3.138  -8.884  0.00  0.00     0.023 H 
ATOM     48  H   LIG d   1       5.556   1.453  -8.341  0.00  0.00     0.023 H 
ENDBRANCH  34  45
ENDBRANCH  26  29
ENDBRANCH   1  26
TORSDOF 7
ENDMDL
MODEL 2
REMARK VINA RESULT:      -6.4      2.287      6.224
REMARK  7 active torsions:
REMARK  status: ('A' for Active; 'I' for Inactive)
REMARK    1  A    between atoms: C_1  and  C_2 
REMARK    2  A    between atoms: C_5  and  N_46 
REMARK    3  A    between atoms: C_8  and  C_9 
REMARK    4  A    between atoms: C_8  and  N_46 
REMARK    5  A    between atoms: C_9  and  O_17 
REMARK    6  A    between atoms: C_13  and  C_15 
REMARK    7  A    between atoms: C_13  and  C_16 
ROOT
ATOM      1  C   LIG d   1       2.820   0.028  -6.182  0.00  0.00    -0.004 C 
ATOM      2  H   LIG d   1       1.819  -0.404  -6.215  0.00  0.00     0.084 H 
ATOM      3  H   LIG d   1       3.542  -0.748  -5.931  0.00  0.00     0.084 H 
ENDROOT
BRANCH   1   4
ATOM      4  C   LIG d   1       3.163   0.620  -7.551  0.00  0.00     0.110 C 
ATOM      5  C   LIG d   1       4.664   0.465  -7.816  0.00  0.00     0.010 C 
ATOM      6  C   LIG d   1       4.984   0.989  -9.218  0.00  0.00     0.067 C 
ATOM      7  H   LIG d   1       5.225   1.037  -7.076  0.00  0.00     0.032 H 
ATOM      8  H   LIG d   1       4.938  -0.588  -7.748  0.00  0.00     0.032 H 
ATOM      9  O   LIG d   1       4.203   0.278 -10.181  0.00  0.00    -0.374 OA
ATOM     10  C   LIG d   1       2.791   0.425 -10.011  0.00  0.00     0.051 C 
ATOM     11  C   LIG d   1       2.384  -0.122  -8.641  0.00  0.00     0.005 C 
ATOM     12  H   LIG d   1       2.272  -0.129 -10.794  0.00  0.00     0.056 H 
ATOM     13  H   LIG d   1       2.526   1.481 -10.076  0.00  0.00     0.056 H 
ATOM     14  H   LIG d   1       2.612  -1.187  -8.591  0.00  0.00     0.032 H 
ATOM     15  H   LIG d   1       1.315   0.028  -8.491  0.00  0.00     0.032 H 
BRANCH   6  16
ATOM     16  C   LIG d   1       4.653   2.481  -9.294  0.00  0.00    -0.036 C 
ATOM     17  H   LIG d   1       4.039   2.671 -10.174  0.00  0.00     0.026 H 
ATOM     18  H   LIG d   1       4.107   2.776  -8.399  0.00  0.00     0.026 H 
ATOM     19  H   LIG d   1       5.576   3.055  -9.363  0.00  0.00     0.026 H 
ENDBRANCH   6  16
BRANCH   6  20
ATOM     20  C   LIG d   1       6.471   0.780  -9.512  0.00  0.00    -0.036 C 
ATOM     21  H   LIG d   1       6.869   1.660 -10.017  0.00  0.00     0.026 H 
ATOM     22  H   LIG d   1       7.008   0.626  -8.576  0.00  0.00     0.026 H 
ATOM     23  H   LIG d   1       6.597  -0.094 -10.151  0.00  0.00     0.026 H 
ENDBRANCH   6  20
BRANCH   4  24
ATOM     24  O   LIG d   1       2.814   2.007  -7.572  0.00  0.00    -0.383 OA
ATOM     25  H   LIG d   1       1.874   2.173  -7.720  0.00  0.00     0.210 HD
ENDBRANCH   4  24
ENDBRANCH   1   4
BRANCH   1  26
ATOM     26  N   LIG d   1       2.865   1.097  -5.167  0.00  0.00     0.231 N 
ATOM     27  H   LIG d   1       3.657   1.720  -5.367  0.00  0.00     0.202 HD
ATOM     28  H   LIG d   1       1.991   1.634  -5.202  0.00  0.00     0.202 HD
BRANCH  26  29
ATOM     29  C   LIG d   1       3.030   0.518  -3.821  0.00  0.00    -0.022 C 
ATOM     30  C   LIG d   1       3.167  -1.001  -3.941  0.00  0.00    -0.009 C 
ATOM     31  C   LIG d   1       3.342  -1.608  -2.548  0.00  0.00    -0.045 C 
ATOM     32  H   LIG d   1       2.270  -1.411  -4.406  0.00  0.00     0.032 H 
ATOM     33  H   LIG d   1       4.036  -1.240  -4.554  0.00  0.00     0.032 H 
ATOM     34  C   LIG d   1       4.601  -1.034  -1.895  0.00  0.00    -0.043 C 
ATOM     35  H   LIG d   1       2.474  -1.370  -1.935  0.00  0.00     0.027 H 
ATOM     36  H   LIG d   1       3.440  -2.691  -2.634  0.00  0.00     0.027 H 
ATOM     37  C   LIG d   1       4.464   0.485  -1.775  0.00  0.00    -0.045 C 
ATOM     38  H   LIG d   1       4.726  -1.467  -0.903  0.00  0.00     0.030 H 
ATOM     39  C   LIG d   1       4.289   1.094  -3.169  0.00  0.00    -0.009 C 
ATOM     40  H   LIG d   1       3.595   0.724  -1.162  0.00  0.00     0.027 H 
ATOM     41  H   LIG d   1       5.360   0.895  -1.310  0.00  0.00     0.027 H 
ATOM     42  H   LIG d   1       5.157   0.854  -3.781  0.00  0.00     0.032 H 
ATOM     43  H   LIG d   1       4.191   2.176  -3.082  0.00  0.00     0.032 H 
ATOM     44  H   LIG d   1       2.161   0.757  -3.208  0.00  0.00     0.085 H 
BRANCH  34  45
ATOM     45  C   LIG d   1       5.821  -1.369  -2.755  0.00  0.00    -0.062 C 
ATOM     46  H   LIG d   1       6.200  -2.354  -2.479  0.00  0.00     0.023 H 
ATOM     47  H   LIG d   1       5.534  -1.372  -3.807  0.00  0.00     0.023 H 
ATOM     48  H   LIG d   1       6.597  -0.623  -2.591  0.00  0.00     0.023 H 
ENDBRANCH  34  45
ENDBRANCH  26  29
ENDBRANCH   1  26
TORSDOF 7
ENDMDL
MODEL 3
REMARK VINA RESULT:      -6.2      2.304      6.356
REMARK  7 active torsions:
REMARK  status: ('A' for Active; 'I' for Inactive)
REMARK    1  A    between atoms: C_1  and  C_2 
REMARK    2  A    between atoms: C_5  and  N_46 
REMARK    3  A    between atoms: C_8  and  C_9 
REMARK    4  A    between atoms: C_8  and  N_46 
REMARK    5  A    between atoms: C_9  and  O_17 
REMARK    6  A    between atoms: C_13  and  C_15 
REMARK    7  A    between atoms: C_13  and  C_16 
ROOT
ATOM      1  C   LIG d   1       4.943  -1.558  -6.583  0.00  0.00    -0.004 C 
ATOM      2  H   LIG d   1       5.626  -2.311  -6.978  0.00  0.00     0.084 H 
ATOM      3  H   LIG d   1       5.510  -0.682  -6.271  0.00  0.00     0.084 H 
ENDROOT
BRANCH   1   4
ATOM      4  C   LIG d   1       3.942  -1.160  -7.669  0.00  0.00     0.110 C 
ATOM      5  C   LIG d   1       4.590  -0.145  -8.617  0.00  0.00     0.010 C 
ATOM      6  C   LIG d   1       3.609   0.188  -9.744  0.00  0.00     0.067 C 
ATOM      7  H   LIG d   1       4.835   0.763  -8.066  0.00  0.00     0.032 H 
ATOM      8  H   LIG d   1       5.500  -0.572  -9.039  0.00  0.00     0.032 H 
ATOM      9  O   LIG d   1       3.244  -1.013 -10.427  0.00  0.00    -0.374 OA
ATOM     10  C   LIG d   1       2.591  -1.979  -9.601  0.00  0.00     0.051 C 
ATOM     11  C   LIG d   1       3.532  -2.400  -8.469  0.00  0.00     0.005 C 
ATOM     12  H   LIG d   1       2.330  -2.852 -10.200  0.00  0.00     0.056 H 
ATOM     13  H   LIG d   1       1.685  -1.543  -9.179  0.00  0.00     0.056 H 
ATOM     14  H   LIG d   1       4.419  -2.872  -8.889  0.00  0.00     0.032 H 
ATOM     15  H   LIG d   1       3.021  -3.104  -7.812  0.00  0.00     0.032 H 
BRANCH   6  16
ATOM     16  C   LIG d   1       2.357   0.840  -9.155  0.00  0.00    -0.036 C 
ATOM     17  H   LIG d   1       1.498   0.614  -9.787  0.00  0.00     0.026 H 
ATOM     18  H   LIG d   1       2.183   0.450  -8.152  0.00  0.00     0.026 H 
ATOM     19  H   LIG d   1       2.498   1.920  -9.105  0.00  0.00     0.026 H 
ENDBRANCH   6  16
BRANCH   6  20
ATOM     20  C   LIG d   1       4.274   1.154 -10.728  0.00  0.00    -0.036 C 
ATOM     21  H   LIG d   1       3.524   1.547 -11.414  0.00  0.00     0.026 H 
ATOM     22  H   LIG d   1       4.728   1.977 -10.176  0.00  0.00     0.026 H 
ATOM     23  H   LIG d   1       5.042   0.627 -11.293  0.00  0.00     0.026 H 
ENDBRANCH   6  20
BRANCH   4  24
ATOM     24  O   LIG d   1       2.787  -0.576  -7.062  0.00  0.00    -0.383 OA
ATOM     25  H   LIG d   1       2.975   0.213  -6.537  0.00  0.00     0.210 HD
ENDBRANCH   4  24
ENDBRANCH   1   4
BRANCH   1  26
ATOM     26  N   LIG d   1       4.210  -2.112  -5.429  0.00  0.00     0.231 N 
ATOM     27  H   LIG d   1       3.225  -1.828  -5.486  0.00  0.00     0.202 HD
ATOM     28  H   LIG d   1       4.273  -3.136  -5.447  0.00  0.00     0.202 HD
BRANCH  26  29
ATOM     29  C   LIG d   1       4.788  -1.611  -4.167  0.00  0.00    -0.022 C 
ATOM     30  C   LIG d   1       5.261  -0.170  -4.370  0.00  0.00    -0.009 C 
ATOM     31  C   LIG d   1       5.859   0.358  -3.064  0.00  0.00    -0.045 C 
ATOM     32  H   LIG d   1       6.019  -0.143  -5.153  0.00  0.00     0.032 H 
ATOM     33  H   LIG d   1       4.416   0.453  -4.661  0.00  0.00     0.032 H 
ATOM     34  C   LIG d   1       4.794   0.321  -1.965  0.00  0.00    -0.043 C 
ATOM     35  H   LIG d   1       6.704  -0.264  -2.772  0.00  0.00     0.027 H 
ATOM     36  H   LIG d   1       6.196   1.385  -3.208  0.00  0.00     0.027 H 
ATOM     37  C   LIG d   1       4.320  -1.119  -1.762  0.00  0.00    -0.045 C 
ATOM     38  H   LIG d   1       5.220   0.698  -1.035  0.00  0.00     0.030 H 
ATOM     39  C   LIG d   1       3.723  -1.648  -3.069  0.00  0.00    -0.009 C 
ATOM     40  H   LIG d   1       5.166  -1.742  -1.471  0.00  0.00     0.027 H 
ATOM     41  H   LIG d   1       3.563  -1.146  -0.980  0.00  0.00     0.027 H 
ATOM     42  H   LIG d   1       2.878  -1.025  -3.360  0.00  0.00     0.032 H 
ATOM     43  H   LIG d   1       3.386  -2.674  -2.924  0.00  0.00     0.032 H 
ATOM     44  H   LIG d   1       5.633  -2.234  -3.876  0.00  0.00     0.085 H 
BRANCH  34  45
ATOM     45  C   LIG d   1       3.608   1.196  -2.374  0.00  0.00    -0.062 C 
ATOM     46  H   LIG d   1       3.756   1.557  -3.392  0.00  0.00     0.023 H 
ATOM     47  H   LIG d   1       2.691   0.609  -2.326  0.00  0.00     0.023 H 
ATOM     48  H   LIG d   1       3.532   2.046  -1.696  0.00  0.00     0.023 H 
ENDBRANCH  34  45
ENDBRANCH  26  29
ENDBRANCH   1  26
TORSDOF 7
ENDMDL
MODEL 4
REMARK VINA RESULT:      -6.0      2.428      6.367
REMARK  7 active torsions:
REMARK  status: ('A' for Active; 'I' for Inactive)
REMARK    1  A    between atoms: C_1  and  C_2 
REMARK    2  A    between atoms: C_5  and  N_46 
REMARK    3  A    between atoms: C_8  and  C_9 
REMARK    4  A    between atoms: C_8  and  N_46 
REMARK    5  A    between atoms: C_9  and  O_17 
REMARK    6  A    between atoms: C_13  and  C_15 
REMARK    7  A    between atoms: C_13  and  C_16 
ROOT
ATOM      1  C   LIG d   1       3.132   0.027  -6.749  0.00  0.00    -0.004 C 
ATOM      2  H   LIG d   1       3.031   0.795  -5.982  0.00  0.00     0.084 H 
ATOM      3  H   LIG d   1       2.147  -0.357  -7.009  0.00  0.00     0.084 H 
ENDROOT
BRANCH   1   4
ATOM      4  C   LIG d   1       3.790   0.631  -7.991  0.00  0.00     0.110 C 
ATOM      5  C   LIG d   1       3.683  -0.355  -9.159  0.00  0.00     0.010 C 
ATOM      6  C   LIG d   1       4.273   0.289 -10.417  0.00  0.00     0.067 C 
ATOM      7  H   LIG d   1       4.237  -1.264  -8.921  0.00  0.00     0.032 H 
ATOM      8  H   LIG d   1       2.635  -0.601  -9.332  0.00  0.00     0.032 H 
ATOM      9  O   LIG d   1       3.585   1.510 -10.693  0.00  0.00    -0.374 OA
ATOM     10  C   LIG d   1       3.690   2.488  -9.655  0.00  0.00     0.051 C 
ATOM     11  C   LIG d   1       3.076   1.932  -8.369  0.00  0.00     0.005 C 
ATOM     12  H   LIG d   1       3.157   3.392  -9.953  0.00  0.00     0.056 H 
ATOM     13  H   LIG d   1       4.741   2.725  -9.485  0.00  0.00     0.056 H 
ATOM     14  H   LIG d   1       2.016   1.733  -8.527  0.00  0.00     0.032 H 
ATOM     15  H   LIG d   1       3.193   2.659  -7.564  0.00  0.00     0.032 H 
BRANCH   6  16
ATOM     16  C   LIG d   1       5.758   0.580 -10.192  0.00  0.00    -0.036 C 
ATOM     17  H   LIG d   1       6.358  -0.160 -10.721  0.00  0.00     0.026 H 
ATOM     18  H   LIG d   1       5.993   1.575 -10.568  0.00  0.00     0.026 H 
ATOM     19  H   LIG d   1       5.980   0.533  -9.126  0.00  0.00     0.026 H 
ENDBRANCH   6  16
BRANCH   6  20
ATOM     20  C   LIG d   1       4.114  -0.668 -11.601  0.00  0.00    -0.036 C 
ATOM     21  H   LIG d   1       3.060  -0.911 -11.732  0.00  0.00     0.026 H 
ATOM     22  H   LIG d   1       4.492  -0.191 -12.505  0.00  0.00     0.026 H 
ATOM     23  H   LIG d   1       4.677  -1.581 -11.409  0.00  0.00     0.026 H 
ENDBRANCH   6  20
BRANCH   4  24
ATOM     24  O   LIG d   1       5.167   0.901  -7.718  0.00  0.00    -0.383 OA
ATOM     25  H   LIG d   1       5.673   1.184  -8.492  0.00  0.00     0.210 HD
ENDBRANCH   4  24
ENDBRANCH   1   4
BRANCH   1  26
ATOM     26  N   LIG d   1       3.975  -1.073  -6.241  0.00  0.00     0.231 N 
ATOM     27  H   LIG d   1       3.712  -1.946  -6.712  0.00  0.00     0.202 HD
ATOM     28  H   LIG d   1       4.960  -0.862  -6.438  0.00  0.00     0.202 HD
BRANCH  26  29
ATOM     29  C   LIG d   1       3.791  -1.229  -4.786  0.00  0.00    -0.022 C 
ATOM     30  C   LIG d   1       5.162  -1.311  -4.112  0.00  0.00    -0.009 C 
ATOM     31  C   LIG d   1       4.978  -1.470  -2.602  0.00  0.00    -0.045 C 
ATOM     32  H   LIG d   1       5.708  -2.169  -4.504  0.00  0.00     0.032 H 
ATOM     33  H   LIG d   1       5.722  -0.399  -4.317  0.00  0.00     0.032 H 
ATOM     34  C   LIG d   1       4.212  -0.265  -2.052  0.00  0.00    -0.043 C 
ATOM     35  H   LIG d   1       4.418  -2.381  -2.397  0.00  0.00     0.027 H 
ATOM     36  H   LIG d   1       5.956  -1.528  -2.122  0.00  0.00     0.027 H 
ATOM     37  C   LIG d   1       2.841  -0.182  -2.725  0.00  0.00    -0.045 C 
ATOM     38  H   LIG d   1       4.082  -0.378  -0.976  0.00  0.00     0.030 H 
ATOM     39  C   LIG d   1       3.024  -0.024  -4.237  0.00  0.00    -0.009 C 
ATOM     40  H   LIG d   1       2.280  -1.095  -2.521  0.00  0.00     0.027 H 
ATOM     41  H   LIG d   1       2.294   0.675  -2.334  0.00  0.00     0.027 H 
ATOM     42  H   LIG d   1       3.585   0.887  -4.441  0.00  0.00     0.032 H 
ATOM     43  H   LIG d   1       2.047   0.034  -4.716  0.00  0.00     0.032 H 
ATOM     44  H   LIG d   1       3.230  -2.141  -4.581  0.00  0.00     0.085 H 
BRANCH  34  45
ATOM     45  C   LIG d   1       4.999   1.015  -2.339  0.00  0.00    -0.062 C 
ATOM     46  H   LIG d   1       5.484   0.933  -3.311  0.00  0.00     0.023 H 
ATOM     47  H   LIG d   1       4.319   1.867  -2.343  0.00  0.00     0.023 H 
ATOM     48  H   LIG d   1       5.755   1.157  -1.567  0.00  0.00     0.023 H 
ENDBRANCH  34  45
ENDBRANCH  26  29
ENDBRANCH   1  26
TORSDOF 7
ENDMDL
MODEL 5
REMARK VINA RESULT:      -5.9      2.334      6.275
REMARK  7 active torsions:
REMARK  status: ('A' for Active; 'I' for Inactive)
REMARK    1  A    between atoms: C_1  and  C_2 
REMARK    2  A    between atoms: C_5  and  N_46 
REMARK    3  A    between atoms: C_8  and  C_9 
REMARK    4  A    between atoms: C_8  and  N_46 
REMARK    5  A    between atoms: C_9  and  O_17 
REMARK    6  A    between atoms: C_13  and  C_15 
REMARK    7  A    between atoms: C_13  and  C_16 
ROOT
ATOM      1  C   LIG d   1       3.964  -0.954  -6.209  0.00  0.00    -0.004 C 
ATOM      2  H   LIG d   1       4.017  -2.020  -5.981  0.00  0.00     0.084 H 
ATOM      3  H   LIG d   1       4.834  -0.450  -5.789  0.00  0.00     0.084 H 
ENDROOT
BRANCH   1   4
ATOM      4  C   LIG d   1       3.942  -0.759  -7.726  0.00  0.00     0.110 C 
ATOM      5  C   LIG d   1       3.687   0.717  -8.050  0.00  0.00     0.010 C 
ATOM      6  C   LIG d   1       3.746   0.917  -9.566  0.00  0.00     0.067 C 
ATOM      7  H   LIG d   1       2.703   1.005  -7.681  0.00  0.00     0.032 H 
ATOM      8  H   LIG d   1       4.450   1.331  -7.571  0.00  0.00     0.032 H 
ATOM      9  O   LIG d   1       5.016   0.482 -10.055  0.00  0.00    -0.374 OA
ATOM     10  C   LIG d   1       5.290  -0.902  -9.822  0.00  0.00     0.051 C 
ATOM     11  C   LIG d   1       5.294  -1.173  -8.316  0.00  0.00     0.005 C 
ATOM     12  H   LIG d   1       6.264  -1.155 -10.241  0.00  0.00     0.056 H 
ATOM     13  H   LIG d   1       4.520  -1.509 -10.300  0.00  0.00     0.056 H 
ATOM     14  H   LIG d   1       6.090  -0.597  -7.844  0.00  0.00     0.032 H 
ATOM     15  H   LIG d   1       5.459  -2.236  -8.137  0.00  0.00     0.032 H 
BRANCH   6  16
ATOM     16  C   LIG d   1       2.637   0.099 -10.232  0.00  0.00    -0.036 C 
ATOM     17  H   LIG d   1       2.681  -0.929  -9.874  0.00  0.00     0.026 H 
ATOM     18  H   LIG d   1       1.669   0.530  -9.982  0.00  0.00     0.026 H 
ATOM     19  H   LIG d   1       2.774   0.114 -11.313  0.00  0.00     0.026 H 
ENDBRANCH   6  16
BRANCH   6  20
ATOM     20  C   LIG d   1       3.552   2.400  -9.892  0.00  0.00    -0.036 C 
ATOM     21  H   LIG d   1       3.015   2.884  -9.077  0.00  0.00     0.026 H 
ATOM     22  H   LIG d   1       4.526   2.873 -10.017  0.00  0.00     0.026 H 
ATOM     23  H   LIG d   1       2.979   2.498 -10.814  0.00  0.00     0.026 H 
ENDBRANCH   6  20
BRANCH   4  24
ATOM     24  O   LIG d   1       2.904  -1.560  -8.296  0.00  0.00    -0.383 OA
ATOM     25  H   LIG d   1       2.138  -1.053  -8.596  0.00  0.00     0.210 HD
ENDBRANCH   4  24
ENDBRANCH   1   4
BRANCH   1  26
ATOM     26  N   LIG d   1       2.732  -0.385  -5.630  0.00  0.00     0.231 N 
ATOM     27  H   LIG d   1       2.549   0.530  -6.058  0.00  0.00     0.202 HD
ATOM     28  H   LIG d   1       1.946  -1.015  -5.821  0.00  0.00     0.202 HD
BRANCH  26  29
ATOM     29  C   LIG d   1       2.881  -0.218  -4.172  0.00  0.00    -0.022 C 
ATOM     30  C   LIG d   1       3.951  -1.186  -3.663  0.00  0.00    -0.009 C 
ATOM     31  C   LIG d   1       4.114  -1.016  -2.151  0.00  0.00    -0.045 C 
ATOM     32  H   LIG d   1       3.650  -2.209  -3.883  0.00  0.00     0.032 H 
ATOM     33  H   LIG d   1       4.899  -0.972  -4.157  0.00  0.00     0.032 H 
ATOM     34  C   LIG d   1       4.538   0.422  -1.842  0.00  0.00    -0.043 C 
ATOM     35  H   LIG d   1       3.167  -1.229  -1.657  0.00  0.00     0.027 H 
ATOM     36  H   LIG d   1       4.877  -1.705  -1.789  0.00  0.00     0.027 H 
ATOM     37  C   LIG d   1       3.468   1.389  -2.351  0.00  0.00    -0.045 C 
ATOM     38  H   LIG d   1       4.655   0.542  -0.766  0.00  0.00     0.030 H 
ATOM     39  C   LIG d   1       3.305   1.220  -3.864  0.00  0.00    -0.009 C 
ATOM     40  H   LIG d   1       2.521   1.175  -1.857  0.00  0.00     0.027 H 
ATOM     41  H   LIG d   1       3.770   2.413  -2.131  0.00  0.00     0.027 H 
ATOM     42  H   LIG d   1       4.252   1.433  -4.357  0.00  0.00     0.032 H 
ATOM     43  H   LIG d   1       2.542   1.909  -4.225  0.00  0.00     0.032 H 
ATOM     44  H   LIG d   1       1.933  -0.432  -3.678  0.00  0.00     0.085 H 
BRANCH  34  45
ATOM     45  C   LIG d   1       5.869   0.722  -2.536  0.00  0.00    -0.062 C 
ATOM     46  H   LIG d   1       6.109   1.779  -2.419  0.00  0.00     0.023 H 
ATOM     47  H   LIG d   1       6.657   0.118  -2.086  0.00  0.00     0.023 H 
ATOM     48  H   LIG d   1       5.788   0.483  -3.596  0.00  0.00     0.023 H 
ENDBRANCH  34  45
ENDBRANCH  26  29
ENDBRANCH   1  26
TORSDOF 7
ENDMDL
MODEL 6
REMARK VINA RESULT:      -5.8      1.420      2.276
REMARK  7 active torsions:
REMARK  status: ('A' for Active; 'I' for Inactive)
REMARK    1  A    between atoms: C_1  and  C_2 
REMARK    2  A    between atoms: C_5  and  N_46 
REMARK    3  A    between atoms: C_8  and  C_9 
REMARK    4  A    between atoms: C_8  and  N_46 
REMARK    5  A    between atoms: C_9  and  O_17 
REMARK    6  A    between atoms: C_13  and  C_15 
REMARK    7  A    between atoms: C_13  and  C_16 
ROOT
ATOM      1  C   LIG d   1       5.255  -0.969  -6.516  0.00  0.00    -0.004 C 
ATOM      2  H   LIG d   1       5.483   0.037  -6.868  0.00  0.00     0.084 H 
ATOM      3  H   LIG d   1       6.173  -1.459  -6.196  0.00  0.00     0.084 H 
ENDROOT
BRANCH   1   4
ATOM      4  C   LIG d   1       4.281  -0.889  -5.339  0.00  0.00     0.110 C 
ATOM      5  C   LIG d   1       5.005  -0.328  -4.111  0.00  0.00     0.010 C 
ATOM      6  C   LIG d   1       4.005  -0.176  -2.962  0.00  0.00     0.067 C 
ATOM      7  H   LIG d   1       5.801  -1.011  -3.814  0.00  0.00     0.032 H 
ATOM      8  H   LIG d   1       5.432   0.646  -4.355  0.00  0.00     0.032 H 
ATOM      9  O   LIG d   1       2.932   0.673  -3.374  0.00  0.00    -0.374 OA
ATOM     10  C   LIG d   1       2.189   0.175  -4.490  0.00  0.00     0.051 C 
ATOM     11  C   LIG d   1       3.116   0.039  -5.699  0.00  0.00     0.005 C 
ATOM     12  H   LIG d   1       1.381   0.868  -4.726  0.00  0.00     0.056 H 
ATOM     13  H   LIG d   1       1.770  -0.800  -4.240  0.00  0.00     0.056 H 
ATOM     14  H   LIG d   1       3.503   1.020  -5.974  0.00  0.00     0.032 H 
ATOM     15  H   LIG d   1       2.562  -0.381  -6.539  0.00  0.00     0.032 H 
BRANCH   6  16
ATOM     16  C   LIG d   1       3.451  -1.551  -2.584  0.00  0.00    -0.036 C 
ATOM     17  H   LIG d   1       2.758  -1.887  -3.354  0.00  0.00     0.026 H 
ATOM     18  H   LIG d   1       4.272  -2.262  -2.498  0.00  0.00     0.026 H 
ATOM     19  H   LIG d   1       2.929  -1.482  -1.630  0.00  0.00     0.026 H 
ENDBRANCH   6  16
BRANCH   6  20
ATOM     20  C   LIG d   1       4.710   0.441  -1.752  0.00  0.00    -0.036 C 
ATOM     21  H   LIG d   1       5.606  -0.134  -1.521  0.00  0.00     0.026 H 
ATOM     22  H   LIG d   1       4.988   1.470  -1.980  0.00  0.00     0.026 H 
ATOM     23  H   LIG d   1       4.038   0.428  -0.894  0.00  0.00     0.026 H 
ENDBRANCH   6  20
BRANCH   4  24
ATOM     24  O   LIG d   1       3.780  -2.194  -5.043  0.00  0.00    -0.383 OA
ATOM     25  H   LIG d   1       3.483  -2.687  -5.820  0.00  0.00     0.210 HD
ENDBRANCH   4  24
ENDBRANCH   1   4
BRANCH   1  26
ATOM     26  N   LIG d   1       4.633  -1.746  -7.606  0.00  0.00     0.231 N 
ATOM     27  H   LIG d   1       5.177  -2.601  -7.765  0.00  0.00     0.202 HD
ATOM     28  H   LIG d   1       3.673  -1.994  -7.339  0.00  0.00     0.202 HD
BRANCH  26  29
ATOM     29  C   LIG d   1       4.603  -0.950  -8.848  0.00  0.00    -0.022 C 
ATOM     30  C   LIG d   1       3.149  -0.645  -9.214  0.00  0.00    -0.009 C 
ATOM     31  C   LIG d   1       3.111   0.183 -10.500  0.00  0.00    -0.045 C 
ATOM     32  H   LIG d   1       2.609  -1.579  -9.367  0.00  0.00     0.032 H 
ATOM     33  H   LIG d   1       2.681  -0.083  -8.405  0.00  0.00     0.032 H 
ATOM     34  C   LIG d   1       3.868   1.495 -10.285  0.00  0.00    -0.043 C 
ATOM     35  H   LIG d   1       3.578  -0.378 -11.308  0.00  0.00     0.027 H 
ATOM     36  H   LIG d   1       2.074   0.401 -10.760  0.00  0.00     0.027 H 
ATOM     37  C   LIG d   1       5.322   1.190  -9.919  0.00  0.00    -0.045 C 
ATOM     38  H   LIG d   1       3.840   2.085 -11.200  0.00  0.00     0.030 H 
ATOM     39  C   LIG d   1       5.361   0.361  -8.632  0.00  0.00    -0.009 C 
ATOM     40  H   LIG d   1       5.790   0.628 -10.727  0.00  0.00     0.027 H 
ATOM     41  H   LIG d   1       5.862   2.124  -9.766  0.00  0.00     0.027 H 
ATOM     42  H   LIG d   1       4.893   0.922  -7.825  0.00  0.00     0.032 H 
ATOM     43  H   LIG d   1       6.397   0.143  -8.373  0.00  0.00     0.032 H 
ATOM     44  H   LIG d   1       5.071  -1.512  -9.657  0.00  0.00     0.085 H 
BRANCH  34  45
ATOM     45  C   LIG d   1       3.212   2.284  -9.150  0.00  0.00    -0.062 C 
ATOM     46  H   LIG d   1       3.341   1.745  -8.211  0.00  0.00     0.023 H 
ATOM     47  H   LIG d   1       3.678   3.266  -9.073  0.00  0.00     0.023 H 
ATOM     48  H   LIG d   1       2.148   2.401  -9.357  0.00  0.00     0.023 H 
ENDBRANCH  34  45
ENDBRANCH  26  29
ENDBRANCH   1  26
TORSDOF 7
ENDMDL
MODEL 7
REMARK VINA RESULT:      -5.8      2.545      6.223
REMARK  7 active torsions:
REMARK  status: ('A' for Active; 'I' for Inactive)
REMARK    1  A    between atoms: C_1  and  C_2 
REMARK    2  A    between atoms: C_5  and  N_46 
REMARK    3  A    between atoms: C_8  and  C_9 
REMARK    4  A    between atoms: C_8  and  N_46 
REMARK    5  A    between atoms: C_9  and  O_17 
REMARK    6  A    between atoms: C_13  and  C_15 
REMARK    7  A    between atoms: C_13  and  C_16 
ROOT
ATOM      1  C   LIG d   1       4.228  -1.613  -6.933  0.00  0.00    -0.004 C 
ATOM      2  H   LIG d   1       3.268  -1.209  -6.612  0.00  0.00     0.084 H 
ATOM      3  H   LIG d   1       4.074  -2.580  -7.409  0.00  0.00     0.084 H 
ENDROOT
BRANCH   1   4
ATOM      4  C   LIG d   1       4.878  -0.650  -7.928  0.00  0.00     0.110 C 
ATOM      5  C   LIG d   1       3.943   0.537  -8.179  0.00  0.00     0.010 C 
ATOM      6  C   LIG d   1       4.633   1.534  -9.114  0.00  0.00     0.067 C 
ATOM      7  H   LIG d   1       3.020   0.184  -8.639  0.00  0.00     0.032 H 
ATOM      8  H   LIG d   1       3.714   1.025  -7.231  0.00  0.00     0.032 H 
ATOM      9  O   LIG d   1       5.871   1.951  -8.534  0.00  0.00    -0.374 OA
ATOM     10  C   LIG d   1       6.804   0.888  -8.321  0.00  0.00     0.051 C 
ATOM     11  C   LIG d   1       6.200  -0.132  -7.353  0.00  0.00     0.005 C 
ATOM     12  H   LIG d   1       7.724   1.292  -7.897  0.00  0.00     0.056 H 
ATOM     13  H   LIG d   1       7.024   0.403  -9.272  0.00  0.00     0.056 H 
ATOM     14  H   LIG d   1       6.017   0.343  -6.390  0.00  0.00     0.032 H 
ATOM     15  H   LIG d   1       6.891  -0.965  -7.223  0.00  0.00     0.032 H 
BRANCH   6  16
ATOM     16  C   LIG d   1       4.903   0.865 -10.463  0.00  0.00    -0.036 C 
ATOM     17  H   LIG d   1       5.060  -0.203 -10.313  0.00  0.00     0.026 H 
ATOM     18  H   LIG d   1       4.048   1.018 -11.120  0.00  0.00     0.026 H 
ATOM     19  H   LIG d   1       5.792   1.304 -10.915  0.00  0.00     0.026 H 
ENDBRANCH   6  16
BRANCH   6  20
ATOM     20  C   LIG d   1       3.729   2.751  -9.318  0.00  0.00    -0.036 C 
ATOM     21  H   LIG d   1       3.502   3.202  -8.352  0.00  0.00     0.026 H 
ATOM     22  H   LIG d   1       4.238   3.480  -9.949  0.00  0.00     0.026 H 
ATOM     23  H   LIG d   1       2.802   2.438  -9.800  0.00  0.00     0.026 H 
ENDBRANCH   6  20
BRANCH   4  24
ATOM     24  O   LIG d   1       5.125  -1.332  -9.160  0.00  0.00    -0.383 OA
ATOM     25  H   LIG d   1       4.401  -1.265  -9.798  0.00  0.00     0.210 HD
ENDBRANCH   4  24
ENDBRANCH   1   4
BRANCH   1  26
ATOM     26  N   LIG d   1       5.115  -1.771  -5.764  0.00  0.00     0.231 N 
ATOM     27  H   LIG d   1       5.553  -2.698  -5.794  0.00  0.00     0.202 HD
ATOM     28  H   LIG d   1       5.842  -1.047  -5.791  0.00  0.00     0.202 HD
BRANCH  26  29
ATOM     29  C   LIG d   1       4.342  -1.639  -4.514  0.00  0.00    -0.022 C 
ATOM     30  C   LIG d   1       5.296  -1.729  -3.322  0.00  0.00    -0.009 C 
ATOM     31  C   LIG d   1       4.502  -1.589  -2.022  0.00  0.00    -0.045 C 
ATOM     32  H   LIG d   1       5.805  -2.692  -3.335  0.00  0.00     0.032 H 
ATOM     33  H   LIG d   1       6.033  -0.928  -3.386  0.00  0.00     0.032 H 
ATOM     34  C   LIG d   1       3.788  -0.236  -2.003  0.00  0.00    -0.043 C 
ATOM     35  H   LIG d   1       3.766  -2.389  -1.958  0.00  0.00     0.027 H 
ATOM     36  H   LIG d   1       5.183  -1.652  -1.172  0.00  0.00     0.027 H 
ATOM     37  C   LIG d   1       2.834  -0.147  -3.195  0.00  0.00    -0.045 C 
ATOM     38  H   LIG d   1       3.223  -0.137  -1.076  0.00  0.00     0.030 H 
ATOM     39  C   LIG d   1       3.628  -0.286  -4.496  0.00  0.00    -0.009 C 
ATOM     40  H   LIG d   1       2.097  -0.948  -3.131  0.00  0.00     0.027 H 
ATOM     41  H   LIG d   1       2.324   0.817  -3.182  0.00  0.00     0.027 H 
ATOM     42  H   LIG d   1       4.364   0.514  -4.559  0.00  0.00     0.032 H 
ATOM     43  H   LIG d   1       2.947  -0.223  -5.345  0.00  0.00     0.032 H 
ATOM     44  H   LIG d   1       3.605  -2.440  -4.450  0.00  0.00     0.085 H 
BRANCH  34  45
ATOM     45  C   LIG d   1       4.822   0.888  -2.092  0.00  0.00    -0.062 C 
ATOM     46  H   LIG d   1       5.783   0.475  -2.400  0.00  0.00     0.023 H 
ATOM     47  H   LIG d   1       4.493   1.627  -2.822  0.00  0.00     0.023 H 
ATOM     48  H   LIG d   1       4.928   1.362  -1.116  0.00  0.00     0.023 H 
ENDBRANCH  34  45
ENDBRANCH  26  29
ENDBRANCH   1  26
TORSDOF 7
ENDMDL
MODEL 8
REMARK VINA RESULT:      -5.7      1.468      2.448
REMARK  7 active torsions:
REMARK  status: ('A' for Active; 'I' for Inactive)
REMARK    1  A    between atoms: C_1  and  C_2 
REMARK    2  A    between atoms: C_5  and  N_46 
REMARK    3  A    between atoms: C_8  and  C_9 
REMARK    4  A    between atoms: C_8  and  N_46 
REMARK    5  A    between atoms: C_9  and  O_17 
REMARK    6  A    between atoms: C_13  and  C_15 
REMARK    7  A    between atoms: C_13  and  C_16 
ROOT
ATOM      1  C   LIG d   1       4.218  -1.021  -6.602  0.00  0.00    -0.004 C 
ATOM      2  H   LIG d   1       4.791  -0.757  -7.491  0.00  0.00     0.084 H 
ATOM      3  H   LIG d   1       3.976  -2.082  -6.628  0.00  0.00     0.084 H 
ENDROOT
BRANCH   1   4
ATOM      4  C   LIG d   1       5.049  -0.718  -5.353  0.00  0.00     0.110 C 
ATOM      5  C   LIG d   1       4.166  -0.040  -4.301  0.00  0.00     0.010 C 
ATOM      6  C   LIG d   1       4.984   0.188  -3.027  0.00  0.00     0.067 C 
ATOM      7  H   LIG d   1       3.813   0.918  -4.684  0.00  0.00     0.032 H 
ATOM      8  H   LIG d   1       3.312  -0.679  -4.077  0.00  0.00     0.032 H 
ATOM      9  O   LIG d   1       5.494  -1.062  -2.560  0.00  0.00    -0.374 OA
ATOM     10  C   LIG d   1       6.365  -1.720  -3.484  0.00  0.00     0.051 C 
ATOM     11  C   LIG d   1       5.601  -2.025  -4.774  0.00  0.00     0.005 C 
ATOM     12  H   LIG d   1       6.724  -2.651  -3.044  0.00  0.00     0.056 H 
ATOM     13  H   LIG d   1       7.213  -1.072  -3.706  0.00  0.00     0.056 H 
ATOM     14  H   LIG d   1       4.777  -2.704  -4.558  0.00  0.00     0.032 H 
ATOM     15  H   LIG d   1       6.274  -2.487  -5.497  0.00  0.00     0.032 H 
BRANCH   6  16
ATOM     16  C   LIG d   1       6.149   1.132  -3.331  0.00  0.00    -0.036 C 
ATOM     17  H   LIG d   1       7.085   0.661  -3.034  0.00  0.00     0.026 H 
ATOM     18  H   LIG d   1       6.172   1.346  -4.399  0.00  0.00     0.026 H 
ATOM     19  H   LIG d   1       6.017   2.062  -2.777  0.00  0.00     0.026 H 
ENDBRANCH   6  16
BRANCH   6  20
ATOM     20  C   LIG d   1       4.090   0.810  -1.952  0.00  0.00    -0.036 C 
ATOM     21  H   LIG d   1       4.667   0.958  -1.040  0.00  0.00     0.026 H 
ATOM     22  H   LIG d   1       3.713   1.770  -2.304  0.00  0.00     0.026 H 
ATOM     23  H   LIG d   1       3.251   0.144  -1.747  0.00  0.00     0.026 H 
ENDBRANCH   6  20
BRANCH   4  24
ATOM     24  O   LIG d   1       6.132   0.149  -5.698  0.00  0.00    -0.383 OA
ATOM     25  H   LIG d   1       5.873   0.901  -6.248  0.00  0.00     0.210 HD
ENDBRANCH   4  24
ENDBRANCH   1   4
BRANCH   1  26
ATOM     26  N   LIG d   1       2.975  -0.227  -6.559  0.00  0.00     0.231 N 
ATOM     27  H   LIG d   1       2.200  -0.829  -6.259  0.00  0.00     0.202 HD
ATOM     28  H   LIG d   1       3.089   0.544  -5.891  0.00  0.00     0.202 HD
BRANCH  26  29
ATOM     29  C   LIG d   1       2.675   0.324  -7.894  0.00  0.00    -0.022 C 
ATOM     30  C   LIG d   1       3.612   1.501  -8.174  0.00  0.00    -0.009 C 
ATOM     31  C   LIG d   1       3.308   2.076  -9.559  0.00  0.00    -0.045 C 
ATOM     32  H   LIG d   1       3.461   2.273  -7.419  0.00  0.00     0.032 H 
ATOM     33  H   LIG d   1       4.646   1.157  -8.141  0.00  0.00     0.032 H 
ATOM     34  C   LIG d   1       3.520   0.992 -10.618  0.00  0.00    -0.043 C 
ATOM     35  H   LIG d   1       2.275   2.419  -9.592  0.00  0.00     0.027 H 
ATOM     36  H   LIG d   1       3.977   2.914  -9.758  0.00  0.00     0.027 H 
ATOM     37  C   LIG d   1       2.583  -0.184 -10.339  0.00  0.00    -0.045 C 
ATOM     38  H   LIG d   1       3.305   1.402 -11.605  0.00  0.00     0.030 H 
ATOM     39  C   LIG d   1       2.887  -0.760  -8.953  0.00  0.00    -0.009 C 
ATOM     40  H   LIG d   1       1.549   0.159 -10.371  0.00  0.00     0.027 H 
ATOM     41  H   LIG d   1       2.734  -0.956 -11.093  0.00  0.00     0.027 H 
ATOM     42  H   LIG d   1       3.920  -1.102  -8.920  0.00  0.00     0.032 H 
ATOM     43  H   LIG d   1       2.218  -1.597  -8.754  0.00  0.00     0.032 H 
ATOM     44  H   LIG d   1       1.641   0.668  -7.927  0.00  0.00     0.085 H 
BRANCH  34  45
ATOM     45  C   LIG d   1       4.972   0.511 -10.573  0.00  0.00    -0.062 C 
ATOM     46  H   LIG d   1       5.059  -0.432 -11.114  0.00  0.00     0.023 H 
ATOM     47  H   LIG d   1       5.616   1.257 -11.036  0.00  0.00     0.023 H 
ATOM     48  H   LIG d   1       5.273   0.362  -9.536  0.00  0.00     0.023 H 
ENDBRANCH  34  45
ENDBRANCH  26  29
ENDBRANCH   1  26
TORSDOF 7
ENDMDL
MODEL 9
REMARK VINA RESULT:      -5.7      2.788      6.059
REMARK  7 active torsions:
REMARK  status: ('A' for Active; 'I' for Inactive)
REMARK    1  A    between atoms: C_1  and  C_2 
REMARK    2  A    between atoms: C_5  and  N_46 
REMARK    3  A    between atoms: C_8  and  C_9 
REMARK    4  A    between atoms: C_8  and  N_46 
REMARK    5  A    between atoms: C_9  and  O_17 
REMARK    6  A    between atoms: C_13  and  C_15 
REMARK    7  A    between atoms: C_13  and  C_16 
ROOT
ATOM      1  C   LIG d   1       6.641  -1.718  -5.377  0.00  0.00    -0.004 C 
ATOM      2  H   LIG d   1       5.719  -2.118  -4.954  0.00  0.00     0.084 H 
ATOM      3  H   LIG d   1       7.330  -2.536  -5.583  0.00  0.00     0.084 H 
ENDROOT
BRANCH   1   4
ATOM      4  C   LIG d   1       6.323  -0.977  -6.678  0.00  0.00     0.110 C 
ATOM      5  C   LIG d   1       4.848  -0.562  -6.685  0.00  0.00     0.010 C 
ATOM      6  C   LIG d   1       4.559   0.247  -7.952  0.00  0.00     0.067 C 
ATOM      7  H   LIG d   1       4.219  -1.452  -6.669  0.00  0.00     0.032 H 
ATOM      8  H   LIG d   1       4.639   0.049  -5.806  0.00  0.00     0.032 H 
ATOM      9  O   LIG d   1       5.426   1.382  -8.000  0.00  0.00    -0.374 OA
ATOM     10  C   LIG d   1       6.817   1.053  -8.043  0.00  0.00     0.051 C 
ATOM     11  C   LIG d   1       7.196   0.278  -6.779  0.00  0.00     0.005 C 
ATOM     12  H   LIG d   1       7.404   1.970  -8.099  0.00  0.00     0.056 H 
ATOM     13  H   LIG d   1       7.017   0.439  -8.921  0.00  0.00     0.056 H 
ATOM     14  H   LIG d   1       7.033   0.907  -5.904  0.00  0.00     0.032 H 
ATOM     15  H   LIG d   1       8.245  -0.011  -6.829  0.00  0.00     0.032 H 
BRANCH   6  16
ATOM     16  C   LIG d   1       4.799  -0.630  -9.183  0.00  0.00    -0.036 C 
ATOM     17  H   LIG d   1       5.804  -1.048  -9.140  0.00  0.00     0.026 H 
ATOM     18  H   LIG d   1       4.069  -1.439  -9.199  0.00  0.00     0.026 H 
ATOM     19  H   LIG d   1       4.693  -0.027 -10.085  0.00  0.00     0.026 H 
ENDBRANCH   6  16
BRANCH   6  20
ATOM     20  C   LIG d   1       3.102   0.716  -7.935  0.00  0.00    -0.036 C 
ATOM     21  H   LIG d   1       2.815   1.046  -8.933  0.00  0.00     0.026 H 
ATOM     22  H   LIG d   1       2.459  -0.109  -7.626  0.00  0.00     0.026 H 
ATOM     23  H   LIG d   1       2.995   1.543  -7.234  0.00  0.00     0.026 H 
ENDBRANCH   6  20
BRANCH   4  24
ATOM     24  O   LIG d   1       6.584  -1.834  -7.792  0.00  0.00    -0.383 OA
ATOM     25  H   LIG d   1       7.216  -1.471  -8.427  0.00  0.00     0.210 HD
ENDBRANCH   4  24
ENDBRANCH   1   4
BRANCH   1  26
ATOM     26  N   LIG d   1       7.257  -0.777  -4.423  0.00  0.00     0.231 N 
ATOM     27  H   LIG d   1       8.176  -1.136  -4.139  0.00  0.00     0.202 HD
ATOM     28  H   LIG d   1       7.371   0.137  -4.875  0.00  0.00     0.202 HD
BRANCH  26  29
ATOM     29  C   LIG d   1       6.404  -0.628  -3.228  0.00  0.00    -0.022 C 
ATOM     30  C   LIG d   1       5.719   0.739  -3.269  0.00  0.00    -0.009 C 
ATOM     31  C   LIG d   1       4.829   0.900  -2.035  0.00  0.00    -0.045 C 
ATOM     32  H   LIG d   1       6.474   1.525  -3.277  0.00  0.00     0.032 H 
ATOM     33  H   LIG d   1       5.108   0.813  -4.170  0.00  0.00     0.032 H 
ATOM     34  C   LIG d   1       3.767  -0.202  -2.025  0.00  0.00    -0.043 C 
ATOM     35  H   LIG d   1       5.438   0.826  -1.135  0.00  0.00     0.027 H 
ATOM     36  H   LIG d   1       4.340   1.874  -2.064  0.00  0.00     0.027 H 
ATOM     37  C   LIG d   1       4.452  -1.569  -1.984  0.00  0.00    -0.045 C 
ATOM     38  H   LIG d   1       3.133  -0.087  -1.146  0.00  0.00     0.030 H 
ATOM     39  C   LIG d   1       5.343  -1.730  -3.219  0.00  0.00    -0.009 C 
ATOM     40  H   LIG d   1       5.063  -1.643  -1.084  0.00  0.00     0.027 H 
ATOM     41  H   LIG d   1       3.697  -2.355  -1.976  0.00  0.00     0.027 H 
ATOM     42  H   LIG d   1       4.734  -1.656  -4.118  0.00  0.00     0.032 H 
ATOM     43  H   LIG d   1       5.831  -2.704  -3.189  0.00  0.00     0.032 H 
ATOM     44  H   LIG d   1       7.014  -0.702  -2.328  0.00  0.00     0.085 H 
BRANCH  34  45
ATOM     45  C   LIG d   1       2.911  -0.098  -3.288  0.00  0.00    -0.062 C 
ATOM     46  H   LIG d   1       3.253  -0.831  -4.020  0.00  0.00     0.023 H 
ATOM     47  H   LIG d   1       1.869  -0.294  -3.037  0.00  0.00     0.023 H 
ATOM     48  H   LIG d   1       3.002   0.903  -3.708  0.00  0.00     0.023 H 
ENDBRANCH  34  45
ENDBRANCH  26  29
ENDBRANCH   1  26
TORSDOF 7
ENDMDL
