MODEL 1
REMARK VINA RESULT:      -7.3      0.000      0.000
REMARK  7 active torsions:
REMARK  status: ('A' for Active; 'I' for Inactive)
REMARK    1  A    between atoms: C_1  and  C_2 
REMARK    2  A    between atoms: C_13  and  O_15 
REMARK    3  A    between atoms: O_15  and  C_16 
REMARK    4  A    between atoms: C_16  and  C_18 
REMARK    5  A    between atoms: C_18  and  C_19 
REMARK    6  A    between atoms: C_19  and  C_20 
REMARK    7  A    between atoms: C_33  and  C_34 
ROOT
ATOM      1  C   LIG d   1       5.790  -2.898  -6.128  0.00  0.00     0.008 C 
ATOM      2  C   LIG d   1       5.936  -3.628  -7.452  0.00  0.00    -0.044 C 
ATOM      3  C   LIG d   1       6.294  -5.082  -7.118  0.00  0.00    -0.049 C 
ATOM      4  C   LIG d   1       7.560  -5.193  -6.270  0.00  0.00    -0.029 C 
ATOM      5  H   LIG d   1       8.418  -4.904  -6.875  0.00  0.00     0.031 H 
ATOM      6  C   LIG d   1       7.515  -4.300  -5.030  0.00  0.00    -0.034 C 
ATOM      7  H   LIG d   1       6.730  -4.651  -4.359  0.00  0.00     0.031 H 
ATOM      8  C   LIG d   1       7.198  -2.881  -5.477  0.00  0.00    -0.029 C 
ATOM      9  H   LIG d   1       7.941  -2.526  -6.189  0.00  0.00     0.031 H 
ATOM     10  C   LIG d   1       7.009  -1.859  -4.349  0.00  0.00    -0.046 C 
ATOM     11  C   LIG d   1       6.166  -0.745  -5.029  0.00  0.00    -0.015 C 
ATOM     12  C   LIG d   1       5.426  -1.418  -6.212  0.00  0.00     0.109 C 
ATOM     13  H   LIG d   1       5.768  -0.996  -7.158  0.00  0.00     0.074 H 
ATOM     14  C   LIG d   1       8.844  -4.291  -4.280  0.00  0.00    -0.046 C 
ATOM     15  C   LIG d   1       9.558  -5.634  -4.358  0.00  0.00    -0.030 C 
ATOM     16  C   LIG d   1       8.541  -6.724  -4.593  0.00  0.00    -0.060 C 
ATOM     17  C   LIG d   1       8.381  -7.703  -3.707  0.00  0.00    -0.019 C 
ATOM     18  C   LIG d   1       7.384  -8.751  -3.916  0.00  0.00     0.156 C 
ATOM     19  O   LIG d   1       7.268  -9.648  -3.106  0.00  0.00    -0.293 OA
ATOM     20  C   LIG d   1       6.500  -8.718  -5.138  0.00  0.00     0.011 C 
ATOM     21  C   LIG d   1       6.332  -7.264  -5.589  0.00  0.00    -0.037 C 
ATOM     22  C   LIG d   1       7.714  -6.661  -5.850  0.00  0.00    -0.007 C 
ATOM     23  H   LIG d   1       4.997  -3.592  -8.003  0.00  0.00     0.027 H 
ATOM     24  H   LIG d   1       6.732  -3.173  -8.042  0.00  0.00     0.027 H 
ATOM     25  H   LIG d   1       5.464  -5.533  -6.573  0.00  0.00     0.027 H 
ATOM     26  H   LIG d   1       6.444  -5.630  -8.047  0.00  0.00     0.027 H 
ATOM     27  H   LIG d   1       7.970  -1.468  -4.019  0.00  0.00     0.027 H 
ATOM     28  H   LIG d   1       6.464  -2.301  -3.515  0.00  0.00     0.027 H 
ATOM     29  H   LIG d   1       6.819   0.047  -5.396  0.00  0.00     0.030 H 
ATOM     30  H   LIG d   1       5.445  -0.338  -4.320  0.00  0.00     0.030 H 
ATOM     31  H   LIG d   1       8.658  -4.049  -3.235  0.00  0.00     0.027 H 
ATOM     32  H   LIG d   1       9.485  -3.524  -4.713  0.00  0.00     0.027 H 
ATOM     33  H   LIG d   1      10.083  -5.822  -3.421  0.00  0.00     0.031 H 
ATOM     34  H   LIG d   1      10.273  -5.620  -5.181  0.00  0.00     0.031 H 
ATOM     35  H   LIG d   1       8.997  -7.723  -2.821  0.00  0.00     0.065 H 
ATOM     36  H   LIG d   1       5.608  -9.110  -4.914  0.00  0.00     0.035 H 
ATOM     37  H   LIG d   1       6.960  -9.297  -5.938  0.00  0.00     0.035 H 
ATOM     38  H   LIG d   1       5.828  -6.695  -4.808  0.00  0.00     0.028 H 
ATOM     39  H   LIG d   1       5.741  -7.230  -6.504  0.00  0.00     0.028 H 
ENDROOT
BRANCH  12  40
ATOM     40  O   LIG d   1       3.992  -1.243  -6.073  0.00  0.00    -0.461 OA
BRANCH  40  41
ATOM     41  C   LIG d   1       3.513   0.002  -6.217  0.00  0.00     0.307 C 
ATOM     42  O   LIG d   1       3.749   0.628  -7.224  0.00  0.00    -0.251 OA
BRANCH  41  43
ATOM     43  C   LIG d   1       2.685   0.622  -5.121  0.00  0.00     0.045 C 
ATOM     44  H   LIG d   1       1.887   1.220  -5.562  0.00  0.00     0.038 H 
ATOM     45  H   LIG d   1       3.317   1.259  -4.503  0.00  0.00     0.038 H 
BRANCH  43  46
ATOM     46  C   LIG d   1       2.076  -0.484  -4.255  0.00  0.00    -0.040 C 
ATOM     47  H   LIG d   1       2.302  -1.455  -4.694  0.00  0.00     0.027 H 
ATOM     48  H   LIG d   1       0.995  -0.351  -4.204  0.00  0.00     0.027 H 
BRANCH  46  49
ATOM     49  C   LIG d   1       2.666  -0.410  -2.846  0.00  0.00    -0.041 C 
ATOM     50  C   LIG d   1       3.487   0.884  -2.671  0.00  0.00    -0.050 C 
ATOM     51  C   LIG d   1       4.707   0.518  -1.808  0.00  0.00    -0.053 C 
ATOM     52  H   LIG d   1       3.816   1.252  -3.645  0.00  0.00     0.027 H 
ATOM     53  H   LIG d   1       2.887   1.642  -2.169  0.00  0.00     0.027 H 
ATOM     54  C   LIG d   1       4.584  -0.985  -1.487  0.00  0.00    -0.053 C 
ATOM     55  H   LIG d   1       5.627   0.708  -2.361  0.00  0.00     0.026 H 
ATOM     56  H   LIG d   1       4.699   1.099  -0.885  0.00  0.00     0.026 H 
ATOM     57  C   LIG d   1       3.696  -1.546  -2.625  0.00  0.00    -0.050 C 
ATOM     58  H   LIG d   1       5.566  -1.460  -1.500  0.00  0.00     0.026 H 
ATOM     59  H   LIG d   1       4.104  -1.131  -0.519  0.00  0.00     0.026 H 
ATOM     60  H   LIG d   1       3.198  -2.463  -2.311  0.00  0.00     0.027 H 
ATOM     61  H   LIG d   1       4.284  -1.714  -3.527  0.00  0.00     0.027 H 
ATOM     62  H   LIG d   1       1.874  -0.462  -2.098  0.00  0.00     0.030 H 
ENDBRANCH  46  49
ENDBRANCH  43  46
ENDBRANCH  41  43
ENDBRANCH  40  41
ENDBRANCH  12  40
BRANCH   1  63
ATOM     63  C   LIG d   1       4.800  -3.628  -5.219  0.00  0.00    -0.056 C 
ATOM     64  H   LIG d   1       4.927  -3.283  -4.192  0.00  0.00     0.024 H 
ATOM     65  H   LIG d   1       3.783  -3.421  -5.549  0.00  0.00     0.024 H 
ATOM     66  H   LIG d   1       4.986  -4.701  -5.266  0.00  0.00     0.024 H 
ENDBRANCH   1  63
BRANCH  22  67
ATOM     67  C   LIG d   1       8.411  -7.442  -6.966  0.00  0.00    -0.056 C 
ATOM     68  H   LIG d   1       9.319  -6.918  -7.264  0.00  0.00     0.024 H 
ATOM     69  H   LIG d   1       8.667  -8.439  -6.607  0.00  0.00     0.024 H 
ATOM     70  H   LIG d   1       7.742  -7.525  -7.823  0.00  0.00     0.024 H 
ENDBRANCH  22  67
TORSDOF 7
ENDMDL
MODEL 2
REMARK VINA RESULT:      -7.1      3.601      6.949
REMARK  7 active torsions:
REMARK  status: ('A' for Active; 'I' for Inactive)
REMARK    1  A    between atoms: C_1  and  C_2 
REMARK    2  A    between atoms: C_13  and  O_15 
REMARK    3  A    between atoms: O_15  and  C_16 
REMARK    4  A    between atoms: C_16  and  C_18 
REMARK    5  A    between atoms: C_18  and  C_19 
REMARK    6  A    between atoms: C_19  and  C_20 
REMARK    7  A    between atoms: C_33  and  C_34 
ROOT
ATOM      1  C   LIG d   1       6.034  -0.762  -6.861  0.00  0.00     0.008 C 
ATOM      2  C   LIG d   1       4.664  -1.223  -6.396  0.00  0.00    -0.044 C 
ATOM      3  C   LIG d   1       3.846  -1.526  -7.658  0.00  0.00    -0.049 C 
ATOM      4  C   LIG d   1       3.749  -0.322  -8.595  0.00  0.00    -0.029 C 
ATOM      5  H   LIG d   1       3.128   0.441  -8.127  0.00  0.00     0.031 H 
ATOM      6  C   LIG d   1       5.115   0.286  -8.912  0.00  0.00    -0.034 C 
ATOM      7  H   LIG d   1       5.707  -0.431  -9.483  0.00  0.00     0.031 H 
ATOM      8  C   LIG d   1       5.818   0.586  -7.597  0.00  0.00    -0.029 C 
ATOM      9  H   LIG d   1       5.221   1.261  -6.986  0.00  0.00     0.031 H 
ATOM     10  C   LIG d   1       7.255   1.109  -7.720  0.00  0.00    -0.046 C 
ATOM     11  C   LIG d   1       7.867   0.769  -6.333  0.00  0.00    -0.015 C 
ATOM     12  C   LIG d   1       7.033  -0.405  -5.763  0.00  0.00     0.109 C 
ATOM     13  H   LIG d   1       6.508  -0.091  -4.860  0.00  0.00     0.074 H 
ATOM     14  C   LIG d   1       4.996   1.580  -9.710  0.00  0.00    -0.046 C 
ATOM     15  C   LIG d   1       3.811   1.561 -10.667  0.00  0.00    -0.030 C 
ATOM     16  C   LIG d   1       3.476   0.129 -11.012  0.00  0.00    -0.060 C 
ATOM     17  C   LIG d   1       3.543  -0.297 -12.269  0.00  0.00    -0.019 C 
ATOM     18  C   LIG d   1       3.241  -1.687 -12.609  0.00  0.00     0.156 C 
ATOM     19  O   LIG d   1       3.288  -2.051 -13.766  0.00  0.00    -0.293 OA
ATOM     20  C   LIG d   1       2.871  -2.665 -11.523  0.00  0.00     0.011 C 
ATOM     21  C   LIG d   1       3.524  -2.220 -10.211  0.00  0.00    -0.037 C 
ATOM     22  C   LIG d   1       3.074  -0.793  -9.890  0.00  0.00    -0.007 C 
ATOM     23  H   LIG d   1       4.759  -2.123  -5.788  0.00  0.00     0.027 H 
ATOM     24  H   LIG d   1       4.181  -0.434  -5.819  0.00  0.00     0.027 H 
ATOM     25  H   LIG d   1       4.317  -2.352  -8.193  0.00  0.00     0.027 H 
ATOM     26  H   LIG d   1       2.841  -1.824  -7.364  0.00  0.00     0.027 H 
ATOM     27  H   LIG d   1       7.260   2.184  -7.890  0.00  0.00     0.027 H 
ATOM     28  H   LIG d   1       7.789   0.588  -8.515  0.00  0.00     0.027 H 
ATOM     29  H   LIG d   1       7.799   1.633  -5.672  0.00  0.00     0.030 H 
ATOM     30  H   LIG d   1       8.908   0.467  -6.448  0.00  0.00     0.030 H 
ATOM     31  H   LIG d   1       5.911   1.728 -10.282  0.00  0.00     0.027 H 
ATOM     32  H   LIG d   1       4.875   2.411  -9.015  0.00  0.00     0.027 H 
ATOM     33  H   LIG d   1       4.069   2.103 -11.577  0.00  0.00     0.031 H 
ATOM     34  H   LIG d   1       2.950   2.031 -10.192  0.00  0.00     0.031 H 
ATOM     35  H   LIG d   1       3.826   0.393 -13.049  0.00  0.00     0.065 H 
ATOM     36  H   LIG d   1       3.195  -3.577 -11.772  0.00  0.00     0.035 H 
ATOM     37  H   LIG d   1       1.787  -2.686 -11.403  0.00  0.00     0.035 H 
ATOM     38  H   LIG d   1       4.608  -2.245 -10.315  0.00  0.00     0.028 H 
ATOM     39  H   LIG d   1       3.219  -2.887  -9.405  0.00  0.00     0.028 H 
ENDROOT
BRANCH  12  40
ATOM     40  O   LIG d   1       7.892  -1.539  -5.476  0.00  0.00    -0.461 OA
BRANCH  40  41
ATOM     41  C   LIG d   1       7.639  -2.225  -4.351  0.00  0.00     0.307 C 
ATOM     42  O   LIG d   1       7.973  -3.383  -4.260  0.00  0.00    -0.251 OA
BRANCH  41  43
ATOM     43  C   LIG d   1       6.937  -1.551  -3.200  0.00  0.00     0.045 C 
ATOM     44  H   LIG d   1       6.804  -0.493  -3.424  0.00  0.00     0.038 H 
ATOM     45  H   LIG d   1       7.536  -1.658  -2.296  0.00  0.00     0.038 H 
BRANCH  43  46
ATOM     46  C   LIG d   1       5.569  -2.204  -2.985  0.00  0.00    -0.040 C 
ATOM     47  H   LIG d   1       5.688  -3.108  -2.387  0.00  0.00     0.027 H 
ATOM     48  H   LIG d   1       5.135  -2.462  -3.950  0.00  0.00     0.027 H 
BRANCH  46  49
ATOM     49  C   LIG d   1       4.647  -1.225  -2.255  0.00  0.00    -0.041 C 
ATOM     50  C   LIG d   1       3.247  -1.216  -2.903  0.00  0.00    -0.050 C 
ATOM     51  C   LIG d   1       2.754   0.240  -2.864  0.00  0.00    -0.053 C 
ATOM     52  H   LIG d   1       3.313  -1.561  -3.937  0.00  0.00     0.027 H 
ATOM     53  H   LIG d   1       2.570  -1.857  -2.339  0.00  0.00     0.027 H 
ATOM     54  C   LIG d   1       3.870   1.066  -2.192  0.00  0.00    -0.053 C 
ATOM     55  H   LIG d   1       2.579   0.603  -3.876  0.00  0.00     0.026 H 
ATOM     56  H   LIG d   1       1.836   0.307  -2.279  0.00  0.00     0.026 H 
ATOM     57  C   LIG d   1       5.153   0.229  -2.423  0.00  0.00    -0.050 C 
ATOM     58  H   LIG d   1       3.961   2.042  -2.667  0.00  0.00     0.026 H 
ATOM     59  H   LIG d   1       3.673   1.178  -1.125  0.00  0.00     0.026 H 
ATOM     60  H   LIG d   1       5.908   0.465  -1.673  0.00  0.00     0.027 H 
ATOM     61  H   LIG d   1       5.542   0.389  -3.427  0.00  0.00     0.027 H 
ATOM     62  H   LIG d   1       4.576  -1.485  -1.198  0.00  0.00     0.030 H 
ENDBRANCH  46  49
ENDBRANCH  43  46
ENDBRANCH  41  43
ENDBRANCH  40  41
ENDBRANCH  12  40
BRANCH   1  63
ATOM     63  C   LIG d   1       6.650  -1.787  -7.814  0.00  0.00    -0.056 C 
ATOM     64  H   LIG d   1       6.669  -2.765  -7.333  0.00  0.00     0.024 H 
ATOM     65  H   LIG d   1       6.054  -1.841  -8.725  0.00  0.00     0.024 H 
ATOM     66  H   LIG d   1       7.668  -1.486  -8.064  0.00  0.00     0.024 H 
ENDBRANCH   1  63
BRANCH  22  67
ATOM     67  C   LIG d   1       1.554  -0.761  -9.716  0.00  0.00    -0.056 C 
ATOM     68  H   LIG d   1       1.198   0.264  -9.818  0.00  0.00     0.024 H 
ATOM     69  H   LIG d   1       1.088  -1.386 -10.478  0.00  0.00     0.024 H 
ATOM     70  H   LIG d   1       1.295  -1.140  -8.727  0.00  0.00     0.024 H 
ENDBRANCH  22  67
TORSDOF 7
ENDMDL
MODEL 3
REMARK VINA RESULT:      -7.0      3.310      6.954
REMARK  7 active torsions:
REMARK  status: ('A' for Active; 'I' for Inactive)
REMARK    1  A    between atoms: C_1  and  C_2 
REMARK    2  A    between atoms: C_13  and  O_15 
REMARK    3  A    between atoms: O_15  and  C_16 
REMARK    4  A    between atoms: C_16  and  C_18 
REMARK    5  A    between atoms: C_18  and  C_19 
REMARK    6  A    between atoms: C_19  and  C_20 
REMARK    7  A    between atoms: C_33  and  C_34 
ROOT
ATOM      1  C   LIG d   1       6.240  -1.647  -7.022  0.00  0.00     0.008 C 
ATOM      2  C   LIG d   1       5.725  -0.274  -6.629  0.00  0.00    -0.044 C 
ATOM      3  C   LIG d   1       4.556   0.047  -7.570  0.00  0.00    -0.049 C 
ATOM      4  C   LIG d   1       4.960  -0.005  -9.043  0.00  0.00    -0.029 C 
ATOM      5  H   LIG d   1       5.628   0.829  -9.256  0.00  0.00     0.031 H 
ATOM      6  C   LIG d   1       5.669  -1.307  -9.411  0.00  0.00    -0.034 C 
ATOM      7  H   LIG d   1       4.973  -2.140  -9.311  0.00  0.00     0.031 H 
ATOM      8  C   LIG d   1       6.831  -1.504  -8.449  0.00  0.00    -0.029 C 
ATOM      9  H   LIG d   1       7.516  -0.658  -8.493  0.00  0.00     0.031 H 
ATOM     10  C   LIG d   1       7.600  -2.822  -8.602  0.00  0.00    -0.046 C 
ATOM     11  C   LIG d   1       8.272  -2.995  -7.212  0.00  0.00    -0.015 C 
ATOM     12  C   LIG d   1       7.415  -2.183  -6.209  0.00  0.00     0.109 C 
ATOM     13  H   LIG d   1       7.997  -1.360  -5.795  0.00  0.00     0.074 H 
ATOM     14  C   LIG d   1       6.214  -1.281 -10.836  0.00  0.00    -0.046 C 
ATOM     15  C   LIG d   1       5.324  -0.481 -11.778  0.00  0.00    -0.030 C 
ATOM     16  C   LIG d   1       3.915  -0.466 -11.237  0.00  0.00    -0.060 C 
ATOM     17  C   LIG d   1       2.915  -0.990 -11.939  0.00  0.00    -0.019 C 
ATOM     18  C   LIG d   1       1.550  -0.999 -11.414  0.00  0.00     0.156 C 
ATOM     19  O   LIG d   1       0.648  -1.463 -12.079  0.00  0.00    -0.293 OA
ATOM     20  C   LIG d   1       1.266  -0.431 -10.046  0.00  0.00     0.011 C 
ATOM     21  C   LIG d   1       2.524  -0.563  -9.183  0.00  0.00    -0.037 C 
ATOM     22  C   LIG d   1       3.684   0.149  -9.882  0.00  0.00    -0.007 C 
ATOM     23  H   LIG d   1       5.379  -0.286  -5.595  0.00  0.00     0.027 H 
ATOM     24  H   LIG d   1       6.515   0.468  -6.748  0.00  0.00     0.027 H 
ATOM     25  H   LIG d   1       3.757  -0.675  -7.398  0.00  0.00     0.027 H 
ATOM     26  H   LIG d   1       4.183   1.045  -7.342  0.00  0.00     0.027 H 
ATOM     27  H   LIG d   1       8.352  -2.740  -9.386  0.00  0.00     0.027 H 
ATOM     28  H   LIG d   1       6.917  -3.646  -8.805  0.00  0.00     0.027 H 
ATOM     29  H   LIG d   1       9.290  -2.604  -7.237  0.00  0.00     0.030 H 
ATOM     30  H   LIG d   1       8.282  -4.047  -6.930  0.00  0.00     0.030 H 
ATOM     31  H   LIG d   1       6.289  -2.304 -11.203  0.00  0.00     0.027 H 
ATOM     32  H   LIG d   1       7.208  -0.835 -10.824  0.00  0.00     0.027 H 
ATOM     33  H   LIG d   1       5.329  -0.944 -12.765  0.00  0.00     0.031 H 
ATOM     34  H   LIG d   1       5.696   0.541 -11.851  0.00  0.00     0.031 H 
ATOM     35  H   LIG d   1       3.114  -1.415 -12.911  0.00  0.00     0.065 H 
ATOM     36  H   LIG d   1       0.512  -0.936  -9.626  0.00  0.00     0.035 H 
ATOM     37  H   LIG d   1       0.993   0.620 -10.135  0.00  0.00     0.035 H 
ATOM     38  H   LIG d   1       2.770  -1.617  -9.053  0.00  0.00     0.028 H 
ATOM     39  H   LIG d   1       2.351  -0.106  -8.209  0.00  0.00     0.028 H 
ENDROOT
BRANCH  12  40
ATOM     40  O   LIG d   1       6.938  -3.046  -5.144  0.00  0.00    -0.461 OA
BRANCH  40  41
ATOM     41  C   LIG d   1       7.212  -2.669  -3.885  0.00  0.00     0.307 C 
ATOM     42  O   LIG d   1       8.190  -3.104  -3.323  0.00  0.00    -0.251 OA
BRANCH  41  43
ATOM     43  C   LIG d   1       6.299  -1.704  -3.172  0.00  0.00     0.045 C 
ATOM     44  H   LIG d   1       6.297  -0.749  -3.697  0.00  0.00     0.038 H 
ATOM     45  H   LIG d   1       6.652  -1.557  -2.152  0.00  0.00     0.038 H 
BRANCH  43  46
ATOM     46  C   LIG d   1       4.878  -2.273  -3.143  0.00  0.00    -0.040 C 
ATOM     47  H   LIG d   1       4.832  -3.100  -2.434  0.00  0.00     0.027 H 
ATOM     48  H   LIG d   1       4.611  -2.632  -4.137  0.00  0.00     0.027 H 
BRANCH  46  49
ATOM     49  C   LIG d   1       3.900  -1.178  -2.716  0.00  0.00    -0.041 C 
ATOM     50  C   LIG d   1       3.233  -0.537  -3.952  0.00  0.00    -0.050 C 
ATOM     51  C   LIG d   1       3.096   0.964  -3.648  0.00  0.00    -0.053 C 
ATOM     52  H   LIG d   1       3.861  -0.684  -4.832  0.00  0.00     0.027 H 
ATOM     53  H   LIG d   1       2.250  -0.977  -4.116  0.00  0.00     0.027 H 
ATOM     54  C   LIG d   1       3.682   1.184  -2.238  0.00  0.00    -0.053 C 
ATOM     55  H   LIG d   1       3.655   1.547  -4.380  0.00  0.00     0.026 H 
ATOM     56  H   LIG d   1       2.045   1.254  -3.664  0.00  0.00     0.026 H 
ATOM     57  C   LIG d   1       4.654  -0.005  -2.040  0.00  0.00    -0.050 C 
ATOM     58  H   LIG d   1       4.223   2.130  -2.193  0.00  0.00     0.026 H 
ATOM     59  H   LIG d   1       2.891   1.163  -1.488  0.00  0.00     0.026 H 
ATOM     60  H   LIG d   1       4.809  -0.206  -0.980  0.00  0.00     0.027 H 
ATOM     61  H   LIG d   1       5.602   0.183  -2.542  0.00  0.00     0.027 H 
ATOM     62  H   LIG d   1       3.144  -1.584  -2.044  0.00  0.00     0.030 H 
ENDBRANCH  46  49
ENDBRANCH  43  46
ENDBRANCH  41  43
ENDBRANCH  40  41
ENDBRANCH  12  40
BRANCH   1  63
ATOM     63  C   LIG d   1       5.099  -2.666  -7.027  0.00  0.00    -0.056 C 
ATOM     64  H   LIG d   1       4.650  -2.714  -6.035  0.00  0.00     0.024 H 
ATOM     65  H   LIG d   1       4.346  -2.365  -7.753  0.00  0.00     0.024 H 
ATOM     66  H   LIG d   1       5.490  -3.649  -7.294  0.00  0.00     0.024 H 
ENDBRANCH   1  63
BRANCH  22  67
ATOM     67  C   LIG d   1       3.352   1.635 -10.040  0.00  0.00    -0.056 C 
ATOM     68  H   LIG d   1       3.241   1.872 -11.098  0.00  0.00     0.024 H 
ATOM     69  H   LIG d   1       2.421   1.857  -9.517  0.00  0.00     0.024 H 
ATOM     70  H   LIG d   1       4.158   2.234  -9.616  0.00  0.00     0.024 H 
ENDBRANCH  22  67
TORSDOF 7
ENDMDL
MODEL 4
REMARK VINA RESULT:      -6.9      2.075      3.204
REMARK  7 active torsions:
REMARK  status: ('A' for Active; 'I' for Inactive)
REMARK    1  A    between atoms: C_1  and  C_2 
REMARK    2  A    between atoms: C_13  and  O_15 
REMARK    3  A    between atoms: O_15  and  C_16 
REMARK    4  A    between atoms: C_16  and  C_18 
REMARK    5  A    between atoms: C_18  and  C_19 
REMARK    6  A    between atoms: C_19  and  C_20 
REMARK    7  A    between atoms: C_33  and  C_34 
ROOT
ATOM      1  C   LIG d   1       5.923  -1.738  -6.163  0.00  0.00     0.008 C 
ATOM      2  C   LIG d   1       5.344  -2.893  -5.365  0.00  0.00    -0.044 C 
ATOM      3  C   LIG d   1       6.524  -3.586  -4.670  0.00  0.00    -0.049 C 
ATOM      4  C   LIG d   1       7.588  -4.061  -5.660  0.00  0.00    -0.029 C 
ATOM      5  H   LIG d   1       7.183  -4.885  -6.247  0.00  0.00     0.031 H 
ATOM      6  C   LIG d   1       8.036  -2.955  -6.614  0.00  0.00    -0.034 C 
ATOM      7  H   LIG d   1       8.547  -2.174  -6.050  0.00  0.00     0.031 H 
ATOM      8  C   LIG d   1       6.799  -2.369  -7.278  0.00  0.00    -0.029 C 
ATOM      9  H   LIG d   1       6.242  -3.141  -7.806  0.00  0.00     0.031 H 
ATOM     10  C   LIG d   1       7.048  -1.167  -8.197  0.00  0.00    -0.046 C 
ATOM     11  C   LIG d   1       5.661  -0.468  -8.237  0.00  0.00    -0.015 C 
ATOM     12  C   LIG d   1       4.921  -0.891  -6.944  0.00  0.00     0.109 C 
ATOM     13  H   LIG d   1       4.037  -1.480  -7.190  0.00  0.00     0.074 H 
ATOM     14  C   LIG d   1       8.971  -3.478  -7.700  0.00  0.00    -0.046 C 
ATOM     15  C   LIG d   1       9.864  -4.606  -7.198  0.00  0.00    -0.030 C 
ATOM     16  C   LIG d   1      10.025  -4.482  -5.702  0.00  0.00    -0.060 C 
ATOM     17  C   LIG d   1      11.226  -4.296  -5.164  0.00  0.00    -0.019 C 
ATOM     18  C   LIG d   1      11.390  -4.154  -3.719  0.00  0.00     0.156 C 
ATOM     19  O   LIG d   1      12.498  -4.006  -3.246  0.00  0.00    -0.293 OA
ATOM     20  C   LIG d   1      10.182  -4.192  -2.816  0.00  0.00     0.011 C 
ATOM     21  C   LIG d   1       8.962  -3.699  -3.600  0.00  0.00    -0.037 C 
ATOM     22  C   LIG d   1       8.787  -4.567  -4.848  0.00  0.00    -0.007 C 
ATOM     23  H   LIG d   1       4.642  -2.517  -4.621  0.00  0.00     0.027 H 
ATOM     24  H   LIG d   1       4.840  -3.592  -6.032  0.00  0.00     0.027 H 
ATOM     25  H   LIG d   1       6.982  -2.887  -3.970  0.00  0.00     0.027 H 
ATOM     26  H   LIG d   1       6.151  -4.446  -4.116  0.00  0.00     0.027 H 
ATOM     27  H   LIG d   1       7.341  -1.498  -9.192  0.00  0.00     0.027 H 
ATOM     28  H   LIG d   1       7.802  -0.505  -7.772  0.00  0.00     0.027 H 
ATOM     29  H   LIG d   1       5.102  -0.796  -9.114  0.00  0.00     0.030 H 
ATOM     30  H   LIG d   1       5.789   0.614  -8.258  0.00  0.00     0.030 H 
ATOM     31  H   LIG d   1       9.599  -2.659  -8.050  0.00  0.00     0.027 H 
ATOM     32  H   LIG d   1       8.372  -3.845  -8.533  0.00  0.00     0.027 H 
ATOM     33  H   LIG d   1      10.841  -4.537  -7.676  0.00  0.00     0.031 H 
ATOM     34  H   LIG d   1       9.406  -5.566  -7.436  0.00  0.00     0.031 H 
ATOM     35  H   LIG d   1      12.093  -4.248  -5.805  0.00  0.00     0.065 H 
ATOM     36  H   LIG d   1      10.339  -3.602  -2.025  0.00  0.00     0.035 H 
ATOM     37  H   LIG d   1      10.009  -5.214  -2.478  0.00  0.00     0.035 H 
ATOM     38  H   LIG d   1       9.113  -2.661  -3.897  0.00  0.00     0.028 H 
ATOM     39  H   LIG d   1       8.071  -3.774  -2.977  0.00  0.00     0.028 H 
ENDROOT
BRANCH  12  40
ATOM     40  O   LIG d   1       4.546   0.281  -6.174  0.00  0.00    -0.461 OA
BRANCH  40  41
ATOM     41  C   LIG d   1       3.255   0.645  -6.209  0.00  0.00     0.307 C 
ATOM     42  O   LIG d   1       2.788   1.120  -7.218  0.00  0.00    -0.251 OA
BRANCH  41  43
ATOM     43  C   LIG d   1       2.388   0.464  -4.990  0.00  0.00     0.045 C 
ATOM     44  H   LIG d   1       2.293  -0.599  -4.765  0.00  0.00     0.038 H 
ATOM     45  H   LIG d   1       1.400   0.883  -5.181  0.00  0.00     0.038 H 
BRANCH  43  46
ATOM     46  C   LIG d   1       3.025   1.183  -3.799  0.00  0.00    -0.040 C 
ATOM     47  H   LIG d   1       2.361   1.977  -3.455  0.00  0.00     0.027 H 
ATOM     48  H   LIG d   1       3.979   1.614  -4.103  0.00  0.00     0.027 H 
BRANCH  46  49
ATOM     49  C   LIG d   1       3.256   0.184  -2.664  0.00  0.00    -0.041 C 
ATOM     50  C   LIG d   1       4.751   0.134  -2.285  0.00  0.00    -0.050 C 
ATOM     51  C   LIG d   1       5.074  -1.335  -1.962  0.00  0.00    -0.053 C 
ATOM     52  H   LIG d   1       5.361   0.474  -3.123  0.00  0.00     0.027 H 
ATOM     53  H   LIG d   1       4.935   0.758  -1.411  0.00  0.00     0.027 H 
ATOM     54  C   LIG d   1       3.764  -2.127  -2.155  0.00  0.00    -0.053 C 
ATOM     55  H   LIG d   1       5.839  -1.708  -2.642  0.00  0.00     0.026 H 
ATOM     56  H   LIG d   1       5.415  -1.425  -0.930  0.00  0.00     0.026 H 
ATOM     57  C   LIG d   1       2.935  -1.258  -3.133  0.00  0.00    -0.050 C 
ATOM     58  H   LIG d   1       3.970  -3.103  -2.594  0.00  0.00     0.026 H 
ATOM     59  H   LIG d   1       3.242  -2.240  -1.205  0.00  0.00     0.026 H 
ATOM     60  H   LIG d   1       1.870  -1.468  -3.030  0.00  0.00     0.027 H 
ATOM     61  H   LIG d   1       3.263  -1.411  -4.160  0.00  0.00     0.027 H 
ATOM     62  H   LIG d   1       2.652   0.447  -1.796  0.00  0.00     0.030 H 
ENDBRANCH  46  49
ENDBRANCH  43  46
ENDBRANCH  41  43
ENDBRANCH  40  41
ENDBRANCH  12  40
BRANCH   1  63
ATOM     63  C   LIG d   1       6.779  -0.842  -5.268  0.00  0.00    -0.056 C 
ATOM     64  H   LIG d   1       6.952  -1.340  -4.313  0.00  0.00     0.024 H 
ATOM     65  H   LIG d   1       7.735  -0.648  -5.754  0.00  0.00     0.024 H 
ATOM     66  H   LIG d   1       6.261   0.102  -5.095  0.00  0.00     0.024 H 
ENDBRANCH   1  63
BRANCH  22  67
ATOM     67  C   LIG d   1       8.547  -6.020  -4.431  0.00  0.00    -0.056 C 
ATOM     68  H   LIG d   1       9.213  -6.277  -3.608  0.00  0.00     0.024 H 
ATOM     69  H   LIG d   1       7.511  -6.141  -4.113  0.00  0.00     0.024 H 
ATOM     70  H   LIG d   1       8.745  -6.678  -5.278  0.00  0.00     0.024 H 
ENDBRANCH  22  67
TORSDOF 7
ENDMDL
MODEL 5
REMARK VINA RESULT:      -6.8      5.209      7.617
REMARK  7 active torsions:
REMARK  status: ('A' for Active; 'I' for Inactive)
REMARK    1  A    between atoms: C_1  and  C_2 
REMARK    2  A    between atoms: C_13  and  O_15 
REMARK    3  A    between atoms: O_15  and  C_16 
REMARK    4  A    between atoms: C_16  and  C_18 
REMARK    5  A    between atoms: C_18  and  C_19 
REMARK    6  A    between atoms: C_19  and  C_20 
REMARK    7  A    between atoms: C_33  and  C_34 
ROOT
ATOM      1  C   LIG d   1       3.342  -0.189  -9.706  0.00  0.00     0.008 C 
ATOM      2  C   LIG d   1       1.826  -0.102  -9.697  0.00  0.00    -0.044 C 
ATOM      3  C   LIG d   1       1.311  -1.239 -10.591  0.00  0.00    -0.049 C 
ATOM      4  C   LIG d   1       1.873  -1.166 -12.010  0.00  0.00    -0.029 C 
ATOM      5  H   LIG d   1       1.447  -0.300 -12.515  0.00  0.00     0.031 H 
ATOM      6  C   LIG d   1       3.396  -1.045 -12.033  0.00  0.00    -0.034 C 
ATOM      7  H   LIG d   1       3.838  -1.958 -11.634  0.00  0.00     0.031 H 
ATOM      8  C   LIG d   1       3.793   0.133 -11.155  0.00  0.00    -0.029 C 
ATOM      9  H   LIG d   1       3.321   1.050 -11.505  0.00  0.00     0.031 H 
ATOM     10  C   LIG d   1       5.301   0.344 -10.974  0.00  0.00    -0.046 C 
ATOM     11  C   LIG d   1       5.380   1.162  -9.656  0.00  0.00    -0.015 C 
ATOM     12  C   LIG d   1       4.081   0.853  -8.871  0.00  0.00     0.109 C 
ATOM     13  H   LIG d   1       3.478   1.755  -8.770  0.00  0.00     0.074 H 
ATOM     14  C   LIG d   1       3.932  -0.807 -13.441  0.00  0.00    -0.046 C 
ATOM     15  C   LIG d   1       3.102  -1.519 -14.502  0.00  0.00    -0.030 C 
ATOM     16  C   LIG d   1       2.405  -2.702 -13.875  0.00  0.00    -0.060 C 
ATOM     17  C   LIG d   1       2.649  -3.936 -14.305  0.00  0.00    -0.019 C 
ATOM     18  C   LIG d   1       1.995  -5.090 -13.690  0.00  0.00     0.156 C 
ATOM     19  O   LIG d   1       2.215  -6.207 -14.111  0.00  0.00    -0.293 OA
ATOM     20  C   LIG d   1       1.048  -4.891 -12.533  0.00  0.00     0.011 C 
ATOM     21  C   LIG d   1       1.448  -3.621 -11.777  0.00  0.00    -0.037 C 
ATOM     22  C   LIG d   1       1.440  -2.439 -12.749  0.00  0.00    -0.007 C 
ATOM     23  H   LIG d   1       1.451  -0.227  -8.682  0.00  0.00     0.027 H 
ATOM     24  H   LIG d   1       1.506   0.861 -10.096  0.00  0.00     0.027 H 
ATOM     25  H   LIG d   1       1.598  -2.192 -10.147  0.00  0.00     0.027 H 
ATOM     26  H   LIG d   1       0.225  -1.184 -10.639  0.00  0.00     0.027 H 
ATOM     27  H   LIG d   1       5.713   0.913 -11.806  0.00  0.00     0.027 H 
ATOM     28  H   LIG d   1       5.814  -0.611 -10.866  0.00  0.00     0.027 H 
ATOM     29  H   LIG d   1       5.438   2.228  -9.880  0.00  0.00     0.030 H 
ATOM     30  H   LIG d   1       6.250   0.853  -9.076  0.00  0.00     0.030 H 
ATOM     31  H   LIG d   1       4.958  -1.168 -13.494  0.00  0.00     0.027 H 
ATOM     32  H   LIG d   1       3.923   0.264 -13.644  0.00  0.00     0.027 H 
ATOM     33  H   LIG d   1       3.754  -1.864 -15.304  0.00  0.00     0.031 H 
ATOM     34  H   LIG d   1       2.358  -0.831 -14.905  0.00  0.00     0.031 H 
ATOM     35  H   LIG d   1       3.340  -4.088 -15.120  0.00  0.00     0.065 H 
ATOM     36  H   LIG d   1       1.098  -5.681 -11.922  0.00  0.00     0.035 H 
ATOM     37  H   LIG d   1       0.029  -4.787 -12.907  0.00  0.00     0.035 H 
ATOM     38  H   LIG d   1       2.448  -3.743 -11.361  0.00  0.00     0.028 H 
ATOM     39  H   LIG d   1       0.738  -3.434 -10.971  0.00  0.00     0.028 H 
ENDROOT
BRANCH  12  40
ATOM     40  O   LIG d   1       4.402   0.313  -7.562  0.00  0.00    -0.461 OA
BRANCH  40  41
ATOM     41  C   LIG d   1       3.522   0.546  -6.575  0.00  0.00     0.307 C 
ATOM     42  O   LIG d   1       2.814   1.525  -6.616  0.00  0.00    -0.251 OA
BRANCH  41  43
ATOM     43  C   LIG d   1       3.420  -0.411  -5.415  0.00  0.00     0.045 C 
ATOM     44  H   LIG d   1       4.367  -0.430  -4.875  0.00  0.00     0.038 H 
ATOM     45  H   LIG d   1       3.193  -1.409  -5.787  0.00  0.00     0.038 H 
BRANCH  43  46
ATOM     46  C   LIG d   1       2.304   0.048  -4.473  0.00  0.00    -0.040 C 
ATOM     47  H   LIG d   1       1.409  -0.547  -4.653  0.00  0.00     0.027 H 
ATOM     48  H   LIG d   1       2.085   1.099  -4.655  0.00  0.00     0.027 H 
BRANCH  46  49
ATOM     49  C   LIG d   1       2.755  -0.135  -3.023  0.00  0.00    -0.041 C 
ATOM     50  C   LIG d   1       3.558   1.094  -2.548  0.00  0.00    -0.050 C 
ATOM     51  C   LIG d   1       4.687   0.562  -1.650  0.00  0.00    -0.053 C 
ATOM     52  H   LIG d   1       3.980   1.619  -3.407  0.00  0.00     0.027 H 
ATOM     53  H   LIG d   1       2.913   1.764  -1.980  0.00  0.00     0.027 H 
ATOM     54  C   LIG d   1       4.532  -0.973  -1.609  0.00  0.00    -0.053 C 
ATOM     55  H   LIG d   1       5.657   0.827  -2.071  0.00  0.00     0.026 H 
ATOM     56  H   LIG d   1       4.592   0.973  -0.645  0.00  0.00     0.026 H 
ATOM     57  C   LIG d   1       3.757  -1.311  -2.907  0.00  0.00    -0.050 C 
ATOM     58  H   LIG d   1       5.509  -1.455  -1.612  0.00  0.00     0.026 H 
ATOM     59  H   LIG d   1       3.960  -1.276  -0.731  0.00  0.00     0.026 H 
ATOM     60  H   LIG d   1       3.230  -2.259  -2.806  0.00  0.00     0.027 H 
ATOM     61  H   LIG d   1       4.429  -1.331  -3.764  0.00  0.00     0.027 H 
ATOM     62  H   LIG d   1       1.895  -0.302  -2.374  0.00  0.00     0.030 H 
ENDBRANCH  46  49
ENDBRANCH  43  46
ENDBRANCH  41  43
ENDBRANCH  40  41
ENDBRANCH  12  40
BRANCH   1  63
ATOM     63  C   LIG d   1       3.801  -1.594  -9.314  0.00  0.00    -0.056 C 
ATOM     64  H   LIG d   1       4.887  -1.656  -9.387  0.00  0.00     0.024 H 
ATOM     65  H   LIG d   1       3.493  -1.805  -8.291  0.00  0.00     0.024 H 
ATOM     66  H   LIG d   1       3.351  -2.325  -9.987  0.00  0.00     0.024 H 
ENDBRANCH   1  63
BRANCH  22  67
ATOM     67  C   LIG d   1       0.029  -2.249 -13.312  0.00  0.00    -0.056 C 
ATOM     68  H   LIG d   1      -0.587  -1.726 -12.582  0.00  0.00     0.024 H 
ATOM     69  H   LIG d   1       0.080  -1.665 -14.231  0.00  0.00     0.024 H 
ATOM     70  H   LIG d   1      -0.409  -3.224 -13.527  0.00  0.00     0.024 H 
ENDBRANCH  22  67
TORSDOF 7
ENDMDL
MODEL 6
REMARK VINA RESULT:      -6.7      4.692      8.066
REMARK  7 active torsions:
REMARK  status: ('A' for Active; 'I' for Inactive)
REMARK    1  A    between atoms: C_1  and  C_2 
REMARK    2  A    between atoms: C_13  and  O_15 
REMARK    3  A    between atoms: O_15  and  C_16 
REMARK    4  A    between atoms: C_16  and  C_18 
REMARK    5  A    between atoms: C_18  and  C_19 
REMARK    6  A    between atoms: C_19  and  C_20 
REMARK    7  A    between atoms: C_33  and  C_34 
ROOT
ATOM      1  C   LIG d   1       8.144   0.177  -5.059  0.00  0.00     0.008 C 
ATOM      2  C   LIG d   1       7.648   0.837  -3.785  0.00  0.00    -0.044 C 
ATOM      3  C   LIG d   1       8.211   2.265  -3.777  0.00  0.00    -0.049 C 
ATOM      4  C   LIG d   1       9.737   2.292  -3.871  0.00  0.00    -0.029 C 
ATOM      5  H   LIG d   1      10.155   1.902  -2.944  0.00  0.00     0.031 H 
ATOM      6  C   LIG d   1      10.267   1.457  -5.037  0.00  0.00    -0.034 C 
ATOM      7  H   LIG d   1       9.949   1.906  -5.978  0.00  0.00     0.031 H 
ATOM      8  C   LIG d   1       9.684   0.057  -4.923  0.00  0.00    -0.029 C 
ATOM      9  H   LIG d   1       9.946  -0.393  -3.966  0.00  0.00     0.031 H 
ATOM     10  C   LIG d   1      10.026  -0.897  -6.073  0.00  0.00    -0.046 C 
ATOM     11  C   LIG d   1       8.891  -1.955  -5.996  0.00  0.00    -0.015 C 
ATOM     12  C   LIG d   1       7.699  -1.265  -5.287  0.00  0.00     0.109 C 
ATOM     13  H   LIG d   1       7.493  -1.753  -4.334  0.00  0.00     0.074 H 
ATOM     14  C   LIG d   1      11.789   1.355  -5.023  0.00  0.00    -0.046 C 
ATOM     15  C   LIG d   1      12.447   2.623  -4.493  0.00  0.00    -0.030 C 
ATOM     16  C   LIG d   1      11.517   3.792  -4.708  0.00  0.00    -0.060 C 
ATOM     17  C   LIG d   1      11.882   4.816  -5.473  0.00  0.00    -0.019 C 
ATOM     18  C   LIG d   1      10.980   5.943  -5.704  0.00  0.00     0.156 C 
ATOM     19  O   LIG d   1      11.341   6.877  -6.388  0.00  0.00    -0.293 OA
ATOM     20  C   LIG d   1       9.602   5.942  -5.091  0.00  0.00     0.011 C 
ATOM     21  C   LIG d   1       9.143   4.493  -4.903  0.00  0.00    -0.037 C 
ATOM     22  C   LIG d   1      10.168   3.755  -4.039  0.00  0.00    -0.007 C 
ATOM     23  H   LIG d   1       6.559   0.867  -3.778  0.00  0.00     0.027 H 
ATOM     24  H   LIG d   1       8.011   0.288  -2.915  0.00  0.00     0.027 H 
ATOM     25  H   LIG d   1       7.797   2.812  -4.624  0.00  0.00     0.027 H 
ATOM     26  H   LIG d   1       7.907   2.759  -2.855  0.00  0.00     0.027 H 
ATOM     27  H   LIG d   1      10.998  -1.362  -5.912  0.00  0.00     0.027 H 
ATOM     28  H   LIG d   1      10.001  -0.374  -7.029  0.00  0.00     0.027 H 
ATOM     29  H   LIG d   1       9.222  -2.818  -5.418  0.00  0.00     0.030 H 
ATOM     30  H   LIG d   1       8.601  -2.265  -6.999  0.00  0.00     0.030 H 
ATOM     31  H   LIG d   1      12.139   1.173  -6.038  0.00  0.00     0.027 H 
ATOM     32  H   LIG d   1      12.079   0.516  -4.393  0.00  0.00     0.027 H 
ATOM     33  H   LIG d   1      13.381   2.799  -5.026  0.00  0.00     0.031 H 
ATOM     34  H   LIG d   1      12.649   2.510  -3.427  0.00  0.00     0.031 H 
ATOM     35  H   LIG d   1      12.860   4.814  -5.930  0.00  0.00     0.065 H 
ATOM     36  H   LIG d   1       8.969   6.423  -5.696  0.00  0.00     0.035 H 
ATOM     37  H   LIG d   1       9.632   6.444  -4.124  0.00  0.00     0.035 H 
ATOM     38  H   LIG d   1       9.067   4.004  -5.874  0.00  0.00     0.028 H 
ATOM     39  H   LIG d   1       8.172   4.477  -4.409  0.00  0.00     0.028 H 
ENDROOT
BRANCH  12  40
ATOM     40  O   LIG d   1       6.521  -1.300  -6.135  0.00  0.00    -0.461 OA
BRANCH  40  41
ATOM     41  C   LIG d   1       5.376  -1.713  -5.570  0.00  0.00     0.307 C 
ATOM     42  O   LIG d   1       4.371  -1.800  -6.235  0.00  0.00    -0.251 OA
BRANCH  41  43
ATOM     43  C   LIG d   1       5.344  -2.066  -4.105  0.00  0.00     0.045 C 
ATOM     44  H   LIG d   1       5.855  -1.292  -3.532  0.00  0.00     0.038 H 
ATOM     45  H   LIG d   1       5.845  -3.022  -3.950  0.00  0.00     0.038 H 
BRANCH  43  46
ATOM     46  C   LIG d   1       3.890  -2.171  -3.637  0.00  0.00    -0.040 C 
ATOM     47  H   LIG d   1       3.744  -3.116  -3.114  0.00  0.00     0.027 H 
ATOM     48  H   LIG d   1       3.227  -2.128  -4.501  0.00  0.00     0.027 H 
BRANCH  46  49
ATOM     49  C   LIG d   1       3.573  -1.010  -2.693  0.00  0.00    -0.041 C 
ATOM     50  C   LIG d   1       3.081   0.215  -3.490  0.00  0.00    -0.050 C 
ATOM     51  C   LIG d   1       3.669   1.456  -2.797  0.00  0.00    -0.053 C 
ATOM     52  H   LIG d   1       3.437   0.159  -4.520  0.00  0.00     0.027 H 
ATOM     53  H   LIG d   1       1.992   0.258  -3.474  0.00  0.00     0.027 H 
ATOM     54  C   LIG d   1       4.498   0.942  -1.601  0.00  0.00    -0.053 C 
ATOM     55  H   LIG d   1       4.310   2.002  -3.488  0.00  0.00     0.026 H 
ATOM     56  H   LIG d   1       2.865   2.103  -2.443  0.00  0.00     0.026 H 
ATOM     57  C   LIG d   1       4.861  -0.513  -1.989  0.00  0.00    -0.050 C 
ATOM     58  H   LIG d   1       5.401   1.540  -1.478  0.00  0.00     0.026 H 
ATOM     59  H   LIG d   1       3.902   0.959  -0.688  0.00  0.00     0.026 H 
ATOM     60  H   LIG d   1       5.070  -1.109  -1.100  0.00  0.00     0.027 H 
ATOM     61  H   LIG d   1       5.707  -0.531  -2.674  0.00  0.00     0.027 H 
ATOM     62  H   LIG d   1       2.828  -1.311  -1.957  0.00  0.00     0.030 H 
ENDBRANCH  46  49
ENDBRANCH  43  46
ENDBRANCH  41  43
ENDBRANCH  40  41
ENDBRANCH  12  40
BRANCH   1  63
ATOM     63  C   LIG d   1       7.790   1.031  -6.278  0.00  0.00    -0.056 C 
ATOM     64  H   LIG d   1       7.407   1.997  -5.947  0.00  0.00     0.024 H 
ATOM     65  H   LIG d   1       8.682   1.183  -6.886  0.00  0.00     0.024 H 
ATOM     66  H   LIG d   1       7.029   0.523  -6.870  0.00  0.00     0.024 H 
ENDBRANCH   1  63
BRANCH  22  67
ATOM     67  C   LIG d   1      10.255   4.423  -2.664  0.00  0.00    -0.056 C 
ATOM     68  H   LIG d   1      10.895   3.830  -2.012  0.00  0.00     0.024 H 
ATOM     69  H   LIG d   1      10.674   5.424  -2.773  0.00  0.00     0.024 H 
ATOM     70  H   LIG d   1       9.257   4.492  -2.231  0.00  0.00     0.024 H 
ENDBRANCH  22  67
TORSDOF 7
ENDMDL
MODEL 7
REMARK VINA RESULT:      -6.6      4.080      7.220
REMARK  7 active torsions:
REMARK  status: ('A' for Active; 'I' for Inactive)
REMARK    1  A    between atoms: C_1  and  C_2 
REMARK    2  A    between atoms: C_13  and  O_15 
REMARK    3  A    between atoms: O_15  and  C_16 
REMARK    4  A    between atoms: C_16  and  C_18 
REMARK    5  A    between atoms: C_18  and  C_19 
REMARK    6  A    between atoms: C_19  and  C_20 
REMARK    7  A    between atoms: C_33  and  C_34 
ROOT
ATOM      1  C   LIG d   1       4.186  -1.602  -7.903  0.00  0.00     0.008 C 
ATOM      2  C   LIG d   1       4.188  -3.116  -8.011  0.00  0.00    -0.044 C 
ATOM      3  C   LIG d   1       4.119  -3.454  -9.506  0.00  0.00    -0.049 C 
ATOM      4  C   LIG d   1       2.897  -2.840 -10.188  0.00  0.00    -0.029 C 
ATOM      5  H   LIG d   1       2.000  -3.340  -9.824  0.00  0.00     0.031 H 
ATOM      6  C   LIG d   1       2.765  -1.341  -9.918  0.00  0.00    -0.034 C 
ATOM      7  H   LIG d   1       3.602  -0.815 -10.378  0.00  0.00     0.031 H 
ATOM      8  C   LIG d   1       2.801  -1.125  -8.413  0.00  0.00    -0.029 C 
ATOM      9  H   LIG d   1       2.004  -1.683  -7.924  0.00  0.00     0.031 H 
ATOM     10  C   LIG d   1       2.785   0.338  -7.954  0.00  0.00    -0.046 C 
ATOM     11  C   LIG d   1       3.397   0.261  -6.528  0.00  0.00    -0.015 C 
ATOM     12  C   LIG d   1       4.255  -1.028  -6.490  0.00  0.00     0.109 C 
ATOM     13  H   LIG d   1       3.840  -1.736  -5.772  0.00  0.00     0.074 H 
ATOM     14  C   LIG d   1       1.458  -0.772 -10.462  0.00  0.00    -0.046 C 
ATOM     15  C   LIG d   1       1.019  -1.465 -11.746  0.00  0.00    -0.030 C 
ATOM     16  C   LIG d   1       2.229  -2.047 -12.435  0.00  0.00    -0.060 C 
ATOM     17  C   LIG d   1       2.575  -1.643 -13.653  0.00  0.00    -0.019 C 
ATOM     18  C   LIG d   1       3.757  -2.185 -14.319  0.00  0.00     0.156 C 
ATOM     19  O   LIG d   1       4.043  -1.818 -15.440  0.00  0.00    -0.293 OA
ATOM     20  C   LIG d   1       4.620  -3.202 -13.614  0.00  0.00     0.011 C 
ATOM     21  C   LIG d   1       4.503  -2.987 -12.102  0.00  0.00    -0.037 C 
ATOM     22  C   LIG d   1       3.031  -3.087 -11.697  0.00  0.00    -0.007 C 
ATOM     23  H   LIG d   1       5.103  -3.521  -7.579  0.00  0.00     0.027 H 
ATOM     24  H   LIG d   1       3.320  -3.528  -7.495  0.00  0.00     0.027 H 
ATOM     25  H   LIG d   1       5.020  -3.079  -9.994  0.00  0.00     0.027 H 
ATOM     26  H   LIG d   1       4.080  -4.536  -9.622  0.00  0.00     0.027 H 
ATOM     27  H   LIG d   1       1.766   0.719  -7.916  0.00  0.00     0.027 H 
ATOM     28  H   LIG d   1       3.405   0.954  -8.606  0.00  0.00     0.027 H 
ATOM     29  H   LIG d   1       2.603   0.205  -5.783  0.00  0.00     0.030 H 
ATOM     30  H   LIG d   1       4.024   1.133  -6.343  0.00  0.00     0.030 H 
ATOM     31  H   LIG d   1       1.592   0.290 -10.661  0.00  0.00     0.027 H 
ATOM     32  H   LIG d   1       0.681  -0.897  -9.709  0.00  0.00     0.027 H 
ATOM     33  H   LIG d   1       0.540  -0.740 -12.405  0.00  0.00     0.031 H 
ATOM     34  H   LIG d   1       0.317  -2.264 -11.507  0.00  0.00     0.031 H 
ATOM     35  H   LIG d   1       1.973  -0.901 -14.157  0.00  0.00     0.065 H 
ATOM     36  H   LIG d   1       5.571  -3.088 -13.901  0.00  0.00     0.035 H 
ATOM     37  H   LIG d   1       4.283  -4.207 -13.866  0.00  0.00     0.035 H 
ATOM     38  H   LIG d   1       4.885  -1.999 -11.842  0.00  0.00     0.028 H 
ATOM     39  H   LIG d   1       5.078  -3.750 -11.577  0.00  0.00     0.028 H 
ENDROOT
BRANCH  12  40
ATOM     40  O   LIG d   1       5.628  -0.707  -6.144  0.00  0.00    -0.461 OA
BRANCH  40  41
ATOM     41  C   LIG d   1       6.317  -1.637  -5.464  0.00  0.00     0.307 C 
ATOM     42  O   LIG d   1       7.471  -1.861  -5.747  0.00  0.00    -0.251 OA
BRANCH  41  43
ATOM     43  C   LIG d   1       5.651  -2.404  -4.350  0.00  0.00     0.045 C 
ATOM     44  H   LIG d   1       5.938  -3.454  -4.410  0.00  0.00     0.038 H 
ATOM     45  H   LIG d   1       4.569  -2.316  -4.445  0.00  0.00     0.038 H 
BRANCH  43  46
ATOM     46  C   LIG d   1       6.093  -1.830  -3.001  0.00  0.00    -0.040 C 
ATOM     47  H   LIG d   1       6.890  -1.104  -3.159  0.00  0.00     0.027 H 
ATOM     48  H   LIG d   1       6.457  -2.637  -2.366  0.00  0.00     0.027 H 
BRANCH  46  49
ATOM     49  C   LIG d   1       4.903  -1.146  -2.326  0.00  0.00    -0.041 C 
ATOM     50  C   LIG d   1       3.574  -1.695  -2.886  0.00  0.00    -0.050 C 
ATOM     51  C   LIG d   1       2.607  -0.502  -2.972  0.00  0.00    -0.053 C 
ATOM     52  H   LIG d   1       3.735  -2.118  -3.879  0.00  0.00     0.027 H 
ATOM     53  H   LIG d   1       3.173  -2.455  -2.216  0.00  0.00     0.027 H 
ATOM     54  C   LIG d   1       3.381   0.731  -2.461  0.00  0.00    -0.053 C 
ATOM     55  H   LIG d   1       2.297  -0.346  -4.005  0.00  0.00     0.026 H 
ATOM     56  H   LIG d   1       1.734  -0.682  -2.344  0.00  0.00     0.026 H 
ATOM     57  C   LIG d   1       4.869   0.363  -2.678  0.00  0.00    -0.050 C 
ATOM     58  H   LIG d   1       3.117   1.614  -3.042  0.00  0.00     0.026 H 
ATOM     59  H   LIG d   1       3.177   0.897  -1.402  0.00  0.00     0.026 H 
ATOM     60  H   LIG d   1       5.510   0.931  -2.005  0.00  0.00     0.027 H 
ATOM     61  H   LIG d   1       5.159   0.523  -3.716  0.00  0.00     0.027 H 
ATOM     62  H   LIG d   1       4.947  -1.284  -1.246  0.00  0.00     0.030 H 
ENDBRANCH  46  49
ENDBRANCH  43  46
ENDBRANCH  41  43
ENDBRANCH  40  41
ENDBRANCH  12  40
BRANCH   1  63
ATOM     63  C   LIG d   1       5.297  -1.001  -8.765  0.00  0.00    -0.056 C 
ATOM     64  H   LIG d   1       6.221  -1.558  -8.609  0.00  0.00     0.024 H 
ATOM     65  H   LIG d   1       5.013  -1.057  -9.816  0.00  0.00     0.024 H 
ATOM     66  H   LIG d   1       5.452   0.042  -8.486  0.00  0.00     0.024 H 
ENDBRANCH   1  63
BRANCH  22  67
ATOM     67  C   LIG d   1       2.501  -4.483 -12.036  0.00  0.00    -0.056 C 
ATOM     68  H   LIG d   1       1.706  -4.748 -11.340  0.00  0.00     0.024 H 
ATOM     69  H   LIG d   1       2.110  -4.486 -13.053  0.00  0.00     0.024 H 
ATOM     70  H   LIG d   1       3.311  -5.208 -11.956  0.00  0.00     0.024 H 
ENDBRANCH  22  67
TORSDOF 7
ENDMDL
MODEL 8
REMARK VINA RESULT:      -6.6      1.955      3.491
REMARK  7 active torsions:
REMARK  status: ('A' for Active; 'I' for Inactive)
REMARK    1  A    between atoms: C_1  and  C_2 
REMARK    2  A    between atoms: C_13  and  O_15 
REMARK    3  A    between atoms: O_15  and  C_16 
REMARK    4  A    between atoms: C_16  and  C_18 
REMARK    5  A    between atoms: C_18  and  C_19 
REMARK    6  A    between atoms: C_19  and  C_20 
REMARK    7  A    between atoms: C_33  and  C_34 
ROOT
ATOM      1  C   LIG d   1       6.040  -2.765  -5.652  0.00  0.00     0.008 C 
ATOM      2  C   LIG d   1       6.298  -2.203  -4.264  0.00  0.00    -0.044 C 
ATOM      3  C   LIG d   1       7.760  -2.522  -3.922  0.00  0.00    -0.049 C 
ATOM      4  C   LIG d   1       8.063  -4.018  -3.991  0.00  0.00    -0.029 C 
ATOM      5  H   LIG d   1       7.547  -4.523  -3.175  0.00  0.00     0.031 H 
ATOM      6  C   LIG d   1       7.619  -4.646  -5.312  0.00  0.00    -0.034 C 
ATOM      7  H   LIG d   1       8.211  -4.231  -6.128  0.00  0.00     0.031 H 
ATOM      8  C   LIG d   1       6.153  -4.307  -5.531  0.00  0.00    -0.029 C 
ATOM      9  H   LIG d   1       5.546  -4.668  -4.701  0.00  0.00     0.031 H 
ATOM     10  C   LIG d   1       5.559  -4.770  -6.866  0.00  0.00    -0.046 C 
ATOM     11  C   LIG d   1       4.336  -3.829  -7.047  0.00  0.00    -0.015 C 
ATOM     12  C   LIG d   1       4.635  -2.559  -6.211  0.00  0.00     0.109 C 
ATOM     13  H   LIG d   1       3.914  -2.465  -5.398  0.00  0.00     0.074 H 
ATOM     14  C   LIG d   1       7.774  -6.164  -5.307  0.00  0.00    -0.046 C 
ATOM     15  C   LIG d   1       8.979  -6.617  -4.492  0.00  0.00    -0.030 C 
ATOM     16  C   LIG d   1       9.993  -5.500  -4.441  0.00  0.00    -0.060 C 
ATOM     17  C   LIG d   1      11.211  -5.668  -4.946  0.00  0.00    -0.019 C 
ATOM     18  C   LIG d   1      12.192  -4.585  -4.920  0.00  0.00     0.156 C 
ATOM     19  O   LIG d   1      13.306  -4.766  -5.367  0.00  0.00    -0.293 OA
ATOM     20  C   LIG d   1      11.820  -3.245  -4.338  0.00  0.00     0.011 C 
ATOM     21  C   LIG d   1      10.310  -3.038  -4.494  0.00  0.00    -0.037 C 
ATOM     22  C   LIG d   1       9.577  -4.196  -3.813  0.00  0.00    -0.007 C 
ATOM     23  H   LIG d   1       6.141  -1.125  -4.263  0.00  0.00     0.027 H 
ATOM     24  H   LIG d   1       5.633  -2.677  -3.542  0.00  0.00     0.027 H 
ATOM     25  H   LIG d   1       8.408  -1.998  -4.625  0.00  0.00     0.027 H 
ATOM     26  H   LIG d   1       7.971  -2.167  -2.915  0.00  0.00     0.027 H 
ATOM     27  H   LIG d   1       5.239  -5.809  -6.806  0.00  0.00     0.027 H 
ATOM     28  H   LIG d   1       6.275  -4.631  -7.676  0.00  0.00     0.027 H 
ATOM     29  H   LIG d   1       3.432  -4.315  -6.680  0.00  0.00     0.030 H 
ATOM     30  H   LIG d   1       4.219  -3.565  -8.098  0.00  0.00     0.030 H 
ATOM     31  H   LIG d   1       7.891  -6.510  -6.333  0.00  0.00     0.027 H 
ATOM     32  H   LIG d   1       6.874  -6.607  -4.884  0.00  0.00     0.027 H 
ATOM     33  H   LIG d   1       9.427  -7.494  -4.960  0.00  0.00     0.031 H 
ATOM     34  H   LIG d   1       8.661  -6.866  -3.479  0.00  0.00     0.031 H 
ATOM     35  H   LIG d   1      11.478  -6.619  -5.381  0.00  0.00     0.065 H 
ATOM     36  H   LIG d   1      12.314  -2.523  -4.823  0.00  0.00     0.035 H 
ATOM     37  H   LIG d   1      12.085  -3.218  -3.281  0.00  0.00     0.035 H 
ATOM     38  H   LIG d   1      10.051  -3.017  -5.553  0.00  0.00     0.028 H 
ATOM     39  H   LIG d   1      10.019  -2.098  -4.028  0.00  0.00     0.028 H 
ENDROOT
BRANCH  12  40
ATOM     40  O   LIG d   1       4.597  -1.380  -7.056  0.00  0.00    -0.461 OA
BRANCH  40  41
ATOM     41  C   LIG d   1       3.660  -0.461  -6.777  0.00  0.00     0.307 C 
ATOM     42  O   LIG d   1       2.785  -0.227  -7.577  0.00  0.00    -0.251 OA
BRANCH  41  43
ATOM     43  C   LIG d   1       3.701   0.282  -5.466  0.00  0.00     0.045 C 
ATOM     44  H   LIG d   1       3.780   1.353  -5.656  0.00  0.00     0.038 H 
ATOM     45  H   LIG d   1       4.563  -0.049  -4.888  0.00  0.00     0.038 H 
BRANCH  43  46
ATOM     46  C   LIG d   1       2.420  -0.003  -4.678  0.00  0.00    -0.040 C 
ATOM     47  H   LIG d   1       1.992  -0.949  -5.010  0.00  0.00     0.027 H 
ATOM     48  H   LIG d   1       1.703   0.800  -4.849  0.00  0.00     0.027 H 
BRANCH  46  49
ATOM     49  C   LIG d   1       2.747  -0.086  -3.186  0.00  0.00    -0.041 C 
ATOM     50  C   LIG d   1       3.685   1.068  -2.774  0.00  0.00    -0.050 C 
ATOM     51  C   LIG d   1       4.668   0.488  -1.743  0.00  0.00    -0.053 C 
ATOM     52  H   LIG d   1       4.231   1.434  -3.645  0.00  0.00     0.027 H 
ATOM     53  H   LIG d   1       3.108   1.877  -2.328  0.00  0.00     0.027 H 
ATOM     54  C   LIG d   1       4.293  -0.997  -1.562  0.00  0.00    -0.053 C 
ATOM     55  H   LIG d   1       5.690   0.573  -2.111  0.00  0.00     0.026 H 
ATOM     56  H   LIG d   1       4.568   1.016  -0.794  0.00  0.00     0.026 H 
ATOM     57  C   LIG d   1       3.562  -1.367  -2.876  0.00  0.00    -0.050 C 
ATOM     58  H   LIG d   1       5.190  -1.605  -1.441  0.00  0.00     0.026 H 
ATOM     59  H   LIG d   1       3.630  -1.122  -0.706  0.00  0.00     0.026 H 
ATOM     60  H   LIG d   1       2.899  -2.219  -2.724  0.00  0.00     0.027 H 
ATOM     61  H   LIG d   1       4.277  -1.571  -3.672  0.00  0.00     0.027 H 
ATOM     62  H   LIG d   1       1.833  -0.063  -2.593  0.00  0.00     0.030 H 
ENDBRANCH  46  49
ENDBRANCH  43  46
ENDBRANCH  41  43
ENDBRANCH  40  41
ENDBRANCH  12  40
BRANCH   1  63
ATOM     63  C   LIG d   1       7.079  -2.240  -6.644  0.00  0.00    -0.056 C 
ATOM     64  H   LIG d   1       7.619  -1.405  -6.198  0.00  0.00     0.024 H 
ATOM     65  H   LIG d   1       7.780  -3.036  -6.892  0.00  0.00     0.024 H 
ATOM     66  H   LIG d   1       6.577  -1.902  -7.552  0.00  0.00     0.024 H 
ENDBRANCH   1  63
BRANCH  22  67
ATOM     67  C   LIG d   1       9.918  -4.210  -2.321  0.00  0.00    -0.056 C 
ATOM     68  H   LIG d   1       9.531  -3.307  -1.851  0.00  0.00     0.024 H 
ATOM     69  H   LIG d   1       9.466  -5.086  -1.853  0.00  0.00     0.024 H 
ATOM     70  H   LIG d   1      11.000  -4.251  -2.196  0.00  0.00     0.024 H 
ENDBRANCH  22  67
TORSDOF 7
ENDMDL
MODEL 9
REMARK VINA RESULT:      -6.2      5.926      8.862
REMARK  7 active torsions:
REMARK  status: ('A' for Active; 'I' for Inactive)
REMARK    1  A    between atoms: C_1  and  C_2 
REMARK    2  A    between atoms: C_13  and  O_15 
REMARK    3  A    between atoms: O_15  and  C_16 
REMARK    4  A    between atoms: C_16  and  C_18 
REMARK    5  A    between atoms: C_18  and  C_19 
REMARK    6  A    between atoms: C_19  and  C_20 
REMARK    7  A    between atoms: C_33  and  C_34 
ROOT
ATOM      1  C   LIG d   1       3.773  -0.906 -10.575  0.00  0.00     0.008 C 
ATOM      2  C   LIG d   1       4.997  -1.762 -10.851  0.00  0.00    -0.044 C 
ATOM      3  C   LIG d   1       5.250  -1.698 -12.363  0.00  0.00    -0.049 C 
ATOM      4  C   LIG d   1       4.043  -2.159 -13.179  0.00  0.00    -0.029 C 
ATOM      5  H   LIG d   1       3.910  -3.231 -13.039  0.00  0.00     0.031 H 
ATOM      6  C   LIG d   1       2.753  -1.449 -12.769  0.00  0.00    -0.034 C 
ATOM      7  H   LIG d   1       2.831  -0.388 -13.011  0.00  0.00     0.031 H 
ATOM      8  C   LIG d   1       2.577  -1.611 -11.267  0.00  0.00    -0.029 C 
ATOM      9  H   LIG d   1       2.548  -2.665 -10.994  0.00  0.00     0.031 H 
ATOM     10  C   LIG d   1       1.382  -0.870 -10.657  0.00  0.00    -0.046 C 
ATOM     11  C   LIG d   1       1.784  -0.733  -9.163  0.00  0.00    -0.015 C 
ATOM     12  C   LIG d   1       3.330  -0.815  -9.117  0.00  0.00     0.109 C 
ATOM     13  H   LIG d   1       3.644  -1.704  -8.569  0.00  0.00     0.074 H 
ATOM     14  C   LIG d   1       1.530  -2.031 -13.470  0.00  0.00    -0.046 C 
ATOM     15  C   LIG d   1       1.847  -2.509 -14.882  0.00  0.00    -0.030 C 
ATOM     16  C   LIG d   1       3.043  -1.751 -15.404  0.00  0.00    -0.060 C 
ATOM     17  C   LIG d   1       2.940  -0.988 -16.488  0.00  0.00    -0.019 C 
ATOM     18  C   LIG d   1       4.087  -0.234 -16.990  0.00  0.00     0.156 C 
ATOM     19  O   LIG d   1       3.977   0.440 -17.993  0.00  0.00    -0.293 OA
ATOM     20  C   LIG d   1       5.406  -0.294 -16.261  0.00  0.00     0.011 C 
ATOM     21  C   LIG d   1       5.140  -0.579 -14.779  0.00  0.00    -0.037 C 
ATOM     22  C   LIG d   1       4.345  -1.880 -14.657  0.00  0.00    -0.007 C 
ATOM     23  H   LIG d   1       5.857  -1.368 -10.311  0.00  0.00     0.027 H 
ATOM     24  H   LIG d   1       4.807  -2.792 -10.548  0.00  0.00     0.027 H 
ATOM     25  H   LIG d   1       5.489  -0.670 -12.637  0.00  0.00     0.027 H 
ATOM     26  H   LIG d   1       6.101  -2.333 -12.605  0.00  0.00     0.027 H 
ATOM     27  H   LIG d   1       0.471  -1.458 -10.759  0.00  0.00     0.027 H 
ATOM     28  H   LIG d   1       1.261   0.112 -11.115  0.00  0.00     0.027 H 
ATOM     29  H   LIG d   1       1.348  -1.546  -8.582  0.00  0.00     0.030 H 
ATOM     30  H   LIG d   1       1.449   0.228  -8.772  0.00  0.00     0.030 H 
ATOM     31  H   LIG d   1       0.755  -1.267 -13.521  0.00  0.00     0.027 H 
ATOM     32  H   LIG d   1       1.158  -2.873 -12.887  0.00  0.00     0.027 H 
ATOM     33  H   LIG d   1       0.989  -2.326 -15.529  0.00  0.00     0.031 H 
ATOM     34  H   LIG d   1       2.072  -3.575 -14.863  0.00  0.00     0.031 H 
ATOM     35  H   LIG d   1       1.994  -0.925 -17.005  0.00  0.00     0.065 H 
ATOM     36  H   LIG d   1       5.881   0.580 -16.359  0.00  0.00     0.035 H 
ATOM     37  H   LIG d   1       6.020  -1.090 -16.681  0.00  0.00     0.035 H 
ATOM     38  H   LIG d   1       4.567   0.240 -14.346  0.00  0.00     0.028 H 
ATOM     39  H   LIG d   1       6.088  -0.681 -14.250  0.00  0.00     0.028 H 
ENDROOT
BRANCH  12  40
ATOM     40  O   LIG d   1       3.879   0.377  -8.498  0.00  0.00    -0.461 OA
BRANCH  40  41
ATOM     41  C   LIG d   1       3.328   0.769  -7.338  0.00  0.00     0.307 C 
ATOM     42  O   LIG d   1       2.797   1.852  -7.257  0.00  0.00    -0.251 OA
BRANCH  41  43
ATOM     43  C   LIG d   1       3.375  -0.140  -6.137  0.00  0.00     0.045 C 
ATOM     44  H   LIG d   1       4.411  -0.282  -5.828  0.00  0.00     0.038 H 
ATOM     45  H   LIG d   1       2.937  -1.104  -6.394  0.00  0.00     0.038 H 
BRANCH  43  46
ATOM     46  C   LIG d   1       2.582   0.491  -4.989  0.00  0.00    -0.040 C 
ATOM     47  H   LIG d   1       1.529   0.550  -5.264  0.00  0.00     0.027 H 
ATOM     48  H   LIG d   1       2.964   1.493  -4.793  0.00  0.00     0.027 H 
BRANCH  46  49
ATOM     49  C   LIG d   1       2.735  -0.369  -3.733  0.00  0.00    -0.041 C 
ATOM     50  C   LIG d   1       3.367   0.453  -2.590  0.00  0.00    -0.050 C 
ATOM     51  C   LIG d   1       4.311  -0.498  -1.836  0.00  0.00    -0.053 C 
ATOM     52  H   LIG d   1       3.931   1.292  -3.001  0.00  0.00     0.027 H 
ATOM     53  H   LIG d   1       2.590   0.819  -1.920  0.00  0.00     0.027 H 
ATOM     54  C   LIG d   1       4.220  -1.865  -2.545  0.00  0.00    -0.053 C 
ATOM     55  H   LIG d   1       5.334  -0.122  -1.879  0.00  0.00     0.026 H 
ATOM     56  H   LIG d   1       3.993  -0.594  -0.797  0.00  0.00     0.026 H 
ATOM     57  C   LIG d   1       3.744  -1.518  -3.977  0.00  0.00    -0.050 C 
ATOM     58  H   LIG d   1       5.199  -2.345  -2.574  0.00  0.00     0.026 H 
ATOM     59  H   LIG d   1       3.496  -2.507  -2.044  0.00  0.00     0.026 H 
ATOM     60  H   LIG d   1       3.251  -2.374  -4.438  0.00  0.00     0.027 H 
ATOM     61  H   LIG d   1       4.578  -1.176  -4.590  0.00  0.00     0.027 H 
ATOM     62  H   LIG d   1       1.768  -0.768  -3.425  0.00  0.00     0.030 H 
ENDBRANCH  46  49
ENDBRANCH  43  46
ENDBRANCH  41  43
ENDBRANCH  40  41
ENDBRANCH  12  40
BRANCH   1  63
ATOM     63  C   LIG d   1       3.959   0.498 -11.153  0.00  0.00    -0.056 C 
ATOM     64  H   LIG d   1       4.188   1.195 -10.347  0.00  0.00     0.024 H 
ATOM     65  H   LIG d   1       4.780   0.490 -11.870  0.00  0.00     0.024 H 
ATOM     66  H   LIG d   1       3.042   0.810 -11.653  0.00  0.00     0.024 H 
ENDBRANCH   1  63
BRANCH  22  67
ATOM     67  C   LIG d   1       5.161  -3.037 -15.240  0.00  0.00    -0.056 C 
ATOM     68  H   LIG d   1       5.999  -2.638 -15.811  0.00  0.00     0.024 H 
ATOM     69  H   LIG d   1       5.537  -3.661 -14.429  0.00  0.00     0.024 H 
ATOM     70  H   LIG d   1       4.526  -3.635 -15.894  0.00  0.00     0.024 H 
ENDBRANCH  22  67
TORSDOF 7
ENDMDL
