MODEL 1
REMARK VINA RESULT:      -6.8      0.000      0.000
REMARK  6 active torsions:
REMARK  status: ('A' for Active; 'I' for Inactive)
REMARK    1  A    between atoms: C_6  and  C_7 
REMARK    2  A    between atoms: C_7  and  C_8 
REMARK    3  A    between atoms: C_8  and  C_10 
REMARK    4  A    between atoms: C_13  and  O_18 
REMARK    5  A    between atoms: C_14  and  O_17 
REMARK    6  A    between atoms: C_15  and  O_16 
ROOT
ATOM      1  C   LIG d   1       8.181  -0.210  -5.055  0.00  0.00    -0.054 A 
ATOM      2  C   LIG d   1       7.321  -1.041  -4.357  0.00  0.00    -0.016 A 
ATOM      3  C   LIG d   1       6.430  -0.497  -3.448  0.00  0.00     0.162 A 
ATOM      4  C   LIG d   1       6.399   0.874  -3.238  0.00  0.00     0.162 A 
ATOM      5  C   LIG d   1       7.260   1.702  -3.938  0.00  0.00    -0.013 A 
ATOM      6  C   LIG d   1       8.151   1.156  -4.846  0.00  0.00    -0.036 A 
ATOM      7  O   LIG d   1       5.516   1.400  -2.341  0.00  0.00    -0.488 OA
ATOM      8  C   LIG d   1       4.136   1.318  -2.700  0.00  0.00     0.093 C 
ATOM      9  C   LIG d   1       3.557  -0.032  -2.310  0.00  0.00     0.016 C 
ATOM     10  C   LIG d   1       4.192  -1.180  -3.080  0.00  0.00     0.093 C 
ATOM     11  O   LIG d   1       5.577  -1.305  -2.752  0.00  0.00    -0.488 OA
ATOM     12  H   LIG d   1       8.877  -0.631  -5.765  0.00  0.00     0.062 H 
ATOM     13  H   LIG d   1       7.349  -2.108  -4.518  0.00  0.00     0.066 H 
ATOM     14  H   LIG d   1       7.238   2.770  -3.776  0.00  0.00     0.066 H 
ATOM     15  H   LIG d   1       4.037   1.453  -3.777  0.00  0.00     0.070 H 
ATOM     16  H   LIG d   1       3.585   2.106  -2.189  0.00  0.00     0.070 H 
ATOM     17  H   LIG d   1       2.484  -0.027  -2.506  0.00  0.00     0.033 H 
ATOM     18  H   LIG d   1       3.718  -0.191  -1.244  0.00  0.00     0.033 H 
ATOM     19  H   LIG d   1       4.092  -0.993  -4.150  0.00  0.00     0.070 H 
ATOM     20  H   LIG d   1       3.679  -2.108  -2.829  0.00  0.00     0.070 H 
ENDROOT
BRANCH   6  21
ATOM     21  C   LIG d   1       9.091   2.053  -5.609  0.00  0.00     0.036 C 
ATOM     22  H   LIG d   1       9.525   1.532  -6.345  0.00  0.00     0.039 H 
ATOM     23  H   LIG d   1       8.531   2.886  -6.036  0.00  0.00     0.039 H 
BRANCH  21  24
ATOM     24  C   LIG d   1      10.148   2.583  -4.676  0.00  0.00     0.171 C 
ATOM     25  O   LIG d   1      11.154   1.936  -4.469  0.00  0.00    -0.292 OA
BRANCH  24  26
ATOM     26  C   LIG d   1       9.964   3.880  -4.020  0.00  0.00     0.063 A 
ATOM     27  C   LIG d   1      10.306   4.042  -2.666  0.00  0.00     0.173 A 
ATOM     28  C   LIG d   1      10.126   5.275  -2.057  0.00  0.00     0.201 A 
ATOM     29  C   LIG d   1       9.610   6.339  -2.788  0.00  0.00     0.162 A 
ATOM     30  C   LIG d   1       9.272   6.173  -4.127  0.00  0.00    -0.016 A 
ATOM     31  C   LIG d   1       9.450   4.967  -4.741  0.00  0.00    -0.044 A 
ATOM     32  H   LIG d   1       8.872   7.005  -4.687  0.00  0.00     0.066 H 
ATOM     33  H   LIG d   1       9.189   4.849  -5.783  0.00  0.00     0.063 H 
BRANCH  27  34
ATOM     34  O   LIG d   1      10.810   2.998  -1.960  0.00  0.00    -0.503 OA
ATOM     35  H   LIG d   1      11.773   2.917  -2.010  0.00  0.00     0.292 HD
ENDBRANCH  27  34
BRANCH  28  36
ATOM     36  O   LIG d   1      10.455   5.443  -0.747  0.00  0.00    -0.501 OA
ATOM     37  H   LIG d   1      10.322   4.654  -0.204  0.00  0.00     0.292 HD
ENDBRANCH  28  36
BRANCH  29  38
ATOM     38  O   LIG d   1       9.434   7.546  -2.191  0.00  0.00    -0.503 OA
ATOM     39  H   LIG d   1       9.604   8.301  -2.772  0.00  0.00     0.292 HD
ENDBRANCH  29  38
ENDBRANCH  24  26
ENDBRANCH  21  24
ENDBRANCH   6  21
TORSDOF 6
ENDMDL
MODEL 2
REMARK VINA RESULT:      -6.4      4.647      7.685
REMARK  6 active torsions:
REMARK  status: ('A' for Active; 'I' for Inactive)
REMARK    1  A    between atoms: C_6  and  C_7 
REMARK    2  A    between atoms: C_7  and  C_8 
REMARK    3  A    between atoms: C_8  and  C_10 
REMARK    4  A    between atoms: C_13  and  O_18 
REMARK    5  A    between atoms: C_14  and  O_17 
REMARK    6  A    between atoms: C_15  and  O_16 
ROOT
ATOM      1  C   LIG d   1       5.535  -3.560  -4.721  0.00  0.00    -0.054 A 
ATOM      2  C   LIG d   1       4.510  -3.093  -3.917  0.00  0.00    -0.016 A 
ATOM      3  C   LIG d   1       4.690  -1.935  -3.179  0.00  0.00     0.162 A 
ATOM      4  C   LIG d   1       5.894  -1.248  -3.247  0.00  0.00     0.162 A 
ATOM      5  C   LIG d   1       6.917  -1.718  -4.053  0.00  0.00    -0.013 A 
ATOM      6  C   LIG d   1       6.734  -2.876  -4.788  0.00  0.00    -0.036 A 
ATOM      7  O   LIG d   1       6.061  -0.107  -2.517  0.00  0.00    -0.488 OA
ATOM      8  C   LIG d   1       5.275   1.015  -2.922  0.00  0.00     0.093 C 
ATOM      9  C   LIG d   1       3.889   0.955  -2.302  0.00  0.00     0.016 C 
ATOM     10  C   LIG d   1       3.084  -0.237  -2.797  0.00  0.00     0.093 C 
ATOM     11  O   LIG d   1       3.688  -1.464  -2.381  0.00  0.00    -0.488 OA
ATOM     12  H   LIG d   1       5.397  -4.463  -5.297  0.00  0.00     0.062 H 
ATOM     13  H   LIG d   1       3.575  -3.631  -3.862  0.00  0.00     0.066 H 
ATOM     14  H   LIG d   1       7.854  -1.184  -4.106  0.00  0.00     0.066 H 
ATOM     15  H   LIG d   1       5.183   1.015  -4.008  0.00  0.00     0.070 H 
ATOM     16  H   LIG d   1       5.771   1.933  -2.606  0.00  0.00     0.070 H 
ATOM     17  H   LIG d   1       3.351   1.871  -2.550  0.00  0.00     0.033 H 
ATOM     18  H   LIG d   1       3.989   0.888  -1.220  0.00  0.00     0.033 H 
ATOM     19  H   LIG d   1       3.037  -0.211  -3.887  0.00  0.00     0.070 H 
ATOM     20  H   LIG d   1       2.074  -0.181  -2.393  0.00  0.00     0.070 H 
ENDROOT
BRANCH   6  21
ATOM     21  C   LIG d   1       7.845  -3.392  -5.665  0.00  0.00     0.036 C 
ATOM     22  H   LIG d   1       7.555  -4.244  -6.105  0.00  0.00     0.039 H 
ATOM     23  H   LIG d   1       8.078  -2.651  -6.430  0.00  0.00     0.039 H 
BRANCH  21  24
ATOM     24  C   LIG d   1       9.069  -3.651  -4.827  0.00  0.00     0.171 C 
ATOM     25  O   LIG d   1       9.999  -2.871  -4.854  0.00  0.00    -0.292 OA
BRANCH  24  26
ATOM     26  C   LIG d   1       9.138  -4.843  -3.979  0.00  0.00     0.063 A 
ATOM     27  C   LIG d   1       9.472  -4.724  -2.618  0.00  0.00     0.173 A 
ATOM     28  C   LIG d   1       9.534  -5.861  -1.826  0.00  0.00     0.201 A 
ATOM     29  C   LIG d   1       9.266  -7.108  -2.382  0.00  0.00     0.162 A 
ATOM     30  C   LIG d   1       8.937  -7.219  -3.730  0.00  0.00    -0.016 A 
ATOM     31  C   LIG d   1       8.866  -6.108  -4.519  0.00  0.00    -0.044 A 
ATOM     32  H   LIG d   1       8.731  -8.191  -4.153  0.00  0.00     0.066 H 
ATOM     33  H   LIG d   1       8.605  -6.204  -5.563  0.00  0.00     0.063 H 
BRANCH  27  34
ATOM     34  O   LIG d   1       9.732  -3.504  -2.083  0.00  0.00    -0.503 OA
ATOM     35  H   LIG d   1       9.657  -3.474  -1.119  0.00  0.00     0.292 HD
ENDBRANCH  27  34
BRANCH  28  36
ATOM     36  O   LIG d   1       9.856  -5.758  -0.507  0.00  0.00    -0.501 OA
ATOM     37  H   LIG d   1      10.242  -4.906  -0.263  0.00  0.00     0.292 HD
ENDBRANCH  28  36
BRANCH  29  38
ATOM     38  O   LIG d   1       9.327  -8.221  -1.607  0.00  0.00    -0.503 OA
ATOM     39  H   LIG d   1       8.491  -8.447  -1.177  0.00  0.00     0.292 HD
ENDBRANCH  29  38
ENDBRANCH  24  26
ENDBRANCH  21  24
ENDBRANCH   6  21
TORSDOF 6
ENDMDL
MODEL 3
REMARK VINA RESULT:      -6.3      5.812      7.977
REMARK  6 active torsions:
REMARK  status: ('A' for Active; 'I' for Inactive)
REMARK    1  A    between atoms: C_6  and  C_7 
REMARK    2  A    between atoms: C_7  and  C_8 
REMARK    3  A    between atoms: C_8  and  C_10 
REMARK    4  A    between atoms: C_13  and  O_18 
REMARK    5  A    between atoms: C_14  and  O_17 
REMARK    6  A    between atoms: C_15  and  O_16 
ROOT
ATOM      1  C   LIG d   1       8.045  -3.015  -3.825  0.00  0.00    -0.054 A 
ATOM      2  C   LIG d   1       9.097  -3.580  -3.125  0.00  0.00    -0.016 A 
ATOM      3  C   LIG d   1       9.461  -4.892  -3.374  0.00  0.00     0.162 A 
ATOM      4  C   LIG d   1       8.775  -5.636  -4.323  0.00  0.00     0.162 A 
ATOM      5  C   LIG d   1       7.724  -5.068  -5.022  0.00  0.00    -0.013 A 
ATOM      6  C   LIG d   1       7.361  -3.756  -4.770  0.00  0.00    -0.036 A 
ATOM      7  O   LIG d   1       9.143  -6.928  -4.562  0.00  0.00    -0.488 OA
ATOM      8  C   LIG d   1      10.415  -7.111  -5.185  0.00  0.00     0.093 C 
ATOM      9  C   LIG d   1      11.528  -7.103  -4.151  0.00  0.00     0.016 C 
ATOM     10  C   LIG d   1      11.665  -5.756  -3.456  0.00  0.00     0.093 C 
ATOM     11  O   LIG d   1      10.496  -5.461  -2.689  0.00  0.00    -0.488 OA
ATOM     12  H   LIG d   1       7.759  -1.992  -3.632  0.00  0.00     0.062 H 
ATOM     13  H   LIG d   1       9.628  -3.000  -2.383  0.00  0.00     0.066 H 
ATOM     14  H   LIG d   1       7.188  -5.646  -5.761  0.00  0.00     0.066 H 
ATOM     15  H   LIG d   1      10.583  -6.305  -5.900  0.00  0.00     0.070 H 
ATOM     16  H   LIG d   1      10.422  -8.064  -5.713  0.00  0.00     0.070 H 
ATOM     17  H   LIG d   1      12.471  -7.342  -4.644  0.00  0.00     0.033 H 
ATOM     18  H   LIG d   1      11.320  -7.866  -3.402  0.00  0.00     0.033 H 
ATOM     19  H   LIG d   1      11.807  -4.978  -4.207  0.00  0.00     0.070 H 
ATOM     20  H   LIG d   1      12.530  -5.780  -2.795  0.00  0.00     0.070 H 
ENDROOT
BRANCH   6  21
ATOM     21  C   LIG d   1       6.217  -3.134  -5.528  0.00  0.00     0.036 C 
ATOM     22  H   LIG d   1       6.445  -2.187  -5.757  0.00  0.00     0.039 H 
ATOM     23  H   LIG d   1       6.041  -3.696  -6.445  0.00  0.00     0.039 H 
BRANCH  21  24
ATOM     24  C   LIG d   1       4.975  -3.160  -4.675  0.00  0.00     0.171 C 
ATOM     25  O   LIG d   1       4.332  -4.184  -4.572  0.00  0.00    -0.292 OA
BRANCH  24  26
ATOM     26  C   LIG d   1       4.544  -1.951  -3.971  0.00  0.00     0.063 A 
ATOM     27  C   LIG d   1       3.885  -0.923  -4.670  0.00  0.00     0.173 A 
ATOM     28  C   LIG d   1       3.481   0.217  -3.991  0.00  0.00     0.201 A 
ATOM     29  C   LIG d   1       3.730   0.336  -2.628  0.00  0.00     0.162 A 
ATOM     30  C   LIG d   1       4.383  -0.684  -1.942  0.00  0.00    -0.016 A 
ATOM     31  C   LIG d   1       4.780  -1.814  -2.596  0.00  0.00    -0.044 A 
ATOM     32  H   LIG d   1       4.572  -0.583  -0.883  0.00  0.00     0.066 H 
ATOM     33  H   LIG d   1       5.282  -2.602  -2.054  0.00  0.00     0.063 H 
BRANCH  27  34
ATOM     34  O   LIG d   1       3.645  -1.047  -6.000  0.00  0.00    -0.503 OA
ATOM     35  H   LIG d   1       4.020  -1.848  -6.394  0.00  0.00     0.292 HD
ENDBRANCH  27  34
BRANCH  28  36
ATOM     36  O   LIG d   1       2.842   1.217  -4.658  0.00  0.00    -0.501 OA
ATOM     37  H   LIG d   1       3.363   1.609  -5.372  0.00  0.00     0.292 HD
ENDBRANCH  28  36
BRANCH  29  38
ATOM     38  O   LIG d   1       3.335   1.452  -1.964  0.00  0.00    -0.503 OA
ATOM     39  H   LIG d   1       3.838   2.246  -2.194  0.00  0.00     0.292 HD
ENDBRANCH  29  38
ENDBRANCH  24  26
ENDBRANCH  21  24
ENDBRANCH   6  21
TORSDOF 6
ENDMDL
MODEL 4
REMARK VINA RESULT:      -6.3      4.369      7.135
REMARK  6 active torsions:
REMARK  status: ('A' for Active; 'I' for Inactive)
REMARK    1  A    between atoms: C_6  and  C_7 
REMARK    2  A    between atoms: C_7  and  C_8 
REMARK    3  A    between atoms: C_8  and  C_10 
REMARK    4  A    between atoms: C_13  and  O_18 
REMARK    5  A    between atoms: C_14  and  O_17 
REMARK    6  A    between atoms: C_15  and  O_16 
ROOT
ATOM      1  C   LIG d   1       7.974  -1.427  -4.632  0.00  0.00    -0.054 A 
ATOM      2  C   LIG d   1       8.593  -0.365  -5.268  0.00  0.00    -0.016 A 
ATOM      3  C   LIG d   1       8.382  -0.157  -6.620  0.00  0.00     0.162 A 
ATOM      4  C   LIG d   1       7.552  -1.010  -7.333  0.00  0.00     0.162 A 
ATOM      5  C   LIG d   1       6.933  -2.070  -6.694  0.00  0.00    -0.013 A 
ATOM      6  C   LIG d   1       7.147  -2.276  -5.342  0.00  0.00    -0.036 A 
ATOM      7  O   LIG d   1       7.349  -0.796  -8.666  0.00  0.00    -0.488 OA
ATOM      8  C   LIG d   1       6.611   0.379  -9.005  0.00  0.00     0.093 C 
ATOM      9  C   LIG d   1       7.523   1.593  -9.062  0.00  0.00     0.016 C 
ATOM     10  C   LIG d   1       8.123   1.932  -7.706  0.00  0.00     0.093 C 
ATOM     11  O   LIG d   1       8.989   0.885  -7.259  0.00  0.00    -0.488 OA
ATOM     12  H   LIG d   1       8.137  -1.591  -3.577  0.00  0.00     0.062 H 
ATOM     13  H   LIG d   1       9.243   0.296  -4.712  0.00  0.00     0.066 H 
ATOM     14  H   LIG d   1       6.287  -2.736  -7.248  0.00  0.00     0.066 H 
ATOM     15  H   LIG d   1       5.838   0.546  -8.254  0.00  0.00     0.070 H 
ATOM     16  H   LIG d   1       6.139   0.238  -9.977  0.00  0.00     0.070 H 
ATOM     17  H   LIG d   1       6.950   2.450  -9.418  0.00  0.00     0.033 H 
ATOM     18  H   LIG d   1       8.331   1.394  -9.765  0.00  0.00     0.033 H 
ATOM     19  H   LIG d   1       7.319   2.067  -6.981  0.00  0.00     0.070 H 
ATOM     20  H   LIG d   1       8.693   2.857  -7.787  0.00  0.00     0.070 H 
ENDROOT
BRANCH   6  21
ATOM     21  C   LIG d   1       6.477  -3.430  -4.643  0.00  0.00     0.036 C 
ATOM     22  H   LIG d   1       6.609  -4.266  -5.177  0.00  0.00     0.039 H 
ATOM     23  H   LIG d   1       6.915  -3.559  -3.653  0.00  0.00     0.039 H 
BRANCH  21  24
ATOM     24  C   LIG d   1       5.003  -3.149  -4.507  0.00  0.00     0.171 C 
ATOM     25  O   LIG d   1       4.192  -3.940  -4.941  0.00  0.00    -0.292 OA
BRANCH  24  26
ATOM     26  C   LIG d   1       4.549  -1.920  -3.851  0.00  0.00     0.063 A 
ATOM     27  C   LIG d   1       3.877  -0.931  -4.590  0.00  0.00     0.173 A 
ATOM     28  C   LIG d   1       3.453   0.227  -3.956  0.00  0.00     0.201 A 
ATOM     29  C   LIG d   1       3.693   0.402  -2.598  0.00  0.00     0.162 A 
ATOM     30  C   LIG d   1       4.358  -0.581  -1.871  0.00  0.00    -0.016 A 
ATOM     31  C   LIG d   1       4.776  -1.729  -2.481  0.00  0.00    -0.044 A 
ATOM     32  H   LIG d   1       4.541  -0.438  -0.816  0.00  0.00     0.066 H 
ATOM     33  H   LIG d   1       5.288  -2.488  -1.907  0.00  0.00     0.063 H 
BRANCH  27  34
ATOM     34  O   LIG d   1       3.646  -1.108  -5.916  0.00  0.00    -0.503 OA
ATOM     35  H   LIG d   1       3.384  -0.302  -6.381  0.00  0.00     0.292 HD
ENDBRANCH  27  34
BRANCH  28  36
ATOM     36  O   LIG d   1       2.801   1.192  -4.663  0.00  0.00    -0.501 OA
ATOM     37  H   LIG d   1       2.208   0.847  -5.344  0.00  0.00     0.292 HD
ENDBRANCH  28  36
BRANCH  29  38
ATOM     38  O   LIG d   1       3.277   1.535  -1.978  0.00  0.00    -0.503 OA
ATOM     39  H   LIG d   1       2.583   1.392  -1.319  0.00  0.00     0.292 HD
ENDBRANCH  29  38
ENDBRANCH  24  26
ENDBRANCH  21  24
ENDBRANCH   6  21
TORSDOF 6
ENDMDL
MODEL 5
REMARK VINA RESULT:      -6.2      4.426      6.741
REMARK  6 active torsions:
REMARK  status: ('A' for Active; 'I' for Inactive)
REMARK    1  A    between atoms: C_6  and  C_7 
REMARK    2  A    between atoms: C_7  and  C_8 
REMARK    3  A    between atoms: C_8  and  C_10 
REMARK    4  A    between atoms: C_13  and  O_18 
REMARK    5  A    between atoms: C_14  and  O_17 
REMARK    6  A    between atoms: C_15  and  O_16 
ROOT
ATOM      1  C   LIG d   1       6.086  -2.552  -7.861  0.00  0.00    -0.054 A 
ATOM      2  C   LIG d   1       6.018  -1.665  -8.921  0.00  0.00    -0.016 A 
ATOM      3  C   LIG d   1       4.917  -0.838  -9.054  0.00  0.00     0.162 A 
ATOM      4  C   LIG d   1       3.886  -0.898  -8.127  0.00  0.00     0.162 A 
ATOM      5  C   LIG d   1       3.957  -1.786  -7.067  0.00  0.00    -0.013 A 
ATOM      6  C   LIG d   1       5.060  -2.612  -6.937  0.00  0.00    -0.036 A 
ATOM      7  O   LIG d   1       2.804  -0.077  -8.265  0.00  0.00    -0.488 OA
ATOM      8  C   LIG d   1       3.047   1.316  -8.064  0.00  0.00     0.093 C 
ATOM      9  C   LIG d   1       3.562   1.964  -9.338  0.00  0.00     0.016 C 
ATOM     10  C   LIG d   1       4.923   1.425  -9.753  0.00  0.00     0.093 C 
ATOM     11  O   LIG d   1       4.836   0.041 -10.096  0.00  0.00    -0.488 OA
ATOM     12  H   LIG d   1       6.945  -3.199  -7.755  0.00  0.00     0.062 H 
ATOM     13  H   LIG d   1       6.819  -1.622  -9.644  0.00  0.00     0.066 H 
ATOM     14  H   LIG d   1       3.155  -1.834  -6.345  0.00  0.00     0.066 H 
ATOM     15  H   LIG d   1       3.787   1.440  -7.273  0.00  0.00     0.070 H 
ATOM     16  H   LIG d   1       2.119   1.802  -7.763  0.00  0.00     0.070 H 
ATOM     17  H   LIG d   1       3.643   3.040  -9.180  0.00  0.00     0.033 H 
ATOM     18  H   LIG d   1       2.850   1.780 -10.141  0.00  0.00     0.033 H 
ATOM     19  H   LIG d   1       5.625   1.547  -8.927  0.00  0.00     0.070 H 
ATOM     20  H   LIG d   1       5.283   1.985 -10.615  0.00  0.00     0.070 H 
ENDROOT
BRANCH   6  21
ATOM     21  C   LIG d   1       5.141  -3.581  -5.786  0.00  0.00     0.036 C 
ATOM     22  H   LIG d   1       4.230  -3.710  -5.394  0.00  0.00     0.039 H 
ATOM     23  H   LIG d   1       5.521  -4.539  -6.144  0.00  0.00     0.039 H 
BRANCH  21  24
ATOM     24  C   LIG d   1       6.069  -3.034  -4.733  0.00  0.00     0.171 C 
ATOM     25  O   LIG d   1       7.184  -3.496  -4.608  0.00  0.00    -0.292 OA
BRANCH  24  26
ATOM     26  C   LIG d   1       5.626  -1.945  -3.860  0.00  0.00     0.063 A 
ATOM     27  C   LIG d   1       6.233  -0.679  -3.946  0.00  0.00     0.173 A 
ATOM     28  C   LIG d   1       5.803   0.344  -3.113  0.00  0.00     0.201 A 
ATOM     29  C   LIG d   1       4.779   0.111  -2.201  0.00  0.00     0.162 A 
ATOM     30  C   LIG d   1       4.183  -1.144  -2.121  0.00  0.00    -0.016 A 
ATOM     31  C   LIG d   1       4.591  -2.158  -2.938  0.00  0.00    -0.044 A 
ATOM     32  H   LIG d   1       3.388  -1.316  -1.410  0.00  0.00     0.066 H 
ATOM     33  H   LIG d   1       4.120  -3.127  -2.872  0.00  0.00     0.063 H 
BRANCH  27  34
ATOM     34  O   LIG d   1       7.231  -0.460  -4.838  0.00  0.00    -0.503 OA
ATOM     35  H   LIG d   1       7.046   0.250  -5.469  0.00  0.00     0.292 HD
ENDBRANCH  27  34
BRANCH  28  36
ATOM     36  O   LIG d   1       6.383   1.573  -3.188  0.00  0.00    -0.501 OA
ATOM     37  H   LIG d   1       7.106   1.629  -3.827  0.00  0.00     0.292 HD
ENDBRANCH  28  36
BRANCH  29  38
ATOM     38  O   LIG d   1       4.359   1.112  -1.386  0.00  0.00    -0.503 OA
ATOM     39  H   LIG d   1       4.563   0.970  -0.451  0.00  0.00     0.292 HD
ENDBRANCH  29  38
ENDBRANCH  24  26
ENDBRANCH  21  24
ENDBRANCH   6  21
TORSDOF 6
ENDMDL
MODEL 6
REMARK VINA RESULT:      -6.1      4.206      6.557
REMARK  6 active torsions:
REMARK  status: ('A' for Active; 'I' for Inactive)
REMARK    1  A    between atoms: C_6  and  C_7 
REMARK    2  A    between atoms: C_7  and  C_8 
REMARK    3  A    between atoms: C_8  and  C_10 
REMARK    4  A    between atoms: C_13  and  O_18 
REMARK    5  A    between atoms: C_14  and  O_17 
REMARK    6  A    between atoms: C_15  and  O_16 
ROOT
ATOM      1  C   LIG d   1      10.611   4.284  -2.079  0.00  0.00    -0.054 A 
ATOM      2  C   LIG d   1       9.938   3.781  -3.179  0.00  0.00    -0.016 A 
ATOM      3  C   LIG d   1       9.866   4.531  -4.340  0.00  0.00     0.162 A 
ATOM      4  C   LIG d   1      10.467   5.780  -4.400  0.00  0.00     0.162 A 
ATOM      5  C   LIG d   1      11.140   6.280  -3.298  0.00  0.00    -0.013 A 
ATOM      6  C   LIG d   1      11.210   5.528  -2.138  0.00  0.00    -0.036 A 
ATOM      7  O   LIG d   1      10.392   6.511  -5.550  0.00  0.00    -0.488 OA
ATOM      8  C   LIG d   1      11.114   5.993  -6.668  0.00  0.00     0.093 C 
ATOM      9  C   LIG d   1      10.289   4.952  -7.408  0.00  0.00     0.016 C 
ATOM     10  C   LIG d   1      10.018   3.718  -6.560  0.00  0.00     0.093 C 
ATOM     11  O   LIG d   1       9.204   4.048  -5.432  0.00  0.00    -0.488 OA
ATOM     12  H   LIG d   1      10.669   3.701  -1.171  0.00  0.00     0.062 H 
ATOM     13  H   LIG d   1       9.467   2.811  -3.129  0.00  0.00     0.066 H 
ATOM     14  H   LIG d   1      11.608   7.252  -3.343  0.00  0.00     0.066 H 
ATOM     15  H   LIG d   1      12.038   5.535  -6.317  0.00  0.00     0.070 H 
ATOM     16  H   LIG d   1      11.355   6.809  -7.349  0.00  0.00     0.070 H 
ATOM     17  H   LIG d   1      10.825   4.650  -8.308  0.00  0.00     0.033 H 
ATOM     18  H   LIG d   1       9.338   5.396  -7.698  0.00  0.00     0.033 H 
ATOM     19  H   LIG d   1      10.966   3.307  -6.211  0.00  0.00     0.070 H 
ATOM     20  H   LIG d   1       9.505   2.972  -7.166  0.00  0.00     0.070 H 
ENDROOT
BRANCH   6  21
ATOM     21  C   LIG d   1      11.940   6.068  -0.936  0.00  0.00     0.036 C 
ATOM     22  H   LIG d   1      12.403   5.318  -0.462  0.00  0.00     0.039 H 
ATOM     23  H   LIG d   1      12.677   6.804  -1.259  0.00  0.00     0.039 H 
BRANCH  21  24
ATOM     24  C   LIG d   1      10.955   6.721  -0.000  0.00  0.00     0.171 C 
ATOM     25  O   LIG d   1      10.426   6.068   0.875  0.00  0.00    -0.292 OA
BRANCH  24  26
ATOM     26  C   LIG d   1      10.637   8.143  -0.147  0.00  0.00     0.063 A 
ATOM     27  C   LIG d   1       9.431   8.538  -0.752  0.00  0.00     0.173 A 
ATOM     28  C   LIG d   1       9.142   9.888  -0.884  0.00  0.00     0.201 A 
ATOM     29  C   LIG d   1      10.044  10.839  -0.419  0.00  0.00     0.162 A 
ATOM     30  C   LIG d   1      11.237  10.441   0.178  0.00  0.00    -0.016 A 
ATOM     31  C   LIG d   1      11.531   9.116   0.321  0.00  0.00    -0.044 A 
ATOM     32  H   LIG d   1      11.932  11.186   0.537  0.00  0.00     0.066 H 
ATOM     33  H   LIG d   1      12.457   8.817   0.790  0.00  0.00     0.063 H 
BRANCH  27  34
ATOM     34  O   LIG d   1       8.555   7.605  -1.203  0.00  0.00    -0.503 OA
ATOM     35  H   LIG d   1       8.313   6.941  -0.542  0.00  0.00     0.292 HD
ENDBRANCH  27  34
BRANCH  28  36
ATOM     36  O   LIG d   1       7.977  10.283  -1.468  0.00  0.00    -0.501 OA
ATOM     37  H   LIG d   1       8.017  11.161  -1.871  0.00  0.00     0.292 HD
ENDBRANCH  28  36
BRANCH  29  38
ATOM     38  O   LIG d   1       9.761  12.160  -0.549  0.00  0.00    -0.503 OA
ATOM     39  H   LIG d   1       9.424  12.572   0.259  0.00  0.00     0.292 HD
ENDBRANCH  29  38
ENDBRANCH  24  26
ENDBRANCH  21  24
ENDBRANCH   6  21
TORSDOF 6
ENDMDL
MODEL 7
REMARK VINA RESULT:      -6.1      4.521      7.311
REMARK  6 active torsions:
REMARK  status: ('A' for Active; 'I' for Inactive)
REMARK    1  A    between atoms: C_6  and  C_7 
REMARK    2  A    between atoms: C_7  and  C_8 
REMARK    3  A    between atoms: C_8  and  C_10 
REMARK    4  A    between atoms: C_13  and  O_18 
REMARK    5  A    between atoms: C_14  and  O_17 
REMARK    6  A    between atoms: C_15  and  O_16 
ROOT
ATOM      1  C   LIG d   1       3.918  -3.143  -8.215  0.00  0.00    -0.054 A 
ATOM      2  C   LIG d   1       3.180  -2.365  -9.091  0.00  0.00    -0.016 A 
ATOM      3  C   LIG d   1       3.298  -0.987  -9.050  0.00  0.00     0.162 A 
ATOM      4  C   LIG d   1       4.153  -0.389  -8.135  0.00  0.00     0.162 A 
ATOM      5  C   LIG d   1       4.890  -1.169  -7.261  0.00  0.00    -0.013 A 
ATOM      6  C   LIG d   1       4.769  -2.547  -7.304  0.00  0.00    -0.036 A 
ATOM      7  O   LIG d   1       4.264   0.971  -8.104  0.00  0.00    -0.488 OA
ATOM      8  C   LIG d   1       4.886   1.574  -9.240  0.00  0.00     0.093 C 
ATOM      9  C   LIG d   1       3.877   1.793 -10.355  0.00  0.00     0.016 C 
ATOM     10  C   LIG d   1       3.327   0.486 -10.905  0.00  0.00     0.093 C 
ATOM     11  O   LIG d   1       2.575  -0.208  -9.907  0.00  0.00    -0.488 OA
ATOM     12  H   LIG d   1       3.827  -4.219  -8.244  0.00  0.00     0.062 H 
ATOM     13  H   LIG d   1       2.511  -2.832  -9.799  0.00  0.00     0.066 H 
ATOM     14  H   LIG d   1       5.556  -0.705  -6.548  0.00  0.00     0.066 H 
ATOM     15  H   LIG d   1       5.682   0.923  -9.600  0.00  0.00     0.070 H 
ATOM     16  H   LIG d   1       5.313   2.533  -8.948  0.00  0.00     0.070 H 
ATOM     17  H   LIG d   1       4.358   2.342 -11.165  0.00  0.00     0.033 H 
ATOM     18  H   LIG d   1       3.049   2.389  -9.971  0.00  0.00     0.033 H 
ATOM     19  H   LIG d   1       4.157  -0.143 -11.231  0.00  0.00     0.070 H 
ATOM     20  H   LIG d   1       2.682   0.697 -11.757  0.00  0.00     0.070 H 
ENDROOT
BRANCH   6  21
ATOM     21  C   LIG d   1       5.568  -3.401  -6.353  0.00  0.00     0.036 C 
ATOM     22  H   LIG d   1       5.511  -4.359  -6.637  0.00  0.00     0.039 H 
ATOM     23  H   LIG d   1       6.610  -3.081  -6.366  0.00  0.00     0.039 H 
BRANCH  21  24
ATOM     24  C   LIG d   1       5.014  -3.257  -4.960  0.00  0.00     0.171 C 
ATOM     25  O   LIG d   1       4.424  -4.182  -4.442  0.00  0.00    -0.292 OA
BRANCH  24  26
ATOM     26  C   LIG d   1       5.188  -1.999  -4.229  0.00  0.00     0.063 A 
ATOM     27  C   LIG d   1       4.066  -1.304  -3.743  0.00  0.00     0.173 A 
ATOM     28  C   LIG d   1       4.245  -0.114  -3.053  0.00  0.00     0.201 A 
ATOM     29  C   LIG d   1       5.528   0.381  -2.846  0.00  0.00     0.162 A 
ATOM     30  C   LIG d   1       6.633  -0.311  -3.330  0.00  0.00    -0.016 A 
ATOM     31  C   LIG d   1       6.473  -1.486  -4.006  0.00  0.00    -0.044 A 
ATOM     32  H   LIG d   1       7.627   0.081  -3.165  0.00  0.00     0.066 H 
ATOM     33  H   LIG d   1       7.338  -2.019  -4.373  0.00  0.00     0.063 H 
BRANCH  27  34
ATOM     34  O   LIG d   1       2.817  -1.794  -3.948  0.00  0.00    -0.503 OA
ATOM     35  H   LIG d   1       2.689  -2.694  -3.617  0.00  0.00     0.292 HD
ENDBRANCH  27  34
BRANCH  28  36
ATOM     36  O   LIG d   1       3.166   0.567  -2.577  0.00  0.00    -0.501 OA
ATOM     37  H   LIG d   1       3.210   1.522  -2.721  0.00  0.00     0.292 HD
ENDBRANCH  28  36
BRANCH  29  38
ATOM     38  O   LIG d   1       5.702   1.546  -2.171  0.00  0.00    -0.503 OA
ATOM     39  H   LIG d   1       5.781   1.437  -1.213  0.00  0.00     0.292 HD
ENDBRANCH  29  38
ENDBRANCH  24  26
ENDBRANCH  21  24
ENDBRANCH   6  21
TORSDOF 6
ENDMDL
MODEL 8
REMARK VINA RESULT:      -6.0      3.393      6.404
REMARK  6 active torsions:
REMARK  status: ('A' for Active; 'I' for Inactive)
REMARK    1  A    between atoms: C_6  and  C_7 
REMARK    2  A    between atoms: C_7  and  C_8 
REMARK    3  A    between atoms: C_8  and  C_10 
REMARK    4  A    between atoms: C_13  and  O_18 
REMARK    5  A    between atoms: C_14  and  O_17 
REMARK    6  A    between atoms: C_15  and  O_16 
ROOT
ATOM      1  C   LIG d   1      12.194   6.427  -2.933  0.00  0.00    -0.054 A 
ATOM      2  C   LIG d   1      11.852   5.919  -4.174  0.00  0.00    -0.016 A 
ATOM      3  C   LIG d   1      11.250   4.676  -4.264  0.00  0.00     0.162 A 
ATOM      4  C   LIG d   1      10.991   3.944  -3.114  0.00  0.00     0.162 A 
ATOM      5  C   LIG d   1      11.334   4.455  -1.874  0.00  0.00    -0.013 A 
ATOM      6  C   LIG d   1      11.937   5.698  -1.788  0.00  0.00    -0.036 A 
ATOM      7  O   LIG d   1      10.396   2.720  -3.213  0.00  0.00    -0.488 OA
ATOM      8  C   LIG d   1       9.035   2.720  -3.647  0.00  0.00     0.093 C 
ATOM      9  C   LIG d   1       8.952   2.759  -5.164  0.00  0.00     0.016 C 
ATOM     10  C   LIG d   1       9.507   4.052  -5.742  0.00  0.00     0.093 C 
ATOM     11  O   LIG d   1      10.908   4.162  -5.482  0.00  0.00    -0.488 OA
ATOM     12  H   LIG d   1      12.664   7.397  -2.860  0.00  0.00     0.062 H 
ATOM     13  H   LIG d   1      12.058   6.488  -5.069  0.00  0.00     0.066 H 
ATOM     14  H   LIG d   1      11.134   3.886  -0.978  0.00  0.00     0.066 H 
ATOM     15  H   LIG d   1       8.528   3.593  -3.237  0.00  0.00     0.070 H 
ATOM     16  H   LIG d   1       8.543   1.818  -3.283  0.00  0.00     0.070 H 
ATOM     17  H   LIG d   1       7.908   2.658  -5.464  0.00  0.00     0.033 H 
ATOM     18  H   LIG d   1       9.517   1.920  -5.570  0.00  0.00     0.033 H 
ATOM     19  H   LIG d   1       8.990   4.899  -5.288  0.00  0.00     0.070 H 
ATOM     20  H   LIG d   1       9.341   4.065  -6.818  0.00  0.00     0.070 H 
ENDROOT
BRANCH   6  21
ATOM     21  C   LIG d   1      12.314   6.258  -0.440  0.00  0.00     0.036 C 
ATOM     22  H   LIG d   1      12.697   5.530   0.128  0.00  0.00     0.039 H 
ATOM     23  H   LIG d   1      13.056   7.047  -0.570  0.00  0.00     0.039 H 
BRANCH  21  24
ATOM     24  C   LIG d   1      11.089   6.826   0.229  0.00  0.00     0.171 C 
ATOM     25  O   LIG d   1      10.404   6.120   0.939  0.00  0.00    -0.292 OA
BRANCH  24  26
ATOM     26  C   LIG d   1      10.725   8.230   0.023  0.00  0.00     0.063 A 
ATOM     27  C   LIG d   1       9.540   8.560  -0.658  0.00  0.00     0.173 A 
ATOM     28  C   LIG d   1       9.208   9.893  -0.846  0.00  0.00     0.201 A 
ATOM     29  C   LIG d   1      10.046  10.891  -0.362  0.00  0.00     0.162 A 
ATOM     30  C   LIG d   1      11.218  10.558   0.311  0.00  0.00    -0.016 A 
ATOM     31  C   LIG d   1      11.554   9.250   0.509  0.00  0.00    -0.044 A 
ATOM     32  H   LIG d   1      11.863  11.340   0.684  0.00  0.00     0.066 H 
ATOM     33  H   LIG d   1      12.463   9.002   1.036  0.00  0.00     0.063 H 
BRANCH  27  34
ATOM     34  O   LIG d   1       8.727   7.580  -1.128  0.00  0.00    -0.503 OA
ATOM     35  H   LIG d   1       7.903   7.905  -1.516  0.00  0.00     0.292 HD
ENDBRANCH  27  34
BRANCH  28  36
ATOM     36  O   LIG d   1       8.062  10.225  -1.504  0.00  0.00    -0.501 OA
ATOM     37  H   LIG d   1       7.361   9.563  -1.429  0.00  0.00     0.292 HD
ENDBRANCH  28  36
BRANCH  29  38
ATOM     38  O   LIG d   1       9.720  12.196  -0.546  0.00  0.00    -0.503 OA
ATOM     39  H   LIG d   1       8.971  12.335  -1.142  0.00  0.00     0.292 HD
ENDBRANCH  29  38
ENDBRANCH  24  26
ENDBRANCH  21  24
ENDBRANCH   6  21
TORSDOF 6
ENDMDL
MODEL 9
REMARK VINA RESULT:      -6.0      6.736      9.218
REMARK  6 active torsions:
REMARK  status: ('A' for Active; 'I' for Inactive)
REMARK    1  A    between atoms: C_6  and  C_7 
REMARK    2  A    between atoms: C_7  and  C_8 
REMARK    3  A    between atoms: C_8  and  C_10 
REMARK    4  A    between atoms: C_13  and  O_18 
REMARK    5  A    between atoms: C_14  and  O_17 
REMARK    6  A    between atoms: C_15  and  O_16 
ROOT
ATOM      1  C   LIG d   1       3.982  -1.346  -7.673  0.00  0.00    -0.054 A 
ATOM      2  C   LIG d   1       4.826  -1.637  -6.614  0.00  0.00    -0.016 A 
ATOM      3  C   LIG d   1       4.668  -0.973  -5.410  0.00  0.00     0.162 A 
ATOM      4  C   LIG d   1       3.667  -0.022  -5.266  0.00  0.00     0.162 A 
ATOM      5  C   LIG d   1       2.825   0.265  -6.326  0.00  0.00    -0.013 A 
ATOM      6  C   LIG d   1       2.986  -0.400  -7.529  0.00  0.00    -0.036 A 
ATOM      7  O   LIG d   1       3.518   0.625  -4.073  0.00  0.00    -0.488 OA
ATOM      8  C   LIG d   1       3.064  -0.174  -2.980  0.00  0.00     0.093 C 
ATOM      9  C   LIG d   1       4.227  -0.893  -2.317  0.00  0.00     0.016 C 
ATOM     10  C   LIG d   1       4.887  -1.904  -3.243  0.00  0.00     0.093 C 
ATOM     11  O   LIG d   1       5.494  -1.248  -4.359  0.00  0.00    -0.488 OA
ATOM     12  H   LIG d   1       4.103  -1.863  -8.614  0.00  0.00     0.062 H 
ATOM     13  H   LIG d   1       5.607  -2.373  -6.730  0.00  0.00     0.066 H 
ATOM     14  H   LIG d   1       2.045   1.005  -6.215  0.00  0.00     0.066 H 
ATOM     15  H   LIG d   1       2.349  -0.910  -3.347  0.00  0.00     0.070 H 
ATOM     16  H   LIG d   1       2.573   0.467  -2.248  0.00  0.00     0.070 H 
ATOM     17  H   LIG d   1       3.862  -1.414  -1.431  0.00  0.00     0.033 H 
ATOM     18  H   LIG d   1       4.970  -0.158  -2.012  0.00  0.00     0.033 H 
ATOM     19  H   LIG d   1       4.133  -2.605  -3.605  0.00  0.00     0.070 H 
ATOM     20  H   LIG d   1       5.650  -2.451  -2.691  0.00  0.00     0.070 H 
ENDROOT
BRANCH   6  21
ATOM     21  C   LIG d   1       2.072  -0.090  -8.687  0.00  0.00     0.036 C 
ATOM     22  H   LIG d   1       1.681  -0.941  -9.041  0.00  0.00     0.039 H 
ATOM     23  H   LIG d   1       1.268   0.565  -8.349  0.00  0.00     0.039 H 
BRANCH  21  24
ATOM     24  C   LIG d   1       2.855   0.595  -9.776  0.00  0.00     0.171 C 
ATOM     25  O   LIG d   1       3.298   1.710  -9.595  0.00  0.00    -0.292 OA
BRANCH  24  26
ATOM     26  C   LIG d   1       3.081  -0.084 -11.054  0.00  0.00     0.063 A 
ATOM     27  C   LIG d   1       4.307   0.067 -11.727  0.00  0.00     0.173 A 
ATOM     28  C   LIG d   1       4.508  -0.582 -12.936  0.00  0.00     0.201 A 
ATOM     29  C   LIG d   1       3.499  -1.374 -13.474  0.00  0.00     0.162 A 
ATOM     30  C   LIG d   1       2.288  -1.519 -12.803  0.00  0.00    -0.016 A 
ATOM     31  C   LIG d   1       2.079  -0.892 -11.609  0.00  0.00    -0.044 A 
ATOM     32  H   LIG d   1       1.510  -2.137 -13.227  0.00  0.00     0.066 H 
ATOM     33  H   LIG d   1       1.138  -1.014 -11.094  0.00  0.00     0.063 H 
BRANCH  27  34
ATOM     34  O   LIG d   1       5.286   0.842 -11.196  0.00  0.00    -0.503 OA
ATOM     35  H   LIG d   1       5.801   0.405 -10.503  0.00  0.00     0.292 HD
ENDBRANCH  27  34
BRANCH  28  36
ATOM     36  O   LIG d   1       5.691  -0.443 -13.596  0.00  0.00    -0.501 OA
ATOM     37  H   LIG d   1       6.442  -0.250 -13.020  0.00  0.00     0.292 HD
ENDBRANCH  28  36
BRANCH  29  38
ATOM     38  O   LIG d   1       3.696  -2.009 -14.657  0.00  0.00    -0.503 OA
ATOM     39  H   LIG d   1       3.694  -1.420 -15.425  0.00  0.00     0.292 HD
ENDBRANCH  29  38
ENDBRANCH  24  26
ENDBRANCH  21  24
ENDBRANCH   6  21
TORSDOF 6
ENDMDL
MODEL 10
REMARK VINA RESULT:      -5.9      4.943      7.817
REMARK  6 active torsions:
REMARK  status: ('A' for Active; 'I' for Inactive)
REMARK    1  A    between atoms: C_6  and  C_7 
REMARK    2  A    between atoms: C_7  and  C_8 
REMARK    3  A    between atoms: C_8  and  C_10 
REMARK    4  A    between atoms: C_13  and  O_18 
REMARK    5  A    between atoms: C_14  and  O_17 
REMARK    6  A    between atoms: C_15  and  O_16 
ROOT
ATOM      1  C   LIG d   1       5.310  -5.289  -5.577  0.00  0.00    -0.054 A 
ATOM      2  C   LIG d   1       5.000  -6.637  -5.541  0.00  0.00    -0.016 A 
ATOM      3  C   LIG d   1       6.011  -7.569  -5.383  0.00  0.00     0.162 A 
ATOM      4  C   LIG d   1       7.328  -7.152  -5.262  0.00  0.00     0.162 A 
ATOM      5  C   LIG d   1       7.635  -5.803  -5.297  0.00  0.00    -0.013 A 
ATOM      6  C   LIG d   1       6.622  -4.873  -5.456  0.00  0.00    -0.036 A 
ATOM      7  O   LIG d   1       8.318  -8.079  -5.105  0.00  0.00    -0.488 OA
ATOM      8  C   LIG d   1       8.318  -8.791  -3.867  0.00  0.00     0.093 C 
ATOM      9  C   LIG d   1       7.369  -9.977  -3.927  0.00  0.00     0.016 C 
ATOM     10  C   LIG d   1       5.918  -9.552  -4.090  0.00  0.00     0.093 C 
ATOM     11  O   LIG d   1       5.719  -8.903  -5.348  0.00  0.00    -0.488 OA
ATOM     12  H   LIG d   1       4.523  -4.559  -5.699  0.00  0.00     0.062 H 
ATOM     13  H   LIG d   1       3.974  -6.961  -5.640  0.00  0.00     0.066 H 
ATOM     14  H   LIG d   1       8.661  -5.476  -5.203  0.00  0.00     0.066 H 
ATOM     15  H   LIG d   1       8.003  -8.120  -3.068  0.00  0.00     0.070 H 
ATOM     16  H   LIG d   1       9.326  -9.148  -3.658  0.00  0.00     0.070 H 
ATOM     17  H   LIG d   1       7.466 -10.554  -3.006  0.00  0.00     0.033 H 
ATOM     18  H   LIG d   1       7.648 -10.610  -4.769  0.00  0.00     0.033 H 
ATOM     19  H   LIG d   1       5.653  -8.864  -3.285  0.00  0.00     0.070 H 
ATOM     20  H   LIG d   1       5.278 -10.431  -4.036  0.00  0.00     0.070 H 
ENDROOT
BRANCH   6  21
ATOM     21  C   LIG d   1       6.951  -3.403  -5.496  0.00  0.00     0.036 C 
ATOM     22  H   LIG d   1       7.808  -3.267  -5.995  0.00  0.00     0.039 H 
ATOM     23  H   LIG d   1       6.148  -2.865  -6.001  0.00  0.00     0.039 H 
BRANCH  21  24
ATOM     24  C   LIG d   1       7.099  -2.882  -4.091  0.00  0.00     0.171 C 
ATOM     25  O   LIG d   1       8.038  -3.235  -3.408  0.00  0.00    -0.292 OA
BRANCH  24  26
ATOM     26  C   LIG d   1       6.110  -1.948  -3.547  0.00  0.00     0.063 A 
ATOM     27  C   LIG d   1       6.450  -0.599  -3.340  0.00  0.00     0.173 A 
ATOM     28  C   LIG d   1       5.503   0.274  -2.825  0.00  0.00     0.201 A 
ATOM     29  C   LIG d   1       4.228  -0.188  -2.518  0.00  0.00     0.162 A 
ATOM     30  C   LIG d   1       3.898  -1.524  -2.726  0.00  0.00    -0.016 A 
ATOM     31  C   LIG d   1       4.817  -2.393  -3.238  0.00  0.00    -0.044 A 
ATOM     32  H   LIG d   1       2.905  -1.875  -2.485  0.00  0.00     0.066 H 
ATOM     33  H   LIG d   1       4.550  -3.427  -3.399  0.00  0.00     0.063 H 
BRANCH  27  34
ATOM     34  O   LIG d   1       7.696  -0.156  -3.642  0.00  0.00    -0.503 OA
ATOM     35  H   LIG d   1       7.724   0.462  -4.386  0.00  0.00     0.292 HD
ENDBRANCH  27  34
BRANCH  28  36
ATOM     36  O   LIG d   1       5.822   1.582  -2.620  0.00  0.00    -0.501 OA
ATOM     37  H   LIG d   1       6.124   1.777  -1.723  0.00  0.00     0.292 HD
ENDBRANCH  28  36
BRANCH  29  38
ATOM     38  O   LIG d   1       3.302   0.666  -2.014  0.00  0.00    -0.503 OA
ATOM     39  H   LIG d   1       2.538   0.804  -2.591  0.00  0.00     0.292 HD
ENDBRANCH  29  38
ENDBRANCH  24  26
ENDBRANCH  21  24
ENDBRANCH   6  21
TORSDOF 6
ENDMDL
