MODEL 1
REMARK VINA RESULT:      -4.8      0.000      0.000
REMARK  9 active torsions:
REMARK  status: ('A' for Active; 'I' for Inactive)
REMARK    1  A    between atoms: C_1  and  C_2 
REMARK    2  A    between atoms: C_2  and  C_3 
REMARK    3  A    between atoms: C_3  and  C_4 
REMARK    4  A    between atoms: C_4  and  C_5 
REMARK    5  A    between atoms: C_5  and  C_6 
REMARK    6  A    between atoms: C_6  and  C_8 
REMARK    7  A    between atoms: C_8  and  C_9 
REMARK    8  A    between atoms: C_9  and  C_10 
REMARK    9  A    between atoms: C_10  and  C_11 
ROOT
ATOM      1  C   LIG d   1       3.531  -0.244  -5.995  0.00  0.00     0.006 C 
ATOM      2  H   LIG d   1       4.435   0.155  -6.147  0.00  0.00     0.034 H 
ATOM      3  H   LIG d   1       3.636  -1.303  -5.760  0.00  0.00     0.034 H 
ENDROOT
BRANCH   1   4
ATOM      4  C   LIG d   1       2.684  -0.083  -7.259  0.00  0.00    -0.046 C 
ATOM      5  H   LIG d   1       2.370  -1.065  -7.613  0.00  0.00     0.027 H 
ATOM      6  H   LIG d   1       1.805   0.520  -7.033  0.00  0.00     0.027 H 
BRANCH   4   7
ATOM      7  C   LIG d   1       3.512   0.608  -8.344  0.00  0.00    -0.053 C 
ATOM      8  H   LIG d   1       4.554   0.658  -8.029  0.00  0.00     0.026 H 
ATOM      9  H   LIG d   1       3.440   0.044  -9.272  0.00  0.00     0.026 H 
BRANCH   7  10
ATOM     10  C   LIG d   1       2.979   2.025  -8.565  0.00  0.00    -0.056 C 
ATOM     11  H   LIG d   1       2.061   1.981  -9.150  0.00  0.00     0.026 H 
ATOM     12  H   LIG d   1       2.774   2.492  -7.601  0.00  0.00     0.026 H 
BRANCH  10  13
ATOM     13  C   LIG d   1       4.024   2.851  -9.320  0.00  0.00    -0.065 C 
ATOM     14  H   LIG d   1       5.023   2.514  -9.042  0.00  0.00     0.023 H 
ATOM     15  H   LIG d   1       3.883   2.723 -10.393  0.00  0.00     0.023 H 
ATOM     16  H   LIG d   1       3.910   3.904  -9.061  0.00  0.00     0.023 H 
ENDBRANCH  10  13
ENDBRANCH   7  10
ENDBRANCH   4   7
ENDBRANCH   1   4
BRANCH   1  17
ATOM     17  C   LIG d   1       2.857   0.461  -4.846  0.00  0.00     0.133 C 
ATOM     18  O   LIG d   1       2.522   1.615  -4.957  0.00  0.00    -0.297 OA
BRANCH  17  19
ATOM     19  C   LIG d   1       2.606  -0.275  -3.555  0.00  0.00     0.006 C 
ATOM     20  H   LIG d   1       1.649  -0.163  -3.288  0.00  0.00     0.034 H 
ATOM     21  H   LIG d   1       2.822  -1.335  -3.692  0.00  0.00     0.034 H 
BRANCH  19  22
ATOM     22  C   LIG d   1       3.512   0.293  -2.460  0.00  0.00    -0.047 C 
ATOM     23  H   LIG d   1       4.163   1.056  -2.887  0.00  0.00     0.027 H 
ATOM     24  H   LIG d   1       2.899   0.736  -1.675  0.00  0.00     0.027 H 
BRANCH  22  25
ATOM     25  C   LIG d   1       4.364  -0.832  -1.869  0.00  0.00    -0.056 C 
ATOM     26  H   LIG d   1       5.407  -0.684  -2.151  0.00  0.00     0.026 H 
ATOM     27  H   LIG d   1       4.277  -0.823  -0.783  0.00  0.00     0.026 H 
BRANCH  25  28
ATOM     28  C   LIG d   1       3.876  -2.178  -2.408  0.00  0.00    -0.065 C 
ATOM     29  H   LIG d   1       2.828  -2.318  -2.142  0.00  0.00     0.023 H 
ATOM     30  H   LIG d   1       3.981  -2.195  -3.493  0.00  0.00     0.023 H 
ATOM     31  H   LIG d   1       4.471  -2.981  -1.974  0.00  0.00     0.023 H 
ENDBRANCH  25  28
ENDBRANCH  22  25
ENDBRANCH  19  22
ENDBRANCH  17  19
ENDBRANCH   1  17
TORSDOF 9
ENDMDL
MODEL 2
REMARK VINA RESULT:      -4.6      2.492      5.228
REMARK  9 active torsions:
REMARK  status: ('A' for Active; 'I' for Inactive)
REMARK    1  A    between atoms: C_1  and  C_2 
REMARK    2  A    between atoms: C_2  and  C_3 
REMARK    3  A    between atoms: C_3  and  C_4 
REMARK    4  A    between atoms: C_4  and  C_5 
REMARK    5  A    between atoms: C_5  and  C_6 
REMARK    6  A    between atoms: C_6  and  C_8 
REMARK    7  A    between atoms: C_8  and  C_9 
REMARK    8  A    between atoms: C_9  and  C_10 
REMARK    9  A    between atoms: C_10  and  C_11 
ROOT
ATOM      1  C   LIG d   1       4.476  -2.587  -3.407  0.00  0.00     0.006 C 
ATOM      2  H   LIG d   1       3.805  -2.575  -4.146  0.00  0.00     0.034 H 
ATOM      3  H   LIG d   1       4.615  -3.611  -3.058  0.00  0.00     0.034 H 
ENDROOT
BRANCH   1   4
ATOM      4  C   LIG d   1       3.977  -1.718  -2.250  0.00  0.00    -0.046 C 
ATOM      5  H   LIG d   1       3.567  -2.355  -1.467  0.00  0.00     0.027 H 
ATOM      6  H   LIG d   1       4.808  -1.137  -1.848  0.00  0.00     0.027 H 
BRANCH   4   7
ATOM      7  C   LIG d   1       2.890  -0.769  -2.757  0.00  0.00    -0.053 C 
ATOM      8  H   LIG d   1       2.654  -1.009  -3.794  0.00  0.00     0.026 H 
ATOM      9  H   LIG d   1       1.995  -0.882  -2.147  0.00  0.00     0.026 H 
BRANCH   7  10
ATOM     10  C   LIG d   1       3.390   0.674  -2.669  0.00  0.00    -0.056 C 
ATOM     11  H   LIG d   1       3.716   1.006  -3.655  0.00  0.00     0.026 H 
ATOM     12  H   LIG d   1       2.585   1.318  -2.316  0.00  0.00     0.026 H 
BRANCH  10  13
ATOM     13  C   LIG d   1       4.567   0.747  -1.693  0.00  0.00    -0.065 C 
ATOM     14  H   LIG d   1       5.031   1.731  -1.757  0.00  0.00     0.023 H 
ATOM     15  H   LIG d   1       4.208   0.580  -0.678  0.00  0.00     0.023 H 
ATOM     16  H   LIG d   1       5.300  -0.019  -1.950  0.00  0.00     0.023 H 
ENDBRANCH  10  13
ENDBRANCH   7  10
ENDBRANCH   4   7
ENDBRANCH   1   4
BRANCH   1  17
ATOM     17  C   LIG d   1       5.790  -2.047  -3.910  0.00  0.00     0.133 C 
ATOM     18  O   LIG d   1       6.691  -1.831  -3.136  0.00  0.00    -0.297 OA
BRANCH  17  19
ATOM     19  C   LIG d   1       5.975  -1.768  -5.379  0.00  0.00     0.006 C 
ATOM     20  H   LIG d   1       6.951  -1.683  -5.582  0.00  0.00     0.034 H 
ATOM     21  H   LIG d   1       5.554  -2.587  -5.961  0.00  0.00     0.034 H 
BRANCH  19  22
ATOM     22  C   LIG d   1       5.263  -0.464  -5.745  0.00  0.00    -0.047 C 
ATOM     23  H   LIG d   1       4.906   0.023  -4.836  0.00  0.00     0.027 H 
ATOM     24  H   LIG d   1       5.958   0.198  -6.262  0.00  0.00     0.027 H 
BRANCH  22  25
ATOM     25  C   LIG d   1       4.074  -0.770  -6.658  0.00  0.00    -0.056 C 
ATOM     26  H   LIG d   1       4.383  -0.677  -7.700  0.00  0.00     0.026 H 
ATOM     27  H   LIG d   1       3.725  -1.786  -6.473  0.00  0.00     0.026 H 
BRANCH  25  28
ATOM     28  C   LIG d   1       2.943   0.218  -6.371  0.00  0.00    -0.065 C 
ATOM     29  H   LIG d   1       3.183   0.798  -5.479  0.00  0.00     0.023 H 
ATOM     30  H   LIG d   1       2.824   0.891  -7.221  0.00  0.00     0.023 H 
ATOM     31  H   LIG d   1       2.014  -0.328  -6.209  0.00  0.00     0.023 H 
ENDBRANCH  25  28
ENDBRANCH  22  25
ENDBRANCH  19  22
ENDBRANCH  17  19
ENDBRANCH   1  17
TORSDOF 9
ENDMDL
MODEL 3
REMARK VINA RESULT:      -4.6      1.386      5.457
REMARK  9 active torsions:
REMARK  status: ('A' for Active; 'I' for Inactive)
REMARK    1  A    between atoms: C_1  and  C_2 
REMARK    2  A    between atoms: C_2  and  C_3 
REMARK    3  A    between atoms: C_3  and  C_4 
REMARK    4  A    between atoms: C_4  and  C_5 
REMARK    5  A    between atoms: C_5  and  C_6 
REMARK    6  A    between atoms: C_6  and  C_8 
REMARK    7  A    between atoms: C_8  and  C_9 
REMARK    8  A    between atoms: C_9  and  C_10 
REMARK    9  A    between atoms: C_10  and  C_11 
ROOT
ATOM      1  C   LIG d   1       3.959  -1.507  -4.482  0.00  0.00     0.006 C 
ATOM      2  H   LIG d   1       3.410  -2.228  -4.902  0.00  0.00     0.034 H 
ATOM      3  H   LIG d   1       4.932  -1.908  -4.199  0.00  0.00     0.034 H 
ENDROOT
BRANCH   1   4
ATOM      4  C   LIG d   1       3.243  -0.981  -3.235  0.00  0.00    -0.046 C 
ATOM      5  H   LIG d   1       2.891   0.033  -3.419  0.00  0.00     0.027 H 
ATOM      6  H   LIG d   1       2.394  -1.625  -3.006  0.00  0.00     0.027 H 
BRANCH   4   7
ATOM      7  C   LIG d   1       4.214  -0.978  -2.053  0.00  0.00    -0.053 C 
ATOM      8  H   LIG d   1       3.732  -1.428  -1.185  0.00  0.00     0.026 H 
ATOM      9  H   LIG d   1       5.104  -1.551  -2.311  0.00  0.00     0.026 H 
BRANCH   7  10
ATOM     10  C   LIG d   1       4.612   0.462  -1.724  0.00  0.00    -0.056 C 
ATOM     11  H   LIG d   1       4.618   0.600  -0.643  0.00  0.00     0.026 H 
ATOM     12  H   LIG d   1       5.606   0.665  -2.123  0.00  0.00     0.026 H 
BRANCH  10  13
ATOM     13  C   LIG d   1       3.604   1.426  -2.354  0.00  0.00    -0.065 C 
ATOM     14  H   LIG d   1       3.964   1.740  -3.334  0.00  0.00     0.023 H 
ATOM     15  H   LIG d   1       2.642   0.926  -2.465  0.00  0.00     0.023 H 
ATOM     16  H   LIG d   1       3.487   2.300  -1.712  0.00  0.00     0.023 H 
ENDBRANCH  10  13
ENDBRANCH   7  10
ENDBRANCH   4   7
ENDBRANCH   1   4
BRANCH   1  17
ATOM     17  C   LIG d   1       4.147  -0.380  -5.464  0.00  0.00     0.133 C 
ATOM     18  O   LIG d   1       5.252   0.056  -5.681  0.00  0.00    -0.297 OA
BRANCH  17  19
ATOM     19  C   LIG d   1       2.954   0.209  -6.171  0.00  0.00     0.006 C 
ATOM     20  H   LIG d   1       2.167  -0.398  -6.058  0.00  0.00     0.034 H 
ATOM     21  H   LIG d   1       2.723   1.186  -5.745  0.00  0.00     0.034 H 
BRANCH  19  22
ATOM     22  C   LIG d   1       3.269   0.364  -7.661  0.00  0.00    -0.047 C 
ATOM     23  H   LIG d   1       4.346   0.296  -7.814  0.00  0.00     0.027 H 
ATOM     24  H   LIG d   1       2.772  -0.428  -8.221  0.00  0.00     0.027 H 
BRANCH  22  25
ATOM     25  C   LIG d   1       2.770   1.726  -8.149  0.00  0.00    -0.056 C 
ATOM     26  H   LIG d   1       1.833   1.596  -8.690  0.00  0.00     0.026 H 
ATOM     27  H   LIG d   1       2.608   2.382  -7.293  0.00  0.00     0.026 H 
BRANCH  25  28
ATOM     28  C   LIG d   1       3.814   2.348  -9.078  0.00  0.00    -0.065 C 
ATOM     29  H   LIG d   1       4.352   1.557  -9.602  0.00  0.00     0.023 H 
ATOM     30  H   LIG d   1       3.317   2.992  -9.803  0.00  0.00     0.023 H 
ATOM     31  H   LIG d   1       4.519   2.937  -8.491  0.00  0.00     0.023 H 
ENDBRANCH  25  28
ENDBRANCH  22  25
ENDBRANCH  19  22
ENDBRANCH  17  19
ENDBRANCH   1  17
TORSDOF 9
ENDMDL
MODEL 4
REMARK VINA RESULT:      -4.6      1.755      2.334
REMARK  9 active torsions:
REMARK  status: ('A' for Active; 'I' for Inactive)
REMARK    1  A    between atoms: C_1  and  C_2 
REMARK    2  A    between atoms: C_2  and  C_3 
REMARK    3  A    between atoms: C_3  and  C_4 
REMARK    4  A    between atoms: C_4  and  C_5 
REMARK    5  A    between atoms: C_5  and  C_6 
REMARK    6  A    between atoms: C_6  and  C_8 
REMARK    7  A    between atoms: C_8  and  C_9 
REMARK    8  A    between atoms: C_9  and  C_10 
REMARK    9  A    between atoms: C_10  and  C_11 
ROOT
ATOM      1  C   LIG d   1       4.354  -0.846  -5.424  0.00  0.00     0.006 C 
ATOM      2  H   LIG d   1       5.171  -0.318  -5.196  0.00  0.00     0.034 H 
ATOM      3  H   LIG d   1       4.551  -1.462  -6.301  0.00  0.00     0.034 H 
ENDROOT
BRANCH   1   4
ATOM      4  C   LIG d   1       3.196   0.110  -5.722  0.00  0.00    -0.046 C 
ATOM      5  H   LIG d   1       2.355  -0.124  -5.069  0.00  0.00     0.027 H 
ATOM      6  H   LIG d   1       3.519   1.136  -5.545  0.00  0.00     0.027 H 
BRANCH   4   7
ATOM      7  C   LIG d   1       2.769  -0.047  -7.182  0.00  0.00    -0.053 C 
ATOM      8  H   LIG d   1       2.853  -1.093  -7.475  0.00  0.00     0.026 H 
ATOM      9  H   LIG d   1       1.735   0.279  -7.295  0.00  0.00     0.026 H 
BRANCH   7  10
ATOM     10  C   LIG d   1       3.674   0.806  -8.072  0.00  0.00    -0.056 C 
ATOM     11  H   LIG d   1       4.558   1.107  -7.510  0.00  0.00     0.026 H 
ATOM     12  H   LIG d   1       3.977   0.227  -8.945  0.00  0.00     0.026 H 
BRANCH  10  13
ATOM     13  C   LIG d   1       2.912   2.053  -8.529  0.00  0.00    -0.065 C 
ATOM     14  H   LIG d   1       3.615   2.778  -8.941  0.00  0.00     0.023 H 
ATOM     15  H   LIG d   1       2.186   1.776  -9.293  0.00  0.00     0.023 H 
ATOM     16  H   LIG d   1       2.393   2.493  -7.677  0.00  0.00     0.023 H 
ENDBRANCH  10  13
ENDBRANCH   7  10
ENDBRANCH   4   7
ENDBRANCH   1   4
BRANCH   1  17
ATOM     17  C   LIG d   1       3.987  -1.732  -4.262  0.00  0.00     0.133 C 
ATOM     18  O   LIG d   1       4.253  -2.909  -4.290  0.00  0.00    -0.297 OA
BRANCH  17  19
ATOM     19  C   LIG d   1       3.279  -1.149  -3.066  0.00  0.00     0.006 C 
ATOM     20  H   LIG d   1       2.903  -0.253  -3.305  0.00  0.00     0.034 H 
ATOM     21  H   LIG d   1       2.470  -1.813  -2.761  0.00  0.00     0.034 H 
BRANCH  19  22
ATOM     22  C   LIG d   1       4.272  -0.993  -1.911  0.00  0.00    -0.047 C 
ATOM     23  H   LIG d   1       3.794  -1.294  -0.978  0.00  0.00     0.027 H 
ATOM     24  H   LIG d   1       5.142  -1.623  -2.093  0.00  0.00     0.027 H 
BRANCH  22  25
ATOM     25  C   LIG d   1       4.712   0.469  -1.811  0.00  0.00    -0.056 C 
ATOM     26  H   LIG d   1       4.924   0.713  -0.770  0.00  0.00     0.026 H 
ATOM     27  H   LIG d   1       5.609   0.622  -2.410  0.00  0.00     0.026 H 
BRANCH  25  28
ATOM     28  C   LIG d   1       3.592   1.374  -2.328  0.00  0.00    -0.065 C 
ATOM     29  H   LIG d   1       2.987   0.827  -3.052  0.00  0.00     0.023 H 
ATOM     30  H   LIG d   1       2.965   1.690  -1.494  0.00  0.00     0.023 H 
ATOM     31  H   LIG d   1       4.026   2.252  -2.808  0.00  0.00     0.023 H 
ENDBRANCH  25  28
ENDBRANCH  22  25
ENDBRANCH  19  22
ENDBRANCH  17  19
ENDBRANCH   1  17
TORSDOF 9
ENDMDL
MODEL 5
REMARK VINA RESULT:      -4.6      3.545      4.281
REMARK  9 active torsions:
REMARK  status: ('A' for Active; 'I' for Inactive)
REMARK    1  A    between atoms: C_1  and  C_2 
REMARK    2  A    between atoms: C_2  and  C_3 
REMARK    3  A    between atoms: C_3  and  C_4 
REMARK    4  A    between atoms: C_4  and  C_5 
REMARK    5  A    between atoms: C_5  and  C_6 
REMARK    6  A    between atoms: C_6  and  C_8 
REMARK    7  A    between atoms: C_8  and  C_9 
REMARK    8  A    between atoms: C_9  and  C_10 
REMARK    9  A    between atoms: C_10  and  C_11 
ROOT
ATOM      1  C   LIG d   1       6.030  -1.998  -3.896  0.00  0.00     0.006 C 
ATOM      2  H   LIG d   1       6.392  -1.334  -3.243  0.00  0.00     0.034 H 
ATOM      3  H   LIG d   1       6.715  -2.841  -3.976  0.00  0.00     0.034 H 
ENDROOT
BRANCH   1   4
ATOM      4  C   LIG d   1       5.878  -1.333  -5.267  0.00  0.00    -0.046 C 
ATOM      5  H   LIG d   1       6.225  -2.016  -6.042  0.00  0.00     0.027 H 
ATOM      6  H   LIG d   1       4.829  -1.091  -5.438  0.00  0.00     0.027 H 
BRANCH   4   7
ATOM      7  C   LIG d   1       6.711  -0.051  -5.307  0.00  0.00    -0.053 C 
ATOM      8  H   LIG d   1       7.543  -0.180  -5.998  0.00  0.00     0.026 H 
ATOM      9  H   LIG d   1       6.087   0.778  -5.641  0.00  0.00     0.026 H 
BRANCH   7  10
ATOM     10  C   LIG d   1       7.252   0.249  -3.908  0.00  0.00    -0.056 C 
ATOM     11  H   LIG d   1       6.469   0.073  -3.170  0.00  0.00     0.026 H 
ATOM     12  H   LIG d   1       8.102  -0.401  -3.699  0.00  0.00     0.026 H 
BRANCH  10  13
ATOM     13  C   LIG d   1       7.699   1.711  -3.837  0.00  0.00    -0.065 C 
ATOM     14  H   LIG d   1       8.334   1.939  -4.693  0.00  0.00     0.023 H 
ATOM     15  H   LIG d   1       6.823   2.360  -3.851  0.00  0.00     0.023 H 
ATOM     16  H   LIG d   1       8.258   1.875  -2.915  0.00  0.00     0.023 H 
ENDBRANCH  10  13
ENDBRANCH   7  10
ENDBRANCH   4   7
ENDBRANCH   1   4
BRANCH   1  17
ATOM     17  C   LIG d   1       4.685  -2.487  -3.424  0.00  0.00     0.133 C 
ATOM     18  O   LIG d   1       4.154  -3.420  -3.975  0.00  0.00    -0.297 OA
BRANCH  17  19
ATOM     19  C   LIG d   1       3.999  -1.804  -2.269  0.00  0.00     0.006 C 
ATOM     20  H   LIG d   1       3.573  -2.492  -1.681  0.00  0.00     0.034 H 
ATOM     21  H   LIG d   1       4.732  -1.239  -1.693  0.00  0.00     0.034 H 
BRANCH  19  22
ATOM     22  C   LIG d   1       2.926  -0.853  -2.802  0.00  0.00    -0.047 C 
ATOM     23  H   LIG d   1       2.607  -1.183  -3.791  0.00  0.00     0.027 H 
ATOM     24  H   LIG d   1       2.071  -0.854  -2.126  0.00  0.00     0.027 H 
BRANCH  22  25
ATOM     25  C   LIG d   1       3.500   0.562  -2.898  0.00  0.00    -0.056 C 
ATOM     26  H   LIG d   1       4.076   0.659  -3.819  0.00  0.00     0.026 H 
ATOM     27  H   LIG d   1       2.685   1.286  -2.901  0.00  0.00     0.026 H 
BRANCH  25  28
ATOM     28  C   LIG d   1       4.410   0.825  -1.697  0.00  0.00    -0.065 C 
ATOM     29  H   LIG d   1       5.266   1.423  -2.013  0.00  0.00     0.023 H 
ATOM     30  H   LIG d   1       3.854   1.363  -0.930  0.00  0.00     0.023 H 
ATOM     31  H   LIG d   1       4.761  -0.124  -1.292  0.00  0.00     0.023 H 
ENDBRANCH  25  28
ENDBRANCH  22  25
ENDBRANCH  19  22
ENDBRANCH  17  19
ENDBRANCH   1  17
TORSDOF 9
ENDMDL
MODEL 6
REMARK VINA RESULT:      -4.6      1.745      4.959
REMARK  9 active torsions:
REMARK  status: ('A' for Active; 'I' for Inactive)
REMARK    1  A    between atoms: C_1  and  C_2 
REMARK    2  A    between atoms: C_2  and  C_3 
REMARK    3  A    between atoms: C_3  and  C_4 
REMARK    4  A    between atoms: C_4  and  C_5 
REMARK    5  A    between atoms: C_5  and  C_6 
REMARK    6  A    between atoms: C_6  and  C_8 
REMARK    7  A    between atoms: C_8  and  C_9 
REMARK    8  A    between atoms: C_9  and  C_10 
REMARK    9  A    between atoms: C_10  and  C_11 
ROOT
ATOM      1  C   LIG d   1       4.348  -0.820  -2.013  0.00  0.00     0.006 C 
ATOM      2  H   LIG d   1       5.251  -0.607  -2.384  0.00  0.00     0.034 H 
ATOM      3  H   LIG d   1       4.378  -0.760  -0.926  0.00  0.00     0.034 H 
ENDROOT
BRANCH   1   4
ATOM      4  C   LIG d   1       3.944  -2.235  -2.435  0.00  0.00    -0.046 C 
ATOM      5  H   LIG d   1       4.049  -2.911  -1.586  0.00  0.00     0.027 H 
ATOM      6  H   LIG d   1       2.908  -2.231  -2.771  0.00  0.00     0.027 H 
BRANCH   4   7
ATOM      7  C   LIG d   1       4.849  -2.705  -3.575  0.00  0.00    -0.053 C 
ATOM      8  H   LIG d   1       5.016  -3.778  -3.488  0.00  0.00     0.026 H 
ATOM      9  H   LIG d   1       4.372  -2.489  -4.531  0.00  0.00     0.026 H 
BRANCH   7  10
ATOM     10  C   LIG d   1       6.190  -1.973  -3.496  0.00  0.00    -0.056 C 
ATOM     11  H   LIG d   1       6.099  -0.996  -3.970  0.00  0.00     0.026 H 
ATOM     12  H   LIG d   1       6.474  -1.845  -2.451  0.00  0.00     0.026 H 
BRANCH  10  13
ATOM     13  C   LIG d   1       7.262  -2.792  -4.219  0.00  0.00    -0.065 C 
ATOM     14  H   LIG d   1       6.787  -3.597  -4.780  0.00  0.00     0.023 H 
ATOM     15  H   LIG d   1       7.811  -2.147  -4.905  0.00  0.00     0.023 H 
ATOM     16  H   LIG d   1       7.951  -3.215  -3.488  0.00  0.00     0.023 H 
ENDBRANCH  10  13
ENDBRANCH   7  10
ENDBRANCH   4   7
ENDBRANCH   1   4
BRANCH   1  17
ATOM     17  C   LIG d   1       3.340   0.168  -2.543  0.00  0.00     0.133 C 
ATOM     18  O   LIG d   1       3.311   1.294  -2.109  0.00  0.00    -0.297 OA
BRANCH  17  19
ATOM     19  C   LIG d   1       2.363  -0.254  -3.610  0.00  0.00     0.006 C 
ATOM     20  H   LIG d   1       2.526  -1.210  -3.853  0.00  0.00     0.034 H 
ATOM     21  H   LIG d   1       1.345  -0.143  -3.237  0.00  0.00     0.034 H 
BRANCH  19  22
ATOM     22  C   LIG d   1       2.551   0.625  -4.849  0.00  0.00    -0.047 C 
ATOM     23  H   LIG d   1       1.579   0.828  -5.301  0.00  0.00     0.027 H 
ATOM     24  H   LIG d   1       3.020   1.566  -4.560  0.00  0.00     0.027 H 
BRANCH  22  25
ATOM     25  C   LIG d   1       3.440  -0.100  -5.860  0.00  0.00    -0.056 C 
ATOM     26  H   LIG d   1       4.447   0.316  -5.822  0.00  0.00     0.026 H 
ATOM     27  H   LIG d   1       3.477  -1.162  -5.617  0.00  0.00     0.026 H 
BRANCH  25  28
ATOM     28  C   LIG d   1       2.867   0.081  -7.266  0.00  0.00    -0.065 C 
ATOM     29  H   LIG d   1       3.531   0.720  -7.851  0.00  0.00     0.023 H 
ATOM     30  H   LIG d   1       2.778  -0.891  -7.751  0.00  0.00     0.023 H 
ATOM     31  H   LIG d   1       1.883   0.545  -7.201  0.00  0.00     0.023 H 
ENDBRANCH  25  28
ENDBRANCH  22  25
ENDBRANCH  19  22
ENDBRANCH  17  19
ENDBRANCH   1  17
TORSDOF 9
ENDMDL
MODEL 7
REMARK VINA RESULT:      -4.6      3.891      5.221
REMARK  9 active torsions:
REMARK  status: ('A' for Active; 'I' for Inactive)
REMARK    1  A    between atoms: C_1  and  C_2 
REMARK    2  A    between atoms: C_2  and  C_3 
REMARK    3  A    between atoms: C_3  and  C_4 
REMARK    4  A    between atoms: C_4  and  C_5 
REMARK    5  A    between atoms: C_5  and  C_6 
REMARK    6  A    between atoms: C_6  and  C_8 
REMARK    7  A    between atoms: C_8  and  C_9 
REMARK    8  A    between atoms: C_9  and  C_10 
REMARK    9  A    between atoms: C_10  and  C_11 
ROOT
ATOM      1  C   LIG d   1       4.401  -2.536  -3.397  0.00  0.00     0.006 C 
ATOM      2  H   LIG d   1       3.640  -2.694  -4.025  0.00  0.00     0.034 H 
ATOM      3  H   LIG d   1       4.713  -3.484  -2.958  0.00  0.00     0.034 H 
ENDROOT
BRANCH   1   4
ATOM      4  C   LIG d   1       3.955  -1.583  -2.285  0.00  0.00    -0.046 C 
ATOM      5  H   LIG d   1       3.501  -2.155  -1.476  0.00  0.00     0.027 H 
ATOM      6  H   LIG d   1       4.819  -1.039  -1.905  0.00  0.00     0.027 H 
BRANCH   4   7
ATOM      7  C   LIG d   1       2.933  -0.591  -2.843  0.00  0.00    -0.053 C 
ATOM      8  H   LIG d   1       2.754  -0.808  -3.896  0.00  0.00     0.026 H 
ATOM      9  H   LIG d   1       1.998  -0.682  -2.291  0.00  0.00     0.026 H 
BRANCH   7  10
ATOM     10  C   LIG d   1       3.474   0.832  -2.701  0.00  0.00    -0.056 C 
ATOM     11  H   LIG d   1       3.943   1.138  -3.636  0.00  0.00     0.026 H 
ATOM     12  H   LIG d   1       2.654   1.512  -2.467  0.00  0.00     0.026 H 
BRANCH  10  13
ATOM     13  C   LIG d   1       4.509   0.875  -1.574  0.00  0.00    -0.065 C 
ATOM     14  H   LIG d   1       4.152   1.528  -0.778  0.00  0.00     0.023 H 
ATOM     15  H   LIG d   1       4.658  -0.130  -1.180  0.00  0.00     0.023 H 
ATOM     16  H   LIG d   1       5.453   1.257  -1.963  0.00  0.00     0.023 H 
ENDBRANCH  10  13
ENDBRANCH   7  10
ENDBRANCH   4   7
ENDBRANCH   1   4
BRANCH   1  17
ATOM     17  C   LIG d   1       5.556  -1.925  -4.147  0.00  0.00     0.133 C 
ATOM     18  O   LIG d   1       5.513  -1.829  -5.349  0.00  0.00    -0.297 OA
BRANCH  17  19
ATOM     19  C   LIG d   1       6.769  -1.442  -3.395  0.00  0.00     0.006 C 
ATOM     20  H   LIG d   1       6.483  -1.023  -2.533  0.00  0.00     0.034 H 
ATOM     21  H   LIG d   1       7.429  -2.284  -3.188  0.00  0.00     0.034 H 
BRANCH  19  22
ATOM     22  C   LIG d   1       7.515  -0.407  -4.242  0.00  0.00    -0.047 C 
ATOM     23  H   LIG d   1       8.589  -0.545  -4.121  0.00  0.00     0.027 H 
ATOM     24  H   LIG d   1       7.248  -0.536  -5.291  0.00  0.00     0.027 H 
BRANCH  22  25
ATOM     25  C   LIG d   1       7.127   1.001  -3.785  0.00  0.00    -0.056 C 
ATOM     26  H   LIG d   1       6.353   1.396  -4.444  0.00  0.00     0.026 H 
ATOM     27  H   LIG d   1       6.749   0.961  -2.764  0.00  0.00     0.026 H 
BRANCH  25  28
ATOM     28  C   LIG d   1       8.356   1.910  -3.838  0.00  0.00    -0.065 C 
ATOM     29  H   LIG d   1       8.050   2.945  -3.681  0.00  0.00     0.023 H 
ATOM     30  H   LIG d   1       9.060   1.617  -3.059  0.00  0.00     0.023 H 
ATOM     31  H   LIG d   1       8.835   1.818  -4.813  0.00  0.00     0.023 H 
ENDBRANCH  25  28
ENDBRANCH  22  25
ENDBRANCH  19  22
ENDBRANCH  17  19
ENDBRANCH   1  17
TORSDOF 9
ENDMDL
MODEL 8
REMARK VINA RESULT:      -4.5      1.591      2.117
REMARK  9 active torsions:
REMARK  status: ('A' for Active; 'I' for Inactive)
REMARK    1  A    between atoms: C_1  and  C_2 
REMARK    2  A    between atoms: C_2  and  C_3 
REMARK    3  A    between atoms: C_3  and  C_4 
REMARK    4  A    between atoms: C_4  and  C_5 
REMARK    5  A    between atoms: C_5  and  C_6 
REMARK    6  A    between atoms: C_6  and  C_8 
REMARK    7  A    between atoms: C_8  and  C_9 
REMARK    8  A    between atoms: C_9  and  C_10 
REMARK    9  A    between atoms: C_10  and  C_11 
ROOT
ATOM      1  C   LIG d   1       2.421   0.424  -4.799  0.00  0.00     0.006 C 
ATOM      2  H   LIG d   1       1.538  -0.012  -4.967  0.00  0.00     0.034 H 
ATOM      3  H   LIG d   1       2.312   1.506  -4.874  0.00  0.00     0.034 H 
ENDROOT
BRANCH   1   4
ATOM      4  C   LIG d   1       3.435  -0.059  -5.840  0.00  0.00    -0.046 C 
ATOM      5  H   LIG d   1       4.308   0.593  -5.826  0.00  0.00     0.027 H 
ATOM      6  H   LIG d   1       3.738  -1.079  -5.605  0.00  0.00     0.027 H 
BRANCH   4   7
ATOM      7  C   LIG d   1       2.794  -0.024  -7.229  0.00  0.00    -0.053 C 
ATOM      8  H   LIG d   1       2.732  -1.037  -7.626  0.00  0.00     0.026 H 
ATOM      9  H   LIG d   1       1.793   0.400  -7.158  0.00  0.00     0.026 H 
BRANCH   7  10
ATOM     10  C   LIG d   1       3.648   0.836  -8.162  0.00  0.00    -0.056 C 
ATOM     11  H   LIG d   1       4.574   1.111  -7.658  0.00  0.00     0.026 H 
ATOM     12  H   LIG d   1       3.881   0.273  -9.066  0.00  0.00     0.026 H 
BRANCH  10  13
ATOM     13  C   LIG d   1       2.877   2.104  -8.536  0.00  0.00    -0.065 C 
ATOM     14  H   LIG d   1       1.808   1.931  -8.406  0.00  0.00     0.023 H 
ATOM     15  H   LIG d   1       3.193   2.925  -7.892  0.00  0.00     0.023 H 
ATOM     16  H   LIG d   1       3.081   2.360  -9.576  0.00  0.00     0.023 H 
ENDBRANCH  10  13
ENDBRANCH   7  10
ENDBRANCH   4   7
ENDBRANCH   1   4
BRANCH   1  17
ATOM     17  C   LIG d   1       2.908   0.062  -3.420  0.00  0.00     0.133 C 
ATOM     18  O   LIG d   1       2.871  -1.085  -3.047  0.00  0.00    -0.297 OA
BRANCH  17  19
ATOM     19  C   LIG d   1       3.435   1.136  -2.503  0.00  0.00     0.006 C 
ATOM     20  H   LIG d   1       3.545   1.988  -3.015  0.00  0.00     0.034 H 
ATOM     21  H   LIG d   1       2.733   1.292  -1.684  0.00  0.00     0.034 H 
BRANCH  19  22
ATOM     22  C   LIG d   1       4.789   0.703  -1.936  0.00  0.00    -0.047 C 
ATOM     23  H   LIG d   1       5.017   1.292  -1.048  0.00  0.00     0.027 H 
ATOM     24  H   LIG d   1       4.751  -0.354  -1.671  0.00  0.00     0.027 H 
BRANCH  22  25
ATOM     25  C   LIG d   1       5.877   0.927  -2.988  0.00  0.00    -0.056 C 
ATOM     26  H   LIG d   1       5.426   1.320  -3.899  0.00  0.00     0.026 H 
ATOM     27  H   LIG d   1       6.610   1.640  -2.609  0.00  0.00     0.026 H 
BRANCH  25  28
ATOM     28  C   LIG d   1       6.571  -0.402  -3.295  0.00  0.00    -0.065 C 
ATOM     29  H   LIG d   1       7.460  -0.217  -3.898  0.00  0.00     0.023 H 
ATOM     30  H   LIG d   1       6.859  -0.885  -2.361  0.00  0.00     0.023 H 
ATOM     31  H   LIG d   1       5.888  -1.051  -3.844  0.00  0.00     0.023 H 
ENDBRANCH  25  28
ENDBRANCH  22  25
ENDBRANCH  19  22
ENDBRANCH  17  19
ENDBRANCH   1  17
TORSDOF 9
ENDMDL
MODEL 9
REMARK VINA RESULT:      -4.5      2.920      4.454
REMARK  9 active torsions:
REMARK  status: ('A' for Active; 'I' for Inactive)
REMARK    1  A    between atoms: C_1  and  C_2 
REMARK    2  A    between atoms: C_2  and  C_3 
REMARK    3  A    between atoms: C_3  and  C_4 
REMARK    4  A    between atoms: C_4  and  C_5 
REMARK    5  A    between atoms: C_5  and  C_6 
REMARK    6  A    between atoms: C_6  and  C_8 
REMARK    7  A    between atoms: C_8  and  C_9 
REMARK    8  A    between atoms: C_9  and  C_10 
REMARK    9  A    between atoms: C_10  and  C_11 
ROOT
ATOM      1  C   LIG d   1       6.701  -0.406  -3.436  0.00  0.00     0.006 C 
ATOM      2  H   LIG d   1       6.724  -0.325  -4.431  0.00  0.00     0.034 H 
ATOM      3  H   LIG d   1       7.708  -0.288  -3.037  0.00  0.00     0.034 H 
ENDROOT
BRANCH   1   4
ATOM      4  C   LIG d   1       6.158  -1.785  -3.048  0.00  0.00    -0.046 C 
ATOM      5  H   LIG d   1       6.753  -2.192  -2.231  0.00  0.00     0.027 H 
ATOM      6  H   LIG d   1       5.120  -1.690  -2.731  0.00  0.00     0.027 H 
BRANCH   4   7
ATOM      7  C   LIG d   1       6.240  -2.721  -4.255  0.00  0.00    -0.053 C 
ATOM      8  H   LIG d   1       6.864  -2.269  -5.025  0.00  0.00     0.026 H 
ATOM      9  H   LIG d   1       6.675  -3.672  -3.949  0.00  0.00     0.026 H 
BRANCH   7  10
ATOM     10  C   LIG d   1       4.835  -2.958  -4.812  0.00  0.00    -0.056 C 
ATOM     11  H   LIG d   1       4.647  -4.029  -4.881  0.00  0.00     0.026 H 
ATOM     12  H   LIG d   1       4.099  -2.501  -4.151  0.00  0.00     0.026 H 
BRANCH  10  13
ATOM     13  C   LIG d   1       4.727  -2.332  -6.205  0.00  0.00    -0.065 C 
ATOM     14  H   LIG d   1       5.557  -1.642  -6.359  0.00  0.00     0.023 H 
ATOM     15  H   LIG d   1       4.761  -3.117  -6.960  0.00  0.00     0.023 H 
ATOM     16  H   LIG d   1       3.784  -1.790  -6.287  0.00  0.00     0.023 H 
ENDBRANCH  10  13
ENDBRANCH   7  10
ENDBRANCH   4   7
ENDBRANCH   1   4
BRANCH   1  17
ATOM     17  C   LIG d   1       5.806   0.663  -2.864  0.00  0.00     0.133 C 
ATOM     18  O   LIG d   1       5.968   1.818  -3.177  0.00  0.00    -0.297 OA
BRANCH  17  19
ATOM     19  C   LIG d   1       4.712   0.291  -1.896  0.00  0.00     0.006 C 
ATOM     20  H   LIG d   1       4.683  -0.704  -1.793  0.00  0.00     0.034 H 
ATOM     21  H   LIG d   1       4.912   0.750  -0.928  0.00  0.00     0.034 H 
BRANCH  19  22
ATOM     22  C   LIG d   1       3.367   0.789  -2.429  0.00  0.00    -0.047 C 
ATOM     23  H   LIG d   1       2.691   0.973  -1.594  0.00  0.00     0.027 H 
ATOM     24  H   LIG d   1       3.517   1.714  -2.985  0.00  0.00     0.027 H 
BRANCH  22  25
ATOM     25  C   LIG d   1       2.761  -0.270  -3.353  0.00  0.00    -0.056 C 
ATOM     26  H   LIG d   1       3.451  -1.108  -3.446  0.00  0.00     0.026 H 
ATOM     27  H   LIG d   1       1.818  -0.621  -2.934  0.00  0.00     0.026 H 
BRANCH  25  28
ATOM     28  C   LIG d   1       2.510   0.341  -4.733  0.00  0.00    -0.065 C 
ATOM     29  H   LIG d   1       3.244  -0.046  -5.441  0.00  0.00     0.023 H 
ATOM     30  H   LIG d   1       1.507   0.080  -5.069  0.00  0.00     0.023 H 
ATOM     31  H   LIG d   1       2.602   1.426  -4.673  0.00  0.00     0.023 H 
ENDBRANCH  25  28
ENDBRANCH  22  25
ENDBRANCH  19  22
ENDBRANCH  17  19
ENDBRANCH   1  17
TORSDOF 9
ENDMDL
MODEL 10
REMARK VINA RESULT:      -4.4      1.294      5.408
REMARK  9 active torsions:
REMARK  status: ('A' for Active; 'I' for Inactive)
REMARK    1  A    between atoms: C_1  and  C_2 
REMARK    2  A    between atoms: C_2  and  C_3 
REMARK    3  A    between atoms: C_3  and  C_4 
REMARK    4  A    between atoms: C_4  and  C_5 
REMARK    5  A    between atoms: C_5  and  C_6 
REMARK    6  A    between atoms: C_6  and  C_8 
REMARK    7  A    between atoms: C_8  and  C_9 
REMARK    8  A    between atoms: C_9  and  C_10 
REMARK    9  A    between atoms: C_10  and  C_11 
ROOT
ATOM      1  C   LIG d   1       2.579  -0.314  -3.565  0.00  0.00     0.006 C 
ATOM      2  H   LIG d   1       1.667  -0.101  -3.219  0.00  0.00     0.034 H 
ATOM      3  H   LIG d   1       2.654  -1.384  -3.760  0.00  0.00     0.034 H 
ENDROOT
BRANCH   1   4
ATOM      4  C   LIG d   1       3.626   0.087  -2.522  0.00  0.00    -0.046 C 
ATOM      5  H   LIG d   1       4.396   0.695  -2.996  0.00  0.00     0.027 H 
ATOM      6  H   LIG d   1       3.147   0.660  -1.729  0.00  0.00     0.027 H 
BRANCH   4   7
ATOM      7  C   LIG d   1       4.263  -1.171  -1.929  0.00  0.00    -0.053 C 
ATOM      8  H   LIG d   1       5.313  -0.978  -1.709  0.00  0.00     0.026 H 
ATOM      9  H   LIG d   1       3.745  -1.443  -1.010  0.00  0.00     0.026 H 
BRANCH   7  10
ATOM     10  C   LIG d   1       4.156  -2.319  -2.934  0.00  0.00    -0.056 C 
ATOM     11  H   LIG d   1       3.972  -3.252  -2.402  0.00  0.00     0.026 H 
ATOM     12  H   LIG d   1       3.334  -2.124  -3.623  0.00  0.00     0.026 H 
BRANCH  10  13
ATOM     13  C   LIG d   1       5.464  -2.432  -3.721  0.00  0.00    -0.065 C 
ATOM     14  H   LIG d   1       6.010  -3.316  -3.394  0.00  0.00     0.023 H 
ATOM     15  H   LIG d   1       5.242  -2.516  -4.785  0.00  0.00     0.023 H 
ATOM     16  H   LIG d   1       6.071  -1.543  -3.546  0.00  0.00     0.023 H 
ENDBRANCH  10  13
ENDBRANCH   7  10
ENDBRANCH   4   7
ENDBRANCH   1   4
BRANCH   1  17
ATOM     17  C   LIG d   1       2.826   0.447  -4.841  0.00  0.00     0.133 C 
ATOM     18  O   LIG d   1       2.511   1.610  -4.922  0.00  0.00    -0.297 OA
BRANCH  17  19
ATOM     19  C   LIG d   1       3.458  -0.246  -6.021  0.00  0.00     0.006 C 
ATOM     20  H   LIG d   1       4.447  -0.101  -6.001  0.00  0.00     0.034 H 
ATOM     21  H   LIG d   1       3.246  -1.314  -5.972  0.00  0.00     0.034 H 
BRANCH  19  22
ATOM     22  C   LIG d   1       2.884   0.329  -7.318  0.00  0.00    -0.047 C 
ATOM     23  H   LIG d   1       1.879   0.710  -7.133  0.00  0.00     0.027 H 
ATOM     24  H   LIG d   1       3.521   1.141  -7.669  0.00  0.00     0.027 H 
BRANCH  22  25
ATOM     25  C   LIG d   1       2.825  -0.770  -8.380  0.00  0.00    -0.056 C 
ATOM     26  H   LIG d   1       3.824  -0.942  -8.781  0.00  0.00     0.026 H 
ATOM     27  H   LIG d   1       2.450  -1.691  -7.932  0.00  0.00     0.026 H 
BRANCH  25  28
ATOM     28  C   LIG d   1       1.890  -0.337  -9.511  0.00  0.00    -0.065 C 
ATOM     29  H   LIG d   1       2.144  -0.880 -10.422  0.00  0.00     0.023 H 
ATOM     30  H   LIG d   1       0.858  -0.555  -9.233  0.00  0.00     0.023 H 
ATOM     31  H   LIG d   1       2.000   0.734  -9.684  0.00  0.00     0.023 H 
ENDBRANCH  25  28
ENDBRANCH  22  25
ENDBRANCH  19  22
ENDBRANCH  17  19
ENDBRANCH   1  17
TORSDOF 9
ENDMDL
