MODEL 1
REMARK VINA RESULT:      -5.4      0.000      0.000
REMARK  6 active torsions:
REMARK  status: ('A' for Active; 'I' for Inactive)
REMARK    1  A    between atoms: C_1  and  N_2 
REMARK    2  A    between atoms: N_6  and  C_21 
REMARK    3  A    between atoms: N_9  and  C_20 
REMARK    4  A    between atoms: N_13  and  C_16 
REMARK    5  A    between atoms: C_16  and  C_17 
REMARK       I    between atoms: C_17  and  N_19 
REMARK    6  A    between atoms: C_21  and  C_22 
REMARK       I    between atoms: C_22  and  N_24 
ROOT
ATOM      1  N   LIG d   1      10.354  10.953  -2.840  0.00  0.00     0.234 N 
ATOM      2  C   LIG d   1      11.603  10.677  -2.120  0.00  0.00    -0.031 C 
ATOM      3  C   LIG d   1      11.330   9.714  -0.964  0.00  0.00     0.000 C 
ATOM      4  C   LIG d   1      12.269   8.515  -1.054  0.00  0.00     0.004 C 
ATOM      5  N   LIG d   1      11.432   7.267  -0.991  0.00  0.00    -0.289 N 
ATOM      6  C   LIG d   1      11.629   6.611  -2.331  0.00  0.00     0.040 C 
ATOM      7  C   LIG d   1      10.592   5.512  -2.483  0.00  0.00    -0.019 C 
ATOM      8  N   LIG d   1      10.436   5.095  -3.878  0.00  0.00     0.234 N 
ATOM      9  C   LIG d   1       9.286   5.727  -4.501  0.00  0.00    -0.031 C 
ATOM     10  C   LIG d   1       9.588   6.782  -5.546  0.00  0.00     0.000 C 
ATOM     11  C   LIG d   1       9.873   8.137  -4.891  0.00  0.00     0.004 C 
ATOM     12  N   LIG d   1       9.324   9.206  -5.795  0.00  0.00    -0.289 N 
ATOM     13  C   LIG d   1       9.236  10.442  -4.959  0.00  0.00     0.040 C 
ATOM     14  C   LIG d   1      10.565  10.737  -4.279  0.00  0.00    -0.019 C 
ATOM     15  H   LIG d   1      12.328  10.235  -2.801  0.00  0.00     0.082 H 
ATOM     16  H   LIG d   1      12.004  11.612  -1.724  0.00  0.00     0.082 H 
ATOM     17  H   LIG d   1      11.489  10.231  -0.016  0.00  0.00     0.033 H 
ATOM     18  H   LIG d   1      10.296   9.368  -1.012  0.00  0.00     0.033 H 
ATOM     19  H   LIG d   1      12.806   8.516  -1.993  0.00  0.00     0.043 H 
ATOM     20  H   LIG d   1      12.950   8.503  -0.210  0.00  0.00     0.043 H 
ATOM     21  H   LIG d   1      11.492   7.382  -3.083  0.00  0.00     0.048 H 
ATOM     22  H   LIG d   1      12.637   6.209  -2.342  0.00  0.00     0.048 H 
ATOM     23  H   LIG d   1      10.895   4.639  -1.889  0.00  0.00     0.083 H 
ATOM     24  H   LIG d   1       9.629   5.859  -2.094  0.00  0.00     0.083 H 
ATOM     25  H   LIG d   1       8.669   4.941  -4.972  0.00  0.00     0.082 H 
ATOM     26  H   LIG d   1       8.656   6.179  -3.718  0.00  0.00     0.082 H 
ATOM     27  H   LIG d   1      10.380   6.516  -6.230  0.00  0.00     0.033 H 
ATOM     28  H   LIG d   1       8.679   6.909  -6.169  0.00  0.00     0.033 H 
ATOM     29  H   LIG d   1       9.369   8.205  -3.936  0.00  0.00     0.043 H 
ATOM     30  H   LIG d   1      10.940   8.284  -4.800  0.00  0.00     0.043 H 
ATOM     31  H   LIG d   1       8.969  11.267  -5.623  0.00  0.00     0.048 H 
ATOM     32  H   LIG d   1       8.450  10.300  -4.223  0.00  0.00     0.048 H 
ATOM     33  H   LIG d   1      10.992  11.655  -4.703  0.00  0.00     0.083 H 
ATOM     34  H   LIG d   1      11.279   9.930  -4.405  0.00  0.00     0.083 H 
ATOM     35  H   LIG d   1       9.624  10.343  -2.510  0.00  0.00     0.203 HD
ATOM     36  H   LIG d   1      10.231   4.079  -3.846  0.00  0.00     0.203 HD
ENDROOT
BRANCH   5  37
ATOM     37  C   LIG d   1      12.160   6.382  -0.018  0.00  0.00     0.076 C 
ATOM     38  H   LIG d   1      12.292   5.392  -0.455  0.00  0.00     0.052 H 
ATOM     39  H   LIG d   1      13.137   6.813   0.206  0.00  0.00     0.052 H 
BRANCH  37  40
ATOM     40  C   LIG d   1      11.359   6.267   1.253  0.00  0.00     0.225 C 
ATOM     41  O   LIG d   1      11.274   7.215   2.005  0.00  0.00    -0.275 OA
ATOM     42  N   LIG d   1      10.738   5.110   1.556  0.00  0.00    -0.328 N 
ATOM     43  H   LIG d   1      10.807   4.351   0.955  0.00  0.00     0.145 HD
ATOM     44  H   LIG d   1      10.223   5.035   2.374  0.00  0.00     0.145 HD
ENDBRANCH  37  40
ENDBRANCH   5  37
BRANCH   8  45
ATOM     45  C   LIG d   1      11.681   5.236  -4.621  0.00  0.00    -0.043 C 
ATOM     46  H   LIG d   1      11.553   4.832  -5.625  0.00  0.00     0.078 H 
ATOM     47  H   LIG d   1      11.949   6.290  -4.685  0.00  0.00     0.078 H 
ATOM     48  H   LIG d   1      12.474   4.690  -4.109  0.00  0.00     0.078 H 
ENDBRANCH   8  45
BRANCH   1  49
ATOM     49  C   LIG d   1       9.963  12.356  -2.614  0.00  0.00    -0.043 C 
ATOM     50  H   LIG d   1      10.245  12.956  -3.479  0.00  0.00     0.078 H 
ATOM     51  H   LIG d   1       8.884  12.414  -2.468  0.00  0.00     0.078 H 
ATOM     52  H   LIG d   1      10.471  12.736  -1.727  0.00  0.00     0.078 H 
ENDBRANCH   1  49
BRANCH  12  53
ATOM     53  C   LIG d   1      10.425   9.475  -6.783  0.00  0.00     0.076 C 
ATOM     54  H   LIG d   1      10.806  10.486  -6.635  0.00  0.00     0.052 H 
ATOM     55  H   LIG d   1      11.231   8.758  -6.634  0.00  0.00     0.052 H 
BRANCH  53  56
ATOM     56  C   LIG d   1       9.886   9.342  -8.183  0.00  0.00     0.225 C 
ATOM     57  O   LIG d   1      10.624   9.494  -9.134  0.00  0.00    -0.275 OA
ATOM     58  N   LIG d   1       8.584   9.055  -8.380  0.00  0.00    -0.328 N 
ATOM     59  H   LIG d   1       7.995   8.933  -7.621  0.00  0.00     0.145 HD
ATOM     60  H   LIG d   1       8.237   8.970  -9.282  0.00  0.00     0.145 HD
ENDBRANCH  53  56
ENDBRANCH  12  53
TORSDOF 6
ENDMDL
MODEL 2
REMARK VINA RESULT:      -5.2      2.072      4.335
REMARK  6 active torsions:
REMARK  status: ('A' for Active; 'I' for Inactive)
REMARK    1  A    between atoms: C_1  and  N_2 
REMARK    2  A    between atoms: N_6  and  C_21 
REMARK    3  A    between atoms: N_9  and  C_20 
REMARK    4  A    between atoms: N_13  and  C_16 
REMARK    5  A    between atoms: C_16  and  C_17 
REMARK       I    between atoms: C_17  and  N_19 
REMARK    6  A    between atoms: C_21  and  C_22 
REMARK       I    between atoms: C_22  and  N_24 
ROOT
ATOM      1  N   LIG d   1      10.078   7.674  -6.016  0.00  0.00     0.234 N 
ATOM      2  C   LIG d   1       9.189   7.022  -5.047  0.00  0.00    -0.031 C 
ATOM      3  C   LIG d   1      10.018   6.403  -3.921  0.00  0.00     0.000 C 
ATOM      4  C   LIG d   1       9.508   6.897  -2.570  0.00  0.00     0.004 C 
ATOM      5  N   LIG d   1      10.684   7.439  -1.803  0.00  0.00    -0.289 N 
ATOM      6  C   LIG d   1      10.388   8.905  -1.642  0.00  0.00     0.040 C 
ATOM      7  C   LIG d   1      11.648   9.598  -1.156  0.00  0.00    -0.019 C 
ATOM      8  N   LIG d   1      11.588  11.048  -1.354  0.00  0.00     0.234 N 
ATOM      9  C   LIG d   1      12.299  11.454  -2.554  0.00  0.00    -0.031 C 
ATOM     10  C   LIG d   1      11.441  11.931  -3.709  0.00  0.00     0.000 C 
ATOM     11  C   LIG d   1      10.910  10.747  -4.524  0.00  0.00     0.004 C 
ATOM     12  N   LIG d   1      10.865  11.170  -5.966  0.00  0.00    -0.289 N 
ATOM     13  C   LIG d   1      10.758   9.907  -6.758  0.00  0.00     0.040 C 
ATOM     14  C   LIG d   1       9.607   9.045  -6.261  0.00  0.00    -0.019 C 
ATOM     15  H   LIG d   1       8.497   7.754  -4.634  0.00  0.00     0.082 H 
ATOM     16  H   LIG d   1       8.622   6.236  -5.551  0.00  0.00     0.082 H 
ATOM     17  H   LIG d   1       9.937   5.316  -3.965  0.00  0.00     0.033 H 
ATOM     18  H   LIG d   1      11.065   6.687  -4.038  0.00  0.00     0.033 H 
ATOM     19  H   LIG d   1       8.790   7.695  -2.698  0.00  0.00     0.043 H 
ATOM     20  H   LIG d   1       9.089   6.076  -2.000  0.00  0.00     0.043 H 
ATOM     21  H   LIG d   1      10.092   9.276  -2.619  0.00  0.00     0.048 H 
ATOM     22  H   LIG d   1       9.585   8.989  -0.918  0.00  0.00     0.048 H 
ATOM     23  H   LIG d   1      11.786   9.397  -0.084  0.00  0.00     0.083 H 
ATOM     24  H   LIG d   1      12.518   9.191  -1.683  0.00  0.00     0.083 H 
ATOM     25  H   LIG d   1      12.999  12.266  -2.287  0.00  0.00     0.082 H 
ATOM     26  H   LIG d   1      12.923  10.617  -2.903  0.00  0.00     0.082 H 
ATOM     27  H   LIG d   1      10.632  12.587  -3.421  0.00  0.00     0.033 H 
ATOM     28  H   LIG d   1      12.087  12.527  -4.386  0.00  0.00     0.033 H 
ATOM     29  H   LIG d   1      11.581   9.903  -4.437  0.00  0.00     0.043 H 
ATOM     30  H   LIG d   1       9.906  10.504  -4.209  0.00  0.00     0.043 H 
ATOM     31  H   LIG d   1      10.586  10.188  -7.800  0.00  0.00     0.048 H 
ATOM     32  H   LIG d   1      11.701   9.374  -6.678  0.00  0.00     0.048 H 
ATOM     33  H   LIG d   1       8.826   9.006  -7.030  0.00  0.00     0.083 H 
ATOM     34  H   LIG d   1       9.173   9.429  -5.343  0.00  0.00     0.083 H 
ATOM     35  H   LIG d   1      11.019   7.698  -5.658  0.00  0.00     0.203 HD
ATOM     36  H   LIG d   1      12.103  11.462  -0.554  0.00  0.00     0.203 HD
ENDROOT
BRANCH   5  37
ATOM     37  C   LIG d   1      10.525   6.860  -0.425  0.00  0.00     0.076 C 
ATOM     38  H   LIG d   1      10.581   7.660   0.314  0.00  0.00     0.052 H 
ATOM     39  H   LIG d   1       9.557   6.363  -0.348  0.00  0.00     0.052 H 
BRANCH  37  40
ATOM     40  C   LIG d   1      11.623   5.861  -0.169  0.00  0.00     0.225 C 
ATOM     41  O   LIG d   1      12.654   6.216   0.364  0.00  0.00    -0.275 OA
ATOM     42  N   LIG d   1      11.462   4.574  -0.532  0.00  0.00    -0.328 N 
ATOM     43  H   LIG d   1      10.638   4.290  -0.959  0.00  0.00     0.145 HD
ATOM     44  H   LIG d   1      12.169   3.931  -0.367  0.00  0.00     0.145 HD
ENDBRANCH  37  40
ENDBRANCH   5  37
BRANCH   8  45
ATOM     45  C   LIG d   1      10.223  11.544  -1.260  0.00  0.00    -0.043 C 
ATOM     46  H   LIG d   1       9.922  11.588  -0.213  0.00  0.00     0.078 H 
ATOM     47  H   LIG d   1      10.169  12.543  -1.694  0.00  0.00     0.078 H 
ATOM     48  H   LIG d   1       9.554  10.875  -1.801  0.00  0.00     0.078 H 
ENDBRANCH   8  45
BRANCH   1  49
ATOM     49  C   LIG d   1      10.052   6.921  -7.283  0.00  0.00    -0.043 C 
ATOM     50  H   LIG d   1      10.422   5.910  -7.112  0.00  0.00     0.078 H 
ATOM     51  H   LIG d   1       9.029   6.875  -7.657  0.00  0.00     0.078 H 
ATOM     52  H   LIG d   1      10.685   7.421  -8.016  0.00  0.00     0.078 H 
ENDBRANCH   1  49
BRANCH  12  53
ATOM     53  C   LIG d   1       9.532  11.848  -6.124  0.00  0.00     0.076 C 
ATOM     54  H   LIG d   1       8.814  11.144  -6.543  0.00  0.00     0.052 H 
ATOM     55  H   LIG d   1       9.180  12.190  -5.151  0.00  0.00     0.052 H 
BRANCH  53  56
ATOM     56  C   LIG d   1       9.676  13.028  -7.050  0.00  0.00     0.225 C 
ATOM     57  O   LIG d   1       9.004  13.094  -8.058  0.00  0.00    -0.275 OA
ATOM     58  N   LIG d   1      10.551  14.011  -6.759  0.00  0.00    -0.328 N 
ATOM     59  H   LIG d   1      11.088  13.958  -5.953  0.00  0.00     0.145 HD
ATOM     60  H   LIG d   1      10.644  14.770  -7.354  0.00  0.00     0.145 HD
ENDBRANCH  53  56
ENDBRANCH  12  53
TORSDOF 6
ENDMDL
MODEL 3
REMARK VINA RESULT:      -5.1      1.146      7.493
REMARK  6 active torsions:
REMARK  status: ('A' for Active; 'I' for Inactive)
REMARK    1  A    between atoms: C_1  and  N_2 
REMARK    2  A    between atoms: N_6  and  C_21 
REMARK    3  A    between atoms: N_9  and  C_20 
REMARK    4  A    between atoms: N_13  and  C_16 
REMARK    5  A    between atoms: C_16  and  C_17 
REMARK       I    between atoms: C_17  and  N_19 
REMARK    6  A    between atoms: C_21  and  C_22 
REMARK       I    between atoms: C_22  and  N_24 
ROOT
ATOM      1  N   LIG d   1      10.013   5.279  -3.934  0.00  0.00     0.234 N 
ATOM      2  C   LIG d   1      10.928   5.557  -5.048  0.00  0.00    -0.031 C 
ATOM      3  C   LIG d   1      10.230   6.443  -6.081  0.00  0.00     0.000 C 
ATOM      4  C   LIG d   1      11.083   7.676  -6.366  0.00  0.00     0.004 C 
ATOM      5  N   LIG d   1      10.211   8.890  -6.192  0.00  0.00    -0.289 N 
ATOM      6  C   LIG d   1      10.817   9.627  -5.028  0.00  0.00     0.040 C 
ATOM      7  C   LIG d   1       9.839  10.697  -4.576  0.00  0.00    -0.019 C 
ATOM      8  N   LIG d   1      10.144  11.186  -3.231  0.00  0.00     0.234 N 
ATOM      9  C   LIG d   1       9.307  10.552  -2.227  0.00  0.00    -0.031 C 
ATOM     10  C   LIG d   1       9.998   9.568  -1.305  0.00  0.00     0.000 C 
ATOM     11  C   LIG d   1      10.114   8.188  -1.961  0.00  0.00     0.004 C 
ATOM     12  N   LIG d   1       9.958   7.155  -0.881  0.00  0.00    -0.289 N 
ATOM     13  C   LIG d   1       9.655   5.871  -1.584  0.00  0.00     0.040 C 
ATOM     14  C   LIG d   1      10.688   5.583  -2.664  0.00  0.00    -0.019 C 
ATOM     15  H   LIG d   1      11.818   6.060  -4.675  0.00  0.00     0.082 H 
ATOM     16  H   LIG d   1      11.218   4.615  -5.518  0.00  0.00     0.082 H 
ATOM     17  H   LIG d   1      10.084   5.879  -7.004  0.00  0.00     0.033 H 
ATOM     18  H   LIG d   1       9.258   6.756  -5.697  0.00  0.00     0.033 H 
ATOM     19  H   LIG d   1      11.905   7.746  -5.668  0.00  0.00     0.043 H 
ATOM     20  H   LIG d   1      11.435   7.664  -7.391  0.00  0.00     0.043 H 
ATOM     21  H   LIG d   1      10.982   8.895  -4.243  0.00  0.00     0.048 H 
ATOM     22  H   LIG d   1      11.747  10.062  -5.377  0.00  0.00     0.048 H 
ATOM     23  H   LIG d   1       9.878  11.545  -5.274  0.00  0.00     0.083 H 
ATOM     24  H   LIG d   1       8.820  10.296  -4.599  0.00  0.00     0.083 H 
ATOM     25  H   LIG d   1       8.847  11.342  -1.606  0.00  0.00     0.082 H 
ATOM     26  H   LIG d   1       8.473  10.036  -2.729  0.00  0.00     0.082 H 
ATOM     27  H   LIG d   1      10.961   9.899  -0.944  0.00  0.00     0.033 H 
ATOM     28  H   LIG d   1       9.362   9.445  -0.404  0.00  0.00     0.033 H 
ATOM     29  H   LIG d   1       9.319   8.050  -2.683  0.00  0.00     0.043 H 
ATOM     30  H   LIG d   1      11.092   8.072  -2.404  0.00  0.00     0.043 H 
ATOM     31  H   LIG d   1       9.672   5.076  -0.835  0.00  0.00     0.048 H 
ATOM     32  H   LIG d   1       8.660   5.944  -2.013  0.00  0.00     0.048 H 
ATOM     33  H   LIG d   1      11.280   4.705  -2.373  0.00  0.00     0.083 H 
ATOM     34  H   LIG d   1      11.361   6.419  -2.823  0.00  0.00     0.083 H 
ATOM     35  H   LIG d   1       9.184   5.845  -4.021  0.00  0.00     0.203 HD
ATOM     36  H   LIG d   1       9.889  12.192  -3.233  0.00  0.00     0.203 HD
ENDROOT
BRANCH   5  37
ATOM     37  C   LIG d   1      10.520   9.743  -7.391  0.00  0.00     0.076 C 
ATOM     38  H   LIG d   1      10.188  10.765  -7.205  0.00  0.00     0.052 H 
ATOM     39  H   LIG d   1      11.595   9.738  -7.573  0.00  0.00     0.052 H 
BRANCH  37  40
ATOM     40  C   LIG d   1       9.804   9.194  -8.596  0.00  0.00     0.225 C 
ATOM     41  O   LIG d   1      10.413   8.995  -9.627  0.00  0.00    -0.275 OA
ATOM     42  N   LIG d   1       8.485   8.923  -8.532  0.00  0.00    -0.328 N 
ATOM     43  H   LIG d   1       7.997   9.081  -7.709  0.00  0.00     0.145 HD
ATOM     44  H   LIG d   1       8.024   8.569  -9.308  0.00  0.00     0.145 HD
ENDBRANCH  37  40
ENDBRANCH   5  37
BRANCH   8  45
ATOM     45  C   LIG d   1      11.573  11.130  -2.952  0.00  0.00    -0.043 C 
ATOM     46  H   LIG d   1      12.129  11.200  -3.887  0.00  0.00     0.078 H 
ATOM     47  H   LIG d   1      11.849  11.960  -2.302  0.00  0.00     0.078 H 
ATOM     48  H   LIG d   1      11.810  10.187  -2.459  0.00  0.00     0.078 H 
ENDBRANCH   8  45
BRANCH   1  49
ATOM     49  C   LIG d   1       9.641   3.854  -3.955  0.00  0.00    -0.043 C 
ATOM     50  H   LIG d   1      10.309   3.313  -4.625  0.00  0.00     0.078 H 
ATOM     51  H   LIG d   1       9.723   3.442  -2.949  0.00  0.00     0.078 H 
ATOM     52  H   LIG d   1       8.613   3.752  -4.306  0.00  0.00     0.078 H 
ENDBRANCH   1  49
BRANCH  12  53
ATOM     53  C   LIG d   1      11.341   6.978  -0.317  0.00  0.00     0.076 C 
ATOM     54  H   LIG d   1      11.846   6.166  -0.840  0.00  0.00     0.052 H 
ATOM     55  H   LIG d   1      11.907   7.900  -0.447  0.00  0.00     0.052 H 
BRANCH  53  56
ATOM     56  C   LIG d   1      11.248   6.648   1.150  0.00  0.00     0.225 C 
ATOM     57  O   LIG d   1      11.449   7.510   1.980  0.00  0.00    -0.275 OA
ATOM     58  N   LIG d   1      10.941   5.395   1.540  0.00  0.00    -0.328 N 
ATOM     59  H   LIG d   1      10.780   4.707   0.877  0.00  0.00     0.145 HD
ATOM     60  H   LIG d   1      10.881   5.183   2.485  0.00  0.00     0.145 HD
ENDBRANCH  53  56
ENDBRANCH  12  53
TORSDOF 6
ENDMDL
MODEL 4
REMARK VINA RESULT:      -5.1      7.248     10.998
REMARK  6 active torsions:
REMARK  status: ('A' for Active; 'I' for Inactive)
REMARK    1  A    between atoms: C_1  and  N_2 
REMARK    2  A    between atoms: N_6  and  C_21 
REMARK    3  A    between atoms: N_9  and  C_20 
REMARK    4  A    between atoms: N_13  and  C_16 
REMARK    5  A    between atoms: C_16  and  C_17 
REMARK       I    between atoms: C_17  and  N_19 
REMARK    6  A    between atoms: C_21  and  C_22 
REMARK       I    between atoms: C_22  and  N_24 
ROOT
ATOM      1  N   LIG d   1       4.308   0.471  -7.620  0.00  0.00     0.234 N 
ATOM      2  C   LIG d   1       5.169   0.406  -8.806  0.00  0.00    -0.031 C 
ATOM      3  C   LIG d   1       5.838   1.762  -9.034  0.00  0.00     0.000 C 
ATOM      4  C   LIG d   1       7.350   1.584  -9.140  0.00  0.00     0.004 C 
ATOM      5  N   LIG d   1       7.996   2.536  -8.171  0.00  0.00    -0.289 N 
ATOM      6  C   LIG d   1       8.685   1.649  -7.170  0.00  0.00     0.040 C 
ATOM      7  C   LIG d   1       9.104   2.499  -5.985  0.00  0.00    -0.019 C 
ATOM      8  N   LIG d   1       9.408   1.685  -4.806  0.00  0.00     0.234 N 
ATOM      9  C   LIG d   1       8.289   1.645  -3.880  0.00  0.00    -0.031 C 
ATOM     10  C   LIG d   1       7.553   0.324  -3.779  0.00  0.00     0.000 C 
ATOM     11  C   LIG d   1       6.521   0.183  -4.902  0.00  0.00     0.004 C 
ATOM     12  N   LIG d   1       5.338  -0.558  -4.345  0.00  0.00    -0.289 N 
ATOM     13  C   LIG d   1       4.215  -0.312  -5.300  0.00  0.00     0.040 C 
ATOM     14  C   LIG d   1       4.626  -0.652  -6.726  0.00  0.00    -0.019 C 
ATOM     15  H   LIG d   1       5.930  -0.359  -8.665  0.00  0.00     0.082 H 
ATOM     16  H   LIG d   1       4.561   0.153  -9.678  0.00  0.00     0.082 H 
ATOM     17  H   LIG d   1       5.457   2.205  -9.957  0.00  0.00     0.033 H 
ATOM     18  H   LIG d   1       5.610   2.428  -8.199  0.00  0.00     0.033 H 
ATOM     19  H   LIG d   1       7.639   0.578  -8.870  0.00  0.00     0.043 H 
ATOM     20  H   LIG d   1       7.692   1.839 -10.137  0.00  0.00     0.043 H 
ATOM     21  H   LIG d   1       7.964   0.893  -6.871  0.00  0.00     0.048 H 
ATOM     22  H   LIG d   1       9.543   1.213  -7.670  0.00  0.00     0.048 H 
ATOM     23  H   LIG d   1       9.999   3.079  -6.249  0.00  0.00     0.083 H 
ATOM     24  H   LIG d   1       8.308   3.212  -5.744  0.00  0.00     0.083 H 
ATOM     25  H   LIG d   1       8.659   1.911  -2.874  0.00  0.00     0.082 H 
ATOM     26  H   LIG d   1       7.566   2.429  -4.155  0.00  0.00     0.082 H 
ATOM     27  H   LIG d   1       8.198  -0.542  -3.744  0.00  0.00     0.033 H 
ATOM     28  H   LIG d   1       6.992   0.322  -2.822  0.00  0.00     0.033 H 
ATOM     29  H   LIG d   1       6.190   1.159  -5.230  0.00  0.00     0.043 H 
ATOM     30  H   LIG d   1       6.936  -0.400  -5.712  0.00  0.00     0.043 H 
ATOM     31  H   LIG d   1       3.381  -0.948  -4.995  0.00  0.00     0.048 H 
ATOM     32  H   LIG d   1       3.924   0.732  -5.222  0.00  0.00     0.048 H 
ATOM     33  H   LIG d   1       4.061  -1.529  -7.066  0.00  0.00     0.083 H 
ATOM     34  H   LIG d   1       5.686  -0.867  -6.808  0.00  0.00     0.083 H 
ATOM     35  H   LIG d   1       4.455   1.342  -7.135  0.00  0.00     0.203 HD
ATOM     36  H   LIG d   1      10.177   2.179  -4.315  0.00  0.00     0.203 HD
ENDROOT
BRANCH   5  37
ATOM     37  C   LIG d   1       9.111   3.165  -8.959  0.00  0.00     0.076 C 
ATOM     38  H   LIG d   1      10.062   2.974  -8.460  0.00  0.00     0.052 H 
ATOM     39  H   LIG d   1       9.135   2.736  -9.962  0.00  0.00     0.052 H 
BRANCH  37  40
ATOM     40  C   LIG d   1       8.883   4.651  -9.055  0.00  0.00     0.225 C 
ATOM     41  O   LIG d   1       8.030   5.088  -9.799  0.00  0.00    -0.275 OA
ATOM     42  N   LIG d   1       9.628   5.496  -8.316  0.00  0.00    -0.328 N 
ATOM     43  H   LIG d   1      10.311   5.148  -7.721  0.00  0.00     0.145 HD
ATOM     44  H   LIG d   1       9.481   6.453  -8.377  0.00  0.00     0.145 HD
ENDBRANCH  37  40
ENDBRANCH   5  37
BRANCH   8  45
ATOM     45  C   LIG d   1       9.934   0.380  -5.179  0.00  0.00    -0.043 C 
ATOM     46  H   LIG d   1      10.828   0.166  -4.592  0.00  0.00     0.078 H 
ATOM     47  H   LIG d   1       9.182  -0.385  -4.983  0.00  0.00     0.078 H 
ATOM     48  H   LIG d   1      10.188   0.378  -6.239  0.00  0.00     0.078 H 
ENDBRANCH   8  45
BRANCH   1  49
ATOM     49  C   LIG d   1       2.898   0.373  -8.037  0.00  0.00    -0.043 C 
ATOM     50  H   LIG d   1       2.679  -0.652  -8.339  0.00  0.00     0.078 H 
ATOM     51  H   LIG d   1       2.252   0.652  -7.204  0.00  0.00     0.078 H 
ATOM     52  H   LIG d   1       2.719   1.045  -8.876  0.00  0.00     0.078 H 
ENDBRANCH   1  49
BRANCH  12  53
ATOM     53  C   LIG d   1       5.684  -2.013  -4.510  0.00  0.00     0.076 C 
ATOM     54  H   LIG d   1       5.779  -2.245  -5.570  0.00  0.00     0.052 H 
ATOM     55  H   LIG d   1       6.628  -2.221  -4.006  0.00  0.00     0.052 H 
BRANCH  53  56
ATOM     56  C   LIG d   1       4.595  -2.860  -3.906  0.00  0.00     0.225 C 
ATOM     57  O   LIG d   1       4.268  -3.898  -4.440  0.00  0.00    -0.275 OA
ATOM     58  N   LIG d   1       3.982  -2.463  -2.773  0.00  0.00    -0.328 N 
ATOM     59  H   LIG d   1       4.243  -1.633  -2.346  0.00  0.00     0.145 HD
ATOM     60  H   LIG d   1       3.280  -3.008  -2.385  0.00  0.00     0.145 HD
ENDBRANCH  53  56
ENDBRANCH  12  53
TORSDOF 6
ENDMDL
MODEL 5
REMARK VINA RESULT:      -5.0      2.629      3.833
REMARK  6 active torsions:
REMARK  status: ('A' for Active; 'I' for Inactive)
REMARK    1  A    between atoms: C_1  and  N_2 
REMARK    2  A    between atoms: N_6  and  C_21 
REMARK    3  A    between atoms: N_9  and  C_20 
REMARK    4  A    between atoms: N_13  and  C_16 
REMARK    5  A    between atoms: C_16  and  C_17 
REMARK       I    between atoms: C_17  and  N_19 
REMARK    6  A    between atoms: C_21  and  C_22 
REMARK       I    between atoms: C_22  and  N_24 
ROOT
ATOM      1  N   LIG d   1       9.363   9.443  -2.092  0.00  0.00     0.234 N 
ATOM      2  C   LIG d   1      10.428   8.505  -1.720  0.00  0.00    -0.031 C 
ATOM      3  C   LIG d   1       9.978   7.072  -2.007  0.00  0.00     0.000 C 
ATOM      4  C   LIG d   1      11.013   6.367  -2.880  0.00  0.00     0.004 C 
ATOM      5  N   LIG d   1      10.296   5.781  -4.065  0.00  0.00    -0.289 N 
ATOM      6  C   LIG d   1      10.856   6.520  -5.250  0.00  0.00     0.040 C 
ATOM      7  C   LIG d   1       9.983   6.224  -6.456  0.00  0.00    -0.019 C 
ATOM      8  N   LIG d   1      10.193   7.190  -7.536  0.00  0.00     0.234 N 
ATOM      9  C   LIG d   1       9.169   8.220  -7.540  0.00  0.00    -0.031 C 
ATOM     10  C   LIG d   1       9.613   9.605  -7.114  0.00  0.00     0.000 C 
ATOM     11  C   LIG d   1       9.620   9.734  -5.587  0.00  0.00     0.004 C 
ATOM     12  N   LIG d   1       9.205  11.138  -5.246  0.00  0.00    -0.289 N 
ATOM     13  C   LIG d   1       8.818  11.110  -3.802  0.00  0.00     0.040 C 
ATOM     14  C   LIG d   1       9.921  10.496  -2.952  0.00  0.00    -0.019 C 
ATOM     15  H   LIG d   1      11.328   8.727  -2.291  0.00  0.00     0.082 H 
ATOM     16  H   LIG d   1      10.643   8.609  -0.655  0.00  0.00     0.082 H 
ATOM     17  H   LIG d   1       9.866   6.531  -1.066  0.00  0.00     0.033 H 
ATOM     18  H   LIG d   1       9.018   7.087  -2.526  0.00  0.00     0.033 H 
ATOM     19  H   LIG d   1      11.752   7.069  -3.243  0.00  0.00     0.043 H 
ATOM     20  H   LIG d   1      11.477   5.553  -2.335  0.00  0.00     0.043 H 
ATOM     21  H   LIG d   1      10.831   7.578  -5.002  0.00  0.00     0.048 H 
ATOM     22  H   LIG d   1      11.870   6.163  -5.397  0.00  0.00     0.048 H 
ATOM     23  H   LIG d   1      10.213   5.219  -6.836  0.00  0.00     0.083 H 
ATOM     24  H   LIG d   1       8.929   6.231  -6.157  0.00  0.00     0.083 H 
ATOM     25  H   LIG d   1       8.749   8.292  -8.560  0.00  0.00     0.082 H 
ATOM     26  H   LIG d   1       8.337   7.903  -6.891  0.00  0.00     0.082 H 
ATOM     27  H   LIG d   1      10.563   9.913  -7.525  0.00  0.00     0.033 H 
ATOM     28  H   LIG d   1       8.867  10.332  -7.496  0.00  0.00     0.033 H 
ATOM     29  H   LIG d   1       8.903   9.051  -5.151  0.00  0.00     0.043 H 
ATOM     30  H   LIG d   1      10.619   9.573  -5.209  0.00  0.00     0.043 H 
ATOM     31  H   LIG d   1       8.643  12.143  -3.491  0.00  0.00     0.048 H 
ATOM     32  H   LIG d   1       7.897  10.541  -3.707  0.00  0.00     0.048 H 
ATOM     33  H   LIG d   1      10.354  11.271  -2.307  0.00  0.00     0.083 H 
ATOM     34  H   LIG d   1      10.712  10.064  -3.556  0.00  0.00     0.083 H 
ATOM     35  H   LIG d   1       8.632   8.956  -2.585  0.00  0.00     0.203 HD
ATOM     36  H   LIG d   1      10.075   6.656  -8.417  0.00  0.00     0.203 HD
ENDROOT
BRANCH   5  37
ATOM     37  C   LIG d   1      10.851   4.389  -4.182  0.00  0.00     0.076 C 
ATOM     38  H   LIG d   1      10.631   3.992  -5.173  0.00  0.00     0.052 H 
ATOM     39  H   LIG d   1      11.931   4.415  -4.032  0.00  0.00     0.052 H 
BRANCH  37  40
ATOM     40  C   LIG d   1      10.220   3.507  -3.136  0.00  0.00     0.225 C 
ATOM     41  O   LIG d   1       9.033   3.263  -3.184  0.00  0.00    -0.275 OA
ATOM     42  N   LIG d   1      10.974   2.989  -2.147  0.00  0.00    -0.328 N 
ATOM     43  H   LIG d   1      11.924   3.184  -2.108  0.00  0.00     0.145 HD
ATOM     44  H   LIG d   1      10.568   2.421  -1.474  0.00  0.00     0.145 HD
ENDBRANCH  37  40
ENDBRANCH   5  37
BRANCH   8  45
ATOM     45  C   LIG d   1      11.559   7.693  -7.545  0.00  0.00    -0.043 C 
ATOM     46  H   LIG d   1      12.185   7.060  -6.915  0.00  0.00     0.078 H 
ATOM     47  H   LIG d   1      11.944   7.683  -8.565  0.00  0.00     0.078 H 
ATOM     48  H   LIG d   1      11.574   8.714  -7.162  0.00  0.00     0.078 H 
ENDBRANCH   8  45
BRANCH   1  49
ATOM     49  C   LIG d   1       8.810  10.058  -0.872  0.00  0.00    -0.043 C 
ATOM     50  H   LIG d   1       9.114   9.477  -0.002  0.00  0.00     0.078 H 
ATOM     51  H   LIG d   1       9.184  11.078  -0.777  0.00  0.00     0.078 H 
ATOM     52  H   LIG d   1       7.722  10.075  -0.935  0.00  0.00     0.078 H 
ENDBRANCH   1  49
BRANCH  12  53
ATOM     53  C   LIG d   1      10.478  11.937  -5.297  0.00  0.00     0.076 C 
ATOM     54  H   LIG d   1      10.784  12.198  -4.284  0.00  0.00     0.052 H 
ATOM     55  H   LIG d   1      11.261  11.344  -5.771  0.00  0.00     0.052 H 
BRANCH  53  56
ATOM     56  C   LIG d   1      10.250  13.196  -6.092  0.00  0.00     0.225 C 
ATOM     57  O   LIG d   1       9.281  13.289  -6.816  0.00  0.00    -0.275 OA
ATOM     58  N   LIG d   1      11.123  14.219  -6.000  0.00  0.00    -0.328 N 
ATOM     59  H   LIG d   1      11.897  14.144  -5.422  0.00  0.00     0.145 HD
ATOM     60  H   LIG d   1      10.976  15.029  -6.512  0.00  0.00     0.145 HD
ENDBRANCH  53  56
ENDBRANCH  12  53
TORSDOF 6
ENDMDL
MODEL 6
REMARK VINA RESULT:      -5.0      2.247      7.312
REMARK  6 active torsions:
REMARK  status: ('A' for Active; 'I' for Inactive)
REMARK    1  A    between atoms: C_1  and  N_2 
REMARK    2  A    between atoms: N_6  and  C_21 
REMARK    3  A    between atoms: N_9  and  C_20 
REMARK    4  A    between atoms: N_13  and  C_16 
REMARK    5  A    between atoms: C_16  and  C_17 
REMARK       I    between atoms: C_17  and  N_19 
REMARK    6  A    between atoms: C_21  and  C_22 
REMARK       I    between atoms: C_22  and  N_24 
ROOT
ATOM      1  N   LIG d   1      10.275   7.148  -5.808  0.00  0.00     0.234 N 
ATOM      2  C   LIG d   1      11.273   7.987  -6.483  0.00  0.00    -0.031 C 
ATOM      3  C   LIG d   1      10.628   9.299  -6.929  0.00  0.00     0.000 C 
ATOM      4  C   LIG d   1      11.436  10.481  -6.399  0.00  0.00     0.004 C 
ATOM      5  N   LIG d   1      10.488  11.404  -5.683  0.00  0.00    -0.289 N 
ATOM      6  C   LIG d   1      10.942  11.375  -4.249  0.00  0.00     0.040 C 
ATOM      7  C   LIG d   1       9.870  12.026  -3.393  0.00  0.00    -0.019 C 
ATOM      8  N   LIG d   1      10.022  11.692  -1.976  0.00  0.00     0.234 N 
ATOM      9  C   LIG d   1       9.130  10.616  -1.580  0.00  0.00    -0.031 C 
ATOM     10  C   LIG d   1       9.784   9.282  -1.279  0.00  0.00     0.000 C 
ATOM     11  C   LIG d   1      10.034   8.491  -2.567  0.00  0.00     0.004 C 
ATOM     12  N   LIG d   1       9.835   7.034  -2.253  0.00  0.00    -0.289 N 
ATOM     13  C   LIG d   1       9.668   6.352  -3.573  0.00  0.00     0.040 C 
ATOM     14  C   LIG d   1      10.811   6.698  -4.516  0.00  0.00    -0.019 C 
ATOM     15  H   LIG d   1      12.096   8.196  -5.801  0.00  0.00     0.082 H 
ATOM     16  H   LIG d   1      11.655   7.457  -7.357  0.00  0.00     0.082 H 
ATOM     17  H   LIG d   1      10.599   9.337  -8.019  0.00  0.00     0.033 H 
ATOM     18  H   LIG d   1       9.608   9.356  -6.543  0.00  0.00     0.033 H 
ATOM     19  H   LIG d   1      12.185  10.150  -5.693  0.00  0.00     0.043 H 
ATOM     20  H   LIG d   1      11.882  11.033  -7.218  0.00  0.00     0.043 H 
ATOM     21  H   LIG d   1      11.073  10.331  -3.980  0.00  0.00     0.048 H 
ATOM     22  H   LIG d   1      11.876  11.925  -4.200  0.00  0.00     0.048 H 
ATOM     23  H   LIG d   1       9.928  13.118  -3.503  0.00  0.00     0.083 H 
ATOM     24  H   LIG d   1       8.881  11.711  -3.741  0.00  0.00     0.083 H 
ATOM     25  H   LIG d   1       8.573  10.937  -0.682  0.00  0.00     0.082 H 
ATOM     26  H   LIG d   1       8.375  10.466  -2.369  0.00  0.00     0.082 H 
ATOM     27  H   LIG d   1      10.690   9.354  -0.695  0.00  0.00     0.033 H 
ATOM     28  H   LIG d   1       9.075   8.688  -0.667  0.00  0.00     0.033 H 
ATOM     29  H   LIG d   1       9.319   8.778  -3.327  0.00  0.00     0.043 H 
ATOM     30  H   LIG d   1      11.055   8.631  -2.893  0.00  0.00     0.043 H 
ATOM     31  H   LIG d   1       9.657   5.275  -3.385  0.00  0.00     0.048 H 
ATOM     32  H   LIG d   1       8.714   6.655  -3.995  0.00  0.00     0.048 H 
ATOM     33  H   LIG d   1      11.419   5.802  -4.691  0.00  0.00     0.083 H 
ATOM     34  H   LIG d   1      11.449   7.480  -4.117  0.00  0.00     0.083 H 
ATOM     35  H   LIG d   1       9.428   7.674  -5.659  0.00  0.00     0.203 HD
ATOM     36  H   LIG d   1       9.714  12.535  -1.454  0.00  0.00     0.203 HD
ENDROOT
BRANCH   5  37
ATOM     37  C   LIG d   1      10.861  12.773  -6.178  0.00  0.00     0.076 C 
ATOM     38  H   LIG d   1      11.092  13.417  -5.328  0.00  0.00     0.052 H 
ATOM     39  H   LIG d   1      11.735  12.700  -6.825  0.00  0.00     0.052 H 
BRANCH  37  40
ATOM     40  C   LIG d   1       9.709  13.359  -6.953  0.00  0.00     0.225 C 
ATOM     41  O   LIG d   1       9.302  14.471  -6.687  0.00  0.00    -0.275 OA
ATOM     42  N   LIG d   1       9.131  12.649  -7.940  0.00  0.00    -0.328 N 
ATOM     43  H   LIG d   1       9.456  11.760  -8.153  0.00  0.00     0.145 HD
ATOM     44  H   LIG d   1       8.389  13.026  -8.439  0.00  0.00     0.145 HD
ENDBRANCH  37  40
ENDBRANCH   5  37
BRANCH   8  45
ATOM     45  C   LIG d   1      11.419  11.483  -1.622  0.00  0.00    -0.043 C 
ATOM     46  H   LIG d   1      11.565  10.448  -1.311  0.00  0.00     0.078 H 
ATOM     47  H   LIG d   1      12.048  11.694  -2.487  0.00  0.00     0.078 H 
ATOM     48  H   LIG d   1      11.691  12.148  -0.803  0.00  0.00     0.078 H 
ENDBRANCH   8  45
BRANCH   1  49
ATOM     49  C   LIG d   1       9.983   5.972  -6.646  0.00  0.00    -0.043 C 
ATOM     50  H   LIG d   1       9.001   6.087  -7.106  0.00  0.00     0.078 H 
ATOM     51  H   LIG d   1      10.741   5.883  -7.425  0.00  0.00     0.078 H 
ATOM     52  H   LIG d   1       9.991   5.074  -6.028  0.00  0.00     0.078 H 
ENDBRANCH   1  49
BRANCH  12  53
ATOM     53  C   LIG d   1      11.167   6.568  -1.734  0.00  0.00     0.076 C 
ATOM     54  H   LIG d   1      11.650   5.942  -2.484  0.00  0.00     0.052 H 
ATOM     55  H   LIG d   1      11.797   7.431  -1.521  0.00  0.00     0.052 H 
BRANCH  53  56
ATOM     56  C   LIG d   1      10.962   5.772  -0.471  0.00  0.00     0.225 C 
ATOM     57  O   LIG d   1      10.383   6.268   0.472  0.00  0.00    -0.275 OA
ATOM     58  N   LIG d   1      11.424   4.508  -0.389  0.00  0.00    -0.328 N 
ATOM     59  H   LIG d   1      11.887   4.112  -1.143  0.00  0.00     0.145 HD
ATOM     60  H   LIG d   1      11.293   3.996   0.423  0.00  0.00     0.145 HD
ENDBRANCH  53  56
ENDBRANCH  12  53
TORSDOF 6
ENDMDL
MODEL 7
REMARK VINA RESULT:      -4.9      1.081      6.590
REMARK  6 active torsions:
REMARK  status: ('A' for Active; 'I' for Inactive)
REMARK    1  A    between atoms: C_1  and  N_2 
REMARK    2  A    between atoms: N_6  and  C_21 
REMARK    3  A    between atoms: N_9  and  C_20 
REMARK    4  A    between atoms: N_13  and  C_16 
REMARK    5  A    between atoms: C_16  and  C_17 
REMARK       I    between atoms: C_17  and  N_19 
REMARK    6  A    between atoms: C_21  and  C_22 
REMARK       I    between atoms: C_22  and  N_24 
ROOT
ATOM      1  N   LIG d   1      11.014  10.211  -2.895  0.00  0.00     0.234 N 
ATOM      2  C   LIG d   1       9.846  10.278  -3.781  0.00  0.00    -0.031 C 
ATOM      3  C   LIG d   1      10.254   9.896  -5.204  0.00  0.00     0.000 C 
ATOM      4  C   LIG d   1       9.350   8.780  -5.722  0.00  0.00     0.004 C 
ATOM      5  N   LIG d   1      10.231   7.670  -6.227  0.00  0.00    -0.289 N 
ATOM      6  C   LIG d   1       9.934   6.508  -5.318  0.00  0.00     0.040 C 
ATOM      7  C   LIG d   1      10.989   5.440  -5.546  0.00  0.00    -0.019 C 
ATOM      8  N   LIG d   1      11.031   4.468  -4.452  0.00  0.00     0.234 N 
ATOM      9  C   LIG d   1      12.098   4.765  -3.513  0.00  0.00    -0.031 C 
ATOM     10  C   LIG d   1      11.668   5.278  -2.153  0.00  0.00     0.000 C 
ATOM     11  C   LIG d   1      11.399   6.786  -2.196  0.00  0.00     0.004 C 
ATOM     12  N   LIG d   1      11.828   7.364  -0.876  0.00  0.00    -0.289 N 
ATOM     13  C   LIG d   1      11.951   8.837  -1.096  0.00  0.00     0.040 C 
ATOM     14  C   LIG d   1      10.680   9.405  -1.711  0.00  0.00    -0.019 C 
ATOM     15  H   LIG d   1       9.076   9.595  -3.425  0.00  0.00     0.082 H 
ATOM     16  H   LIG d   1       9.452  11.296  -3.780  0.00  0.00     0.082 H 
ATOM     17  H   LIG d   1      10.165  10.768  -5.854  0.00  0.00     0.033 H 
ATOM     18  H   LIG d   1      11.290   9.553  -5.208  0.00  0.00     0.033 H 
ATOM     19  H   LIG d   1       8.731   8.387  -4.928  0.00  0.00     0.043 H 
ATOM     20  H   LIG d   1       8.750   9.134  -6.553  0.00  0.00     0.043 H 
ATOM     21  H   LIG d   1       9.977   6.885  -4.301  0.00  0.00     0.048 H 
ATOM     22  H   LIG d   1       8.943   6.149  -5.575  0.00  0.00     0.048 H 
ATOM     23  H   LIG d   1      10.770   4.905  -6.481  0.00  0.00     0.083 H 
ATOM     24  H   LIG d   1      11.971   5.911  -5.658  0.00  0.00     0.083 H 
ATOM     25  H   LIG d   1      12.696   3.848  -3.362  0.00  0.00     0.082 H 
ATOM     26  H   LIG d   1      12.781   5.501  -3.966  0.00  0.00     0.082 H 
ATOM     27  H   LIG d   1      10.826   4.754  -1.727  0.00  0.00     0.033 H 
ATOM     28  H   LIG d   1      12.512   5.120  -1.450  0.00  0.00     0.033 H 
ATOM     29  H   LIG d   1      11.985   7.249  -2.979  0.00  0.00     0.043 H 
ATOM     30  H   LIG d   1      10.341   6.967  -2.318  0.00  0.00     0.043 H 
ATOM     31  H   LIG d   1      12.129   9.299  -0.122  0.00  0.00     0.048 H 
ATOM     32  H   LIG d   1      12.805   9.015  -1.744  0.00  0.00     0.048 H 
ATOM     33  H   LIG d   1      10.186  10.059  -0.982  0.00  0.00     0.083 H 
ATOM     34  H   LIG d   1       9.984   8.628  -2.009  0.00  0.00     0.083 H 
ATOM     35  H   LIG d   1      11.791   9.792  -3.381  0.00  0.00     0.203 HD
ATOM     36  H   LIG d   1      11.272   3.560  -4.892  0.00  0.00     0.203 HD
ENDROOT
BRANCH   5  37
ATOM     37  C   LIG d   1       9.624   7.289  -7.549  0.00  0.00     0.076 C 
ATOM     38  H   LIG d   1      10.192   6.467  -7.987  0.00  0.00     0.052 H 
ATOM     39  H   LIG d   1       8.590   6.976  -7.398  0.00  0.00     0.052 H 
BRANCH  37  40
ATOM     40  C   LIG d   1       9.658   8.474  -8.478  0.00  0.00     0.225 C 
ATOM     41  O   LIG d   1      10.721   8.896  -8.885  0.00  0.00    -0.275 OA
ATOM     42  N   LIG d   1       8.510   9.067  -8.858  0.00  0.00    -0.328 N 
ATOM     43  H   LIG d   1       7.659   8.730  -8.533  0.00  0.00     0.145 HD
ATOM     44  H   LIG d   1       8.531   9.830  -9.457  0.00  0.00     0.145 HD
ENDBRANCH  37  40
ENDBRANCH   5  37
BRANCH   8  45
ATOM     45  C   LIG d   1       9.720   4.290  -3.844  0.00  0.00    -0.043 C 
ATOM     46  H   LIG d   1       9.146   5.212  -3.941  0.00  0.00     0.078 H 
ATOM     47  H   LIG d   1       9.192   3.480  -4.347  0.00  0.00     0.078 H 
ATOM     48  H   LIG d   1       9.838   4.047  -2.788  0.00  0.00     0.078 H 
ENDBRANCH   8  45
BRANCH   1  49
ATOM     49  C   LIG d   1      11.377  11.573  -2.467  0.00  0.00    -0.043 C 
ATOM     50  H   LIG d   1      12.400  11.575  -2.090  0.00  0.00     0.078 H 
ATOM     51  H   LIG d   1      11.301  12.253  -3.315  0.00  0.00     0.078 H 
ATOM     52  H   LIG d   1      10.699  11.899  -1.678  0.00  0.00     0.078 H 
ENDBRANCH   1  49
BRANCH  12  53
ATOM     53  C   LIG d   1      10.634   7.197   0.022  0.00  0.00     0.076 C 
ATOM     54  H   LIG d   1      10.198   8.174   0.231  0.00  0.00     0.052 H 
ATOM     55  H   LIG d   1       9.893   6.567  -0.470  0.00  0.00     0.052 H 
BRANCH  53  56
ATOM     56  C   LIG d   1      11.063   6.553   1.314  0.00  0.00     0.225 C 
ATOM     57  O   LIG d   1      11.559   7.227   2.193  0.00  0.00    -0.275 OA
ATOM     58  N   LIG d   1      10.897   5.228   1.494  0.00  0.00    -0.328 N 
ATOM     59  H   LIG d   1      10.500   4.689   0.793  0.00  0.00     0.145 HD
ATOM     60  H   LIG d   1      11.173   4.813   2.326  0.00  0.00     0.145 HD
ENDBRANCH  53  56
ENDBRANCH  12  53
TORSDOF 6
ENDMDL
MODEL 8
REMARK VINA RESULT:      -4.8      2.574      6.440
REMARK  6 active torsions:
REMARK  status: ('A' for Active; 'I' for Inactive)
REMARK    1  A    between atoms: C_1  and  N_2 
REMARK    2  A    between atoms: N_6  and  C_21 
REMARK    3  A    between atoms: N_9  and  C_20 
REMARK    4  A    between atoms: N_13  and  C_16 
REMARK    5  A    between atoms: C_16  and  C_17 
REMARK       I    between atoms: C_17  and  N_19 
REMARK    6  A    between atoms: C_21  and  C_22 
REMARK       I    between atoms: C_22  and  N_24 
ROOT
ATOM      1  N   LIG d   1       9.805   8.045  -6.280  0.00  0.00     0.234 N 
ATOM      2  C   LIG d   1      10.766   9.142  -6.443  0.00  0.00    -0.031 C 
ATOM      3  C   LIG d   1      10.105  10.468  -6.069  0.00  0.00     0.000 C 
ATOM      4  C   LIG d   1      10.951  11.194  -5.027  0.00  0.00     0.004 C 
ATOM      5  N   LIG d   1      10.054  11.555  -3.874  0.00  0.00    -0.289 N 
ATOM      6  C   LIG d   1      10.594  10.765  -2.713  0.00  0.00     0.040 C 
ATOM      7  C   LIG d   1       9.580  10.818  -1.585  0.00  0.00    -0.019 C 
ATOM      8  N   LIG d   1       9.814   9.772  -0.587  0.00  0.00     0.234 N 
ATOM      9  C   LIG d   1       8.940   8.631  -0.792  0.00  0.00    -0.031 C 
ATOM     10  C   LIG d   1       9.602   7.365  -1.300  0.00  0.00     0.000 C 
ATOM     11  C   LIG d   1       9.769   7.406  -2.822  0.00  0.00     0.004 C 
ATOM     12  N   LIG d   1       9.578   6.008  -3.340  0.00  0.00    -0.289 N 
ATOM     13  C   LIG d   1       9.328   6.147  -4.807  0.00  0.00     0.040 C 
ATOM     14  C   LIG d   1      10.415   6.980  -5.471  0.00  0.00    -0.019 C 
ATOM     15  H   LIG d   1      11.630   8.969  -5.804  0.00  0.00     0.082 H 
ATOM     16  H   LIG d   1      11.092   9.182  -7.485  0.00  0.00     0.082 H 
ATOM     17  H   LIG d   1      10.011  11.091  -6.961  0.00  0.00     0.033 H 
ATOM     18  H   LIG d   1       9.111  10.280  -5.660  0.00  0.00     0.033 H 
ATOM     19  H   LIG d   1      11.739  10.553  -4.656  0.00  0.00     0.043 H 
ATOM     20  H   LIG d   1      11.352  12.114  -5.438  0.00  0.00     0.043 H 
ATOM     21  H   LIG d   1      10.733   9.746  -3.063  0.00  0.00     0.048 H 
ATOM     22  H   LIG d   1      11.533  11.225  -2.425  0.00  0.00     0.048 H 
ATOM     23  H   LIG d   1       9.638  11.796  -1.087  0.00  0.00     0.083 H 
ATOM     24  H   LIG d   1       8.569  10.715  -1.994  0.00  0.00     0.083 H 
ATOM     25  H   LIG d   1       8.440   8.397   0.165  0.00  0.00     0.082 H 
ATOM     26  H   LIG d   1       8.138   8.913  -1.493  0.00  0.00     0.082 H 
ATOM     27  H   LIG d   1      10.541   7.133  -0.821  0.00  0.00     0.033 H 
ATOM     28  H   LIG d   1       8.926   6.515  -1.071  0.00  0.00     0.033 H 
ATOM     29  H   LIG d   1       9.011   8.040  -3.264  0.00  0.00     0.043 H 
ATOM     30  H   LIG d   1      10.769   7.729  -3.074  0.00  0.00     0.043 H 
ATOM     31  H   LIG d   1       9.321   5.141  -5.234  0.00  0.00     0.048 H 
ATOM     32  H   LIG d   1       8.353   6.605  -4.945  0.00  0.00     0.048 H 
ATOM     33  H   LIG d   1      11.005   6.339  -6.138  0.00  0.00     0.083 H 
ATOM     34  H   LIG d   1      11.081   7.437  -4.747  0.00  0.00     0.083 H 
ATOM     35  H   LIG d   1       8.972   8.382  -5.824  0.00  0.00     0.203 HD
ATOM     36  H   LIG d   1       9.544  10.189   0.324  0.00  0.00     0.203 HD
ENDROOT
BRANCH   5  37
ATOM     37  C   LIG d   1      10.407  12.983  -3.565  0.00  0.00     0.076 C 
ATOM     38  H   LIG d   1      10.737  13.060  -2.529  0.00  0.00     0.052 H 
ATOM     39  H   LIG d   1      11.209  13.312  -4.227  0.00  0.00     0.052 H 
BRANCH  37  40
ATOM     40  C   LIG d   1       9.196  13.856  -3.772  0.00  0.00     0.225 C 
ATOM     41  O   LIG d   1       9.129  14.581  -4.742  0.00  0.00    -0.275 OA
ATOM     42  N   LIG d   1       8.188  13.832  -2.879  0.00  0.00    -0.328 N 
ATOM     43  H   LIG d   1       8.241  13.253  -2.102  0.00  0.00     0.145 HD
ATOM     44  H   LIG d   1       7.408  14.394  -3.011  0.00  0.00     0.145 HD
ENDBRANCH  37  40
ENDBRANCH   5  37
BRANCH   8  45
ATOM     45  C   LIG d   1      11.228   9.442  -0.480  0.00  0.00    -0.043 C 
ATOM     46  H   LIG d   1      11.519   9.424   0.570  0.00  0.00     0.078 H 
ATOM     47  H   LIG d   1      11.407   8.462  -0.923  0.00  0.00     0.078 H 
ATOM     48  H   LIG d   1      11.818  10.192  -1.006  0.00  0.00     0.078 H 
ENDBRANCH   8  45
BRANCH   1  49
ATOM     49  C   LIG d   1       9.455   7.504  -7.606  0.00  0.00    -0.043 C 
ATOM     50  H   LIG d   1      10.347   7.471  -8.232  0.00  0.00     0.078 H 
ATOM     51  H   LIG d   1       9.052   6.497  -7.493  0.00  0.00     0.078 H 
ATOM     52  H   LIG d   1       8.707   8.144  -8.074  0.00  0.00     0.078 H 
ENDBRANCH   1  49
BRANCH  12  53
ATOM     53  C   LIG d   1      10.936   5.370  -3.230  0.00  0.00     0.076 C 
ATOM     54  H   LIG d   1      11.277   5.070  -4.221  0.00  0.00     0.052 H 
ATOM     55  H   LIG d   1      11.640   6.085  -2.805  0.00  0.00     0.052 H 
BRANCH  53  56
ATOM     56  C   LIG d   1      10.850   4.158  -2.341  0.00  0.00     0.225 C 
ATOM     57  O   LIG d   1      10.373   3.126  -2.764  0.00  0.00    -0.275 OA
ATOM     58  N   LIG d   1      11.304   4.219  -1.073  0.00  0.00    -0.328 N 
ATOM     59  H   LIG d   1      11.686   5.043  -0.734  0.00  0.00     0.145 HD
ATOM     60  H   LIG d   1      11.249   3.438  -0.500  0.00  0.00     0.145 HD
ENDBRANCH  53  56
ENDBRANCH  12  53
TORSDOF 6
ENDMDL
MODEL 9
REMARK VINA RESULT:      -4.8      2.118      7.307
REMARK  6 active torsions:
REMARK  status: ('A' for Active; 'I' for Inactive)
REMARK    1  A    between atoms: C_1  and  N_2 
REMARK    2  A    between atoms: N_6  and  C_21 
REMARK    3  A    between atoms: N_9  and  C_20 
REMARK    4  A    between atoms: N_13  and  C_16 
REMARK    5  A    between atoms: C_16  and  C_17 
REMARK       I    between atoms: C_17  and  N_19 
REMARK    6  A    between atoms: C_21  and  C_22 
REMARK       I    between atoms: C_22  and  N_24 
ROOT
ATOM      1  N   LIG d   1      10.252   7.245  -2.510  0.00  0.00     0.234 N 
ATOM      2  C   LIG d   1      11.266   7.001  -3.543  0.00  0.00    -0.031 C 
ATOM      3  C   LIG d   1      10.625   7.094  -4.928  0.00  0.00     0.000 C 
ATOM      4  C   LIG d   1      11.400   8.083  -5.794  0.00  0.00     0.004 C 
ATOM      5  N   LIG d   1      10.417   9.072  -6.358  0.00  0.00    -0.289 N 
ATOM      6  C   LIG d   1      10.819  10.391  -5.755  0.00  0.00     0.040 C 
ATOM      7  C   LIG d   1       9.710  11.394  -6.014  0.00  0.00    -0.019 C 
ATOM      8  N   LIG d   1       9.813  12.564  -5.140  0.00  0.00     0.234 N 
ATOM      9  C   LIG d   1       8.918  12.462  -4.001  0.00  0.00    -0.031 C 
ATOM     10  C   LIG d   1       9.574  12.228  -2.655  0.00  0.00     0.000 C 
ATOM     11  C   LIG d   1       9.879  10.741  -2.444  0.00  0.00     0.004 C 
ATOM     12  N   LIG d   1       9.683  10.438  -0.985  0.00  0.00    -0.289 N 
ATOM     13  C   LIG d   1       9.571   8.950  -0.889  0.00  0.00     0.040 C 
ATOM     14  C   LIG d   1      10.745   8.269  -1.577  0.00  0.00    -0.019 C 
ATOM     15  H   LIG d   1      12.061   7.740  -3.458  0.00  0.00     0.082 H 
ATOM     16  H   LIG d   1      11.686   6.003  -3.406  0.00  0.00     0.082 H 
ATOM     17  H   LIG d   1      10.636   6.110  -5.400  0.00  0.00     0.033 H 
ATOM     18  H   LIG d   1       9.591   7.431  -4.832  0.00  0.00     0.033 H 
ATOM     19  H   LIG d   1      12.126   8.625  -5.204  0.00  0.00     0.043 H 
ATOM     20  H   LIG d   1      11.871   7.571  -6.625  0.00  0.00     0.043 H 
ATOM     21  H   LIG d   1      10.950  10.223  -4.690  0.00  0.00     0.048 H 
ATOM     22  H   LIG d   1      11.745  10.690  -6.234  0.00  0.00     0.048 H 
ATOM     23  H   LIG d   1       9.760  11.733  -7.059  0.00  0.00     0.083 H 
ATOM     24  H   LIG d   1       8.737  10.913  -5.870  0.00  0.00     0.083 H 
ATOM     25  H   LIG d   1       8.324  13.392  -3.938  0.00  0.00     0.082 H 
ATOM     26  H   LIG d   1       8.194  11.651  -4.184  0.00  0.00     0.082 H 
ATOM     27  H   LIG d   1      10.457  12.825  -2.481  0.00  0.00     0.033 H 
ATOM     28  H   LIG d   1       8.848  12.524  -1.869  0.00  0.00     0.033 H 
ATOM     29  H   LIG d   1       9.190  10.133  -3.015  0.00  0.00     0.043 H 
ATOM     30  H   LIG d   1      10.909  10.538  -2.698  0.00  0.00     0.043 H 
ATOM     31  H   LIG d   1       9.565   8.691   0.173  0.00  0.00     0.048 H 
ATOM     32  H   LIG d   1       8.631   8.649  -1.341  0.00  0.00     0.048 H 
ATOM     33  H   LIG d   1      11.368   7.772  -0.823  0.00  0.00     0.083 H 
ATOM     34  H   LIG d   1      11.360   8.971  -2.130  0.00  0.00     0.083 H 
ATOM     35  H   LIG d   1       9.395   7.560  -2.937  0.00  0.00     0.203 HD
ATOM     36  H   LIG d   1       9.477  13.367  -5.705  0.00  0.00     0.203 HD
ENDROOT
BRANCH   5  37
ATOM     37  C   LIG d   1      10.795   9.182  -7.809  0.00  0.00     0.076 C 
ATOM     38  H   LIG d   1      10.886  10.233  -8.083  0.00  0.00     0.052 H 
ATOM     39  H   LIG d   1      11.748   8.679  -7.976  0.00  0.00     0.052 H 
BRANCH  37  40
ATOM     40  C   LIG d   1       9.730   8.534  -8.656  0.00  0.00     0.225 C 
ATOM     41  O   LIG d   1      10.020   7.620  -9.400  0.00  0.00    -0.275 OA
ATOM     42  N   LIG d   1       8.457   8.969  -8.588  0.00  0.00    -0.328 N 
ATOM     43  H   LIG d   1       8.225   9.700  -7.993  0.00  0.00     0.145 HD
ATOM     44  H   LIG d   1       7.772   8.552  -9.133  0.00  0.00     0.145 HD
ENDBRANCH  37  40
ENDBRANCH   5  37
BRANCH   8  45
ATOM     45  C   LIG d   1      11.198  12.857  -4.799  0.00  0.00    -0.043 C 
ATOM     46  H   LIG d   1      11.653  13.445  -5.596  0.00  0.00     0.078 H 
ATOM     47  H   LIG d   1      11.231  13.423  -3.868  0.00  0.00     0.078 H 
ATOM     48  H   LIG d   1      11.748  11.924  -4.677  0.00  0.00     0.078 H 
ENDBRANCH   8  45
BRANCH   1  49
ATOM     49  C   LIG d   1      10.003   5.996  -1.770  0.00  0.00    -0.043 C 
ATOM     50  H   LIG d   1      10.953   5.562  -1.458  0.00  0.00     0.078 H 
ATOM     51  H   LIG d   1       9.395   6.210  -0.890  0.00  0.00     0.078 H 
ATOM     52  H   LIG d   1       9.475   5.291  -2.413  0.00  0.00     0.078 H 
ENDBRANCH   1  49
BRANCH  12  53
ATOM     53  C   LIG d   1      10.999  10.777  -0.342  0.00  0.00     0.076 C 
ATOM     54  H   LIG d   1      11.497   9.860  -0.029  0.00  0.00     0.052 H 
ATOM     55  H   LIG d   1      11.628  11.305  -1.058  0.00  0.00     0.052 H 
BRANCH  53  56
ATOM     56  C   LIG d   1      10.760  11.653   0.860  0.00  0.00     0.225 C 
ATOM     57  O   LIG d   1      11.470  11.549   1.838  0.00  0.00    -0.275 OA
ATOM     58  N   LIG d   1       9.757  12.554   0.849  0.00  0.00    -0.328 N 
ATOM     59  H   LIG d   1       9.191  12.638   0.067  0.00  0.00     0.145 HD
ATOM     60  H   LIG d   1       9.603  13.118   1.622  0.00  0.00     0.145 HD
ENDBRANCH  53  56
ENDBRANCH  12  53
TORSDOF 6
ENDMDL
MODEL 10
REMARK VINA RESULT:      -4.7     11.176     13.528
REMARK  6 active torsions:
REMARK  status: ('A' for Active; 'I' for Inactive)
REMARK    1  A    between atoms: C_1  and  N_2 
REMARK    2  A    between atoms: N_6  and  C_21 
REMARK    3  A    between atoms: N_9  and  C_20 
REMARK    4  A    between atoms: N_13  and  C_16 
REMARK    5  A    between atoms: C_16  and  C_17 
REMARK       I    between atoms: C_17  and  N_19 
REMARK    6  A    between atoms: C_21  and  C_22 
REMARK       I    between atoms: C_22  and  N_24 
ROOT
ATOM      1  N   LIG d   1       3.907  -1.451  -5.012  0.00  0.00     0.234 N 
ATOM      2  C   LIG d   1       5.085  -2.213  -4.582  0.00  0.00    -0.031 C 
ATOM      3  C   LIG d   1       4.794  -3.711  -4.675  0.00  0.00     0.000 C 
ATOM      4  C   LIG d   1       5.875  -4.399  -5.505  0.00  0.00     0.004 C 
ATOM      5  N   LIG d   1       5.191  -5.202  -6.578  0.00  0.00    -0.289 N 
ATOM      6  C   LIG d   1       5.624  -4.557  -7.867  0.00  0.00     0.040 C 
ATOM      7  C   LIG d   1       4.752  -5.094  -8.988  0.00  0.00    -0.019 C 
ATOM      8  N   LIG d   1       4.814  -4.251 -10.183  0.00  0.00     0.234 N 
ATOM      9  C   LIG d   1       3.678  -3.349 -10.262  0.00  0.00    -0.031 C 
ATOM     10  C   LIG d   1       3.973  -1.882 -10.024  0.00  0.00     0.000 C 
ATOM     11  C   LIG d   1       4.014  -1.566  -8.526  0.00  0.00     0.004 C 
ATOM     12  N   LIG d   1       3.452  -0.185  -8.334  0.00  0.00    -0.289 N 
ATOM     13  C   LIG d   1       3.118  -0.078  -6.881  0.00  0.00     0.040 C 
ATOM     14  C   LIG d   1       4.312  -0.457  -6.017  0.00  0.00    -0.019 C 
ATOM     15  H   LIG d   1       5.934  -1.964  -5.216  0.00  0.00     0.082 H 
ATOM     16  H   LIG d   1       5.321  -1.955  -3.547  0.00  0.00     0.082 H 
ATOM     17  H   LIG d   1       4.776  -4.141  -3.672  0.00  0.00     0.033 H 
ATOM     18  H   LIG d   1       3.822  -3.867  -5.147  0.00  0.00     0.033 H 
ATOM     19  H   LIG d   1       6.515  -3.670  -5.983  0.00  0.00     0.043 H 
ATOM     20  H   LIG d   1       6.447  -5.084  -4.890  0.00  0.00     0.043 H 
ATOM     21  H   LIG d   1       5.485  -3.487  -7.746  0.00  0.00     0.048 H 
ATOM     22  H   LIG d   1       6.667  -4.816  -8.017  0.00  0.00     0.048 H 
ATOM     23  H   LIG d   1       5.084  -6.107  -9.256  0.00  0.00     0.083 H 
ATOM     24  H   LIG d   1       3.715  -5.168  -8.643  0.00  0.00     0.083 H 
ATOM     25  H   LIG d   1       3.220  -3.451 -11.262  0.00  0.00     0.082 H 
ATOM     26  H   LIG d   1       2.910  -3.674  -9.542  0.00  0.00     0.082 H 
ATOM     27  H   LIG d   1       4.867  -1.523 -10.513  0.00  0.00     0.033 H 
ATOM     28  H   LIG d   1       3.136  -1.294 -10.455  0.00  0.00     0.033 H 
ATOM     29  H   LIG d   1       3.396  -2.265  -7.979  0.00  0.00     0.043 H 
ATOM     30  H   LIG d   1       5.037  -1.568  -8.177  0.00  0.00     0.043 H 
ATOM     31  H   LIG d   1       2.835   0.959  -6.687  0.00  0.00     0.048 H 
ATOM     32  H   LIG d   1       2.272  -0.729  -6.677  0.00  0.00     0.048 H 
ATOM     33  H   LIG d   1       4.673   0.435  -5.488  0.00  0.00     0.083 H 
ATOM     34  H   LIG d   1       5.127  -0.870  -6.601  0.00  0.00     0.083 H 
ATOM     35  H   LIG d   1       3.221  -2.073  -5.410  0.00  0.00     0.203 HD
ATOM     36  H   LIG d   1       4.729  -4.900 -10.989  0.00  0.00     0.203 HD
ENDROOT
BRANCH   5  37
ATOM     37  C   LIG d   1       5.899  -6.528  -6.554  0.00  0.00     0.076 C 
ATOM     38  H   LIG d   1       6.337  -6.724  -7.534  0.00  0.00     0.052 H 
ATOM     39  H   LIG d   1       6.689  -6.506  -5.802  0.00  0.00     0.052 H 
BRANCH  37  40
ATOM     40  C   LIG d   1       4.915  -7.618  -6.217  0.00  0.00     0.225 C 
ATOM     41  O   LIG d   1       4.544  -7.767  -5.072  0.00  0.00    -0.275 OA
ATOM     42  N   LIG d   1       4.448  -8.428  -7.187  0.00  0.00    -0.328 N 
ATOM     43  H   LIG d   1       4.745  -8.310  -8.103  0.00  0.00     0.145 HD
ATOM     44  H   LIG d   1       3.814  -9.129  -6.971  0.00  0.00     0.145 HD
ENDBRANCH  37  40
ENDBRANCH   5  37
BRANCH   8  45
ATOM     45  C   LIG d   1       6.112  -3.605 -10.315  0.00  0.00    -0.043 C 
ATOM     46  H   LIG d   1       6.011  -2.539 -10.109  0.00  0.00     0.078 H 
ATOM     47  H   LIG d   1       6.812  -4.047  -9.606  0.00  0.00     0.078 H 
ATOM     48  H   LIG d   1       6.486  -3.744 -11.330  0.00  0.00     0.078 H 
ENDBRANCH   8  45
BRANCH   1  49
ATOM     49  C   LIG d   1       3.326  -0.756  -3.850  0.00  0.00    -0.043 C 
ATOM     50  H   LIG d   1       3.043  -1.487  -3.093  0.00  0.00     0.078 H 
ATOM     51  H   LIG d   1       4.062  -0.067  -3.434  0.00  0.00     0.078 H 
ATOM     52  H   LIG d   1       2.444  -0.198  -4.164  0.00  0.00     0.078 H 
ENDBRANCH   1  49
BRANCH  12  53
ATOM     53  C   LIG d   1       4.622   0.737  -8.539  0.00  0.00     0.076 C 
ATOM     54  H   LIG d   1       4.959   1.115  -7.574  0.00  0.00     0.052 H 
ATOM     55  H   LIG d   1       5.435   0.192  -9.019  0.00  0.00     0.052 H 
BRANCH  53  56
ATOM     56  C   LIG d   1       4.206   1.892  -9.412  0.00  0.00     0.225 C 
ATOM     57  O   LIG d   1       4.216   3.021  -8.970  0.00  0.00    -0.275 OA
ATOM     58  N   LIG d   1       3.820   1.670 -10.684  0.00  0.00    -0.328 N 
ATOM     59  H   LIG d   1       3.812   0.767 -11.038  0.00  0.00     0.145 HD
ATOM     60  H   LIG d   1       3.552   2.412 -11.247  0.00  0.00     0.145 HD
ENDBRANCH  53  56
ENDBRANCH  12  53
TORSDOF 6
ENDMDL
