MODEL 1
REMARK VINA RESULT:      -8.3      0.000      0.000
REMARK  5 active torsions:
REMARK  status: ('A' for Active; 'I' for Inactive)
REMARK    1  A    between atoms: C_4  and  C_7 
REMARK    2  A    between atoms: C_7  and  S_8 
REMARK    3  A    between atoms: S_8  and  N_11 
REMARK    4  A    between atoms: N_11  and  C_12 
REMARK       I    between atoms: N_26  and  C_28 
REMARK       I    between atoms: C_28  and  N_30 
REMARK    5  A    between atoms: N_30  and  C_31 
ROOT
ATOM      1  C   LIG d   1       5.788   0.026  -7.070  0.00  0.00     0.112 C 
ATOM      2  C   LIG d   1       6.552   0.100  -8.203  0.00  0.00    -0.032 C 
ATOM      3  C   LIG d   1       5.938  -0.087  -9.447  0.00  0.00    -0.040 C 
ATOM      4  C   LIG d   1       4.602  -0.314  -9.532  0.00  0.00     0.027 C 
ATOM      5  N   LIG d   1       3.828  -0.299  -8.418  0.00  0.00    -0.310 N 
ATOM      6  C   LIG d   1       4.405  -0.213  -7.195  0.00  0.00     0.274 C 
ATOM      7  O   LIG d   1       3.722  -0.345  -6.192  0.00  0.00    -0.266 OA
ATOM      8  C   LIG d   1       2.365  -0.310  -8.461  0.00  0.00     0.031 C 
ATOM      9  C   LIG d   1       1.828  -0.829  -9.782  0.00  0.00    -0.006 C 
ATOM     10  H   LIG d   1       0.775  -0.554  -9.839  0.00  0.00     0.033 H 
ATOM     11  C   LIG d   1       2.559  -0.152 -10.943  0.00  0.00    -0.037 C 
ATOM     12  C   LIG d   1       4.028  -0.580 -10.904  0.00  0.00     0.016 C 
ATOM     13  H   LIG d   1       4.593  -0.048 -11.669  0.00  0.00     0.038 H 
ATOM     14  C   LIG d   1       4.097  -2.097 -11.153  0.00  0.00     0.024 C 
ATOM     15  N   LIG d   1       3.322  -2.752 -10.087  0.00  0.00    -0.284 N 
ATOM     16  C   LIG d   1       1.927  -2.345  -9.883  0.00  0.00     0.021 C 
ATOM     17  C   LIG d   1       3.883  -3.703  -9.314  0.00  0.00     0.306 C 
ATOM     18  O   LIG d   1       5.010  -4.094  -9.552  0.00  0.00    -0.252 OA
ATOM     19  N   LIG d   1       3.194  -4.222  -8.278  0.00  0.00    -0.269 N 
ATOM     20  H   LIG d   1       7.612   0.300  -8.139  0.00  0.00     0.064 H 
ATOM     21  H   LIG d   1       6.533  -0.051 -10.347  0.00  0.00     0.064 H 
ATOM     22  H   LIG d   1       2.000   0.705  -8.306  0.00  0.00     0.050 H 
ATOM     23  H   LIG d   1       1.994  -0.944  -7.656  0.00  0.00     0.050 H 
ATOM     24  H   LIG d   1       2.111  -0.460 -11.888  0.00  0.00     0.028 H 
ATOM     25  H   LIG d   1       2.489   0.930 -10.839  0.00  0.00     0.028 H 
ATOM     26  H   LIG d   1       3.662  -2.333 -12.126  0.00  0.00     0.047 H 
ATOM     27  H   LIG d   1       5.134  -2.431 -11.120  0.00  0.00     0.047 H 
ATOM     28  H   LIG d   1       1.551  -2.793  -8.963  0.00  0.00     0.047 H 
ATOM     29  H   LIG d   1       1.324  -2.691 -10.722  0.00  0.00     0.047 H 
ATOM     30  H   LIG d   1       2.269  -3.968  -8.135  0.00  0.00     0.156 HD
ENDROOT
BRANCH   1  31
ATOM     31  N   LIG d   1       6.371   0.185  -5.808  0.00  0.00    -0.215 N 
ATOM     32  H   LIG d   1       6.224   1.001  -5.304  0.00  0.00     0.173 HD
BRANCH  31  33
ATOM     33  S   LIG d   1       7.316  -1.019  -5.173  0.00  0.00     0.047 S 
ATOM     34  O   LIG d   1       6.754  -2.223  -5.675  0.00  0.00    -0.155 OA
ATOM     35  O   LIG d   1       8.647  -0.648  -5.506  0.00  0.00    -0.155 OA
BRANCH  33  36
ATOM     36  C   LIG d   1       7.066  -0.911  -3.380  0.00  0.00     0.110 C 
ATOM     37  H   LIG d   1       7.414  -1.829  -2.909  0.00  0.00     0.057 H 
ATOM     38  H   LIG d   1       7.627  -0.064  -2.985  0.00  0.00     0.057 H 
BRANCH  36  39
ATOM     39  C   LIG d   1       5.600  -0.721  -3.088  0.00  0.00    -0.025 A 
ATOM     40  C   LIG d   1       4.740  -1.802  -3.139  0.00  0.00    -0.057 A 
ATOM     41  C   LIG d   1       3.394  -1.628  -2.871  0.00  0.00    -0.061 A 
ATOM     42  H   LIG d   1       5.118  -2.783  -3.387  0.00  0.00     0.062 H 
ATOM     43  C   LIG d   1       2.909  -0.373  -2.553  0.00  0.00    -0.062 A 
ATOM     44  H   LIG d   1       2.722  -2.472  -2.911  0.00  0.00     0.062 H 
ATOM     45  C   LIG d   1       3.770   0.707  -2.502  0.00  0.00    -0.061 A 
ATOM     46  H   LIG d   1       1.859  -0.237  -2.345  0.00  0.00     0.062 H 
ATOM     47  C   LIG d   1       5.116   0.532  -2.766  0.00  0.00    -0.057 A 
ATOM     48  H   LIG d   1       3.391   1.688  -2.255  0.00  0.00     0.062 H 
ATOM     49  H   LIG d   1       5.789   1.377  -2.722  0.00  0.00     0.062 H 
ENDBRANCH  36  39
ENDBRANCH  33  36
ENDBRANCH  31  33
ENDBRANCH   1  31
BRANCH  19  50
ATOM     50  C   LIG d   1       3.815  -5.127  -7.408  0.00  0.00     0.035 A 
ATOM     51  C   LIG d   1       4.245  -4.705  -6.157  0.00  0.00    -0.038 A 
ATOM     52  C   LIG d   1       4.856  -5.598  -5.300  0.00  0.00    -0.025 A 
ATOM     53  H   LIG d   1       4.101  -3.678  -5.855  0.00  0.00     0.064 H 
ATOM     54  C   LIG d   1       5.041  -6.914  -5.687  0.00  0.00     0.123 A 
ATOM     55  H   LIG d   1       5.191  -5.270  -4.327  0.00  0.00     0.065 H 
ATOM     56  C   LIG d   1       4.614  -7.338  -6.934  0.00  0.00    -0.025 A 
ATOM     57  F   LIG d   1       5.640  -7.787  -4.848  0.00  0.00    -0.205 F 
ATOM     58  C   LIG d   1       3.995  -6.448  -7.792  0.00  0.00    -0.038 A 
ATOM     59  H   LIG d   1       4.758  -8.365  -7.235  0.00  0.00     0.065 H 
ATOM     60  H   LIG d   1       3.658  -6.780  -8.763  0.00  0.00     0.064 H 
ENDBRANCH  19  50
TORSDOF 5
ENDMDL
MODEL 2
REMARK VINA RESULT:      -8.3      3.195      7.302
REMARK  5 active torsions:
REMARK  status: ('A' for Active; 'I' for Inactive)
REMARK    1  A    between atoms: C_4  and  C_7 
REMARK    2  A    between atoms: C_7  and  S_8 
REMARK    3  A    between atoms: S_8  and  N_11 
REMARK    4  A    between atoms: N_11  and  C_12 
REMARK       I    between atoms: N_26  and  C_28 
REMARK       I    between atoms: C_28  and  N_30 
REMARK    5  A    between atoms: N_30  and  C_31 
ROOT
ATOM      1  C   LIG d   1       4.715  -1.838  -7.124  0.00  0.00     0.112 C 
ATOM      2  C   LIG d   1       4.997  -2.971  -6.412  0.00  0.00    -0.032 C 
ATOM      3  C   LIG d   1       4.730  -2.991  -5.038  0.00  0.00    -0.040 C 
ATOM      4  C   LIG d   1       4.178  -1.913  -4.424  0.00  0.00     0.027 C 
ATOM      5  N   LIG d   1       3.815  -0.822  -5.143  0.00  0.00    -0.310 N 
ATOM      6  C   LIG d   1       4.144  -0.737  -6.455  0.00  0.00     0.274 C 
ATOM      7  O   LIG d   1       3.946   0.303  -7.063  0.00  0.00    -0.266 OA
ATOM      8  C   LIG d   1       3.017   0.272  -4.589  0.00  0.00     0.031 C 
ATOM      9  C   LIG d   1       3.063   0.312  -3.072  0.00  0.00    -0.006 C 
ATOM     10  H   LIG d   1       2.251   0.956  -2.736  0.00  0.00     0.033 H 
ATOM     11  C   LIG d   1       2.824  -1.089  -2.507  0.00  0.00    -0.037 C 
ATOM     12  C   LIG d   1       3.991  -1.985  -2.926  0.00  0.00     0.016 C 
ATOM     13  H   LIG d   1       3.808  -3.012  -2.610  0.00  0.00     0.038 H 
ATOM     14  C   LIG d   1       5.274  -1.449  -2.269  0.00  0.00     0.024 C 
ATOM     15  N   LIG d   1       5.465  -0.069  -2.742  0.00  0.00    -0.284 N 
ATOM     16  C   LIG d   1       4.373   0.893  -2.556  0.00  0.00     0.021 C 
ATOM     17  C   LIG d   1       6.617   0.302  -3.333  0.00  0.00     0.306 C 
ATOM     18  O   LIG d   1       7.547  -0.479  -3.399  0.00  0.00    -0.252 OA
ATOM     19  N   LIG d   1       6.741   1.541  -3.851  0.00  0.00    -0.269 N 
ATOM     20  H   LIG d   1       5.418  -3.837  -6.902  0.00  0.00     0.064 H 
ATOM     21  H   LIG d   1       4.966  -3.872  -4.461  0.00  0.00     0.064 H 
ATOM     22  H   LIG d   1       1.982   0.149  -4.906  0.00  0.00     0.050 H 
ATOM     23  H   LIG d   1       3.394   1.217  -4.978  0.00  0.00     0.050 H 
ATOM     24  H   LIG d   1       2.769  -1.041  -1.419  0.00  0.00     0.028 H 
ATOM     25  H   LIG d   1       1.891  -1.490  -2.904  0.00  0.00     0.028 H 
ATOM     26  H   LIG d   1       5.165  -1.458  -1.183  0.00  0.00     0.047 H 
ATOM     27  H   LIG d   1       6.125  -2.064  -2.561  0.00  0.00     0.047 H 
ATOM     28  H   LIG d   1       4.601   1.809  -3.102  0.00  0.00     0.047 H 
ATOM     29  H   LIG d   1       4.271   1.125  -1.496  0.00  0.00     0.047 H 
ATOM     30  H   LIG d   1       6.030   2.190  -3.730  0.00  0.00     0.156 HD
ENDROOT
BRANCH   1  31
ATOM     31  N   LIG d   1       4.989  -1.773  -8.495  0.00  0.00    -0.215 N 
ATOM     32  H   LIG d   1       4.262  -1.692  -9.133  0.00  0.00     0.173 HD
BRANCH  31  33
ATOM     33  S   LIG d   1       6.556  -1.834  -9.031  0.00  0.00     0.047 S 
ATOM     34  O   LIG d   1       7.327  -1.322  -7.954  0.00  0.00    -0.155 OA
ATOM     35  O   LIG d   1       6.733  -3.172  -9.478  0.00  0.00    -0.155 OA
BRANCH  33  36
ATOM     36  C   LIG d   1       6.611  -0.693 -10.440  0.00  0.00     0.110 C 
ATOM     37  H   LIG d   1       7.628  -0.326 -10.571  0.00  0.00     0.057 H 
ATOM     38  H   LIG d   1       6.293  -1.213 -11.343  0.00  0.00     0.057 H 
BRANCH  36  39
ATOM     39  C   LIG d   1       5.689   0.470 -10.180  0.00  0.00    -0.025 A 
ATOM     40  C   LIG d   1       6.091   1.499  -9.350  0.00  0.00    -0.057 A 
ATOM     41  C   LIG d   1       5.244   2.567  -9.111  0.00  0.00    -0.061 A 
ATOM     42  H   LIG d   1       7.066   1.471  -8.888  0.00  0.00     0.062 H 
ATOM     43  C   LIG d   1       3.996   2.604  -9.703  0.00  0.00    -0.062 A 
ATOM     44  H   LIG d   1       5.558   3.371  -8.463  0.00  0.00     0.062 H 
ATOM     45  C   LIG d   1       3.594   1.575 -10.534  0.00  0.00    -0.061 A 
ATOM     46  H   LIG d   1       3.335   3.437  -9.516  0.00  0.00     0.062 H 
ATOM     47  C   LIG d   1       4.442   0.510 -10.775  0.00  0.00    -0.057 A 
ATOM     48  H   LIG d   1       2.618   1.603 -10.995  0.00  0.00     0.062 H 
ATOM     49  H   LIG d   1       4.129  -0.293 -11.427  0.00  0.00     0.062 H 
ENDBRANCH  36  39
ENDBRANCH  33  36
ENDBRANCH  31  33
ENDBRANCH   1  31
BRANCH  19  50
ATOM     50  C   LIG d   1       7.894   1.891  -4.564  0.00  0.00     0.035 A 
ATOM     51  C   LIG d   1       8.941   2.535  -3.920  0.00  0.00    -0.038 A 
ATOM     52  C   LIG d   1      10.078   2.879  -4.625  0.00  0.00    -0.025 A 
ATOM     53  H   LIG d   1       8.866   2.768  -2.868  0.00  0.00     0.064 H 
ATOM     54  C   LIG d   1      10.174   2.581  -5.973  0.00  0.00     0.123 A 
ATOM     55  H   LIG d   1      10.892   3.381  -4.124  0.00  0.00     0.065 H 
ATOM     56  C   LIG d   1       9.131   1.938  -6.619  0.00  0.00    -0.025 A 
ATOM     57  F   LIG d   1      11.286   2.918  -6.662  0.00  0.00    -0.205 F 
ATOM     58  C   LIG d   1       7.995   1.587  -5.915  0.00  0.00    -0.038 A 
ATOM     59  H   LIG d   1       9.207   1.706  -7.670  0.00  0.00     0.065 H 
ATOM     60  H   LIG d   1       7.183   1.081  -6.417  0.00  0.00     0.064 H 
ENDBRANCH  19  50
TORSDOF 5
ENDMDL
MODEL 3
REMARK VINA RESULT:      -8.1      3.639      6.722
REMARK  5 active torsions:
REMARK  status: ('A' for Active; 'I' for Inactive)
REMARK    1  A    between atoms: C_4  and  C_7 
REMARK    2  A    between atoms: C_7  and  S_8 
REMARK    3  A    between atoms: S_8  and  N_11 
REMARK    4  A    between atoms: N_11  and  C_12 
REMARK       I    between atoms: N_26  and  C_28 
REMARK       I    between atoms: C_28  and  N_30 
REMARK    5  A    between atoms: N_30  and  C_31 
ROOT
ATOM      1  C   LIG d   1       7.954   0.653  -4.658  0.00  0.00     0.112 C 
ATOM      2  C   LIG d   1       7.511   1.696  -3.892  0.00  0.00    -0.032 C 
ATOM      3  C   LIG d   1       6.406   1.500  -3.055  0.00  0.00    -0.040 C 
ATOM      4  C   LIG d   1       5.798   0.287  -2.984  0.00  0.00     0.027 C 
ATOM      5  N   LIG d   1       6.290  -0.772  -3.674  0.00  0.00    -0.310 N 
ATOM      6  C   LIG d   1       7.299  -0.590  -4.561  0.00  0.00     0.274 C 
ATOM      7  O   LIG d   1       7.643  -1.512  -5.285  0.00  0.00    -0.266 OA
ATOM      8  C   LIG d   1       5.827  -2.145  -3.470  0.00  0.00     0.031 C 
ATOM      9  C   LIG d   1       4.459  -2.203  -2.815  0.00  0.00    -0.006 C 
ATOM     10  H   LIG d   1       4.311  -3.221  -2.455  0.00  0.00     0.033 H 
ATOM     11  C   LIG d   1       4.418  -1.262  -1.611  0.00  0.00    -0.037 C 
ATOM     12  C   LIG d   1       4.567   0.175  -2.115  0.00  0.00     0.016 C 
ATOM     13  H   LIG d   1       4.626   0.864  -1.272  0.00  0.00     0.038 H 
ATOM     14  C   LIG d   1       3.346   0.511  -2.989  0.00  0.00     0.024 C 
ATOM     15  N   LIG d   1       3.330  -0.447  -4.106  0.00  0.00    -0.284 N 
ATOM     16  C   LIG d   1       3.341  -1.882  -3.799  0.00  0.00     0.021 C 
ATOM     17  C   LIG d   1       3.307  -0.015  -5.382  0.00  0.00     0.306 C 
ATOM     18  O   LIG d   1       3.206   1.173  -5.621  0.00  0.00    -0.252 OA
ATOM     19  N   LIG d   1       3.393  -0.901  -6.395  0.00  0.00    -0.269 N 
ATOM     20  H   LIG d   1       8.004   2.656  -3.931  0.00  0.00     0.064 H 
ATOM     21  H   LIG d   1       6.033   2.320  -2.460  0.00  0.00     0.064 H 
ATOM     22  H   LIG d   1       6.543  -2.668  -2.837  0.00  0.00     0.050 H 
ATOM     23  H   LIG d   1       5.778  -2.648  -4.435  0.00  0.00     0.050 H 
ATOM     24  H   LIG d   1       3.466  -1.372  -1.091  0.00  0.00     0.028 H 
ATOM     25  H   LIG d   1       5.237  -1.500  -0.932  0.00  0.00     0.028 H 
ATOM     26  H   LIG d   1       2.432   0.412  -2.402  0.00  0.00     0.047 H 
ATOM     27  H   LIG d   1       3.432   1.528  -3.372  0.00  0.00     0.047 H 
ATOM     28  H   LIG d   1       3.497  -2.447  -4.718  0.00  0.00     0.047 H 
ATOM     29  H   LIG d   1       2.384  -2.165  -3.361  0.00  0.00     0.047 H 
ATOM     30  H   LIG d   1       3.395  -1.853  -6.208  0.00  0.00     0.156 HD
ENDROOT
BRANCH   1  31
ATOM     31  N   LIG d   1       9.042   0.819  -5.523  0.00  0.00    -0.215 N 
ATOM     32  H   LIG d   1       9.942   0.629  -5.215  0.00  0.00     0.173 HD
BRANCH  31  33
ATOM     33  S   LIG d   1       8.793   1.342  -7.076  0.00  0.00     0.047 S 
ATOM     34  O   LIG d   1       9.198   0.253  -7.894  0.00  0.00    -0.155 OA
ATOM     35  O   LIG d   1       7.447   1.799  -7.092  0.00  0.00    -0.155 OA
BRANCH  33  36
ATOM     36  C   LIG d   1       9.930   2.739  -7.285  0.00  0.00     0.110 C 
ATOM     37  H   LIG d   1      10.863   2.387  -7.722  0.00  0.00     0.057 H 
ATOM     38  H   LIG d   1       9.477   3.482  -7.942  0.00  0.00     0.057 H 
BRANCH  36  39
ATOM     39  C   LIG d   1      10.210   3.363  -5.941  0.00  0.00    -0.025 A 
ATOM     40  C   LIG d   1      11.291   2.936  -5.193  0.00  0.00    -0.057 A 
ATOM     41  C   LIG d   1      11.548   3.508  -3.960  0.00  0.00    -0.061 A 
ATOM     42  H   LIG d   1      11.934   2.155  -5.570  0.00  0.00     0.062 H 
ATOM     43  C   LIG d   1      10.725   4.507  -3.477  0.00  0.00    -0.062 A 
ATOM     44  H   LIG d   1      12.391   3.174  -3.375  0.00  0.00     0.062 H 
ATOM     45  C   LIG d   1       9.644   4.935  -4.226  0.00  0.00    -0.061 A 
ATOM     46  H   LIG d   1      10.925   4.953  -2.515  0.00  0.00     0.062 H 
ATOM     47  C   LIG d   1       9.390   4.366  -5.460  0.00  0.00    -0.057 A 
ATOM     48  H   LIG d   1       9.000   5.715  -3.848  0.00  0.00     0.062 H 
ATOM     49  H   LIG d   1       8.547   4.703  -6.047  0.00  0.00     0.062 H 
ENDBRANCH  36  39
ENDBRANCH  33  36
ENDBRANCH  31  33
ENDBRANCH   1  31
BRANCH  19  50
ATOM     50  C   LIG d   1       3.483  -0.447  -7.716  0.00  0.00     0.035 A 
ATOM     51  C   LIG d   1       4.719  -0.121  -8.257  0.00  0.00    -0.038 A 
ATOM     52  C   LIG d   1       4.806   0.326  -9.561  0.00  0.00    -0.025 A 
ATOM     53  H   LIG d   1       5.613  -0.216  -7.658  0.00  0.00     0.064 H 
ATOM     54  C   LIG d   1       3.660   0.449 -10.329  0.00  0.00     0.123 A 
ATOM     55  H   LIG d   1       5.767   0.581  -9.982  0.00  0.00     0.065 H 
ATOM     56  C   LIG d   1       2.426   0.124  -9.792  0.00  0.00    -0.025 A 
ATOM     57  F   LIG d   1       3.746   0.888 -11.604  0.00  0.00    -0.205 F 
ATOM     58  C   LIG d   1       2.336  -0.330  -8.490  0.00  0.00    -0.038 A 
ATOM     59  H   LIG d   1       1.534   0.221 -10.392  0.00  0.00     0.065 H 
ATOM     60  H   LIG d   1       1.374  -0.588  -8.073  0.00  0.00     0.064 H 
ENDBRANCH  19  50
TORSDOF 5
ENDMDL
MODEL 4
REMARK VINA RESULT:      -8.0      3.489      6.805
REMARK  5 active torsions:
REMARK  status: ('A' for Active; 'I' for Inactive)
REMARK    1  A    between atoms: C_4  and  C_7 
REMARK    2  A    between atoms: C_7  and  S_8 
REMARK    3  A    between atoms: S_8  and  N_11 
REMARK    4  A    between atoms: N_11  and  C_12 
REMARK       I    between atoms: N_26  and  C_28 
REMARK       I    between atoms: C_28  and  N_30 
REMARK    5  A    between atoms: N_30  and  C_31 
ROOT
ATOM      1  C   LIG d   1       7.918   0.781  -4.696  0.00  0.00     0.112 C 
ATOM      2  C   LIG d   1       7.456   1.810  -3.922  0.00  0.00    -0.032 C 
ATOM      3  C   LIG d   1       6.369   1.581  -3.069  0.00  0.00    -0.040 C 
ATOM      4  C   LIG d   1       5.799   0.351  -2.991  0.00  0.00     0.027 C 
ATOM      5  N   LIG d   1       6.311  -0.692  -3.690  0.00  0.00    -0.310 N 
ATOM      6  C   LIG d   1       7.301  -0.481  -4.591  0.00  0.00     0.274 C 
ATOM      7  O   LIG d   1       7.661  -1.392  -5.320  0.00  0.00    -0.266 OA
ATOM      8  C   LIG d   1       5.891  -2.078  -3.481  0.00  0.00     0.031 C 
ATOM      9  C   LIG d   1       4.534  -2.176  -2.806  0.00  0.00    -0.006 C 
ATOM     10  H   LIG d   1       4.422  -3.199  -2.445  0.00  0.00     0.033 H 
ATOM     11  C   LIG d   1       4.484  -1.238  -1.600  0.00  0.00    -0.037 C 
ATOM     12  C   LIG d   1       4.583   0.203  -2.104  0.00  0.00     0.016 C 
ATOM     13  H   LIG d   1       4.635   0.893  -1.262  0.00  0.00     0.038 H 
ATOM     14  C   LIG d   1       3.341   0.504  -2.960  0.00  0.00     0.024 C 
ATOM     15  N   LIG d   1       3.337  -0.453  -4.078  0.00  0.00    -0.284 N 
ATOM     16  C   LIG d   1       3.394  -1.887  -3.773  0.00  0.00     0.021 C 
ATOM     17  C   LIG d   1       3.282  -0.021  -5.353  0.00  0.00     0.306 C 
ATOM     18  O   LIG d   1       3.144   1.163  -5.589  0.00  0.00    -0.252 OA
ATOM     19  N   LIG d   1       3.380  -0.904  -6.368  0.00  0.00    -0.269 N 
ATOM     20  H   LIG d   1       7.921   2.784  -3.968  0.00  0.00     0.064 H 
ATOM     21  H   LIG d   1       5.982   2.390  -2.468  0.00  0.00     0.064 H 
ATOM     22  H   LIG d   1       6.631  -2.581  -2.858  0.00  0.00     0.050 H 
ATOM     23  H   LIG d   1       5.842  -2.581  -4.445  0.00  0.00     0.050 H 
ATOM     24  H   LIG d   1       3.543  -1.376  -1.067  0.00  0.00     0.028 H 
ATOM     25  H   LIG d   1       5.319  -1.452  -0.933  0.00  0.00     0.028 H 
ATOM     26  H   LIG d   1       2.439   0.378  -2.360  0.00  0.00     0.047 H 
ATOM     27  H   LIG d   1       3.392   1.523  -3.343  0.00  0.00     0.047 H 
ATOM     28  H   LIG d   1       3.552  -2.447  -4.695  0.00  0.00     0.047 H 
ATOM     29  H   LIG d   1       2.452  -2.199  -3.322  0.00  0.00     0.047 H 
ATOM     30  H   LIG d   1       3.411  -1.855  -6.182  0.00  0.00     0.156 HD
ENDROOT
BRANCH   1  31
ATOM     31  N   LIG d   1       8.988   0.979  -5.577  0.00  0.00    -0.215 N 
ATOM     32  H   LIG d   1       9.852   0.580  -5.389  0.00  0.00     0.173 HD
BRANCH  31  33
ATOM     33  S   LIG d   1       8.779   1.896  -6.941  0.00  0.00     0.047 S 
ATOM     34  O   LIG d   1       7.419   1.702  -7.303  0.00  0.00    -0.155 OA
ATOM     35  O   LIG d   1       9.257   3.187  -6.586  0.00  0.00    -0.155 OA
BRANCH  33  36
ATOM     36  C   LIG d   1       9.870   1.145  -8.179  0.00  0.00     0.110 C 
ATOM     37  H   LIG d   1      10.289   1.923  -8.815  0.00  0.00     0.057 H 
ATOM     38  H   LIG d   1      10.677   0.611  -7.677  0.00  0.00     0.057 H 
BRANCH  36  39
ATOM     39  C   LIG d   1       9.080   0.178  -9.024  0.00  0.00    -0.025 A 
ATOM     40  C   LIG d   1       8.651   0.552 -10.283  0.00  0.00    -0.057 A 
ATOM     41  C   LIG d   1       7.926  -0.335 -11.058  0.00  0.00    -0.061 A 
ATOM     42  H   LIG d   1       8.882   1.536 -10.663  0.00  0.00     0.062 H 
ATOM     43  C   LIG d   1       7.630  -1.595 -10.573  0.00  0.00    -0.062 A 
ATOM     44  H   LIG d   1       7.590  -0.043 -12.042  0.00  0.00     0.062 H 
ATOM     45  C   LIG d   1       8.060  -1.969  -9.313  0.00  0.00    -0.061 A 
ATOM     46  H   LIG d   1       7.063  -2.286 -11.178  0.00  0.00     0.062 H 
ATOM     47  C   LIG d   1       8.788  -1.083  -8.541  0.00  0.00    -0.057 A 
ATOM     48  H   LIG d   1       7.828  -2.952  -8.934  0.00  0.00     0.062 H 
ATOM     49  H   LIG d   1       9.127  -1.377  -7.558  0.00  0.00     0.062 H 
ENDBRANCH  36  39
ENDBRANCH  33  36
ENDBRANCH  31  33
ENDBRANCH   1  31
BRANCH  19  50
ATOM     50  C   LIG d   1       3.437  -0.446  -7.690  0.00  0.00     0.035 A 
ATOM     51  C   LIG d   1       4.654  -0.081  -8.248  0.00  0.00    -0.038 A 
ATOM     52  C   LIG d   1       4.709   0.369  -9.552  0.00  0.00    -0.025 A 
ATOM     53  H   LIG d   1       5.559  -0.148  -7.661  0.00  0.00     0.064 H 
ATOM     54  C   LIG d   1       3.550   0.457 -10.304  0.00  0.00     0.123 A 
ATOM     55  H   LIG d   1       5.656   0.655  -9.985  0.00  0.00     0.065 H 
ATOM     56  C   LIG d   1       2.334   0.093  -9.751  0.00  0.00    -0.025 A 
ATOM     57  F   LIG d   1       3.605   0.899 -11.580  0.00  0.00    -0.205 F 
ATOM     58  C   LIG d   1       2.277  -0.364  -8.448  0.00  0.00    -0.038 A 
ATOM     59  H   LIG d   1       1.431   0.161 -10.339  0.00  0.00     0.065 H 
ATOM     60  H   LIG d   1       1.328  -0.653  -8.018  0.00  0.00     0.064 H 
ENDBRANCH  19  50
TORSDOF 5
ENDMDL
MODEL 5
REMARK VINA RESULT:      -7.6      3.433      8.115
REMARK  5 active torsions:
REMARK  status: ('A' for Active; 'I' for Inactive)
REMARK    1  A    between atoms: C_4  and  C_7 
REMARK    2  A    between atoms: C_7  and  S_8 
REMARK    3  A    between atoms: S_8  and  N_11 
REMARK    4  A    between atoms: N_11  and  C_12 
REMARK       I    between atoms: N_26  and  C_28 
REMARK       I    between atoms: C_28  and  N_30 
REMARK    5  A    between atoms: N_30  and  C_31 
ROOT
ATOM      1  C   LIG d   1       4.673  -1.418  -7.351  0.00  0.00     0.112 C 
ATOM      2  C   LIG d   1       4.978  -2.621  -6.775  0.00  0.00    -0.032 C 
ATOM      3  C   LIG d   1       4.761  -2.788  -5.402  0.00  0.00    -0.040 C 
ATOM      4  C   LIG d   1       4.233  -1.782  -4.657  0.00  0.00     0.027 C 
ATOM      5  N   LIG d   1       3.847  -0.621  -5.241  0.00  0.00    -0.310 N 
ATOM      6  C   LIG d   1       4.129  -0.396  -6.548  0.00  0.00     0.274 C 
ATOM      7  O   LIG d   1       3.910   0.703  -7.034  0.00  0.00    -0.266 OA
ATOM      8  C   LIG d   1       3.072   0.406  -4.545  0.00  0.00     0.031 C 
ATOM      9  C   LIG d   1       3.173   0.283  -3.035  0.00  0.00    -0.006 C 
ATOM     10  H   LIG d   1       2.375   0.886  -2.603  0.00  0.00     0.033 H 
ATOM     11  C   LIG d   1       2.951  -1.171  -2.615  0.00  0.00    -0.037 C 
ATOM     12  C   LIG d   1       4.101  -2.015  -3.170  0.00  0.00     0.016 C 
ATOM     13  H   LIG d   1       3.927  -3.070  -2.958  0.00  0.00     0.038 H 
ATOM     14  C   LIG d   1       5.408  -1.549  -2.505  0.00  0.00     0.024 C 
ATOM     15  N   LIG d   1       5.584  -0.126  -2.835  0.00  0.00    -0.284 N 
ATOM     16  C   LIG d   1       4.502   0.808  -2.507  0.00  0.00     0.021 C 
ATOM     17  C   LIG d   1       6.715   0.308  -3.425  0.00  0.00     0.306 C 
ATOM     18  O   LIG d   1       7.640  -0.460  -3.608  0.00  0.00    -0.252 OA
ATOM     19  N   LIG d   1       6.822   1.596  -3.811  0.00  0.00    -0.269 N 
ATOM     20  H   LIG d   1       5.379  -3.428  -7.369  0.00  0.00     0.064 H 
ATOM     21  H   LIG d   1       5.016  -3.725  -4.931  0.00  0.00     0.064 H 
ATOM     22  H   LIG d   1       2.025   0.315  -4.836  0.00  0.00     0.050 H 
ATOM     23  H   LIG d   1       3.436   1.387  -4.844  0.00  0.00     0.050 H 
ATOM     24  H   LIG d   1       2.937  -1.240  -1.527  0.00  0.00     0.028 H 
ATOM     25  H   LIG d   1       2.004  -1.529  -3.018  0.00  0.00     0.028 H 
ATOM     26  H   LIG d   1       5.339  -1.674  -1.424  0.00  0.00     0.047 H 
ATOM     27  H   LIG d   1       6.247  -2.128  -2.892  0.00  0.00     0.047 H 
ATOM     28  H   LIG d   1       4.711   1.777  -2.961  0.00  0.00     0.047 H 
ATOM     29  H   LIG d   1       4.439   0.925  -1.426  0.00  0.00     0.047 H 
ATOM     30  H   LIG d   1       6.118   2.227  -3.595  0.00  0.00     0.156 HD
ENDROOT
BRANCH   1  31
ATOM     31  N   LIG d   1       4.897  -1.206  -8.717  0.00  0.00    -0.215 N 
ATOM     32  H   LIG d   1       5.607  -0.613  -9.006  0.00  0.00     0.173 HD
BRANCH  31  33
ATOM     33  S   LIG d   1       3.946  -1.969  -9.840  0.00  0.00     0.047 S 
ATOM     34  O   LIG d   1       4.825  -2.858 -10.514  0.00  0.00    -0.155 OA
ATOM     35  O   LIG d   1       2.840  -2.466  -9.099  0.00  0.00    -0.155 OA
BRANCH  33  36
ATOM     36  C   LIG d   1       3.406  -0.652 -10.963  0.00  0.00     0.110 C 
ATOM     37  H   LIG d   1       2.909   0.132 -10.393  0.00  0.00     0.057 H 
ATOM     38  H   LIG d   1       4.271  -0.234 -11.478  0.00  0.00     0.057 H 
BRANCH  36  39
ATOM     39  C   LIG d   1       2.446  -1.220 -11.977  0.00  0.00    -0.025 A 
ATOM     40  C   LIG d   1       2.921  -1.716 -13.176  0.00  0.00    -0.057 A 
ATOM     41  C   LIG d   1       2.041  -2.237 -14.107  0.00  0.00    -0.061 A 
ATOM     42  H   LIG d   1       3.980  -1.697 -13.388  0.00  0.00     0.062 H 
ATOM     43  C   LIG d   1       0.685  -2.263 -13.837  0.00  0.00    -0.062 A 
ATOM     44  H   LIG d   1       2.411  -2.624 -15.044  0.00  0.00     0.062 H 
ATOM     45  C   LIG d   1       0.210  -1.767 -12.637  0.00  0.00    -0.061 A 
ATOM     46  H   LIG d   1      -0.002  -2.669 -14.563  0.00  0.00     0.062 H 
ATOM     47  C   LIG d   1       1.091  -1.250 -11.705  0.00  0.00    -0.057 A 
ATOM     48  H   LIG d   1      -0.849  -1.786 -12.426  0.00  0.00     0.062 H 
ATOM     49  H   LIG d   1       0.720  -0.866 -10.766  0.00  0.00     0.062 H 
ENDBRANCH  36  39
ENDBRANCH  33  36
ENDBRANCH  31  33
ENDBRANCH   1  31
BRANCH  19  50
ATOM     50  C   LIG d   1       7.949   2.021  -4.524  0.00  0.00     0.035 A 
ATOM     51  C   LIG d   1       8.047   1.771  -5.886  0.00  0.00    -0.038 A 
ATOM     52  C   LIG d   1       9.159   2.192  -6.588  0.00  0.00    -0.025 A 
ATOM     53  H   LIG d   1       7.252   1.246  -6.396  0.00  0.00     0.064 H 
ATOM     54  C   LIG d   1      10.177   2.863  -5.934  0.00  0.00     0.123 A 
ATOM     55  H   LIG d   1       9.235   1.996  -7.647  0.00  0.00     0.065 H 
ATOM     56  C   LIG d   1      10.084   3.115  -4.575  0.00  0.00    -0.025 A 
ATOM     57  F   LIG d   1      11.265   3.274  -6.622  0.00  0.00    -0.205 F 
ATOM     58  C   LIG d   1       8.969   2.701  -3.872  0.00  0.00    -0.038 A 
ATOM     59  H   LIG d   1      10.879   3.639  -4.067  0.00  0.00     0.065 H 
ATOM     60  H   LIG d   1       8.894   2.902  -2.813  0.00  0.00     0.064 H 
ENDBRANCH  19  50
TORSDOF 5
ENDMDL
MODEL 6
REMARK VINA RESULT:      -7.6      3.424      8.173
REMARK  5 active torsions:
REMARK  status: ('A' for Active; 'I' for Inactive)
REMARK    1  A    between atoms: C_4  and  C_7 
REMARK    2  A    between atoms: C_7  and  S_8 
REMARK    3  A    between atoms: S_8  and  N_11 
REMARK    4  A    between atoms: N_11  and  C_12 
REMARK       I    between atoms: N_26  and  C_28 
REMARK       I    between atoms: C_28  and  N_30 
REMARK    5  A    between atoms: N_30  and  C_31 
ROOT
ATOM      1  C   LIG d   1       4.743  -1.512  -7.309  0.00  0.00     0.112 C 
ATOM      2  C   LIG d   1       5.012  -2.703  -6.693  0.00  0.00    -0.032 C 
ATOM      3  C   LIG d   1       4.741  -2.835  -5.326  0.00  0.00    -0.040 C 
ATOM      4  C   LIG d   1       4.195  -1.806  -4.626  0.00  0.00     0.027 C 
ATOM      5  N   LIG d   1       3.844  -0.656  -5.253  0.00  0.00    -0.310 N 
ATOM      6  C   LIG d   1       4.179  -0.465  -6.553  0.00  0.00     0.274 C 
ATOM      7  O   LIG d   1       3.991   0.623  -7.073  0.00  0.00    -0.266 OA
ATOM      8  C   LIG d   1       3.053   0.395  -4.612  0.00  0.00     0.031 C 
ATOM      9  C   LIG d   1       3.095   0.308  -3.097  0.00  0.00    -0.006 C 
ATOM     10  H   LIG d   1       2.287   0.930  -2.711  0.00  0.00     0.033 H 
ATOM     11  C   LIG d   1       2.841  -1.132  -2.651  0.00  0.00    -0.037 C 
ATOM     12  C   LIG d   1       4.002  -2.001  -3.140  0.00  0.00     0.016 C 
ATOM     13  H   LIG d   1       3.810  -3.049  -2.910  0.00  0.00     0.038 H 
ATOM     14  C   LIG d   1       5.288  -1.532  -2.437  0.00  0.00     0.024 C 
ATOM     15  N   LIG d   1       5.492  -0.119  -2.793  0.00  0.00    -0.284 N 
ATOM     16  C   LIG d   1       4.408   0.834  -2.531  0.00  0.00     0.021 C 
ATOM     17  C   LIG d   1       6.650   0.290  -3.349  0.00  0.00     0.306 C 
ATOM     18  O   LIG d   1       7.573  -0.492  -3.477  0.00  0.00    -0.252 OA
ATOM     19  N   LIG d   1       6.786   1.566  -3.762  0.00  0.00    -0.269 N 
ATOM     20  H   LIG d   1       5.427  -3.529  -7.251  0.00  0.00     0.064 H 
ATOM     21  H   LIG d   1       4.967  -3.763  -4.823  0.00  0.00     0.064 H 
ATOM     22  H   LIG d   1       2.018   0.308  -4.941  0.00  0.00     0.050 H 
ATOM     23  H   LIG d   1       3.440   1.365  -4.921  0.00  0.00     0.050 H 
ATOM     24  H   LIG d   1       2.784  -1.174  -1.563  0.00  0.00     0.028 H 
ATOM     25  H   LIG d   1       1.907  -1.490  -3.082  0.00  0.00     0.028 H 
ATOM     26  H   LIG d   1       5.175  -1.630  -1.356  0.00  0.00     0.047 H 
ATOM     27  H   LIG d   1       6.135  -2.128  -2.776  0.00  0.00     0.047 H 
ATOM     28  H   LIG d   1       4.645   1.789  -2.999  0.00  0.00     0.047 H 
ATOM     29  H   LIG d   1       4.304   0.977  -1.456  0.00  0.00     0.047 H 
ATOM     30  H   LIG d   1       6.080   2.209  -3.589  0.00  0.00     0.156 HD
ENDROOT
BRANCH   1  31
ATOM     31  N   LIG d   1       5.021  -1.336  -8.670  0.00  0.00    -0.215 N 
ATOM     32  H   LIG d   1       5.833  -0.882  -8.944  0.00  0.00     0.173 HD
BRANCH  31  33
ATOM     33  S   LIG d   1       3.964  -1.904  -9.812  0.00  0.00     0.047 S 
ATOM     34  O   LIG d   1       4.723  -2.828 -10.580  0.00  0.00    -0.155 OA
ATOM     35  O   LIG d   1       2.830  -2.337  -9.072  0.00  0.00    -0.155 OA
BRANCH  33  36
ATOM     36  C   LIG d   1       3.540  -0.455 -10.815  0.00  0.00     0.110 C 
ATOM     37  H   LIG d   1       2.598  -0.034 -10.466  0.00  0.00     0.057 H 
ATOM     38  H   LIG d   1       4.328   0.293 -10.726  0.00  0.00     0.057 H 
BRANCH  36  39
ATOM     39  C   LIG d   1       3.401  -0.867 -12.259  0.00  0.00    -0.025 A 
ATOM     40  C   LIG d   1       2.328  -1.642 -12.655  0.00  0.00    -0.057 A 
ATOM     41  C   LIG d   1       2.200  -2.021 -13.980  0.00  0.00    -0.061 A 
ATOM     42  H   LIG d   1       1.589  -1.954 -11.932  0.00  0.00     0.062 H 
ATOM     43  C   LIG d   1       3.145  -1.622 -14.906  0.00  0.00    -0.062 A 
ATOM     44  H   LIG d   1       1.363  -2.627 -14.290  0.00  0.00     0.062 H 
ATOM     45  C   LIG d   1       4.218  -0.845 -14.509  0.00  0.00    -0.061 A 
ATOM     46  H   LIG d   1       3.046  -1.918 -15.940  0.00  0.00     0.062 H 
ATOM     47  C   LIG d   1       4.343  -0.464 -13.186  0.00  0.00    -0.057 A 
ATOM     48  H   LIG d   1       4.957  -0.535 -15.233  0.00  0.00     0.062 H 
ATOM     49  H   LIG d   1       5.179   0.146 -12.877  0.00  0.00     0.062 H 
ENDBRANCH  36  39
ENDBRANCH  33  36
ENDBRANCH  31  33
ENDBRANCH   1  31
BRANCH  19  50
ATOM     50  C   LIG d   1       7.944   1.963  -4.440  0.00  0.00     0.035 A 
ATOM     51  C   LIG d   1       8.050   1.764  -5.810  0.00  0.00    -0.038 A 
ATOM     52  C   LIG d   1       9.193   2.157  -6.478  0.00  0.00    -0.025 A 
ATOM     53  H   LIG d   1       7.238   1.302  -6.353  0.00  0.00     0.064 H 
ATOM     54  C   LIG d   1      10.234   2.748  -5.782  0.00  0.00     0.123 A 
ATOM     55  H   LIG d   1       9.276   2.001  -7.543  0.00  0.00     0.065 H 
ATOM     56  C   LIG d   1      10.131   2.948  -4.416  0.00  0.00    -0.025 A 
ATOM     57  F   LIG d   1      11.352   3.131  -6.437  0.00  0.00    -0.205 F 
ATOM     58  C   LIG d   1       8.986   2.563  -3.746  0.00  0.00    -0.038 A 
ATOM     59  H   LIG d   1      10.943   3.410  -3.875  0.00  0.00     0.065 H 
ATOM     60  H   LIG d   1       8.903   2.723  -2.680  0.00  0.00     0.064 H 
ENDBRANCH  19  50
TORSDOF 5
ENDMDL
MODEL 7
REMARK VINA RESULT:      -7.5      2.995      6.401
REMARK  5 active torsions:
REMARK  status: ('A' for Active; 'I' for Inactive)
REMARK    1  A    between atoms: C_4  and  C_7 
REMARK    2  A    between atoms: C_7  and  S_8 
REMARK    3  A    between atoms: S_8  and  N_11 
REMARK    4  A    between atoms: N_11  and  C_12 
REMARK       I    between atoms: N_26  and  C_28 
REMARK       I    between atoms: C_28  and  N_30 
REMARK    5  A    between atoms: N_30  and  C_31 
ROOT
ATOM      1  C   LIG d   1       5.802  -2.504  -9.288  0.00  0.00     0.112 C 
ATOM      2  C   LIG d   1       7.123  -2.826  -9.135  0.00  0.00    -0.032 C 
ATOM      3  C   LIG d   1       7.458  -4.000  -8.450  0.00  0.00    -0.040 C 
ATOM      4  C   LIG d   1       6.489  -4.821  -7.968  0.00  0.00     0.027 C 
ATOM      5  N   LIG d   1       5.179  -4.550  -8.197  0.00  0.00    -0.310 N 
ATOM      6  C   LIG d   1       4.823  -3.377  -8.774  0.00  0.00     0.274 C 
ATOM      7  O   LIG d   1       3.643  -3.072  -8.847  0.00  0.00    -0.266 OA
ATOM      8  C   LIG d   1       4.104  -5.499  -7.906  0.00  0.00     0.031 C 
ATOM      9  C   LIG d   1       4.522  -6.558  -6.902  0.00  0.00    -0.006 C 
ATOM     10  H   LIG d   1       3.786  -7.361  -6.948  0.00  0.00     0.033 H 
ATOM     11  C   LIG d   1       5.882  -7.137  -7.294  0.00  0.00    -0.037 C 
ATOM     12  C   LIG d   1       6.931  -6.029  -7.176  0.00  0.00     0.016 C 
ATOM     13  H   LIG d   1       7.898  -6.389  -7.529  0.00  0.00     0.038 H 
ATOM     14  C   LIG d   1       7.029  -5.610  -5.699  0.00  0.00     0.024 C 
ATOM     15  N   LIG d   1       5.699  -5.131  -5.290  0.00  0.00    -0.284 N 
ATOM     16  C   LIG d   1       4.546  -6.018  -5.478  0.00  0.00     0.021 C 
ATOM     17  C   LIG d   1       5.545  -3.904  -4.756  0.00  0.00     0.306 C 
ATOM     18  O   LIG d   1       6.519  -3.215  -4.522  0.00  0.00    -0.252 OA
ATOM     19  N   LIG d   1       4.310  -3.440  -4.479  0.00  0.00    -0.269 N 
ATOM     20  H   LIG d   1       7.895  -2.185  -9.534  0.00  0.00     0.064 H 
ATOM     21  H   LIG d   1       8.496  -4.256  -8.304  0.00  0.00     0.064 H 
ATOM     22  H   LIG d   1       3.806  -5.989  -8.832  0.00  0.00     0.050 H 
ATOM     23  H   LIG d   1       3.250  -4.952  -7.506  0.00  0.00     0.050 H 
ATOM     24  H   LIG d   1       6.138  -7.958  -6.623  0.00  0.00     0.028 H 
ATOM     25  H   LIG d   1       5.845  -7.500  -8.320  0.00  0.00     0.028 H 
ATOM     26  H   LIG d   1       7.319  -6.467  -5.089  0.00  0.00     0.047 H 
ATOM     27  H   LIG d   1       7.763  -4.812  -5.588  0.00  0.00     0.047 H 
ATOM     28  H   LIG d   1       3.628  -5.463  -5.288  0.00  0.00     0.047 H 
ATOM     29  H   LIG d   1       4.613  -6.851  -4.779  0.00  0.00     0.047 H 
ATOM     30  H   LIG d   1       3.538  -4.017  -4.592  0.00  0.00     0.156 HD
ENDROOT
BRANCH   1  31
ATOM     31  N   LIG d   1       5.429  -1.326  -9.947  0.00  0.00    -0.215 N 
ATOM     32  H   LIG d   1       5.364  -0.493  -9.454  0.00  0.00     0.173 HD
BRANCH  31  33
ATOM     33  S   LIG d   1       5.098  -1.355 -11.570  0.00  0.00     0.047 S 
ATOM     34  O   LIG d   1       6.141  -0.596 -12.166  0.00  0.00    -0.155 OA
ATOM     35  O   LIG d   1       4.935  -2.732 -11.882  0.00  0.00    -0.155 OA
BRANCH  33  36
ATOM     36  C   LIG d   1       3.516  -0.484 -11.738  0.00  0.00     0.110 C 
ATOM     37  H   LIG d   1       3.512   0.088 -12.666  0.00  0.00     0.057 H 
ATOM     38  H   LIG d   1       2.702  -1.208 -11.754  0.00  0.00     0.057 H 
BRANCH  36  39
ATOM     39  C   LIG d   1       3.332   0.452 -10.572  0.00  0.00    -0.025 A 
ATOM     40  C   LIG d   1       3.910   1.707 -10.595  0.00  0.00    -0.057 A 
ATOM     41  C   LIG d   1       3.741   2.566  -9.524  0.00  0.00    -0.061 A 
ATOM     42  H   LIG d   1       4.493   2.018 -11.449  0.00  0.00     0.062 H 
ATOM     43  C   LIG d   1       2.994   2.169  -8.431  0.00  0.00    -0.062 A 
ATOM     44  H   LIG d   1       4.193   3.547  -9.541  0.00  0.00     0.062 H 
ATOM     45  C   LIG d   1       2.416   0.914  -8.408  0.00  0.00    -0.061 A 
ATOM     46  H   LIG d   1       2.864   2.839  -7.594  0.00  0.00     0.062 H 
ATOM     47  C   LIG d   1       2.582   0.057  -9.480  0.00  0.00    -0.057 A 
ATOM     48  H   LIG d   1       1.834   0.603  -7.553  0.00  0.00     0.062 H 
ATOM     49  H   LIG d   1       2.126  -0.923  -9.464  0.00  0.00     0.062 H 
ENDBRANCH  36  39
ENDBRANCH  33  36
ENDBRANCH  31  33
ENDBRANCH   1  31
BRANCH  19  50
ATOM     50  C   LIG d   1       4.140  -2.125  -4.030  0.00  0.00     0.035 A 
ATOM     51  C   LIG d   1       3.976  -1.093  -4.944  0.00  0.00    -0.038 A 
ATOM     52  C   LIG d   1       3.808   0.204  -4.500  0.00  0.00    -0.025 A 
ATOM     53  H   LIG d   1       3.980  -1.306  -6.004  0.00  0.00     0.064 H 
ATOM     54  C   LIG d   1       3.804   0.475  -3.143  0.00  0.00     0.123 A 
ATOM     55  H   LIG d   1       3.681   1.006  -5.212  0.00  0.00     0.065 H 
ATOM     56  C   LIG d   1       3.967  -0.551  -2.228  0.00  0.00    -0.025 A 
ATOM     57  F   LIG d   1       3.640   1.745  -2.709  0.00  0.00    -0.205 F 
ATOM     58  C   LIG d   1       4.128  -1.851  -2.669  0.00  0.00    -0.038 A 
ATOM     59  H   LIG d   1       3.963  -0.337  -1.170  0.00  0.00     0.065 H 
ATOM     60  H   LIG d   1       4.251  -2.652  -1.955  0.00  0.00     0.064 H 
ENDBRANCH  19  50
TORSDOF 5
ENDMDL
MODEL 8
REMARK VINA RESULT:      -7.3      3.365      7.581
REMARK  5 active torsions:
REMARK  status: ('A' for Active; 'I' for Inactive)
REMARK    1  A    between atoms: C_4  and  C_7 
REMARK    2  A    between atoms: C_7  and  S_8 
REMARK    3  A    between atoms: S_8  and  N_11 
REMARK    4  A    between atoms: N_11  and  C_12 
REMARK       I    between atoms: N_26  and  C_28 
REMARK       I    between atoms: C_28  and  N_30 
REMARK    5  A    between atoms: N_30  and  C_31 
ROOT
ATOM      1  C   LIG d   1       4.547  -1.260  -7.404  0.00  0.00     0.112 C 
ATOM      2  C   LIG d   1       4.860  -2.492  -6.896  0.00  0.00    -0.032 C 
ATOM      3  C   LIG d   1       4.690  -2.722  -5.526  0.00  0.00    -0.040 C 
ATOM      4  C   LIG d   1       4.198  -1.749  -4.716  0.00  0.00     0.027 C 
ATOM      5  N   LIG d   1       3.803  -0.558  -5.232  0.00  0.00    -0.310 N 
ATOM      6  C   LIG d   1       4.041  -0.273  -6.535  0.00  0.00     0.274 C 
ATOM      7  O   LIG d   1       3.816   0.849  -6.961  0.00  0.00    -0.266 OA
ATOM      8  C   LIG d   1       3.062   0.440  -4.460  0.00  0.00     0.031 C 
ATOM      9  C   LIG d   1       3.214   0.246  -2.963  0.00  0.00    -0.006 C 
ATOM     10  H   LIG d   1       2.437   0.834  -2.475  0.00  0.00     0.033 H 
ATOM     11  C   LIG d   1       2.993  -1.224  -2.604  0.00  0.00    -0.037 C 
ATOM     12  C   LIG d   1       4.115  -2.050  -3.238  0.00  0.00     0.016 C 
ATOM     13  H   LIG d   1       3.939  -3.113  -3.070  0.00  0.00     0.038 H 
ATOM     14  C   LIG d   1       5.449  -1.627  -2.599  0.00  0.00     0.024 C 
ATOM     15  N   LIG d   1       5.627  -0.191  -2.867  0.00  0.00    -0.284 N 
ATOM     16  C   LIG d   1       4.565   0.735  -2.458  0.00  0.00     0.021 C 
ATOM     17  C   LIG d   1       6.741   0.262  -3.475  0.00  0.00     0.306 C 
ATOM     18  O   LIG d   1       7.651  -0.504  -3.726  0.00  0.00    -0.252 OA
ATOM     19  N   LIG d   1       6.847   1.565  -3.804  0.00  0.00    -0.269 N 
ATOM     20  H   LIG d   1       5.233  -3.273  -7.542  0.00  0.00     0.064 H 
ATOM     21  H   LIG d   1       4.953  -3.682  -5.109  0.00  0.00     0.064 H 
ATOM     22  H   LIG d   1       2.005   0.372  -4.719  0.00  0.00     0.050 H 
ATOM     23  H   LIG d   1       3.425   1.432  -4.726  0.00  0.00     0.050 H 
ATOM     24  H   LIG d   1       3.016  -1.345  -1.521  0.00  0.00     0.028 H 
ATOM     25  H   LIG d   1       2.030  -1.555  -2.990  0.00  0.00     0.028 H 
ATOM     26  H   LIG d   1       5.416  -1.803  -1.523  0.00  0.00     0.047 H 
ATOM     27  H   LIG d   1       6.268  -2.193  -3.041  0.00  0.00     0.047 H 
ATOM     28  H   LIG d   1       4.768   1.723  -2.872  0.00  0.00     0.047 H 
ATOM     29  H   LIG d   1       4.541   0.801  -1.371  0.00  0.00     0.047 H 
ATOM     30  H   LIG d   1       6.156   2.191  -3.534  0.00  0.00     0.156 HD
ENDROOT
BRANCH   1  31
ATOM     31  N   LIG d   1       4.725  -0.986  -8.765  0.00  0.00    -0.215 N 
ATOM     32  H   LIG d   1       5.607  -0.765  -9.105  0.00  0.00     0.173 HD
BRANCH  31  33
ATOM     33  S   LIG d   1       3.430  -1.038  -9.797  0.00  0.00     0.047 S 
ATOM     34  O   LIG d   1       2.331  -1.417  -8.980  0.00  0.00    -0.155 OA
ATOM     35  O   LIG d   1       3.443   0.220 -10.457  0.00  0.00    -0.155 OA
BRANCH  33  36
ATOM     36  C   LIG d   1       3.823  -2.364 -10.971  0.00  0.00     0.110 C 
ATOM     37  H   LIG d   1       2.980  -2.517 -11.643  0.00  0.00     0.057 H 
ATOM     38  H   LIG d   1       4.704  -2.087 -11.551  0.00  0.00     0.057 H 
BRANCH  36  39
ATOM     39  C   LIG d   1       4.100  -3.638 -10.215  0.00  0.00    -0.025 A 
ATOM     40  C   LIG d   1       3.064  -4.315  -9.600  0.00  0.00    -0.057 A 
ATOM     41  C   LIG d   1       3.318  -5.484  -8.906  0.00  0.00    -0.061 A 
ATOM     42  H   LIG d   1       2.057  -3.932  -9.661  0.00  0.00     0.062 H 
ATOM     43  C   LIG d   1       4.608  -5.976  -8.828  0.00  0.00    -0.062 A 
ATOM     44  H   LIG d   1       2.509  -6.013  -8.425  0.00  0.00     0.062 H 
ATOM     45  C   LIG d   1       5.643  -5.298  -9.445  0.00  0.00    -0.061 A 
ATOM     46  H   LIG d   1       4.806  -6.888  -8.286  0.00  0.00     0.062 H 
ATOM     47  C   LIG d   1       5.389  -4.132 -10.141  0.00  0.00    -0.057 A 
ATOM     48  H   LIG d   1       6.651  -5.681  -9.383  0.00  0.00     0.062 H 
ATOM     49  H   LIG d   1       6.198  -3.605 -10.626  0.00  0.00     0.062 H 
ENDBRANCH  36  39
ENDBRANCH  33  36
ENDBRANCH  31  33
ENDBRANCH   1  31
BRANCH  19  50
ATOM     50  C   LIG d   1       7.952   2.015  -4.535  0.00  0.00     0.035 A 
ATOM     51  C   LIG d   1       8.976   2.702  -3.896  0.00  0.00    -0.038 A 
ATOM     52  C   LIG d   1      10.066   3.144  -4.619  0.00  0.00    -0.025 A 
ATOM     53  H   LIG d   1       8.919   2.889  -2.834  0.00  0.00     0.064 H 
ATOM     54  C   LIG d   1      10.138   2.905  -5.981  0.00  0.00     0.123 A 
ATOM     55  H   LIG d   1      10.862   3.679  -4.122  0.00  0.00     0.065 H 
ATOM     56  C   LIG d   1       9.119   2.221  -6.621  0.00  0.00    -0.025 A 
ATOM     57  F   LIG d   1      11.205   3.340  -6.687  0.00  0.00    -0.205 F 
ATOM     58  C   LIG d   1       8.030   1.770  -5.899  0.00  0.00    -0.038 A 
ATOM     59  H   LIG d   1       9.177   2.034  -7.682  0.00  0.00     0.065 H 
ATOM     60  H   LIG d   1       7.237   1.232  -6.398  0.00  0.00     0.064 H 
ENDBRANCH  19  50
TORSDOF 5
ENDMDL
MODEL 9
REMARK VINA RESULT:      -7.2      3.278      7.268
REMARK  5 active torsions:
REMARK  status: ('A' for Active; 'I' for Inactive)
REMARK    1  A    between atoms: C_4  and  C_7 
REMARK    2  A    between atoms: C_7  and  S_8 
REMARK    3  A    between atoms: S_8  and  N_11 
REMARK    4  A    between atoms: N_11  and  C_12 
REMARK       I    between atoms: N_26  and  C_28 
REMARK       I    between atoms: C_28  and  N_30 
REMARK    5  A    between atoms: N_30  and  C_31 
ROOT
ATOM      1  C   LIG d   1       6.320  -4.421  -5.809  0.00  0.00     0.112 C 
ATOM      2  C   LIG d   1       7.467  -3.729  -5.529  0.00  0.00    -0.032 C 
ATOM      3  C   LIG d   1       7.414  -2.675  -4.609  0.00  0.00    -0.040 C 
ATOM      4  C   LIG d   1       6.250  -2.360  -3.984  0.00  0.00     0.027 C 
ATOM      5  N   LIG d   1       5.133  -3.101  -4.192  0.00  0.00    -0.310 N 
ATOM      6  C   LIG d   1       5.130  -4.066  -5.144  0.00  0.00     0.274 C 
ATOM      7  O   LIG d   1       4.087  -4.632  -5.429  0.00  0.00    -0.266 OA
ATOM      8  C   LIG d   1       3.918  -2.959  -3.389  0.00  0.00     0.031 C 
ATOM      9  C   LIG d   1       3.850  -1.622  -2.673  0.00  0.00    -0.006 C 
ATOM     10  H   LIG d   1       3.082  -1.701  -1.904  0.00  0.00     0.033 H 
ATOM     11  C   LIG d   1       5.185  -1.332  -1.984  0.00  0.00    -0.037 C 
ATOM     12  C   LIG d   1       6.258  -1.162  -3.062  0.00  0.00     0.016 C 
ATOM     13  H   LIG d   1       7.237  -1.038  -2.600  0.00  0.00     0.038 H 
ATOM     14  C   LIG d   1       5.907   0.077  -3.903  0.00  0.00     0.024 C 
ATOM     15  N   LIG d   1       4.584  -0.159  -4.501  0.00  0.00    -0.284 N 
ATOM     16  C   LIG d   1       3.463  -0.489  -3.614  0.00  0.00     0.021 C 
ATOM     17  C   LIG d   1       4.406  -0.074  -5.834  0.00  0.00     0.306 C 
ATOM     18  O   LIG d   1       5.321   0.290  -6.548  0.00  0.00    -0.252 OA
ATOM     19  N   LIG d   1       3.213  -0.389  -6.377  0.00  0.00    -0.269 N 
ATOM     20  H   LIG d   1       8.398  -3.991  -6.010  0.00  0.00     0.064 H 
ATOM     21  H   LIG d   1       8.307  -2.108  -4.394  0.00  0.00     0.064 H 
ATOM     22  H   LIG d   1       3.889  -3.757  -2.648  0.00  0.00     0.050 H 
ATOM     23  H   LIG d   1       3.051  -3.054  -4.042  0.00  0.00     0.050 H 
ATOM     24  H   LIG d   1       5.104  -0.416  -1.399  0.00  0.00     0.028 H 
ATOM     25  H   LIG d   1       5.448  -2.164  -1.331  0.00  0.00     0.028 H 
ATOM     26  H   LIG d   1       5.874   0.961  -3.264  0.00  0.00     0.047 H 
ATOM     27  H   LIG d   1       6.652   0.215  -4.688  0.00  0.00     0.047 H 
ATOM     28  H   LIG d   1       2.606  -0.796  -4.214  0.00  0.00     0.047 H 
ATOM     29  H   LIG d   1       3.194   0.390  -3.028  0.00  0.00     0.047 H 
ATOM     30  H   LIG d   1       2.461  -0.603  -5.803  0.00  0.00     0.156 HD
ENDROOT
BRANCH   1  31
ATOM     31  N   LIG d   1       6.330  -5.466  -6.740  0.00  0.00    -0.215 N 
ATOM     32  H   LIG d   1       6.148  -5.285  -7.675  0.00  0.00     0.173 HD
BRANCH  31  33
ATOM     33  S   LIG d   1       6.652  -7.014  -6.244  0.00  0.00     0.047 S 
ATOM     34  O   LIG d   1       7.490  -7.553  -7.258  0.00  0.00    -0.155 OA
ATOM     35  O   LIG d   1       7.126  -6.876  -4.911  0.00  0.00    -0.155 OA
BRANCH  33  36
ATOM     36  C   LIG d   1       5.043  -7.850  -6.253  0.00  0.00     0.110 C 
ATOM     37  H   LIG d   1       4.278  -7.171  -5.877  0.00  0.00     0.057 H 
ATOM     38  H   LIG d   1       4.794  -8.151  -7.270  0.00  0.00     0.057 H 
BRANCH  36  39
ATOM     39  C   LIG d   1       5.107  -9.070  -5.370  0.00  0.00    -0.025 A 
ATOM     40  C   LIG d   1       4.393  -9.105  -4.187  0.00  0.00    -0.057 A 
ATOM     41  C   LIG d   1       4.452 -10.225  -3.377  0.00  0.00    -0.061 A 
ATOM     42  H   LIG d   1       3.790  -8.259  -3.894  0.00  0.00     0.062 H 
ATOM     43  C   LIG d   1       5.223 -11.309  -3.751  0.00  0.00    -0.062 A 
ATOM     44  H   LIG d   1       3.895 -10.252  -2.452  0.00  0.00     0.062 H 
ATOM     45  C   LIG d   1       5.936 -11.274  -4.935  0.00  0.00    -0.061 A 
ATOM     46  H   LIG d   1       5.270 -12.182  -3.118  0.00  0.00     0.062 H 
ATOM     47  C   LIG d   1       5.874 -10.156  -5.747  0.00  0.00    -0.057 A 
ATOM     48  H   LIG d   1       6.540 -12.120  -5.227  0.00  0.00     0.062 H 
ATOM     49  H   LIG d   1       6.429 -10.131  -6.674  0.00  0.00     0.062 H 
ENDBRANCH  36  39
ENDBRANCH  33  36
ENDBRANCH  31  33
ENDBRANCH   1  31
BRANCH  19  50
ATOM     50  C   LIG d   1       3.060  -0.410  -7.768  0.00  0.00     0.035 A 
ATOM     51  C   LIG d   1       3.169  -1.608  -8.462  0.00  0.00    -0.038 A 
ATOM     52  C   LIG d   1       3.017  -1.627  -9.835  0.00  0.00    -0.025 A 
ATOM     53  H   LIG d   1       3.372  -2.525  -7.928  0.00  0.00     0.064 H 
ATOM     54  C   LIG d   1       2.757  -0.452 -10.519  0.00  0.00     0.123 A 
ATOM     55  H   LIG d   1       3.102  -2.558 -10.374  0.00  0.00     0.065 H 
ATOM     56  C   LIG d   1       2.648   0.744  -9.830  0.00  0.00    -0.025 A 
ATOM     57  F   LIG d   1       2.610  -0.472 -11.862  0.00  0.00    -0.205 F 
ATOM     58  C   LIG d   1       2.793   0.766  -8.456  0.00  0.00    -0.038 A 
ATOM     59  H   LIG d   1       2.446   1.659 -10.365  0.00  0.00     0.065 H 
ATOM     60  H   LIG d   1       2.703   1.698  -7.918  0.00  0.00     0.064 H 
ENDBRANCH  19  50
TORSDOF 5
ENDMDL
