MODEL 1
REMARK VINA RESULT:      -7.5      0.000      0.000
REMARK  4 active torsions:
REMARK  status: ('A' for Active; 'I' for Inactive)
REMARK    1  A    between atoms: C_4  and  N_7 
REMARK    2  A    between atoms: N_7  and  C_8 
REMARK    3  A    between atoms: N_9  and  S_10 
REMARK    4  A    between atoms: S_10  and  C_13 
ROOT
ATOM      1  C   LIG d   1       3.216   0.105  -6.456  0.00  0.00    -0.021 C 
ATOM      2  N   LIG d   1       2.966   1.172  -7.163  0.00  0.00    -0.146 NA
ATOM      3  S   LIG d   1       4.478  -1.014  -6.966  0.00  0.00    -0.722 SA
ENDROOT
BRANCH   1   4
ATOM      4  N   LIG d   1       2.493  -0.147  -5.310  0.00  0.00    -0.323 N 
ATOM      5  H   LIG d   1       1.540  -0.319  -5.366  0.00  0.00     0.151 HD
BRANCH   4   6
ATOM      6  C   LIG d   1       3.134  -0.157  -4.068  0.00  0.00     0.031 A 
ATOM      7  C   LIG d   1       3.435  -1.364  -3.449  0.00  0.00    -0.041 A 
ATOM      8  C   LIG d   1       4.069  -1.371  -2.223  0.00  0.00    -0.060 A 
ATOM      9  H   LIG d   1       3.174  -2.297  -3.928  0.00  0.00     0.064 H 
ATOM     10  C   LIG d   1       4.404  -0.177  -1.609  0.00  0.00    -0.062 A 
ATOM     11  H   LIG d   1       4.303  -2.308  -1.742  0.00  0.00     0.062 H 
ATOM     12  C   LIG d   1       4.105   1.026  -2.221  0.00  0.00    -0.060 A 
ATOM     13  H   LIG d   1       4.895  -0.185  -0.647  0.00  0.00     0.062 H 
ATOM     14  C   LIG d   1       3.472   1.040  -3.448  0.00  0.00    -0.041 A 
ATOM     15  H   LIG d   1       4.368   1.956  -1.740  0.00  0.00     0.062 H 
ATOM     16  H   LIG d   1       3.239   1.979  -3.927  0.00  0.00     0.064 H 
ENDBRANCH   4   6
ENDBRANCH   1   4
BRANCH   2  17
ATOM     17  S   LIG d   1       3.835   1.475  -8.540  0.00  0.00     0.098 S 
ATOM     18  O   LIG d   1       3.552   2.817  -8.911  0.00  0.00    -0.146 OA
ATOM     19  O   LIG d   1       5.157   1.015  -8.295  0.00  0.00    -0.146 OA
BRANCH  17  20
ATOM     20  C   LIG d   1       3.172   0.450  -9.810  0.00  0.00     0.112 A 
ATOM     21  C   LIG d   1       3.899   0.222 -10.963  0.00  0.00    -0.035 A 
ATOM     22  C   LIG d   1       3.380  -0.586 -11.959  0.00  0.00    -0.060 A 
ATOM     23  H   LIG d   1       4.873   0.672 -11.087  0.00  0.00     0.064 H 
ATOM     24  C   LIG d   1       2.131  -1.157 -11.804  0.00  0.00    -0.062 A 
ATOM     25  H   LIG d   1       3.950  -0.768 -12.858  0.00  0.00     0.062 H 
ATOM     26  C   LIG d   1       1.402  -0.925 -10.653  0.00  0.00    -0.060 A 
ATOM     27  H   LIG d   1       1.725  -1.787 -12.583  0.00  0.00     0.062 H 
ATOM     28  C   LIG d   1       1.921  -0.121  -9.656  0.00  0.00    -0.035 A 
ATOM     29  H   LIG d   1       0.426  -1.371 -10.532  0.00  0.00     0.062 H 
ATOM     30  H   LIG d   1       1.352   0.061  -8.757  0.00  0.00     0.064 H 
ENDBRANCH  17  20
ENDBRANCH   2  17
TORSDOF 4
ENDMDL
MODEL 2
REMARK VINA RESULT:      -7.1      2.824      3.663
REMARK  4 active torsions:
REMARK  status: ('A' for Active; 'I' for Inactive)
REMARK    1  A    between atoms: C_4  and  N_7 
REMARK    2  A    between atoms: N_7  and  C_8 
REMARK    3  A    between atoms: N_9  and  S_10 
REMARK    4  A    between atoms: S_10  and  C_13 
ROOT
ATOM      1  C   LIG d   1       7.692   0.182  -5.263  0.00  0.00    -0.021 C 
ATOM      2  N   LIG d   1       6.670   0.558  -5.981  0.00  0.00    -0.146 NA
ATOM      3  S   LIG d   1       9.152  -0.413  -6.052  0.00  0.00    -0.722 SA
ENDROOT
BRANCH   1   4
ATOM      4  N   LIG d   1       7.632   0.252  -3.889  0.00  0.00    -0.323 N 
ATOM      5  H   LIG d   1       8.416   0.520  -3.383  0.00  0.00     0.151 HD
BRANCH   4   6
ATOM      6  C   LIG d   1       6.443  -0.060  -3.224  0.00  0.00     0.031 A 
ATOM      7  C   LIG d   1       5.681   0.949  -2.649  0.00  0.00    -0.041 A 
ATOM      8  C   LIG d   1       4.506   0.638  -1.994  0.00  0.00    -0.060 A 
ATOM      9  H   LIG d   1       6.007   1.977  -2.714  0.00  0.00     0.064 H 
ATOM     10  C   LIG d   1       4.087  -0.678  -1.910  0.00  0.00    -0.062 A 
ATOM     11  H   LIG d   1       3.913   1.421  -1.547  0.00  0.00     0.062 H 
ATOM     12  C   LIG d   1       4.843  -1.685  -2.481  0.00  0.00    -0.060 A 
ATOM     13  H   LIG d   1       3.171  -0.920  -1.393  0.00  0.00     0.062 H 
ATOM     14  C   LIG d   1       6.019  -1.381  -3.138  0.00  0.00    -0.041 A 
ATOM     15  H   LIG d   1       4.513  -2.711  -2.414  0.00  0.00     0.062 H 
ATOM     16  H   LIG d   1       6.609  -2.167  -3.584  0.00  0.00     0.064 H 
ENDBRANCH   4   6
ENDBRANCH   1   4
BRANCH   2  17
ATOM     17  S   LIG d   1       6.743   0.474  -7.633  0.00  0.00     0.098 S 
ATOM     18  O   LIG d   1       7.695   1.443  -8.047  0.00  0.00    -0.146 OA
ATOM     19  O   LIG d   1       6.864  -0.903  -7.965  0.00  0.00    -0.146 OA
BRANCH  17  20
ATOM     20  C   LIG d   1       5.181   1.006  -8.251  0.00  0.00     0.112 A 
ATOM     21  C   LIG d   1       4.029   0.332  -7.891  0.00  0.00    -0.035 A 
ATOM     22  C   LIG d   1       2.803   0.752  -8.373  0.00  0.00    -0.060 A 
ATOM     23  H   LIG d   1       4.087  -0.521  -7.231  0.00  0.00     0.064 H 
ATOM     24  C   LIG d   1       2.730   1.840  -9.222  0.00  0.00    -0.062 A 
ATOM     25  H   LIG d   1       1.903   0.227  -8.088  0.00  0.00     0.062 H 
ATOM     26  C   LIG d   1       3.883   2.511  -9.587  0.00  0.00    -0.060 A 
ATOM     27  H   LIG d   1       1.772   2.166  -9.601  0.00  0.00     0.062 H 
ATOM     28  C   LIG d   1       5.108   2.094  -9.102  0.00  0.00    -0.035 A 
ATOM     29  H   LIG d   1       3.826   3.361 -10.250  0.00  0.00     0.062 H 
ATOM     30  H   LIG d   1       6.009   2.618  -9.386  0.00  0.00     0.064 H 
ENDBRANCH  17  20
ENDBRANCH   2  17
TORSDOF 4
ENDMDL
MODEL 3
REMARK VINA RESULT:      -7.0      2.398      3.067
REMARK  4 active torsions:
REMARK  status: ('A' for Active; 'I' for Inactive)
REMARK    1  A    between atoms: C_4  and  N_7 
REMARK    2  A    between atoms: N_7  and  C_8 
REMARK    3  A    between atoms: N_9  and  S_10 
REMARK    4  A    between atoms: S_10  and  C_13 
ROOT
ATOM      1  C   LIG d   1       4.506  -2.658  -5.720  0.00  0.00    -0.021 C 
ATOM      2  N   LIG d   1       4.199  -1.644  -6.480  0.00  0.00    -0.146 NA
ATOM      3  S   LIG d   1       5.404  -4.020  -6.387  0.00  0.00    -0.722 SA
ENDROOT
BRANCH   1   4
ATOM      4  N   LIG d   1       4.130  -2.664  -4.395  0.00  0.00    -0.323 N 
ATOM      5  H   LIG d   1       3.810  -3.484  -3.986  0.00  0.00     0.151 HD
BRANCH   4   6
ATOM      6  C   LIG d   1       4.210  -1.491  -3.639  0.00  0.00     0.031 A 
ATOM      7  C   LIG d   1       5.450  -0.982  -3.272  0.00  0.00    -0.041 A 
ATOM      8  C   LIG d   1       5.526   0.177  -2.527  0.00  0.00    -0.060 A 
ATOM      9  H   LIG d   1       6.354  -1.494  -3.570  0.00  0.00     0.064 H 
ATOM     10  C   LIG d   1       4.369   0.833  -2.146  0.00  0.00    -0.062 A 
ATOM     11  H   LIG d   1       6.489   0.573  -2.241  0.00  0.00     0.062 H 
ATOM     12  C   LIG d   1       3.134   0.330  -2.508  0.00  0.00    -0.060 A 
ATOM     13  H   LIG d   1       4.432   1.738  -1.559  0.00  0.00     0.062 H 
ATOM     14  C   LIG d   1       3.051  -0.829  -3.254  0.00  0.00    -0.041 A 
ATOM     15  H   LIG d   1       2.233   0.845  -2.209  0.00  0.00     0.062 H 
ATOM     16  H   LIG d   1       2.086  -1.222  -3.538  0.00  0.00     0.064 H 
ENDBRANCH   4   6
ENDBRANCH   1   4
BRANCH   2  17
ATOM     17  S   LIG d   1       4.653  -1.637  -8.073  0.00  0.00     0.098 S 
ATOM     18  O   LIG d   1       6.073  -1.640  -8.090  0.00  0.00    -0.146 OA
ATOM     19  O   LIG d   1       3.880  -2.640  -8.720  0.00  0.00    -0.146 OA
BRANCH  17  20
ATOM     20  C   LIG d   1       4.144  -0.093  -8.753  0.00  0.00     0.112 A 
ATOM     21  C   LIG d   1       3.381   0.777  -7.996  0.00  0.00    -0.035 A 
ATOM     22  C   LIG d   1       2.985   1.991  -8.528  0.00  0.00    -0.060 A 
ATOM     23  H   LIG d   1       3.096   0.511  -6.989  0.00  0.00     0.064 H 
ATOM     24  C   LIG d   1       3.344   2.329  -9.819  0.00  0.00    -0.062 A 
ATOM     25  H   LIG d   1       2.393   2.672  -7.936  0.00  0.00     0.062 H 
ATOM     26  C   LIG d   1       4.103   1.456 -10.578  0.00  0.00    -0.060 A 
ATOM     27  H   LIG d   1       3.032   3.276 -10.236  0.00  0.00     0.062 H 
ATOM     28  C   LIG d   1       4.502   0.246 -10.045  0.00  0.00    -0.035 A 
ATOM     29  H   LIG d   1       4.383   1.721 -11.587  0.00  0.00     0.062 H 
ATOM     30  H   LIG d   1       5.095  -0.436 -10.637  0.00  0.00     0.064 H 
ENDBRANCH  17  20
ENDBRANCH   2  17
TORSDOF 4
ENDMDL
MODEL 4
REMARK VINA RESULT:      -7.0      2.977      6.748
REMARK  4 active torsions:
REMARK  status: ('A' for Active; 'I' for Inactive)
REMARK    1  A    between atoms: C_4  and  N_7 
REMARK    2  A    between atoms: N_7  and  C_8 
REMARK    3  A    between atoms: N_9  and  S_10 
REMARK    4  A    between atoms: S_10  and  C_13 
ROOT
ATOM      1  C   LIG d   1       4.298  -2.116  -7.728  0.00  0.00    -0.021 C 
ATOM      2  N   LIG d   1       4.346  -1.530  -6.564  0.00  0.00    -0.146 NA
ATOM      3  S   LIG d   1       5.022  -3.709  -7.942  0.00  0.00    -0.722 SA
ENDROOT
BRANCH   1   4
ATOM      4  N   LIG d   1       3.681  -1.492  -8.789  0.00  0.00    -0.323 N 
ATOM      5  H   LIG d   1       3.189  -2.016  -9.441  0.00  0.00     0.151 HD
BRANCH   4   6
ATOM      6  C   LIG d   1       3.761  -0.103  -8.926  0.00  0.00     0.031 A 
ATOM      7  C   LIG d   1       4.970   0.495  -9.261  0.00  0.00    -0.041 A 
ATOM      8  C   LIG d   1       5.046   1.866  -9.396  0.00  0.00    -0.060 A 
ATOM      9  H   LIG d   1       5.849  -0.113  -9.415  0.00  0.00     0.064 H 
ATOM     10  C   LIG d   1       3.920   2.646  -9.199  0.00  0.00    -0.062 A 
ATOM     11  H   LIG d   1       5.985   2.332  -9.656  0.00  0.00     0.062 H 
ATOM     12  C   LIG d   1       2.717   2.055  -8.866  0.00  0.00    -0.060 A 
ATOM     13  H   LIG d   1       3.984   3.719  -9.301  0.00  0.00     0.062 H 
ATOM     14  C   LIG d   1       2.633   0.684  -8.729  0.00  0.00    -0.041 A 
ATOM     15  H   LIG d   1       1.839   2.666  -8.713  0.00  0.00     0.062 H 
ATOM     16  H   LIG d   1       1.692   0.221  -8.469  0.00  0.00     0.064 H 
ENDBRANCH   4   6
ENDBRANCH   1   4
BRANCH   2  17
ATOM     17  S   LIG d   1       5.087  -2.281  -5.288  0.00  0.00     0.098 S 
ATOM     18  O   LIG d   1       4.308  -3.430  -4.986  0.00  0.00    -0.146 OA
ATOM     19  O   LIG d   1       6.469  -2.361  -5.611  0.00  0.00    -0.146 OA
BRANCH  17  20
ATOM     20  C   LIG d   1       4.956  -1.204  -3.900  0.00  0.00     0.112 A 
ATOM     21  C   LIG d   1       4.412  -1.665  -2.716  0.00  0.00    -0.035 A 
ATOM     22  C   LIG d   1       4.312  -0.820  -1.626  0.00  0.00    -0.060 A 
ATOM     23  H   LIG d   1       4.067  -2.685  -2.641  0.00  0.00     0.064 H 
ATOM     24  C   LIG d   1       4.748   0.488  -1.723  0.00  0.00    -0.062 A 
ATOM     25  H   LIG d   1       3.891  -1.182  -0.700  0.00  0.00     0.062 H 
ATOM     26  C   LIG d   1       5.287   0.951  -2.910  0.00  0.00    -0.060 A 
ATOM     27  H   LIG d   1       4.668   1.149  -0.872  0.00  0.00     0.062 H 
ATOM     28  C   LIG d   1       5.391   0.106  -3.998  0.00  0.00    -0.035 A 
ATOM     29  H   LIG d   1       5.628   1.973  -2.985  0.00  0.00     0.062 H 
ATOM     30  H   LIG d   1       5.812   0.467  -4.925  0.00  0.00     0.064 H 
ENDBRANCH  17  20
ENDBRANCH   2  17
TORSDOF 4
ENDMDL
MODEL 5
REMARK VINA RESULT:      -6.9      5.760      8.032
REMARK  4 active torsions:
REMARK  status: ('A' for Active; 'I' for Inactive)
REMARK    1  A    between atoms: C_4  and  N_7 
REMARK    2  A    between atoms: N_7  and  C_8 
REMARK    3  A    between atoms: N_9  and  S_10 
REMARK    4  A    between atoms: S_10  and  C_13 
ROOT
ATOM      1  C   LIG d   1       9.734   2.115  -3.838  0.00  0.00    -0.021 C 
ATOM      2  N   LIG d   1       8.544   1.754  -3.446  0.00  0.00    -0.146 NA
ATOM      3  S   LIG d   1      10.391   1.491  -5.350  0.00  0.00    -0.722 SA
ENDROOT
BRANCH   1   4
ATOM      4  N   LIG d   1      10.478   2.983  -3.071  0.00  0.00    -0.323 N 
ATOM      5  H   LIG d   1      11.218   2.649  -2.539  0.00  0.00     0.151 HD
BRANCH   4   6
ATOM      6  C   LIG d   1      10.169   4.347  -3.059  0.00  0.00     0.031 A 
ATOM      7  C   LIG d   1      10.370   5.096  -1.906  0.00  0.00    -0.041 A 
ATOM      8  C   LIG d   1      10.065   6.442  -1.898  0.00  0.00    -0.060 A 
ATOM      9  H   LIG d   1      10.766   4.626  -1.018  0.00  0.00     0.064 H 
ATOM     10  C   LIG d   1       9.558   7.045  -3.035  0.00  0.00    -0.062 A 
ATOM     11  H   LIG d   1      10.221   7.026  -1.003  0.00  0.00     0.062 H 
ATOM     12  C   LIG d   1       9.356   6.303  -4.183  0.00  0.00    -0.060 A 
ATOM     13  H   LIG d   1       9.315   8.098  -3.025  0.00  0.00     0.062 H 
ATOM     14  C   LIG d   1       9.660   4.956  -4.199  0.00  0.00    -0.041 A 
ATOM     15  H   LIG d   1       8.961   6.776  -5.070  0.00  0.00     0.062 H 
ATOM     16  H   LIG d   1       9.503   4.376  -5.096  0.00  0.00     0.064 H 
ENDBRANCH   4   6
ENDBRANCH   1   4
BRANCH   2  17
ATOM     17  S   LIG d   1       7.649   0.710  -4.370  0.00  0.00     0.098 S 
ATOM     18  O   LIG d   1       7.123   1.470  -5.448  0.00  0.00    -0.146 OA
ATOM     19  O   LIG d   1       8.454  -0.444  -4.572  0.00  0.00    -0.146 OA
BRANCH  17  20
ATOM     20  C   LIG d   1       6.273   0.199  -3.394  0.00  0.00     0.112 A 
ATOM     21  C   LIG d   1       5.484   1.144  -2.766  0.00  0.00    -0.035 A 
ATOM     22  C   LIG d   1       4.402   0.743  -2.004  0.00  0.00    -0.060 A 
ATOM     23  H   LIG d   1       5.710   2.194  -2.872  0.00  0.00     0.064 H 
ATOM     24  C   LIG d   1       4.116  -0.602  -1.863  0.00  0.00    -0.062 A 
ATOM     25  H   LIG d   1       3.782   1.481  -1.516  0.00  0.00     0.062 H 
ATOM     26  C   LIG d   1       4.909  -1.547  -2.487  0.00  0.00    -0.060 A 
ATOM     27  H   LIG d   1       3.272  -0.915  -1.265  0.00  0.00     0.062 H 
ATOM     28  C   LIG d   1       5.988  -1.147  -3.252  0.00  0.00    -0.035 A 
ATOM     29  H   LIG d   1       4.685  -2.598  -2.377  0.00  0.00     0.062 H 
ATOM     30  H   LIG d   1       6.608  -1.884  -3.740  0.00  0.00     0.064 H 
ENDBRANCH  17  20
ENDBRANCH   2  17
TORSDOF 4
ENDMDL
MODEL 6
REMARK VINA RESULT:      -6.8      4.628      7.172
REMARK  4 active torsions:
REMARK  status: ('A' for Active; 'I' for Inactive)
REMARK    1  A    between atoms: C_4  and  N_7 
REMARK    2  A    between atoms: N_7  and  C_8 
REMARK    3  A    between atoms: N_9  and  S_10 
REMARK    4  A    between atoms: S_10  and  C_13 
ROOT
ATOM      1  C   LIG d   1       4.834  -2.829  -5.070  0.00  0.00    -0.021 C 
ATOM      2  N   LIG d   1       5.865  -3.380  -4.493  0.00  0.00    -0.146 NA
ATOM      3  S   LIG d   1       4.822  -2.594  -6.817  0.00  0.00    -0.722 SA
ENDROOT
BRANCH   1   4
ATOM      4  N   LIG d   1       3.753  -2.431  -4.315  0.00  0.00    -0.323 N 
ATOM      5  H   LIG d   1       2.957  -2.984  -4.278  0.00  0.00     0.151 HD
BRANCH   4   6
ATOM      6  C   LIG d   1       3.804  -1.231  -3.599  0.00  0.00     0.031 A 
ATOM      7  C   LIG d   1       4.400  -1.193  -2.344  0.00  0.00    -0.041 A 
ATOM      8  C   LIG d   1       4.449  -0.007  -1.640  0.00  0.00    -0.060 A 
ATOM      9  H   LIG d   1       4.824  -2.091  -1.920  0.00  0.00     0.064 H 
ATOM     10  C   LIG d   1       3.907   1.145  -2.183  0.00  0.00    -0.062 A 
ATOM     11  H   LIG d   1       4.912   0.024  -0.665  0.00  0.00     0.062 H 
ATOM     12  C   LIG d   1       3.313   1.111  -3.431  0.00  0.00    -0.060 A 
ATOM     13  H   LIG d   1       3.943   2.070  -1.629  0.00  0.00     0.062 H 
ATOM     14  C   LIG d   1       3.260  -0.072  -4.141  0.00  0.00    -0.041 A 
ATOM     15  H   LIG d   1       2.891   2.011  -3.852  0.00  0.00     0.062 H 
ATOM     16  H   LIG d   1       2.797  -0.099  -5.116  0.00  0.00     0.064 H 
ENDBRANCH   4   6
ENDBRANCH   1   4
BRANCH   2  17
ATOM     17  S   LIG d   1       7.164  -3.859  -5.402  0.00  0.00     0.098 S 
ATOM     18  O   LIG d   1       6.716  -4.935  -6.214  0.00  0.00    -0.146 OA
ATOM     19  O   LIG d   1       7.735  -2.678  -5.949  0.00  0.00    -0.146 OA
BRANCH  17  20
ATOM     20  C   LIG d   1       8.358  -4.528  -4.293  0.00  0.00     0.112 A 
ATOM     21  C   LIG d   1       8.742  -5.851  -4.406  0.00  0.00    -0.035 A 
ATOM     22  C   LIG d   1       9.682  -6.375  -3.537  0.00  0.00    -0.060 A 
ATOM     23  H   LIG d   1       8.309  -6.475  -5.173  0.00  0.00     0.064 H 
ATOM     24  C   LIG d   1      10.231  -5.578  -2.551  0.00  0.00    -0.062 A 
ATOM     25  H   LIG d   1       9.984  -7.407  -3.628  0.00  0.00     0.062 H 
ATOM     26  C   LIG d   1       9.844  -4.255  -2.435  0.00  0.00    -0.060 A 
ATOM     27  H   LIG d   1      10.964  -5.988  -1.871  0.00  0.00     0.062 H 
ATOM     28  C   LIG d   1       8.907  -3.731  -3.305  0.00  0.00    -0.035 A 
ATOM     29  H   LIG d   1      10.273  -3.633  -1.664  0.00  0.00     0.062 H 
ATOM     30  H   LIG d   1       8.605  -2.698  -3.215  0.00  0.00     0.064 H 
ENDBRANCH  17  20
ENDBRANCH   2  17
TORSDOF 4
ENDMDL
MODEL 7
REMARK VINA RESULT:      -6.8      3.296      6.496
REMARK  4 active torsions:
REMARK  status: ('A' for Active; 'I' for Inactive)
REMARK    1  A    between atoms: C_4  and  N_7 
REMARK    2  A    between atoms: N_7  and  C_8 
REMARK    3  A    between atoms: N_9  and  S_10 
REMARK    4  A    between atoms: S_10  and  C_13 
ROOT
ATOM      1  C   LIG d   1       6.522  -0.196  -6.627  0.00  0.00    -0.021 C 
ATOM      2  N   LIG d   1       6.676   0.664  -5.659  0.00  0.00    -0.146 NA
ATOM      3  S   LIG d   1       6.504  -1.923  -6.276  0.00  0.00    -0.722 SA
ENDROOT
BRANCH   1   4
ATOM      4  N   LIG d   1       6.372   0.244  -7.923  0.00  0.00    -0.323 N 
ATOM      5  H   LIG d   1       7.087   0.113  -8.566  0.00  0.00     0.151 HD
BRANCH   4   6
ATOM      6  C   LIG d   1       5.189   0.880  -8.314  0.00  0.00     0.031 A 
ATOM      7  C   LIG d   1       3.959   0.343  -7.953  0.00  0.00    -0.041 A 
ATOM      8  C   LIG d   1       2.793   0.973  -8.339  0.00  0.00    -0.060 A 
ATOM      9  H   LIG d   1       3.915  -0.566  -7.371  0.00  0.00     0.064 H 
ATOM     10  C   LIG d   1       2.848   2.138  -9.084  0.00  0.00    -0.062 A 
ATOM     11  H   LIG d   1       1.837   0.557  -8.059  0.00  0.00     0.062 H 
ATOM     12  C   LIG d   1       4.070   2.674  -9.445  0.00  0.00    -0.060 A 
ATOM     13  H   LIG d   1       1.934   2.626  -9.389  0.00  0.00     0.062 H 
ATOM     14  C   LIG d   1       5.240   2.049  -9.062  0.00  0.00    -0.041 A 
ATOM     15  H   LIG d   1       4.110   3.583 -10.026  0.00  0.00     0.062 H 
ATOM     16  H   LIG d   1       6.195   2.468  -9.343  0.00  0.00     0.064 H 
ENDBRANCH   4   6
ENDBRANCH   1   4
BRANCH   2  17
ATOM     17  S   LIG d   1       6.856   0.134  -4.101  0.00  0.00     0.098 S 
ATOM     18  O   LIG d   1       7.682  -1.021  -4.158  0.00  0.00    -0.146 OA
ATOM     19  O   LIG d   1       7.192   1.273  -3.320  0.00  0.00    -0.146 OA
BRANCH  17  20
ATOM     20  C   LIG d   1       5.272  -0.406  -3.548  0.00  0.00     0.112 A 
ATOM     21  C   LIG d   1       5.165  -1.528  -2.749  0.00  0.00    -0.035 A 
ATOM     22  C   LIG d   1       3.922  -1.949  -2.312  0.00  0.00    -0.060 A 
ATOM     23  H   LIG d   1       6.051  -2.075  -2.463  0.00  0.00     0.064 H 
ATOM     24  C   LIG d   1       2.787  -1.253  -2.682  0.00  0.00    -0.062 A 
ATOM     25  H   LIG d   1       3.839  -2.824  -1.684  0.00  0.00     0.062 H 
ATOM     26  C   LIG d   1       2.894  -0.133  -3.486  0.00  0.00    -0.060 A 
ATOM     27  H   LIG d   1       1.816  -1.584  -2.343  0.00  0.00     0.062 H 
ATOM     28  C   LIG d   1       4.136   0.290  -3.920  0.00  0.00    -0.035 A 
ATOM     29  H   LIG d   1       2.007   0.411  -3.776  0.00  0.00     0.062 H 
ATOM     30  H   LIG d   1       4.221   1.165  -4.547  0.00  0.00     0.064 H 
ENDBRANCH  17  20
ENDBRANCH   2  17
TORSDOF 4
ENDMDL
MODEL 8
REMARK VINA RESULT:      -6.7      4.941      7.366
REMARK  4 active torsions:
REMARK  status: ('A' for Active; 'I' for Inactive)
REMARK    1  A    between atoms: C_4  and  N_7 
REMARK    2  A    between atoms: N_7  and  C_8 
REMARK    3  A    between atoms: N_9  and  S_10 
REMARK    4  A    between atoms: S_10  and  C_13 
ROOT
ATOM      1  C   LIG d   1       7.077  -3.714  -5.200  0.00  0.00    -0.021 C 
ATOM      2  N   LIG d   1       6.477  -2.776  -4.521  0.00  0.00    -0.146 NA
ATOM      3  S   LIG d   1       6.155  -4.722  -6.314  0.00  0.00    -0.722 SA
ENDROOT
BRANCH   1   4
ATOM      4  N   LIG d   1       8.431  -3.916  -5.048  0.00  0.00    -0.323 N 
ATOM      5  H   LIG d   1       9.055  -3.503  -5.666  0.00  0.00     0.151 HD
BRANCH   4   6
ATOM      6  C   LIG d   1       8.906  -4.714  -4.003  0.00  0.00     0.031 A 
ATOM      7  C   LIG d   1       9.330  -4.128  -2.816  0.00  0.00    -0.041 A 
ATOM      8  C   LIG d   1       9.797  -4.919  -1.786  0.00  0.00    -0.060 A 
ATOM      9  H   LIG d   1       9.293  -3.055  -2.700  0.00  0.00     0.064 H 
ATOM     10  C   LIG d   1       9.843  -6.294  -1.934  0.00  0.00    -0.062 A 
ATOM     11  H   LIG d   1      10.126  -4.465  -0.864  0.00  0.00     0.062 H 
ATOM     12  C   LIG d   1       9.423  -6.880  -3.113  0.00  0.00    -0.060 A 
ATOM     13  H   LIG d   1      10.214  -6.910  -1.128  0.00  0.00     0.062 H 
ATOM     14  C   LIG d   1       8.954  -6.095  -4.147  0.00  0.00    -0.041 A 
ATOM     15  H   LIG d   1       9.460  -7.954  -3.225  0.00  0.00     0.062 H 
ATOM     16  H   LIG d   1       8.625  -6.553  -5.068  0.00  0.00     0.064 H 
ENDBRANCH   4   6
ENDBRANCH   1   4
BRANCH   2  17
ATOM     17  S   LIG d   1       4.849  -2.533  -4.705  0.00  0.00     0.098 S 
ATOM     18  O   LIG d   1       4.642  -2.185  -6.067  0.00  0.00    -0.146 OA
ATOM     19  O   LIG d   1       4.202  -3.641  -4.095  0.00  0.00    -0.146 OA
BRANCH  17  20
ATOM     20  C   LIG d   1       4.423  -1.113  -3.752  0.00  0.00     0.112 A 
ATOM     21  C   LIG d   1       3.660  -0.107  -4.314  0.00  0.00    -0.035 A 
ATOM     22  C   LIG d   1       3.323   1.005  -3.564  0.00  0.00    -0.060 A 
ATOM     23  H   LIG d   1       3.326  -0.190  -5.337  0.00  0.00     0.064 H 
ATOM     24  C   LIG d   1       3.756   1.114  -2.256  0.00  0.00    -0.062 A 
ATOM     25  H   LIG d   1       2.724   1.789  -4.002  0.00  0.00     0.062 H 
ATOM     26  C   LIG d   1       4.523   0.110  -1.695  0.00  0.00    -0.060 A 
ATOM     27  H   LIG d   1       3.494   1.984  -1.671  0.00  0.00     0.062 H 
ATOM     28  C   LIG d   1       4.858  -1.003  -2.443  0.00  0.00    -0.035 A 
ATOM     29  H   LIG d   1       4.862   0.195  -0.674  0.00  0.00     0.062 H 
ATOM     30  H   LIG d   1       5.457  -1.789  -2.006  0.00  0.00     0.064 H 
ENDBRANCH  17  20
ENDBRANCH   2  17
TORSDOF 4
ENDMDL
MODEL 9
REMARK VINA RESULT:      -6.6      5.429      7.418
REMARK  4 active torsions:
REMARK  status: ('A' for Active; 'I' for Inactive)
REMARK    1  A    between atoms: C_4  and  N_7 
REMARK    2  A    between atoms: N_7  and  C_8 
REMARK    3  A    between atoms: N_9  and  S_10 
REMARK    4  A    between atoms: S_10  and  C_13 
ROOT
ATOM      1  C   LIG d   1       7.674   0.245  -4.086  0.00  0.00    -0.021 C 
ATOM      2  N   LIG d   1       8.314   1.336  -3.768  0.00  0.00    -0.146 NA
ATOM      3  S   LIG d   1       7.562  -0.252  -5.773  0.00  0.00    -0.722 SA
ENDROOT
BRANCH   1   4
ATOM      4  N   LIG d   1       7.086  -0.519  -3.102  0.00  0.00    -0.323 N 
ATOM      5  H   LIG d   1       7.636  -1.067  -2.520  0.00  0.00     0.151 HD
BRANCH   4   6
ATOM      6  C   LIG d   1       5.697  -0.505  -2.942  0.00  0.00     0.031 A 
ATOM      7  C   LIG d   1       4.975  -1.690  -3.020  0.00  0.00    -0.041 A 
ATOM      8  C   LIG d   1       3.604  -1.673  -2.860  0.00  0.00    -0.060 A 
ATOM      9  H   LIG d   1       5.486  -2.623  -3.205  0.00  0.00     0.064 H 
ATOM     10  C   LIG d   1       2.949  -0.477  -2.623  0.00  0.00    -0.062 A 
ATOM     11  H   LIG d   1       3.042  -2.592  -2.921  0.00  0.00     0.062 H 
ATOM     12  C   LIG d   1       3.664   0.703  -2.545  0.00  0.00    -0.060 A 
ATOM     13  H   LIG d   1       1.876  -0.466  -2.503  0.00  0.00     0.062 H 
ATOM     14  C   LIG d   1       5.035   0.693  -2.703  0.00  0.00    -0.041 A 
ATOM     15  H   LIG d   1       3.150   1.634  -2.359  0.00  0.00     0.062 H 
ATOM     16  H   LIG d   1       5.594   1.615  -2.641  0.00  0.00     0.064 H 
ENDBRANCH   4   6
ENDBRANCH   1   4
BRANCH   2  17
ATOM     17  S   LIG d   1       9.021   2.255  -4.951  0.00  0.00     0.098 S 
ATOM     18  O   LIG d   1      10.262   1.635  -5.259  0.00  0.00    -0.146 OA
ATOM     19  O   LIG d   1       8.022   2.490  -5.934  0.00  0.00    -0.146 OA
BRANCH  17  20
ATOM     20  C   LIG d   1       9.403   3.820  -4.237  0.00  0.00     0.112 A 
ATOM     21  C   LIG d   1       9.242   4.975  -4.979  0.00  0.00    -0.035 A 
ATOM     22  C   LIG d   1       9.539   6.203  -4.417  0.00  0.00    -0.060 A 
ATOM     23  H   LIG d   1       8.884   4.919  -5.996  0.00  0.00     0.064 H 
ATOM     24  C   LIG d   1      10.004   6.275  -3.117  0.00  0.00    -0.062 A 
ATOM     25  H   LIG d   1       9.409   7.106  -4.995  0.00  0.00     0.062 H 
ATOM     26  C   LIG d   1      10.169   5.118  -2.377  0.00  0.00    -0.060 A 
ATOM     27  H   LIG d   1      10.238   7.235  -2.679  0.00  0.00     0.062 H 
ATOM     28  C   LIG d   1       9.870   3.891  -2.937  0.00  0.00    -0.035 A 
ATOM     29  H   LIG d   1      10.533   5.174  -1.362  0.00  0.00     0.062 H 
ATOM     30  H   LIG d   1       9.999   2.988  -2.360  0.00  0.00     0.064 H 
ENDBRANCH  17  20
ENDBRANCH   2  17
TORSDOF 4
ENDMDL
