MODEL 1
REMARK VINA RESULT:      -6.9      0.000      0.000
REMARK  3 active torsions:
REMARK  status: ('A' for Active; 'I' for Inactive)
REMARK    1  A    between atoms: C_1  and  C_2 
REMARK    2  A    between atoms: C_5  and  N_9 
REMARK    3  A    between atoms: C_18  and  C_32 
ROOT
ATOM      1  N   LIG d   1       6.981  -3.202  -5.654  0.00  0.00    -0.209 N 
ATOM      2  C   LIG d   1       5.647  -3.172  -5.544  0.00  0.00     0.231 A 
ATOM      3  O   LIG d   1       4.998  -3.759  -4.705  0.00  0.00    -0.275 OA
ATOM      4  C   LIG d   1       5.079  -2.291  -6.635  0.00  0.00     0.060 A 
ATOM      5  H   LIG d   1       4.415  -2.857  -7.288  0.00  0.00     0.041 H 
ATOM      6  C   LIG d   1       6.325  -1.812  -7.401  0.00  0.00     0.069 A 
ATOM      7  H   LIG d   1       6.292  -2.138  -8.440  0.00  0.00     0.042 H 
ATOM      8  C   LIG d   1       7.471  -2.469  -6.661  0.00  0.00     0.232 A 
ATOM      9  O   LIG d   1       8.646  -2.350  -6.938  0.00  0.00    -0.274 OA
ATOM     10  C   LIG d   1       6.480  -0.279  -7.311  0.00  0.00     0.088 C 
ATOM     11  C   LIG d   1       5.167   0.290  -7.826  0.00  0.00    -0.025 A 
ATOM     12  C   LIG d   1       5.051   1.154  -8.878  0.00  0.00    -0.057 A 
ATOM     13  C   LIG d   1       3.787   1.598  -9.243  0.00  0.00    -0.061 A 
ATOM     14  C   LIG d   1       2.668   1.169  -8.554  0.00  0.00    -0.061 A 
ATOM     15  C   LIG d   1       2.793   0.290  -7.485  0.00  0.00    -0.058 A 
ATOM     16  C   LIG d   1       4.039  -0.142  -7.131  0.00  0.00    -0.035 A 
ATOM     17  C   LIG d   1       4.329  -1.113  -5.978  0.00  0.00     0.022 C 
ATOM     18  C   LIG d   1       5.359  -0.412  -5.106  0.00  0.00    -0.035 A 
ATOM     19  C   LIG d   1       6.495   0.039  -5.824  0.00  0.00    -0.025 A 
ATOM     20  C   LIG d   1       7.505   0.692  -5.178  0.00  0.00    -0.057 A 
ATOM     21  C   LIG d   1       7.390   0.918  -3.812  0.00  0.00    -0.061 A 
ATOM     22  C   LIG d   1       6.271   0.489  -3.123  0.00  0.00    -0.061 A 
ATOM     23  C   LIG d   1       5.236  -0.211  -3.761  0.00  0.00    -0.058 A 
ATOM     24  H   LIG d   1       5.928   1.487  -9.414  0.00  0.00     0.062 H 
ATOM     25  H   LIG d   1       3.677   2.281 -10.072  0.00  0.00     0.062 H 
ATOM     26  H   LIG d   1       1.690   1.521  -8.847  0.00  0.00     0.062 H 
ATOM     27  H   LIG d   1       1.921  -0.045  -6.944  0.00  0.00     0.062 H 
ATOM     28  H   LIG d   1       3.434  -1.423  -5.438  0.00  0.00     0.041 H 
ATOM     29  H   LIG d   1       8.379   1.026  -5.717  0.00  0.00     0.062 H 
ATOM     30  H   LIG d   1       8.180   1.432  -3.284  0.00  0.00     0.062 H 
ATOM     31  H   LIG d   1       6.192   0.670  -2.061  0.00  0.00     0.062 H 
ATOM     32  H   LIG d   1       4.360  -0.556  -3.232  0.00  0.00     0.062 H 
ENDROOT
BRANCH   1  33
ATOM     33  C   LIG d   1       7.799  -3.937  -4.783  0.00  0.00     0.058 A 
ATOM     34  C   LIG d   1       8.364  -3.321  -3.674  0.00  0.00    -0.038 A 
ATOM     35  C   LIG d   1       9.168  -4.046  -2.818  0.00  0.00    -0.057 A 
ATOM     36  H   LIG d   1       8.175  -2.275  -3.483  0.00  0.00     0.064 H 
ATOM     37  C   LIG d   1       9.410  -5.386  -3.062  0.00  0.00    -0.049 A 
ATOM     38  H   LIG d   1       9.608  -3.567  -1.956  0.00  0.00     0.062 H 
ATOM     39  C   LIG d   1       8.853  -6.002  -4.167  0.00  0.00    -0.043 A 
ATOM     40  C   LIG d   1       8.043  -5.282  -5.026  0.00  0.00     0.040 A 
ATOM     41  H   LIG d   1       9.047  -7.047  -4.359  0.00  0.00     0.063 H 
ATOM     42 BR   LIG d   1       7.274  -6.127  -6.533  0.00  0.00    -0.048 Br
BRANCH  37  43
ATOM     43  C   LIG d   1      10.287  -6.175  -2.125  0.00  0.00    -0.040 C 
ATOM     44  H   LIG d   1       9.708  -6.982  -1.677  0.00  0.00     0.028 H 
ATOM     45  H   LIG d   1      11.126  -6.595  -2.680  0.00  0.00     0.028 H 
ATOM     46  H   LIG d   1      10.663  -5.519  -1.340  0.00  0.00     0.028 H 
ENDBRANCH  37  43
ENDBRANCH   1  33
BRANCH  10  47
ATOM     47  C   LIG d   1       7.695   0.236  -8.038  0.00  0.00     0.136 C 
ATOM     48  O   LIG d   1       7.943  -0.156  -9.153  0.00  0.00    -0.300 OA
ATOM     49  H   LIG d   1       8.343   0.956  -7.562  0.00  0.00     0.104 H 
ENDBRANCH  10  47
TORSDOF 3
ENDMDL
MODEL 2
REMARK VINA RESULT:      -6.8      2.002      6.721
REMARK  3 active torsions:
REMARK  status: ('A' for Active; 'I' for Inactive)
REMARK    1  A    between atoms: C_1  and  C_2 
REMARK    2  A    between atoms: C_5  and  N_9 
REMARK    3  A    between atoms: C_18  and  C_32 
ROOT
ATOM      1  N   LIG d   1       6.457  -1.297  -7.019  0.00  0.00    -0.209 N 
ATOM      2  C   LIG d   1       7.497  -0.895  -6.279  0.00  0.00     0.231 A 
ATOM      3  O   LIG d   1       7.764   0.255  -6.007  0.00  0.00    -0.275 OA
ATOM      4  C   LIG d   1       8.288  -2.107  -5.835  0.00  0.00     0.060 A 
ATOM      5  H   LIG d   1       9.308  -2.068  -6.215  0.00  0.00     0.041 H 
ATOM      6  C   LIG d   1       7.518  -3.288  -6.453  0.00  0.00     0.069 A 
ATOM      7  H   LIG d   1       8.149  -3.844  -7.146  0.00  0.00     0.042 H 
ATOM      8  C   LIG d   1       6.368  -2.622  -7.179  0.00  0.00     0.232 A 
ATOM      9  O   LIG d   1       5.504  -3.200  -7.805  0.00  0.00    -0.274 OA
ATOM     10  C   LIG d   1       6.953  -4.218  -5.359  0.00  0.00     0.088 C 
ATOM     11  C   LIG d   1       8.150  -4.621  -4.513  0.00  0.00    -0.025 A 
ATOM     12  C   LIG d   1       8.551  -5.908  -4.292  0.00  0.00    -0.057 A 
ATOM     13  C   LIG d   1       9.666  -6.134  -3.495  0.00  0.00    -0.061 A 
ATOM     14  C   LIG d   1      10.356  -5.073  -2.939  0.00  0.00    -0.061 A 
ATOM     15  C   LIG d   1       9.943  -3.766  -3.168  0.00  0.00    -0.058 A 
ATOM     16  C   LIG d   1       8.846  -3.552  -3.952  0.00  0.00    -0.035 A 
ATOM     17  C   LIG d   1       8.277  -2.167  -4.293  0.00  0.00     0.022 C 
ATOM     18  C   LIG d   1       6.809  -2.222  -3.899  0.00  0.00    -0.035 A 
ATOM     19  C   LIG d   1       6.114  -3.323  -4.460  0.00  0.00    -0.025 A 
ATOM     20  C   LIG d   1       4.788  -3.509  -4.193  0.00  0.00    -0.057 A 
ATOM     21  C   LIG d   1       4.142  -2.612  -3.353  0.00  0.00    -0.061 A 
ATOM     22  C   LIG d   1       4.832  -1.551  -2.797  0.00  0.00    -0.061 A 
ATOM     23  C   LIG d   1       6.187  -1.323  -3.082  0.00  0.00    -0.058 A 
ATOM     24  H   LIG d   1       8.009  -6.735  -4.728  0.00  0.00     0.062 H 
ATOM     25  H   LIG d   1       9.997  -7.145  -3.310  0.00  0.00     0.062 H 
ATOM     26  H   LIG d   1      11.222  -5.261  -2.321  0.00  0.00     0.062 H 
ATOM     27  H   LIG d   1      10.479  -2.937  -2.734  0.00  0.00     0.062 H 
ATOM     28  H   LIG d   1       8.827  -1.347  -3.830  0.00  0.00     0.041 H 
ATOM     29  H   LIG d   1       4.250  -4.339  -4.629  0.00  0.00     0.062 H 
ATOM     30  H   LIG d   1       3.093  -2.744  -3.131  0.00  0.00     0.062 H 
ATOM     31  H   LIG d   1       4.320  -0.860  -2.144  0.00  0.00     0.062 H 
ATOM     32  H   LIG d   1       6.734  -0.494  -2.658  0.00  0.00     0.062 H 
ENDROOT
BRANCH   1  33
ATOM     33  C   LIG d   1       5.533  -0.402  -7.578  0.00  0.00     0.058 A 
ATOM     34  C   LIG d   1       4.327  -0.154  -6.935  0.00  0.00    -0.038 A 
ATOM     35  C   LIG d   1       3.419   0.727  -7.487  0.00  0.00    -0.057 A 
ATOM     36  H   LIG d   1       4.100  -0.652  -6.004  0.00  0.00     0.064 H 
ATOM     37  C   LIG d   1       3.710   1.366  -8.679  0.00  0.00    -0.049 A 
ATOM     38  H   LIG d   1       2.481   0.919  -6.987  0.00  0.00     0.062 H 
ATOM     39  C   LIG d   1       4.906   1.118  -9.325  0.00  0.00    -0.043 A 
ATOM     40  C   LIG d   1       5.822   0.241  -8.775  0.00  0.00     0.040 A 
ATOM     41  H   LIG d   1       5.129   1.614 -10.259  0.00  0.00     0.063 H 
ATOM     42 BR   LIG d   1       7.463  -0.091  -9.655  0.00  0.00    -0.048 Br
BRANCH  37  43
ATOM     43  C   LIG d   1       2.717   2.328  -9.278  0.00  0.00    -0.040 C 
ATOM     44  H   LIG d   1       2.203   2.864  -8.480  0.00  0.00     0.028 H 
ATOM     45  H   LIG d   1       3.240   3.039  -9.916  0.00  0.00     0.028 H 
ATOM     46  H   LIG d   1       1.988   1.775  -9.872  0.00  0.00     0.028 H 
ENDBRANCH  37  43
ENDBRANCH   1  33
BRANCH  10  47
ATOM     47  C   LIG d   1       6.180  -5.385  -5.917  0.00  0.00     0.136 C 
ATOM     48  O   LIG d   1       6.633  -6.027  -6.835  0.00  0.00    -0.300 OA
ATOM     49  H   LIG d   1       5.222  -5.649  -5.495  0.00  0.00     0.104 H 
ENDBRANCH  10  47
TORSDOF 3
ENDMDL
MODEL 3
REMARK VINA RESULT:      -6.6      2.793      5.387
REMARK  3 active torsions:
REMARK  status: ('A' for Active; 'I' for Inactive)
REMARK    1  A    between atoms: C_1  and  C_2 
REMARK    2  A    between atoms: C_5  and  N_9 
REMARK    3  A    between atoms: C_18  and  C_32 
ROOT
ATOM      1  N   LIG d   1       7.684  -0.138  -5.928  0.00  0.00    -0.209 N 
ATOM      2  C   LIG d   1       8.132  -1.312  -5.465  0.00  0.00     0.231 A 
ATOM      3  O   LIG d   1       9.015  -1.453  -4.647  0.00  0.00    -0.275 OA
ATOM      4  C   LIG d   1       7.360  -2.434  -6.125  0.00  0.00     0.060 A 
ATOM      5  H   LIG d   1       8.025  -3.084  -6.693  0.00  0.00     0.041 H 
ATOM      6  C   LIG d   1       6.380  -1.700  -7.058  0.00  0.00     0.069 A 
ATOM      7  H   LIG d   1       6.552  -1.978  -8.098  0.00  0.00     0.042 H 
ATOM      8  C   LIG d   1       6.696  -0.237  -6.826  0.00  0.00     0.232 A 
ATOM      9  O   LIG d   1       6.142   0.695  -7.368  0.00  0.00    -0.274 OA
ATOM     10  C   LIG d   1       4.916  -1.970  -6.652  0.00  0.00     0.088 C 
ATOM     11  C   LIG d   1       4.770  -3.484  -6.650  0.00  0.00    -0.025 A 
ATOM     12  C   LIG d   1       3.863  -4.180  -7.398  0.00  0.00    -0.057 A 
ATOM     13  C   LIG d   1       3.838  -5.566  -7.299  0.00  0.00    -0.061 A 
ATOM     14  C   LIG d   1       4.717  -6.223  -6.459  0.00  0.00    -0.061 A 
ATOM     15  C   LIG d   1       5.637  -5.509  -5.701  0.00  0.00    -0.058 A 
ATOM     16  C   LIG d   1       5.655  -4.148  -5.803  0.00  0.00    -0.035 A 
ATOM     17  C   LIG d   1       6.616  -3.230  -5.032  0.00  0.00     0.022 C 
ATOM     18  C   LIG d   1       5.728  -2.217  -4.325  0.00  0.00    -0.035 A 
ATOM     19  C   LIG d   1       4.819  -1.560  -5.191  0.00  0.00    -0.025 A 
ATOM     20  C   LIG d   1       3.953  -0.625  -4.700  0.00  0.00    -0.057 A 
ATOM     21  C   LIG d   1       3.971  -0.345  -3.340  0.00  0.00    -0.061 A 
ATOM     22  C   LIG d   1       4.850  -1.003  -2.500  0.00  0.00    -0.061 A 
ATOM     23  C   LIG d   1       5.769  -1.945  -2.988  0.00  0.00    -0.058 A 
ATOM     24  H   LIG d   1       3.178  -3.662  -8.053  0.00  0.00     0.062 H 
ATOM     25  H   LIG d   1       3.128  -6.132  -7.883  0.00  0.00     0.062 H 
ATOM     26  H   LIG d   1       4.687  -7.301  -6.390  0.00  0.00     0.062 H 
ATOM     27  H   LIG d   1       6.322  -6.021  -5.044  0.00  0.00     0.062 H 
ATOM     28  H   LIG d   1       7.287  -3.770  -4.364  0.00  0.00     0.041 H 
ATOM     29  H   LIG d   1       3.267  -0.111  -5.357  0.00  0.00     0.062 H 
ATOM     30  H   LIG d   1       3.292   0.392  -2.934  0.00  0.00     0.062 H 
ATOM     31  H   LIG d   1       4.854  -0.779  -1.444  0.00  0.00     0.062 H 
ATOM     32  H   LIG d   1       6.464  -2.461  -2.342  0.00  0.00     0.062 H 
ENDROOT
BRANCH   1  33
ATOM     33  C   LIG d   1       8.203   1.094  -5.505  0.00  0.00     0.058 A 
ATOM     34  C   LIG d   1       7.751   1.671  -4.326  0.00  0.00    -0.038 A 
ATOM     35  C   LIG d   1       8.264   2.884  -3.911  0.00  0.00    -0.057 A 
ATOM     36  H   LIG d   1       6.997   1.172  -3.735  0.00  0.00     0.064 H 
ATOM     37  C   LIG d   1       9.230   3.523  -4.667  0.00  0.00    -0.049 A 
ATOM     38  H   LIG d   1       7.912   3.333  -2.995  0.00  0.00     0.062 H 
ATOM     39  C   LIG d   1       9.679   2.954  -5.844  0.00  0.00    -0.043 A 
ATOM     40  C   LIG d   1       9.173   1.738  -6.262  0.00  0.00     0.040 A 
ATOM     41  H   LIG d   1      10.429   3.458  -6.436  0.00  0.00     0.063 H 
ATOM     42 BR   LIG d   1       9.795   0.955  -7.868  0.00  0.00    -0.048 Br
BRANCH  37  43
ATOM     43  C   LIG d   1       9.788   4.847  -4.211  0.00  0.00    -0.040 C 
ATOM     44  H   LIG d   1      10.029   4.793  -3.149  0.00  0.00     0.028 H 
ATOM     45  H   LIG d   1      10.691   5.075  -4.777  0.00  0.00     0.028 H 
ATOM     46  H   LIG d   1       9.047   5.629  -4.376  0.00  0.00     0.028 H 
ENDBRANCH  37  43
ENDBRANCH   1  33
BRANCH  10  47
ATOM     47  C   LIG d   1       3.919  -1.262  -7.532  0.00  0.00     0.136 C 
ATOM     48  O   LIG d   1       4.041  -1.298  -8.733  0.00  0.00    -0.300 OA
ATOM     49  H   LIG d   1       3.095  -0.724  -7.089  0.00  0.00     0.104 H 
ENDBRANCH  10  47
TORSDOF 3
ENDMDL
MODEL 4
REMARK VINA RESULT:      -6.6      2.798      5.272
REMARK  3 active torsions:
REMARK  status: ('A' for Active; 'I' for Inactive)
REMARK    1  A    between atoms: C_1  and  C_2 
REMARK    2  A    between atoms: C_5  and  N_9 
REMARK    3  A    between atoms: C_18  and  C_32 
ROOT
ATOM      1  N   LIG d   1       5.819  -1.623  -8.216  0.00  0.00    -0.209 N 
ATOM      2  C   LIG d   1       4.708  -2.015  -7.580  0.00  0.00     0.231 A 
ATOM      3  O   LIG d   1       3.998  -2.939  -7.912  0.00  0.00    -0.275 OA
ATOM      4  C   LIG d   1       4.482  -1.122  -6.380  0.00  0.00     0.060 A 
ATOM      5  H   LIG d   1       3.532  -0.594  -6.460  0.00  0.00     0.041 H 
ATOM      6  C   LIG d   1       5.663  -0.136  -6.433  0.00  0.00     0.069 A 
ATOM      7  H   LIG d   1       5.309   0.889  -6.542  0.00  0.00     0.042 H 
ATOM      8  C   LIG d   1       6.439  -0.577  -7.656  0.00  0.00     0.232 A 
ATOM      9  O   LIG d   1       7.460  -0.063  -8.063  0.00  0.00    -0.274 OA
ATOM     10  C   LIG d   1       6.563  -0.277  -5.187  0.00  0.00     0.088 C 
ATOM     11  C   LIG d   1       5.636  -0.086  -3.997  0.00  0.00    -0.025 A 
ATOM     12  C   LIG d   1       5.795   0.867  -3.030  0.00  0.00    -0.057 A 
ATOM     13  C   LIG d   1       4.872   0.930  -1.995  0.00  0.00    -0.061 A 
ATOM     14  C   LIG d   1       3.813   0.043  -1.946  0.00  0.00    -0.061 A 
ATOM     15  C   LIG d   1       3.657  -0.924  -2.932  0.00  0.00    -0.058 A 
ATOM     16  C   LIG d   1       4.569  -0.980  -3.947  0.00  0.00    -0.035 A 
ATOM     17  C   LIG d   1       4.522  -1.989  -5.104  0.00  0.00     0.022 C 
ATOM     18  C   LIG d   1       5.888  -2.659  -5.112  0.00  0.00    -0.035 A 
ATOM     19  C   LIG d   1       6.968  -1.742  -5.144  0.00  0.00    -0.025 A 
ATOM     20  C   LIG d   1       8.256  -2.194  -5.151  0.00  0.00    -0.057 A 
ATOM     21  C   LIG d   1       8.485  -3.563  -5.109  0.00  0.00    -0.061 A 
ATOM     22  C   LIG d   1       7.426  -4.450  -5.061  0.00  0.00    -0.061 A 
ATOM     23  C   LIG d   1       6.094  -4.008  -5.084  0.00  0.00    -0.058 A 
ATOM     24  H   LIG d   1       6.624   1.558  -3.071  0.00  0.00     0.062 H 
ATOM     25  H   LIG d   1       4.982   1.677  -1.222  0.00  0.00     0.062 H 
ATOM     26  H   LIG d   1       3.102   0.101  -1.135  0.00  0.00     0.062 H 
ATOM     27  H   LIG d   1       2.832  -1.618  -2.895  0.00  0.00     0.062 H 
ATOM     28  H   LIG d   1       3.689  -2.688  -5.035  0.00  0.00     0.041 H 
ATOM     29  H   LIG d   1       9.083  -1.500  -5.189  0.00  0.00     0.062 H 
ATOM     30  H   LIG d   1       9.499  -3.939  -5.114  0.00  0.00     0.062 H 
ATOM     31  H   LIG d   1       7.615  -5.512  -5.028  0.00  0.00     0.062 H 
ATOM     32  H   LIG d   1       5.259  -4.692  -5.053  0.00  0.00     0.062 H 
ENDROOT
BRANCH   1  33
ATOM     33  C   LIG d   1       6.296  -2.257  -9.372  0.00  0.00     0.058 A 
ATOM     34  C   LIG d   1       7.164  -3.336  -9.266  0.00  0.00    -0.038 A 
ATOM     35  C   LIG d   1       7.633  -3.959 -10.405  0.00  0.00    -0.057 A 
ATOM     36  H   LIG d   1       7.473  -3.686  -8.292  0.00  0.00     0.064 H 
ATOM     37  C   LIG d   1       7.237  -3.512 -11.653  0.00  0.00    -0.049 A 
ATOM     38  H   LIG d   1       8.308  -4.798 -10.322  0.00  0.00     0.062 H 
ATOM     39  C   LIG d   1       6.377  -2.435 -11.763  0.00  0.00    -0.043 A 
ATOM     40  C   LIG d   1       5.901  -1.810 -10.626  0.00  0.00     0.040 A 
ATOM     41  H   LIG d   1       6.073  -2.084 -12.739  0.00  0.00     0.063 H 
ATOM     42 BR   LIG d   1       4.717  -0.342 -10.778  0.00  0.00    -0.048 Br
BRANCH  37  43
ATOM     43  C   LIG d   1       7.749  -4.195 -12.894  0.00  0.00    -0.040 C 
ATOM     44  H   LIG d   1       7.404  -5.229 -12.909  0.00  0.00     0.028 H 
ATOM     45  H   LIG d   1       7.376  -3.675 -13.776  0.00  0.00     0.028 H 
ATOM     46  H   LIG d   1       8.839  -4.176 -12.895  0.00  0.00     0.028 H 
ENDBRANCH  37  43
ENDBRANCH   1  33
BRANCH  10  47
ATOM     47  C   LIG d   1       7.741   0.662  -5.201  0.00  0.00     0.136 C 
ATOM     48  O   LIG d   1       7.583   1.827  -5.480  0.00  0.00    -0.300 OA
ATOM     49  H   LIG d   1       8.727   0.294  -4.958  0.00  0.00     0.104 H 
ENDBRANCH  10  47
TORSDOF 3
ENDMDL
MODEL 5
REMARK VINA RESULT:      -6.4      2.795      6.071
REMARK  3 active torsions:
REMARK  status: ('A' for Active; 'I' for Inactive)
REMARK    1  A    between atoms: C_1  and  C_2 
REMARK    2  A    between atoms: C_5  and  N_9 
REMARK    3  A    between atoms: C_18  and  C_32 
ROOT
ATOM      1  N   LIG d   1       7.006  -0.555  -8.091  0.00  0.00    -0.209 N 
ATOM      2  C   LIG d   1       6.190   0.408  -7.644  0.00  0.00     0.231 A 
ATOM      3  O   LIG d   1       5.849   1.387  -8.272  0.00  0.00    -0.275 OA
ATOM      4  C   LIG d   1       5.761   0.078  -6.230  0.00  0.00     0.060 A 
ATOM      5  H   LIG d   1       6.080   0.854  -5.535  0.00  0.00     0.041 H 
ATOM      6  C   LIG d   1       6.478  -1.252  -5.935  0.00  0.00     0.069 A 
ATOM      7  H   LIG d   1       7.160  -1.147  -5.092  0.00  0.00     0.042 H 
ATOM      8  C   LIG d   1       7.234  -1.540  -7.215  0.00  0.00     0.232 A 
ATOM      9  O   LIG d   1       7.935  -2.510  -7.412  0.00  0.00    -0.274 OA
ATOM     10  C   LIG d   1       5.462  -2.387  -5.683  0.00  0.00     0.088 C 
ATOM     11  C   LIG d   1       4.571  -1.888  -4.557  0.00  0.00    -0.025 A 
ATOM     12  C   LIG d   1       4.389  -2.529  -3.364  0.00  0.00    -0.057 A 
ATOM     13  C   LIG d   1       3.543  -1.960  -2.420  0.00  0.00    -0.061 A 
ATOM     14  C   LIG d   1       2.899  -0.767  -2.687  0.00  0.00    -0.061 A 
ATOM     15  C   LIG d   1       3.088  -0.120  -3.902  0.00  0.00    -0.058 A 
ATOM     16  C   LIG d   1       3.921  -0.685  -4.825  0.00  0.00    -0.035 A 
ATOM     17  C   LIG d   1       4.227  -0.084  -6.204  0.00  0.00     0.022 C 
ATOM     18  C   LIG d   1       3.919  -1.188  -7.205  0.00  0.00    -0.035 A 
ATOM     19  C   LIG d   1       4.570  -2.413  -6.914  0.00  0.00    -0.025 A 
ATOM     20  C   LIG d   1       4.388  -3.499  -7.720  0.00  0.00    -0.057 A 
ATOM     21  C   LIG d   1       3.543  -3.385  -8.817  0.00  0.00    -0.061 A 
ATOM     22  C   LIG d   1       2.899  -2.191  -9.083  0.00  0.00    -0.061 A 
ATOM     23  C   LIG d   1       3.096  -1.054  -8.286  0.00  0.00    -0.058 A 
ATOM     24  H   LIG d   1       4.894  -3.462  -3.159  0.00  0.00     0.062 H 
ATOM     25  H   LIG d   1       3.389  -2.453  -1.472  0.00  0.00     0.062 H 
ATOM     26  H   LIG d   1       2.243  -0.334  -1.946  0.00  0.00     0.062 H 
ATOM     27  H   LIG d   1       2.585   0.811  -4.114  0.00  0.00     0.062 H 
ATOM     28  H   LIG d   1       3.695   0.847  -6.399  0.00  0.00     0.041 H 
ATOM     29  H   LIG d   1       4.892  -4.432  -7.511  0.00  0.00     0.062 H 
ATOM     30  H   LIG d   1       3.387  -4.235  -9.466  0.00  0.00     0.062 H 
ATOM     31  H   LIG d   1       2.244  -2.113  -9.938  0.00  0.00     0.062 H 
ATOM     32  H   LIG d   1       2.603  -0.114  -8.488  0.00  0.00     0.062 H 
ENDROOT
BRANCH   1  33
ATOM     33  C   LIG d   1       7.573  -0.534  -9.374  0.00  0.00     0.058 A 
ATOM     34  C   LIG d   1       6.906  -1.126 -10.438  0.00  0.00    -0.038 A 
ATOM     35  C   LIG d   1       7.465  -1.105 -11.700  0.00  0.00    -0.057 A 
ATOM     36  H   LIG d   1       5.950  -1.603 -10.279  0.00  0.00     0.064 H 
ATOM     37  C   LIG d   1       8.689  -0.493 -11.906  0.00  0.00    -0.049 A 
ATOM     38  H   LIG d   1       6.947  -1.565 -12.528  0.00  0.00     0.062 H 
ATOM     39  C   LIG d   1       9.358   0.093 -10.848  0.00  0.00    -0.043 A 
ATOM     40  C   LIG d   1       8.801   0.079  -9.583  0.00  0.00     0.040 A 
ATOM     41  H   LIG d   1      10.316   0.565 -11.010  0.00  0.00     0.063 H 
ATOM     42 BR   LIG d   1       9.714   0.888  -8.137  0.00  0.00    -0.048 Br
BRANCH  37  43
ATOM     43  C   LIG d   1       9.296  -0.471 -13.285  0.00  0.00    -0.040 C 
ATOM     44  H   LIG d   1       9.004   0.446 -13.796  0.00  0.00     0.028 H 
ATOM     45  H   LIG d   1      10.382  -0.511 -13.204  0.00  0.00     0.028 H 
ATOM     46  H   LIG d   1       8.942  -1.332 -13.851  0.00  0.00     0.028 H 
ENDBRANCH  37  43
ENDBRANCH   1  33
BRANCH  10  47
ATOM     47  C   LIG d   1       6.118  -3.713  -5.400  0.00  0.00     0.136 C 
ATOM     48  O   LIG d   1       7.045  -3.777  -4.627  0.00  0.00    -0.300 OA
ATOM     49  H   LIG d   1       5.759  -4.608  -5.886  0.00  0.00     0.104 H 
ENDBRANCH  10  47
TORSDOF 3
ENDMDL
MODEL 6
REMARK VINA RESULT:      -6.3      8.974     12.014
REMARK  3 active torsions:
REMARK  status: ('A' for Active; 'I' for Inactive)
REMARK    1  A    between atoms: C_1  and  C_2 
REMARK    2  A    between atoms: C_5  and  N_9 
REMARK    3  A    between atoms: C_18  and  C_32 
ROOT
ATOM      1  N   LIG d   1      10.956   8.017  -1.476  0.00  0.00    -0.209 N 
ATOM      2  C   LIG d   1       9.947   7.142  -1.385  0.00  0.00     0.231 A 
ATOM      3  O   LIG d   1       8.802   7.417  -1.099  0.00  0.00    -0.275 OA
ATOM      4  C   LIG d   1      10.464   5.753  -1.695  0.00  0.00     0.060 A 
ATOM      5  H   LIG d   1      10.330   5.088  -0.844  0.00  0.00     0.041 H 
ATOM      6  C   LIG d   1      11.959   5.980  -1.984  0.00  0.00     0.069 A 
ATOM      7  H   LIG d   1      12.579   5.430  -1.277  0.00  0.00     0.042 H 
ATOM      8  C   LIG d   1      12.132   7.475  -1.812  0.00  0.00     0.232 A 
ATOM      9  O   LIG d   1      13.172   8.082  -1.954  0.00  0.00    -0.274 OA
ATOM     10  C   LIG d   1      12.310   5.596  -3.437  0.00  0.00     0.088 C 
ATOM     11  C   LIG d   1      11.849   4.156  -3.597  0.00  0.00    -0.025 A 
ATOM     12  C   LIG d   1      12.655   3.115  -3.962  0.00  0.00    -0.057 A 
ATOM     13  C   LIG d   1      12.102   1.846  -4.070  0.00  0.00    -0.061 A 
ATOM     14  C   LIG d   1      10.759   1.644  -3.813  0.00  0.00    -0.061 A 
ATOM     15  C   LIG d   1       9.944   2.707  -3.442  0.00  0.00    -0.058 A 
ATOM     16  C   LIG d   1      10.495   3.952  -3.338  0.00  0.00    -0.035 A 
ATOM     17  C   LIG d   1       9.721   5.215  -2.936  0.00  0.00     0.022 C 
ATOM     18  C   LIG d   1       9.992   6.225  -4.041  0.00  0.00    -0.035 A 
ATOM     19  C   LIG d   1      11.370   6.413  -4.310  0.00  0.00    -0.025 A 
ATOM     20  C   LIG d   1      11.771   7.287  -5.280  0.00  0.00    -0.057 A 
ATOM     21  C   LIG d   1      10.804   7.971  -6.005  0.00  0.00    -0.061 A 
ATOM     22  C   LIG d   1       9.461   7.769  -5.746  0.00  0.00    -0.061 A 
ATOM     23  C   LIG d   1       9.028   6.900  -4.734  0.00  0.00    -0.058 A 
ATOM     24  H   LIG d   1      13.704   3.277  -4.162  0.00  0.00     0.062 H 
ATOM     25  H   LIG d   1      12.725   1.012  -4.358  0.00  0.00     0.062 H 
ATOM     26  H   LIG d   1      10.339   0.653  -3.902  0.00  0.00     0.062 H 
ATOM     27  H   LIG d   1       8.895   2.552  -3.243  0.00  0.00     0.062 H 
ATOM     28  H   LIG d   1       8.661   5.035  -2.755  0.00  0.00     0.041 H 
ATOM     29  H   LIG d   1      12.821   7.444  -5.480  0.00  0.00     0.062 H 
ATOM     30  H   LIG d   1      11.102   8.667  -6.776  0.00  0.00     0.062 H 
ATOM     31  H   LIG d   1       8.717   8.306  -6.317  0.00  0.00     0.062 H 
ATOM     32  H   LIG d   1       7.982   6.738  -4.520  0.00  0.00     0.062 H 
ENDROOT
BRANCH   1  33
ATOM     33  C   LIG d   1      10.792   9.391  -1.244  0.00  0.00     0.058 A 
ATOM     34  C   LIG d   1      10.399  10.229  -2.279  0.00  0.00    -0.038 A 
ATOM     35  C   LIG d   1      10.239  11.580  -2.049  0.00  0.00    -0.057 A 
ATOM     36  H   LIG d   1      10.220   9.824  -3.264  0.00  0.00     0.064 H 
ATOM     37  C   LIG d   1      10.468  12.100  -0.787  0.00  0.00    -0.049 A 
ATOM     38  H   LIG d   1       9.934  12.233  -2.853  0.00  0.00     0.062 H 
ATOM     39  C   LIG d   1      10.864  11.270   0.244  0.00  0.00    -0.043 A 
ATOM     40  C   LIG d   1      11.022   9.915   0.021  0.00  0.00     0.040 A 
ATOM     41  H   LIG d   1      11.047  11.679   1.227  0.00  0.00     0.063 H 
ATOM     42 BR   LIG d   1      11.556   8.778   1.435  0.00  0.00    -0.048 Br
BRANCH  37  43
ATOM     43  C   LIG d   1      10.291  13.576  -0.539  0.00  0.00    -0.040 C 
ATOM     44  H   LIG d   1       9.703  14.013  -1.346  0.00  0.00     0.028 H 
ATOM     45  H   LIG d   1       9.774  13.726   0.409  0.00  0.00     0.028 H 
ATOM     46  H   LIG d   1      11.268  14.058  -0.500  0.00  0.00     0.028 H 
ENDBRANCH  37  43
ENDBRANCH   1  33
BRANCH  10  47
ATOM     47  C   LIG d   1      13.764   5.812  -3.770  0.00  0.00     0.136 C 
ATOM     48  O   LIG d   1      14.621   5.429  -3.010  0.00  0.00    -0.300 OA
ATOM     49  H   LIG d   1      14.039   6.307  -4.689  0.00  0.00     0.104 H 
ENDBRANCH  10  47
TORSDOF 3
ENDMDL
MODEL 7
REMARK VINA RESULT:      -6.2      2.423      4.702
REMARK  3 active torsions:
REMARK  status: ('A' for Active; 'I' for Inactive)
REMARK    1  A    between atoms: C_1  and  C_2 
REMARK    2  A    between atoms: C_5  and  N_9 
REMARK    3  A    between atoms: C_18  and  C_32 
ROOT
ATOM      1  N   LIG d   1       8.658  -2.737  -5.722  0.00  0.00    -0.209 N 
ATOM      2  C   LIG d   1       8.941  -1.616  -5.047  0.00  0.00     0.231 A 
ATOM      3  O   LIG d   1       9.935  -0.939  -5.194  0.00  0.00    -0.275 OA
ATOM      4  C   LIG d   1       7.821  -1.329  -4.070  0.00  0.00     0.060 A 
ATOM      5  H   LIG d   1       8.189  -1.329  -3.044  0.00  0.00     0.041 H 
ATOM      6  C   LIG d   1       6.834  -2.488  -4.299  0.00  0.00     0.069 A 
ATOM      7  H   LIG d   1       6.705  -3.075  -3.390  0.00  0.00     0.042 H 
ATOM      8  C   LIG d   1       7.496  -3.309  -5.387  0.00  0.00     0.232 A 
ATOM      9  O   LIG d   1       7.044  -4.323  -5.874  0.00  0.00    -0.274 OA
ATOM     10  C   LIG d   1       5.476  -1.969  -4.816  0.00  0.00     0.088 C 
ATOM     11  C   LIG d   1       5.018  -0.946  -3.788  0.00  0.00    -0.025 A 
ATOM     12  C   LIG d   1       3.840  -1.007  -3.099  0.00  0.00    -0.057 A 
ATOM     13  C   LIG d   1       3.545  -0.002  -2.187  0.00  0.00    -0.061 A 
ATOM     14  C   LIG d   1       4.431   1.040  -1.983  0.00  0.00    -0.061 A 
ATOM     15  C   LIG d   1       5.627   1.096  -2.687  0.00  0.00    -0.058 A 
ATOM     16  C   LIG d   1       5.910   0.104  -3.583  0.00  0.00    -0.035 A 
ATOM     17  C   LIG d   1       7.190   0.033  -4.427  0.00  0.00     0.022 C 
ATOM     18  C   LIG d   1       6.719  -0.103  -5.867  0.00  0.00    -0.035 A 
ATOM     19  C   LIG d   1       5.799  -1.162  -6.063  0.00  0.00    -0.025 A 
ATOM     20  C   LIG d   1       5.283  -1.406  -7.304  0.00  0.00    -0.057 A 
ATOM     21  C   LIG d   1       5.665  -0.589  -8.360  0.00  0.00    -0.061 A 
ATOM     22  C   LIG d   1       6.551   0.452  -8.155  0.00  0.00    -0.061 A 
ATOM     23  C   LIG d   1       7.116   0.702  -6.896  0.00  0.00    -0.058 A 
ATOM     24  H   LIG d   1       3.150  -1.822  -3.261  0.00  0.00     0.062 H 
ATOM     25  H   LIG d   1       2.618  -0.035  -1.633  0.00  0.00     0.062 H 
ATOM     26  H   LIG d   1       4.191   1.817  -1.272  0.00  0.00     0.062 H 
ATOM     27  H   LIG d   1       6.319   1.909  -2.531  0.00  0.00     0.062 H 
ATOM     28  H   LIG d   1       7.865   0.873  -4.262  0.00  0.00     0.041 H 
ATOM     29  H   LIG d   1       4.591  -2.220  -7.462  0.00  0.00     0.062 H 
ATOM     30  H   LIG d   1       5.266  -0.767  -9.349  0.00  0.00     0.062 H 
ATOM     31  H   LIG d   1       6.840   1.082  -8.983  0.00  0.00     0.062 H 
ATOM     32  H   LIG d   1       7.814   1.509  -6.726  0.00  0.00     0.062 H 
ENDROOT
BRANCH   1  33
ATOM     33  C   LIG d   1       9.508  -3.265  -6.705  0.00  0.00     0.058 A 
ATOM     34  C   LIG d   1       9.366  -2.876  -8.030  0.00  0.00    -0.038 A 
ATOM     35  C   LIG d   1      10.203  -3.398  -8.996  0.00  0.00    -0.057 A 
ATOM     36  H   LIG d   1       8.600  -2.167  -8.306  0.00  0.00     0.064 H 
ATOM     37  C   LIG d   1      11.186  -4.306  -8.644  0.00  0.00    -0.049 A 
ATOM     38  H   LIG d   1      10.093  -3.096 -10.026  0.00  0.00     0.062 H 
ATOM     39  C   LIG d   1      11.327  -4.700  -7.326  0.00  0.00    -0.043 A 
ATOM     40  C   LIG d   1      10.495  -4.178  -6.355  0.00  0.00     0.040 A 
ATOM     41  H   LIG d   1      12.091  -5.414  -7.055  0.00  0.00     0.063 H 
ATOM     42 BR   LIG d   1      10.694  -4.710  -4.551  0.00  0.00    -0.048 Br
BRANCH  37  43
ATOM     43  C   LIG d   1      12.099  -4.873  -9.700  0.00  0.00    -0.040 C 
ATOM     44  H   LIG d   1      13.094  -5.019  -9.280  0.00  0.00     0.028 H 
ATOM     45  H   LIG d   1      11.706  -5.830 -10.044  0.00  0.00     0.028 H 
ATOM     46  H   LIG d   1      12.156  -4.181 -10.540  0.00  0.00     0.028 H 
ENDBRANCH  37  43
ENDBRANCH   1  33
BRANCH  10  47
ATOM     47  C   LIG d   1       4.479  -3.071  -5.066  0.00  0.00     0.136 C 
ATOM     48  O   LIG d   1       4.293  -3.920  -4.227  0.00  0.00    -0.300 OA
ATOM     49  H   LIG d   1       3.930  -3.100  -5.995  0.00  0.00     0.104 H 
ENDBRANCH  10  47
TORSDOF 3
ENDMDL
MODEL 8
REMARK VINA RESULT:      -5.8      8.444     11.127
REMARK  3 active torsions:
REMARK  status: ('A' for Active; 'I' for Inactive)
REMARK    1  A    between atoms: C_1  and  C_2 
REMARK    2  A    between atoms: C_5  and  N_9 
REMARK    3  A    between atoms: C_18  and  C_32 
ROOT
ATOM      1  N   LIG d   1      10.690   7.612  -2.259  0.00  0.00    -0.209 N 
ATOM      2  C   LIG d   1      10.597   8.193  -3.462  0.00  0.00     0.231 A 
ATOM      3  O   LIG d   1      10.962   9.317  -3.729  0.00  0.00    -0.275 OA
ATOM      4  C   LIG d   1       9.962   7.222  -4.434  0.00  0.00     0.060 A 
ATOM      5  H   LIG d   1       9.030   7.621  -4.832  0.00  0.00     0.041 H 
ATOM      6  C   LIG d   1       9.702   5.969  -3.578  0.00  0.00     0.069 A 
ATOM      7  H   LIG d   1       8.638   5.737  -3.542  0.00  0.00     0.042 H 
ATOM      8  C   LIG d   1      10.221   6.359  -2.210  0.00  0.00     0.232 A 
ATOM      9  O   LIG d   1      10.212   5.649  -1.227  0.00  0.00    -0.274 OA
ATOM     10  C   LIG d   1      10.510   4.762  -4.098  0.00  0.00     0.088 C 
ATOM     11  C   LIG d   1      10.122   4.616  -5.561  0.00  0.00    -0.025 A 
ATOM     12  C   LIG d   1       9.583   3.491  -6.117  0.00  0.00    -0.057 A 
ATOM     13  C   LIG d   1       9.275   3.494  -7.471  0.00  0.00    -0.061 A 
ATOM     14  C   LIG d   1       9.511   4.619  -8.239  0.00  0.00    -0.061 A 
ATOM     15  C   LIG d   1      10.060   5.760  -7.668  0.00  0.00    -0.058 A 
ATOM     16  C   LIG d   1      10.360   5.749  -6.336  0.00  0.00    -0.035 A 
ATOM     17  C   LIG d   1      10.965   6.935  -5.571  0.00  0.00     0.022 C 
ATOM     18  C   LIG d   1      12.208   6.384  -4.887  0.00  0.00    -0.035 A 
ATOM     19  C   LIG d   1      11.960   5.221  -4.115  0.00  0.00    -0.025 A 
ATOM     20  C   LIG d   1      12.979   4.609  -3.444  0.00  0.00    -0.057 A 
ATOM     21  C   LIG d   1      14.260   5.136  -3.547  0.00  0.00    -0.061 A 
ATOM     22  C   LIG d   1      14.495   6.261  -4.315  0.00  0.00    -0.061 A 
ATOM     23  C   LIG d   1      13.458   6.924  -4.987  0.00  0.00    -0.058 A 
ATOM     24  H   LIG d   1       9.400   2.613  -5.513  0.00  0.00     0.062 H 
ATOM     25  H   LIG d   1       8.848   2.613  -7.926  0.00  0.00     0.062 H 
ATOM     26  H   LIG d   1       9.268   4.610  -9.292  0.00  0.00     0.062 H 
ATOM     27  H   LIG d   1      10.246   6.639  -8.266  0.00  0.00     0.062 H 
ATOM     28  H   LIG d   1      11.159   7.803  -6.200  0.00  0.00     0.041 H 
ATOM     29  H   LIG d   1      12.793   3.730  -2.844  0.00  0.00     0.062 H 
ATOM     30  H   LIG d   1      15.078   4.664  -3.022  0.00  0.00     0.062 H 
ATOM     31  H   LIG d   1      15.495   6.662  -4.388  0.00  0.00     0.062 H 
ATOM     32  H   LIG d   1      13.629   7.807  -5.586  0.00  0.00     0.062 H 
ENDROOT
BRANCH   1  33
ATOM     33  C   LIG d   1      11.238   8.261  -1.143  0.00  0.00     0.058 A 
ATOM     34  C   LIG d   1      12.578   8.086  -0.825  0.00  0.00    -0.038 A 
ATOM     35  C   LIG d   1      13.115   8.726   0.274  0.00  0.00    -0.057 A 
ATOM     36  H   LIG d   1      13.200   7.449  -1.437  0.00  0.00     0.064 H 
ATOM     37  C   LIG d   1      12.320   9.543   1.058  0.00  0.00    -0.049 A 
ATOM     38  H   LIG d   1      14.158   8.590   0.521  0.00  0.00     0.062 H 
ATOM     39  C   LIG d   1      10.984   9.715   0.748  0.00  0.00    -0.043 A 
ATOM     40  C   LIG d   1      10.442   9.081  -0.354  0.00  0.00     0.040 A 
ATOM     41  H   LIG d   1      10.364  10.349   1.365  0.00  0.00     0.063 H 
ATOM     42 BR   LIG d   1       8.616   9.324  -0.782  0.00  0.00    -0.048 Br
BRANCH  37  43
ATOM     43  C   LIG d   1      12.910  10.240   2.256  0.00  0.00    -0.040 C 
ATOM     44  H   LIG d   1      12.769   9.622   3.143  0.00  0.00     0.028 H 
ATOM     45  H   LIG d   1      13.975  10.403   2.094  0.00  0.00     0.028 H 
ATOM     46  H   LIG d   1      12.413  11.200   2.400  0.00  0.00     0.028 H 
ENDBRANCH  37  43
ENDBRANCH   1  33
BRANCH  10  47
ATOM     47  C   LIG d   1      10.296   3.513  -3.283  0.00  0.00     0.136 C 
ATOM     48  O   LIG d   1       9.175   3.136  -3.037  0.00  0.00    -0.300 OA
ATOM     49  H   LIG d   1      11.145   2.953  -2.920  0.00  0.00     0.104 H 
ENDBRANCH  10  47
TORSDOF 3
ENDMDL
MODEL 9
REMARK VINA RESULT:      -5.8      8.178     11.597
REMARK  3 active torsions:
REMARK  status: ('A' for Active; 'I' for Inactive)
REMARK    1  A    between atoms: C_1  and  C_2 
REMARK    2  A    between atoms: C_5  and  N_9 
REMARK    3  A    between atoms: C_18  and  C_32 
ROOT
ATOM      1  N   LIG d   1      10.820   7.463  -4.292  0.00  0.00    -0.209 N 
ATOM      2  C   LIG d   1      12.120   7.265  -4.546  0.00  0.00     0.231 A 
ATOM      3  O   LIG d   1      12.964   8.132  -4.604  0.00  0.00    -0.275 OA
ATOM      4  C   LIG d   1      12.366   5.785  -4.749  0.00  0.00     0.060 A 
ATOM      5  H   LIG d   1      12.753   5.588  -5.748  0.00  0.00     0.041 H 
ATOM      6  C   LIG d   1      10.972   5.158  -4.568  0.00  0.00     0.069 A 
ATOM      7  H   LIG d   1      10.655   4.645  -5.476  0.00  0.00     0.042 H 
ATOM      8  C   LIG d   1      10.082   6.347  -4.275  0.00  0.00     0.232 A 
ATOM      9  O   LIG d   1       8.889   6.295  -4.061  0.00  0.00    -0.274 OA
ATOM     10  C   LIG d   1      10.947   4.199  -3.358  0.00  0.00     0.088 C 
ATOM     11  C   LIG d   1      12.061   3.197  -3.614  0.00  0.00    -0.025 A 
ATOM     12  C   LIG d   1      11.889   1.843  -3.687  0.00  0.00    -0.057 A 
ATOM     13  C   LIG d   1      12.997   1.040  -3.927  0.00  0.00    -0.061 A 
ATOM     14  C   LIG d   1      14.249   1.605  -4.088  0.00  0.00    -0.061 A 
ATOM     15  C   LIG d   1      14.416   2.982  -4.012  0.00  0.00    -0.058 A 
ATOM     16  C   LIG d   1      13.322   3.765  -3.776  0.00  0.00    -0.035 A 
ATOM     17  C   LIG d   1      13.354   5.296  -3.670  0.00  0.00     0.022 C 
ATOM     18  C   LIG d   1      12.697   5.625  -2.338  0.00  0.00    -0.035 A 
ATOM     19  C   LIG d   1      11.422   5.028  -2.175  0.00  0.00    -0.025 A 
ATOM     20  C   LIG d   1      10.709   5.227  -1.028  0.00  0.00    -0.057 A 
ATOM     21  C   LIG d   1      11.264   6.010  -0.023  0.00  0.00    -0.061 A 
ATOM     22  C   LIG d   1      12.515   6.574  -0.185  0.00  0.00    -0.061 A 
ATOM     23  C   LIG d   1      13.251   6.408  -1.367  0.00  0.00    -0.058 A 
ATOM     24  H   LIG d   1      10.910   1.405  -3.561  0.00  0.00     0.062 H 
ATOM     25  H   LIG d   1      12.880  -0.031  -3.988  0.00  0.00     0.062 H 
ATOM     26  H   LIG d   1      15.103   0.970  -4.273  0.00  0.00     0.062 H 
ATOM     27  H   LIG d   1      15.392   3.425  -4.136  0.00  0.00     0.062 H 
ATOM     28  H   LIG d   1      14.354   5.717  -3.783  0.00  0.00     0.041 H 
ATOM     29  H   LIG d   1       9.731   4.786  -0.903  0.00  0.00     0.062 H 
ATOM     30  H   LIG d   1      10.714   6.179   0.892  0.00  0.00     0.062 H 
ATOM     31  H   LIG d   1      12.937   7.180   0.603  0.00  0.00     0.062 H 
ATOM     32  H   LIG d   1      14.227   6.849  -1.507  0.00  0.00     0.062 H 
ENDROOT
BRANCH   1  33
ATOM     33  C   LIG d   1      10.278   8.735  -4.057  0.00  0.00     0.058 A 
ATOM     34  C   LIG d   1      10.295   9.273  -2.777  0.00  0.00    -0.038 A 
ATOM     35  C   LIG d   1       9.760  10.526  -2.549  0.00  0.00    -0.057 A 
ATOM     36  H   LIG d   1      10.724   8.712  -1.961  0.00  0.00     0.064 H 
ATOM     37  C   LIG d   1       9.210  11.246  -3.594  0.00  0.00    -0.049 A 
ATOM     38  H   LIG d   1       9.773  10.944  -1.554  0.00  0.00     0.062 H 
ATOM     39  C   LIG d   1       9.187  10.711  -4.869  0.00  0.00    -0.043 A 
ATOM     40  C   LIG d   1       9.724   9.460  -5.105  0.00  0.00     0.040 A 
ATOM     41  H   LIG d   1       8.751  11.273  -5.682  0.00  0.00     0.063 H 
ATOM     42 BR   LIG d   1       9.700   8.733  -6.851  0.00  0.00    -0.048 Br
BRANCH  37  43
ATOM     43  C   LIG d   1       8.628  12.613  -3.341  0.00  0.00    -0.040 C 
ATOM     44  H   LIG d   1       7.585  12.513  -3.039  0.00  0.00     0.028 H 
ATOM     45  H   LIG d   1       9.190  13.106  -2.549  0.00  0.00     0.028 H 
ATOM     46  H   LIG d   1       8.687  13.207  -4.253  0.00  0.00     0.028 H 
ENDBRANCH  37  43
ENDBRANCH   1  33
BRANCH  10  47
ATOM     47  C   LIG d   1       9.597   3.568  -3.133  0.00  0.00     0.136 C 
ATOM     48  O   LIG d   1       8.997   3.077  -4.060  0.00  0.00    -0.300 OA
ATOM     49  H   LIG d   1       9.166   3.553  -2.144  0.00  0.00     0.104 H 
ENDBRANCH  10  47
TORSDOF 3
ENDMDL
MODEL 10
REMARK VINA RESULT:      -5.8      5.941      8.054
REMARK  3 active torsions:
REMARK  status: ('A' for Active; 'I' for Inactive)
REMARK    1  A    between atoms: C_1  and  C_2 
REMARK    2  A    between atoms: C_5  and  N_9 
REMARK    3  A    between atoms: C_18  and  C_32 
ROOT
ATOM      1  N   LIG d   1       1.565  -3.607 -12.104  0.00  0.00    -0.209 N 
ATOM      2  C   LIG d   1       0.976  -3.132 -11.000  0.00  0.00     0.231 A 
ATOM      3  O   LIG d   1       0.247  -3.763 -10.265  0.00  0.00    -0.275 OA
ATOM      4  C   LIG d   1       1.366  -1.681 -10.814  0.00  0.00     0.060 A 
ATOM      5  H   LIG d   1       0.488  -1.036 -10.839  0.00  0.00     0.041 H 
ATOM      6  C   LIG d   1       2.289  -1.398 -12.013  0.00  0.00     0.069 A 
ATOM      7  H   LIG d   1       1.877  -0.610 -12.644  0.00  0.00     0.042 H 
ATOM      8  C   LIG d   1       2.331  -2.720 -12.750  0.00  0.00     0.232 A 
ATOM      9  O   LIG d   1       2.957  -2.938 -13.765  0.00  0.00    -0.274 OA
ATOM     10  C   LIG d   1       3.715  -1.037 -11.545  0.00  0.00     0.088 C 
ATOM     11  C   LIG d   1       3.541   0.135 -10.592  0.00  0.00    -0.025 A 
ATOM     12  C   LIG d   1       4.133   1.358 -10.744  0.00  0.00    -0.057 A 
ATOM     13  C   LIG d   1       3.888   2.342  -9.796  0.00  0.00    -0.061 A 
ATOM     14  C   LIG d   1       3.061   2.086  -8.718  0.00  0.00    -0.061 A 
ATOM     15  C   LIG d   1       2.463   0.841  -8.569  0.00  0.00    -0.058 A 
ATOM     16  C   LIG d   1       2.708  -0.122  -9.506  0.00  0.00    -0.035 A 
ATOM     17  C   LIG d   1       2.115  -1.538  -9.473  0.00  0.00     0.022 C 
ATOM     18  C   LIG d   1       3.307  -2.479  -9.572  0.00  0.00    -0.035 A 
ATOM     19  C   LIG d   1       4.159  -2.198 -10.669  0.00  0.00    -0.025 A 
ATOM     20  C   LIG d   1       5.274  -2.955 -10.887  0.00  0.00    -0.057 A 
ATOM     21  C   LIG d   1       5.564  -3.989 -10.007  0.00  0.00    -0.061 A 
ATOM     22  C   LIG d   1       4.736  -4.245  -8.930  0.00  0.00    -0.061 A 
ATOM     23  C   LIG d   1       3.568  -3.500  -8.705  0.00  0.00    -0.058 A 
ATOM     24  H   LIG d   1       4.779   1.554 -11.587  0.00  0.00     0.062 H 
ATOM     25  H   LIG d   1       4.347   3.314  -9.901  0.00  0.00     0.062 H 
ATOM     26  H   LIG d   1       2.878   2.860  -7.986  0.00  0.00     0.062 H 
ATOM     27  H   LIG d   1       1.817   0.638  -7.728  0.00  0.00     0.062 H 
ATOM     28  H   LIG d   1       1.480  -1.722  -8.606  0.00  0.00     0.041 H 
ATOM     29  H   LIG d   1       5.920  -2.754 -11.729  0.00  0.00     0.062 H 
ATOM     30  H   LIG d   1       6.442  -4.599 -10.164  0.00  0.00     0.062 H 
ATOM     31  H   LIG d   1       4.970  -5.051  -8.251  0.00  0.00     0.062 H 
ATOM     32  H   LIG d   1       2.911  -3.694  -7.870  0.00  0.00     0.062 H 
ENDROOT
BRANCH   1  33
ATOM     33  C   LIG d   1       1.398  -4.928 -12.545  0.00  0.00     0.058 A 
ATOM     34  C   LIG d   1       2.267  -5.921 -12.112  0.00  0.00    -0.038 A 
ATOM     35  C   LIG d   1       2.101  -7.221 -12.547  0.00  0.00    -0.057 A 
ATOM     36  H   LIG d   1       3.073  -5.677 -11.436  0.00  0.00     0.064 H 
ATOM     37  C   LIG d   1       1.068  -7.535 -13.412  0.00  0.00    -0.049 A 
ATOM     38  H   LIG d   1       2.777  -7.993 -12.211  0.00  0.00     0.062 H 
ATOM     39  C   LIG d   1       0.204  -6.549 -13.849  0.00  0.00    -0.043 A 
ATOM     40  C   LIG d   1       0.362  -5.247 -13.414  0.00  0.00     0.040 A 
ATOM     41  H   LIG d   1      -0.598  -6.796 -14.529  0.00  0.00     0.063 H 
ATOM     42 BR   LIG d   1      -0.825  -3.899 -14.005  0.00  0.00    -0.048 Br
BRANCH  37  43
ATOM     43  C   LIG d   1       0.889  -8.955 -13.885  0.00  0.00    -0.040 C 
ATOM     44  H   LIG d   1       1.809  -9.514 -13.713  0.00  0.00     0.028 H 
ATOM     45  H   LIG d   1       0.073  -9.421 -13.334  0.00  0.00     0.028 H 
ATOM     46  H   LIG d   1       0.656  -8.957 -14.950  0.00  0.00     0.028 H 
ENDBRANCH  37  43
ENDBRANCH   1  33
BRANCH  10  47
ATOM     47  C   LIG d   1       4.659  -0.761 -12.686  0.00  0.00     0.136 C 
ATOM     48  O   LIG d   1       4.279  -0.137 -13.648  0.00  0.00    -0.300 OA
ATOM     49  H   LIG d   1       5.676  -1.120 -12.643  0.00  0.00     0.104 H 
ENDBRANCH  10  47
TORSDOF 3
ENDMDL
