MODEL 1
REMARK VINA RESULT:      -6.5      0.000      0.000
REMARK  3 active torsions:
REMARK  status: ('A' for Active; 'I' for Inactive)
REMARK    1  A    between atoms: C_1  and  C_2 
REMARK    2  A    between atoms: C_18  and  C_26 
REMARK    3  A    between atoms: C_23  and  O_25 
ROOT
ATOM      1  C   LIG d   1       4.627  -0.580  -4.606  0.00  0.00    -0.001 C 
ATOM      2  C   LIG d   1       5.913  -0.535  -3.819  0.00  0.00    -0.036 C 
ATOM      3  C   LIG d   1       6.111   0.797  -3.097  0.00  0.00     0.011 C 
ATOM      4  C   LIG d   1       4.880   1.043  -2.245  0.00  0.00     0.156 C 
ATOM      5  O   LIG d   1       4.958   1.292  -1.059  0.00  0.00    -0.293 OA
ATOM      6  C   LIG d   1       3.587   0.961  -2.940  0.00  0.00    -0.019 C 
ATOM      7  C   LIG d   1       3.492   0.220  -4.040  0.00  0.00    -0.060 C 
ATOM      8  C   LIG d   1       2.165   0.176  -4.779  0.00  0.00    -0.030 C 
ATOM      9  C   LIG d   1       2.430   0.521  -6.251  0.00  0.00    -0.046 C 
ATOM     10  C   LIG d   1       3.497  -0.415  -6.810  0.00  0.00    -0.027 C 
ATOM     11  H   LIG d   1       3.181  -1.449  -6.673  0.00  0.00     0.031 H 
ATOM     12  C   LIG d   1       4.826  -0.184  -6.066  0.00  0.00     0.030 C 
ATOM     13  H   LIG d   1       5.081   0.782  -6.119  0.00  0.00     0.039 H 
ATOM     14  C   LIG d   1       5.922  -1.004  -6.697  0.00  0.00     0.138 C 
ATOM     15  O   LIG d   1       6.665  -1.661  -6.008  0.00  0.00    -0.297 OA
ATOM     16  C   LIG d   1       6.082  -0.996  -8.211  0.00  0.00     0.014 C 
ATOM     17  C   LIG d   1       4.704  -1.270  -8.793  0.00  0.00     0.004 C 
ATOM     18  C   LIG d   1       3.750  -0.157  -8.281  0.00  0.00    -0.029 C 
ATOM     19  H   LIG d   1       4.187   0.832  -8.423  0.00  0.00     0.031 H 
ATOM     20  C   LIG d   1       2.534  -0.340  -9.199  0.00  0.00    -0.047 C 
ATOM     21  C   LIG d   1       3.178  -0.604 -10.586  0.00  0.00    -0.026 C 
ATOM     22  C   LIG d   1       4.597  -1.157 -10.312  0.00  0.00     0.061 C 
ATOM     23  H   LIG d   1       5.350  -0.469 -10.693  0.00  0.00     0.060 H 
ATOM     24  H   LIG d   1       6.748  -0.695  -4.501  0.00  0.00     0.028 H 
ATOM     25  H   LIG d   1       5.901  -1.337  -3.082  0.00  0.00     0.028 H 
ATOM     26  H   LIG d   1       6.224   1.528  -3.770  0.00  0.00     0.035 H 
ATOM     27  H   LIG d   1       6.996   0.745  -2.462  0.00  0.00     0.035 H 
ATOM     28  H   LIG d   1       2.728   1.496  -2.563  0.00  0.00     0.065 H 
ATOM     29  H   LIG d   1       1.479   0.904  -4.348  0.00  0.00     0.031 H 
ATOM     30  H   LIG d   1       1.734  -0.822  -4.706  0.00  0.00     0.031 H 
ATOM     31  H   LIG d   1       2.775   1.552  -6.325  0.00  0.00     0.027 H 
ATOM     32  H   LIG d   1       1.509   0.405  -6.823  0.00  0.00     0.027 H 
ATOM     33  H   LIG d   1       6.428  -0.105  -8.504  0.00  0.00     0.035 H 
ATOM     34  H   LIG d   1       6.780  -1.776  -8.517  0.00  0.00     0.035 H 
ATOM     35  H   LIG d   1       1.929   0.567  -9.222  0.00  0.00     0.027 H 
ATOM     36  H   LIG d   1       1.938  -1.195  -8.881  0.00  0.00     0.027 H 
ATOM     37  H   LIG d   1       3.241   0.325 -11.152  0.00  0.00     0.029 H 
ATOM     38  H   LIG d   1       2.590  -1.339 -11.136  0.00  0.00     0.029 H 
ENDROOT
BRANCH   1  39
ATOM     39  C   LIG d   1       4.171  -2.040  -4.623  0.00  0.00    -0.055 C 
ATOM     40  H   LIG d   1       3.155  -2.098  -5.016  0.00  0.00     0.024 H 
ATOM     41  H   LIG d   1       4.840  -2.622  -5.256  0.00  0.00     0.024 H 
ATOM     42  H   LIG d   1       4.191  -2.439  -3.609  0.00  0.00     0.024 H 
ENDBRANCH   1  39
BRANCH  17  43
ATOM     43  C   LIG d   1       4.199  -2.639  -8.335  0.00  0.00    -0.057 C 
ATOM     44  H   LIG d   1       3.108  -2.642  -8.334  0.00  0.00     0.024 H 
ATOM     45  H   LIG d   1       4.563  -3.408  -9.017  0.00  0.00     0.024 H 
ATOM     46  H   LIG d   1       4.564  -2.843  -7.328  0.00  0.00     0.024 H 
ENDBRANCH  17  43
BRANCH  22  47
ATOM     47  O   LIG d   1       4.752  -2.444 -10.914  0.00  0.00    -0.391 OA
ATOM     48  H   LIG d   1       5.453  -2.484 -11.579  0.00  0.00     0.210 HD
ENDBRANCH  22  47
TORSDOF 3
ENDMDL
MODEL 2
REMARK VINA RESULT:      -6.0      1.471      5.961
REMARK  3 active torsions:
REMARK  status: ('A' for Active; 'I' for Inactive)
REMARK    1  A    between atoms: C_1  and  C_2 
REMARK    2  A    between atoms: C_18  and  C_26 
REMARK    3  A    between atoms: C_23  and  O_25 
ROOT
ATOM      1  C   LIG d   1       4.750  -2.551  -6.752  0.00  0.00    -0.001 C 
ATOM      2  C   LIG d   1       5.061  -4.026  -6.713  0.00  0.00    -0.036 C 
ATOM      3  C   LIG d   1       3.968  -4.872  -7.366  0.00  0.00     0.011 C 
ATOM      4  C   LIG d   1       3.759  -4.342  -8.773  0.00  0.00     0.156 C 
ATOM      5  O   LIG d   1       3.801  -5.068  -9.746  0.00  0.00    -0.293 OA
ATOM      6  C   LIG d   1       3.504  -2.899  -8.887  0.00  0.00    -0.019 C 
ATOM      7  C   LIG d   1       3.955  -2.087  -7.935  0.00  0.00    -0.060 C 
ATOM      8  C   LIG d   1       3.648  -0.602  -8.036  0.00  0.00    -0.030 C 
ATOM      9  C   LIG d   1       3.015  -0.156  -6.711  0.00  0.00    -0.046 C 
ATOM     10  C   LIG d   1       3.935  -0.536  -5.554  0.00  0.00    -0.027 C 
ATOM     11  H   LIG d   1       4.920  -0.099  -5.715  0.00  0.00     0.031 H 
ATOM     12  C   LIG d   1       4.062  -2.069  -5.478  0.00  0.00     0.030 C 
ATOM     13  H   LIG d   1       3.153  -2.482  -5.413  0.00  0.00     0.039 H 
ATOM     14  C   LIG d   1       4.857  -2.464  -4.260  0.00  0.00     0.138 C 
ATOM     15  O   LIG d   1       5.748  -3.273  -4.350  0.00  0.00    -0.297 OA
ATOM     16  C   LIG d   1       4.525  -1.830  -2.916  0.00  0.00     0.014 C 
ATOM     17  C   LIG d   1       4.469  -0.328  -3.148  0.00  0.00     0.004 C 
ATOM     18  C   LIG d   1       3.384  -0.060  -4.225  0.00  0.00    -0.029 C 
ATOM     19  H   LIG d   1       2.457  -0.584  -3.990  0.00  0.00     0.031 H 
ATOM     20  C   LIG d   1       3.187   1.457  -4.101  0.00  0.00    -0.047 C 
ATOM     21  C   LIG d   1       3.212   1.689  -2.568  0.00  0.00    -0.026 C 
ATOM     22  C   LIG d   1       4.000   0.505  -1.958  0.00  0.00     0.061 C 
ATOM     23  H   LIG d   1       3.351  -0.089  -1.315  0.00  0.00     0.060 H 
ATOM     24  H   LIG d   1       5.172  -4.335  -5.673  0.00  0.00     0.028 H 
ATOM     25  H   LIG d   1       6.001  -4.201  -7.235  0.00  0.00     0.028 H 
ATOM     26  H   LIG d   1       3.125  -4.798  -6.834  0.00  0.00     0.035 H 
ATOM     27  H   LIG d   1       4.283  -5.915  -7.407  0.00  0.00     0.035 H 
ATOM     28  H   LIG d   1       2.958  -2.505  -9.732  0.00  0.00     0.065 H 
ATOM     29  H   LIG d   1       2.952  -0.425  -8.855  0.00  0.00     0.031 H 
ATOM     30  H   LIG d   1       4.570  -0.046  -8.210  0.00  0.00     0.031 H 
ATOM     31  H   LIG d   1       2.051  -0.649  -6.586  0.00  0.00     0.027 H 
ATOM     32  H   LIG d   1       2.872   0.924  -6.723  0.00  0.00     0.027 H 
ATOM     33  H   LIG d   1       3.646  -2.179  -2.592  0.00  0.00     0.035 H 
ATOM     34  H   LIG d   1       5.301  -2.068  -2.189  0.00  0.00     0.035 H 
ATOM     35  H   LIG d   1       2.225   1.756  -4.520  0.00  0.00     0.027 H 
ATOM     36  H   LIG d   1       4.002   1.992  -4.586  0.00  0.00     0.027 H 
ATOM     37  H   LIG d   1       2.195   1.705  -2.175  0.00  0.00     0.029 H 
ATOM     38  H   LIG d   1       3.715   2.630  -2.341  0.00  0.00     0.029 H 
ENDROOT
BRANCH   1  39
ATOM     39  C   LIG d   1       6.092  -1.819  -6.810  0.00  0.00    -0.055 C 
ATOM     40  H   LIG d   1       6.117  -1.177  -7.690  0.00  0.00     0.024 H 
ATOM     41  H   LIG d   1       6.214  -1.212  -5.913  0.00  0.00     0.024 H 
ATOM     42  H   LIG d   1       6.901  -2.547  -6.869  0.00  0.00     0.024 H 
ENDBRANCH   1  39
BRANCH  17  43
ATOM     43  C   LIG d   1       5.826   0.183  -3.638  0.00  0.00    -0.057 C 
ATOM     44  H   LIG d   1       6.520  -0.654  -3.723  0.00  0.00     0.024 H 
ATOM     45  H   LIG d   1       5.706   0.656  -4.613  0.00  0.00     0.024 H 
ATOM     46  H   LIG d   1       6.219   0.910  -2.927  0.00  0.00     0.024 H 
ENDBRANCH  17  43
BRANCH  22  47
ATOM     47  O   LIG d   1       5.124   0.986  -1.218  0.00  0.00    -0.391 OA
ATOM     48  H   LIG d   1       5.862   1.277  -1.770  0.00  0.00     0.210 HD
ENDBRANCH  22  47
TORSDOF 3
ENDMDL
MODEL 3
REMARK VINA RESULT:      -6.0      3.514      6.236
REMARK  3 active torsions:
REMARK  status: ('A' for Active; 'I' for Inactive)
REMARK    1  A    between atoms: C_1  and  C_2 
REMARK    2  A    between atoms: C_18  and  C_26 
REMARK    3  A    between atoms: C_23  and  O_25 
ROOT
ATOM      1  C   LIG d   1       8.733  -0.129  -5.231  0.00  0.00    -0.001 C 
ATOM      2  C   LIG d   1       9.590   1.111  -5.192  0.00  0.00    -0.036 C 
ATOM      3  C   LIG d   1      10.958   0.856  -4.562  0.00  0.00     0.011 C 
ATOM      4  C   LIG d   1      11.602  -0.293  -5.315  0.00  0.00     0.156 C 
ATOM      5  O   LIG d   1      12.717  -0.207  -5.790  0.00  0.00    -0.293 OA
ATOM      6  C   LIG d   1      10.797  -1.517  -5.436  0.00  0.00    -0.019 C 
ATOM      7  C   LIG d   1       9.471  -1.425  -5.378  0.00  0.00    -0.060 C 
ATOM      8  C   LIG d   1       8.646  -2.698  -5.457  0.00  0.00    -0.030 C 
ATOM      9  C   LIG d   1       7.688  -2.719  -4.259  0.00  0.00    -0.046 C 
ATOM     10  C   LIG d   1       6.867  -1.433  -4.241  0.00  0.00    -0.027 C 
ATOM     11  H   LIG d   1       6.346  -1.321  -5.191  0.00  0.00     0.031 H 
ATOM     12  C   LIG d   1       7.802  -0.228  -4.025  0.00  0.00     0.030 C 
ATOM     13  H   LIG d   1       8.343  -0.362  -3.196  0.00  0.00     0.039 H 
ATOM     14  C   LIG d   1       6.993   1.035  -3.871  0.00  0.00     0.138 C 
ATOM     15  O   LIG d   1       7.293   2.030  -4.484  0.00  0.00    -0.297 OA
ATOM     16  C   LIG d   1       5.794   1.041  -2.932  0.00  0.00     0.014 C 
ATOM     17  C   LIG d   1       4.958  -0.179  -3.290  0.00  0.00     0.004 C 
ATOM     18  C   LIG d   1       5.858  -1.431  -3.111  0.00  0.00    -0.029 C 
ATOM     19  H   LIG d   1       6.368  -1.415  -2.147  0.00  0.00     0.031 H 
ATOM     20  C   LIG d   1       4.826  -2.566  -3.150  0.00  0.00    -0.047 C 
ATOM     21  C   LIG d   1       3.649  -2.000  -2.312  0.00  0.00    -0.026 C 
ATOM     22  C   LIG d   1       3.774  -0.458  -2.368  0.00  0.00     0.061 C 
ATOM     23  H   LIG d   1       3.968  -0.059  -1.373  0.00  0.00     0.060 H 
ATOM     24  H   LIG d   1       9.073   1.879  -4.617  0.00  0.00     0.028 H 
ATOM     25  H   LIG d   1       9.733   1.471  -6.211  0.00  0.00     0.028 H 
ATOM     26  H   LIG d   1      10.843   0.623  -3.596  0.00  0.00     0.035 H 
ATOM     27  H   LIG d   1      11.578   1.749  -4.650  0.00  0.00     0.035 H 
ATOM     28  H   LIG d   1      11.275  -2.476  -5.569  0.00  0.00     0.065 H 
ATOM     29  H   LIG d   1       9.304  -3.566  -5.418  0.00  0.00     0.031 H 
ATOM     30  H   LIG d   1       8.076  -2.711  -6.386  0.00  0.00     0.031 H 
ATOM     31  H   LIG d   1       8.262  -2.797  -3.336  0.00  0.00     0.027 H 
ATOM     32  H   LIG d   1       7.019  -3.576  -4.343  0.00  0.00     0.027 H 
ATOM     33  H   LIG d   1       6.112   0.996  -1.985  0.00  0.00     0.035 H 
ATOM     34  H   LIG d   1       5.211   1.950  -3.078  0.00  0.00     0.035 H 
ATOM     35  H   LIG d   1       5.228  -3.469  -2.688  0.00  0.00     0.027 H 
ATOM     36  H   LIG d   1       4.510  -2.764  -4.174  0.00  0.00     0.027 H 
ATOM     37  H   LIG d   1       3.724  -2.344  -1.281  0.00  0.00     0.029 H 
ATOM     38  H   LIG d   1       2.698  -2.314  -2.743  0.00  0.00     0.029 H 
ENDROOT
BRANCH   1  39
ATOM     39  C   LIG d   1       7.825   0.001  -6.456  0.00  0.00    -0.055 C 
ATOM     40  H   LIG d   1       6.821  -0.340  -6.200  0.00  0.00     0.024 H 
ATOM     41  H   LIG d   1       7.785   1.044  -6.770  0.00  0.00     0.024 H 
ATOM     42  H   LIG d   1       8.219  -0.609  -7.267  0.00  0.00     0.024 H 
ENDBRANCH   1  39
BRANCH  17  43
ATOM     43  C   LIG d   1       4.479  -0.085  -4.740  0.00  0.00    -0.057 C 
ATOM     44  H   LIG d   1       3.451   0.276  -4.760  0.00  0.00     0.024 H 
ATOM     45  H   LIG d   1       5.118   0.606  -5.290  0.00  0.00     0.024 H 
ATOM     46  H   LIG d   1       4.528  -1.071  -5.203  0.00  0.00     0.024 H 
ENDBRANCH  17  43
BRANCH  22  47
ATOM     47  O   LIG d   1       2.581   0.116  -2.908  0.00  0.00    -0.391 OA
ATOM     48  H   LIG d   1       2.411   1.019  -2.610  0.00  0.00     0.210 HD
ENDBRANCH  22  47
TORSDOF 3
ENDMDL
MODEL 4
REMARK VINA RESULT:      -6.0      1.689      5.910
REMARK  3 active torsions:
REMARK  status: ('A' for Active; 'I' for Inactive)
REMARK    1  A    between atoms: C_1  and  C_2 
REMARK    2  A    between atoms: C_18  and  C_26 
REMARK    3  A    between atoms: C_23  and  O_25 
ROOT
ATOM      1  C   LIG d   1       4.942  -0.268  -9.046  0.00  0.00    -0.001 C 
ATOM      2  C   LIG d   1       5.545  -1.281  -9.986  0.00  0.00    -0.036 C 
ATOM      3  C   LIG d   1       4.622  -1.612 -11.159  0.00  0.00     0.011 C 
ATOM      4  C   LIG d   1       4.260  -0.305 -11.840  0.00  0.00     0.156 C 
ATOM      5  O   LIG d   1       4.412  -0.138 -13.033  0.00  0.00    -0.293 OA
ATOM      6  C   LIG d   1       3.716   0.746 -10.969  0.00  0.00    -0.019 C 
ATOM      7  C   LIG d   1       4.027   0.739  -9.675  0.00  0.00    -0.060 C 
ATOM      8  C   LIG d   1       3.424   1.802  -8.773  0.00  0.00    -0.030 C 
ATOM      9  C   LIG d   1       2.763   1.094  -7.582  0.00  0.00    -0.046 C 
ATOM     10  C   LIG d   1       3.781   0.186  -6.899  0.00  0.00    -0.027 C 
ATOM     11  H   LIG d   1       4.652   0.772  -6.606  0.00  0.00     0.031 H 
ATOM     12  C   LIG d   1       4.217  -0.924  -7.874  0.00  0.00     0.030 C 
ATOM     13  H   LIG d   1       3.414  -1.415  -8.211  0.00  0.00     0.039 H 
ATOM     14  C   LIG d   1       5.119  -1.906  -7.171  0.00  0.00     0.138 C 
ATOM     15  O   LIG d   1       6.151  -2.263  -7.686  0.00  0.00    -0.297 OA
ATOM     16  C   LIG d   1       4.715  -2.443  -5.805  0.00  0.00     0.014 C 
ATOM     17  C   LIG d   1       4.349  -1.235  -4.956  0.00  0.00     0.004 C 
ATOM     18  C   LIG d   1       3.194  -0.489  -5.676  0.00  0.00    -0.029 C 
ATOM     19  H   LIG d   1       2.401  -1.179  -5.968  0.00  0.00     0.031 H 
ATOM     20  C   LIG d   1       2.699   0.459  -4.576  0.00  0.00    -0.047 C 
ATOM     21  C   LIG d   1       2.733  -0.430  -3.305  0.00  0.00    -0.026 C 
ATOM     22  C   LIG d   1       3.765  -1.550  -3.581  0.00  0.00     0.061 C 
ATOM     23  H   LIG d   1       3.273  -2.522  -3.594  0.00  0.00     0.060 H 
ATOM     24  H   LIG d   1       5.754  -2.196  -9.432  0.00  0.00     0.028 H 
ATOM     25  H   LIG d   1       6.481  -0.884 -10.377  0.00  0.00     0.028 H 
ATOM     26  H   LIG d   1       3.801  -2.071 -10.819  0.00  0.00     0.035 H 
ATOM     27  H   LIG d   1       5.139  -2.265 -11.863  0.00  0.00     0.035 H 
ATOM     28  H   LIG d   1       3.071   1.513 -11.373  0.00  0.00     0.065 H 
ATOM     29  H   LIG d   1       2.677   2.373  -9.323  0.00  0.00     0.031 H 
ATOM     30  H   LIG d   1       4.207   2.470  -8.415  0.00  0.00     0.031 H 
ATOM     31  H   LIG d   1       1.923   0.496  -7.936  0.00  0.00     0.027 H 
ATOM     32  H   LIG d   1       2.404   1.838  -6.871  0.00  0.00     0.027 H 
ATOM     33  H   LIG d   1       3.936  -3.062  -5.907  0.00  0.00     0.035 H 
ATOM     34  H   LIG d   1       5.549  -2.980  -5.353  0.00  0.00     0.035 H 
ATOM     35  H   LIG d   1       1.683   0.795  -4.785  0.00  0.00     0.027 H 
ATOM     36  H   LIG d   1       3.373   1.310  -4.470  0.00  0.00     0.027 H 
ATOM     37  H   LIG d   1       1.749  -0.863  -3.126  0.00  0.00     0.029 H 
ATOM     38  H   LIG d   1       3.044   0.161  -2.444  0.00  0.00     0.029 H 
ENDROOT
BRANCH   1  39
ATOM     39  C   LIG d   1       6.106   0.516  -8.437  0.00  0.00    -0.055 C 
ATOM     40  H   LIG d   1       6.730  -0.159  -7.850  0.00  0.00     0.024 H 
ATOM     41  H   LIG d   1       6.701   0.961  -9.234  0.00  0.00     0.024 H 
ATOM     42  H   LIG d   1       5.717   1.303  -7.792  0.00  0.00     0.024 H 
ENDBRANCH   1  39
BRANCH  17  43
ATOM     43  C   LIG d   1       5.557  -0.307  -4.809  0.00  0.00    -0.057 C 
ATOM     44  H   LIG d   1       6.403  -0.722  -5.357  0.00  0.00     0.024 H 
ATOM     45  H   LIG d   1       5.311   0.676  -5.211  0.00  0.00     0.024 H 
ATOM     46  H   LIG d   1       5.817  -0.213  -3.754  0.00  0.00     0.024 H 
ENDBRANCH  17  43
BRANCH  22  47
ATOM     47  O   LIG d   1       4.795  -1.529  -2.590  0.00  0.00    -0.391 OA
ATOM     48  H   LIG d   1       5.668  -1.300  -2.936  0.00  0.00     0.210 HD
ENDBRANCH  22  47
TORSDOF 3
ENDMDL
MODEL 5
REMARK VINA RESULT:      -6.0      7.321     10.214
REMARK  3 active torsions:
REMARK  status: ('A' for Active; 'I' for Inactive)
REMARK    1  A    between atoms: C_1  and  C_2 
REMARK    2  A    between atoms: C_18  and  C_26 
REMARK    3  A    between atoms: C_23  and  O_25 
ROOT
ATOM      1  C   LIG d   1      10.197   5.593  -7.438  0.00  0.00    -0.001 C 
ATOM      2  C   LIG d   1      10.019   4.406  -8.351  0.00  0.00    -0.036 C 
ATOM      3  C   LIG d   1       8.733   4.488  -9.172  0.00  0.00     0.011 C 
ATOM      4  C   LIG d   1       8.744   5.813  -9.910  0.00  0.00     0.156 C 
ATOM      5  O   LIG d   1       8.579   5.883 -11.111  0.00  0.00    -0.293 OA
ATOM      6  C   LIG d   1       8.967   7.009  -9.084  0.00  0.00    -0.019 C 
ATOM      7  C   LIG d   1       9.626   6.886  -7.935  0.00  0.00    -0.060 C 
ATOM      8  C   LIG d   1       9.813   8.117  -7.065  0.00  0.00    -0.030 C 
ATOM      9  C   LIG d   1       9.318   7.780  -5.652  0.00  0.00    -0.046 C 
ATOM     10  C   LIG d   1      10.036   6.531  -5.146  0.00  0.00    -0.027 C 
ATOM     11  H   LIG d   1      11.113   6.690  -5.185  0.00  0.00     0.031 H 
ATOM     12  C   LIG d   1       9.663   5.329  -6.033  0.00  0.00     0.030 C 
ATOM     13  H   LIG d   1       8.669   5.226  -6.067  0.00  0.00     0.039 H 
ATOM     14  C   LIG d   1      10.257   4.064  -5.466  0.00  0.00     0.138 C 
ATOM     15  O   LIG d   1      10.844   3.291  -6.183  0.00  0.00    -0.297 OA
ATOM     16  C   LIG d   1      10.106   3.772  -3.979  0.00  0.00     0.014 C 
ATOM     17  C   LIG d   1      10.540   5.031  -3.245  0.00  0.00     0.004 C 
ATOM     18  C   LIG d   1       9.628   6.191  -3.727  0.00  0.00    -0.029 C 
ATOM     19  H   LIG d   1       8.576   5.906  -3.692  0.00  0.00     0.031 H 
ATOM     20  C   LIG d   1       9.922   7.276  -2.681  0.00  0.00    -0.047 C 
ATOM     21  C   LIG d   1       9.977   6.476  -1.353  0.00  0.00    -0.026 C 
ATOM     22  C   LIG d   1      10.328   5.017  -1.733  0.00  0.00     0.061 C 
ATOM     23  H   LIG d   1       9.505   4.352  -1.474  0.00  0.00     0.060 H 
ATOM     24  H   LIG d   1       9.997   3.498  -7.749  0.00  0.00     0.028 H 
ATOM     25  H   LIG d   1      10.869   4.356  -9.032  0.00  0.00     0.028 H 
ATOM     26  H   LIG d   1       7.943   4.431  -8.562  0.00  0.00     0.035 H 
ATOM     27  H   LIG d   1       8.698   3.666  -9.889  0.00  0.00     0.035 H 
ATOM     28  H   LIG d   1       8.599   7.973  -9.406  0.00  0.00     0.065 H 
ATOM     29  H   LIG d   1       9.234   8.946  -7.470  0.00  0.00     0.031 H 
ATOM     30  H   LIG d   1      10.868   8.389  -7.031  0.00  0.00     0.031 H 
ATOM     31  H   LIG d   1       8.244   7.597  -5.678  0.00  0.00     0.027 H 
ATOM     32  H   LIG d   1       9.528   8.615  -4.984  0.00  0.00     0.027 H 
ATOM     33  H   LIG d   1       9.153   3.546  -3.779  0.00  0.00     0.035 H 
ATOM     34  H   LIG d   1      10.745   2.934  -3.697  0.00  0.00     0.035 H 
ATOM     35  H   LIG d   1       9.119   8.013  -2.654  0.00  0.00     0.027 H 
ATOM     36  H   LIG d   1      10.880   7.755  -2.883  0.00  0.00     0.027 H 
ATOM     37  H   LIG d   1       9.008   6.511  -0.855  0.00  0.00     0.029 H 
ATOM     38  H   LIG d   1      10.748   6.888  -0.701  0.00  0.00     0.029 H 
ENDROOT
BRANCH   1  39
ATOM     39  C   LIG d   1      11.704   5.808  -7.284  0.00  0.00    -0.055 C 
ATOM     40  H   LIG d   1      11.909   6.251  -6.309  0.00  0.00     0.024 H 
ATOM     41  H   LIG d   1      12.218   4.850  -7.363  0.00  0.00     0.024 H 
ATOM     42  H   LIG d   1      12.058   6.477  -8.067  0.00  0.00     0.024 H 
ENDBRANCH   1  39
BRANCH  17  43
ATOM     43  C   LIG d   1      12.002   5.352  -3.563  0.00  0.00    -0.057 C 
ATOM     44  H   LIG d   1      12.636   5.004  -2.747  0.00  0.00     0.024 H 
ATOM     45  H   LIG d   1      12.292   4.850  -4.487  0.00  0.00     0.024 H 
ATOM     46  H   LIG d   1      12.121   6.429  -3.682  0.00  0.00     0.024 H 
ENDBRANCH  17  43
BRANCH  22  47
ATOM     47  O   LIG d   1      11.525   4.607  -1.070  0.00  0.00    -0.391 OA
ATOM     48  H   LIG d   1      12.266   5.219  -1.182  0.00  0.00     0.210 HD
ENDBRANCH  22  47
TORSDOF 3
ENDMDL
MODEL 6
REMARK VINA RESULT:      -5.9      3.461      5.954
REMARK  3 active torsions:
REMARK  status: ('A' for Active; 'I' for Inactive)
REMARK    1  A    between atoms: C_1  and  C_2 
REMARK    2  A    between atoms: C_18  and  C_26 
REMARK    3  A    between atoms: C_23  and  O_25 
ROOT
ATOM      1  C   LIG d   1       8.749   1.243  -4.620  0.00  0.00    -0.001 C 
ATOM      2  C   LIG d   1       9.009   2.527  -3.872  0.00  0.00    -0.036 C 
ATOM      3  C   LIG d   1      10.318   2.490  -3.086  0.00  0.00     0.011 C 
ATOM      4  C   LIG d   1      11.426   2.130  -4.058  0.00  0.00     0.156 C 
ATOM      5  O   LIG d   1      12.430   2.804  -4.168  0.00  0.00    -0.293 OA
ATOM      6  C   LIG d   1      11.212   0.916  -4.859  0.00  0.00    -0.019 C 
ATOM      7  C   LIG d   1       9.967   0.511  -5.095  0.00  0.00    -0.060 C 
ATOM      8  C   LIG d   1       9.754  -0.770  -5.885  0.00  0.00    -0.030 C 
ATOM      9  C   LIG d   1       8.821  -1.678  -5.073  0.00  0.00    -0.046 C 
ATOM     10  C   LIG d   1       7.539  -0.921  -4.736  0.00  0.00    -0.027 C 
ATOM     11  H   LIG d   1       7.077  -0.561  -5.655  0.00  0.00     0.031 H 
ATOM     12  C   LIG d   1       7.873   0.277  -3.827  0.00  0.00     0.030 C 
ATOM     13  H   LIG d   1       8.371  -0.038  -3.019  0.00  0.00     0.039 H 
ATOM     14  C   LIG d   1       6.604   0.954  -3.376  0.00  0.00     0.138 C 
ATOM     15  O   LIG d   1       6.499   2.155  -3.438  0.00  0.00    -0.297 OA
ATOM     16  C   LIG d   1       5.457   0.108  -2.842  0.00  0.00     0.014 C 
ATOM     17  C   LIG d   1       5.229  -1.001  -3.857  0.00  0.00     0.004 C 
ATOM     18  C   LIG d   1       6.555  -1.797  -3.987  0.00  0.00    -0.029 C 
ATOM     19  H   LIG d   1       6.953  -2.063  -3.008  0.00  0.00     0.031 H 
ATOM     20  C   LIG d   1       6.094  -3.055  -4.736  0.00  0.00    -0.047 C 
ATOM     21  C   LIG d   1       4.740  -3.390  -4.057  0.00  0.00    -0.026 C 
ATOM     22  C   LIG d   1       4.215  -2.068  -3.449  0.00  0.00     0.061 C 
ATOM     23  H   LIG d   1       4.165  -2.145  -2.364  0.00  0.00     0.060 H 
ATOM     24  H   LIG d   1       8.186   2.704  -3.180  0.00  0.00     0.028 H 
ATOM     25  H   LIG d   1       9.050   3.348  -4.588  0.00  0.00     0.028 H 
ATOM     26  H   LIG d   1      10.253   1.807  -2.359  0.00  0.00     0.035 H 
ATOM     27  H   LIG d   1      10.514   3.470  -2.648  0.00  0.00     0.035 H 
ATOM     28  H   LIG d   1      12.053   0.362  -5.249  0.00  0.00     0.065 H 
ATOM     29  H   LIG d   1      10.709  -1.270  -6.042  0.00  0.00     0.031 H 
ATOM     30  H   LIG d   1       9.298  -0.538  -6.847  0.00  0.00     0.031 H 
ATOM     31  H   LIG d   1       9.319  -1.979  -4.152  0.00  0.00     0.027 H 
ATOM     32  H   LIG d   1       8.576  -2.564  -5.659  0.00  0.00     0.027 H 
ATOM     33  H   LIG d   1       5.707  -0.265  -1.948  0.00  0.00     0.035 H 
ATOM     34  H   LIG d   1       4.559   0.717  -2.743  0.00  0.00     0.035 H 
ATOM     35  H   LIG d   1       6.806  -3.869  -4.598  0.00  0.00     0.027 H 
ATOM     36  H   LIG d   1       5.952  -2.841  -5.795  0.00  0.00     0.027 H 
ATOM     37  H   LIG d   1       4.889  -4.130  -3.271  0.00  0.00     0.029 H 
ATOM     38  H   LIG d   1       4.034  -3.768  -4.797  0.00  0.00     0.029 H 
ENDROOT
BRANCH   1  39
ATOM     39  C   LIG d   1       7.945   1.615  -5.868  0.00  0.00    -0.055 C 
ATOM     40  H   LIG d   1       7.581   2.638  -5.773  0.00  0.00     0.024 H 
ATOM     41  H   LIG d   1       8.583   1.536  -6.748  0.00  0.00     0.024 H 
ATOM     42  H   LIG d   1       7.099   0.936  -5.971  0.00  0.00     0.024 H 
ENDBRANCH   1  39
BRANCH  17  43
ATOM     43  C   LIG d   1       4.843  -0.407  -5.213  0.00  0.00    -0.057 C 
ATOM     44  H   LIG d   1       3.871  -0.797  -5.517  0.00  0.00     0.024 H 
ATOM     45  H   LIG d   1       4.788   0.679  -5.131  0.00  0.00     0.024 H 
ATOM     46  H   LIG d   1       5.593  -0.678  -5.956  0.00  0.00     0.024 H 
ENDBRANCH  17  43
BRANCH  22  47
ATOM     47  O   LIG d   1       2.927  -1.754  -3.983  0.00  0.00    -0.391 OA
ATOM     48  H   LIG d   1       2.333  -1.326  -3.352  0.00  0.00     0.210 HD
ENDBRANCH  22  47
TORSDOF 3
ENDMDL
MODEL 7
REMARK VINA RESULT:      -5.9      3.289      6.298
REMARK  3 active torsions:
REMARK  status: ('A' for Active; 'I' for Inactive)
REMARK    1  A    between atoms: C_1  and  C_2 
REMARK    2  A    between atoms: C_18  and  C_26 
REMARK    3  A    between atoms: C_23  and  O_25 
ROOT
ATOM      1  C   LIG d   1       7.166  -3.966  -5.549  0.00  0.00    -0.001 C 
ATOM      2  C   LIG d   1       8.655  -4.196  -5.600  0.00  0.00    -0.036 C 
ATOM      3  C   LIG d   1       9.063  -5.526  -4.967  0.00  0.00     0.011 C 
ATOM      4  C   LIG d   1       8.265  -6.621  -5.649  0.00  0.00     0.156 C 
ATOM      5  O   LIG d   1       8.799  -7.596  -6.139  0.00  0.00    -0.293 OA
ATOM      6  C   LIG d   1       6.808  -6.432  -5.682  0.00  0.00    -0.019 C 
ATOM      7  C   LIG d   1       6.316  -5.198  -5.617  0.00  0.00    -0.060 C 
ATOM      8  C   LIG d   1       4.808  -5.013  -5.605  0.00  0.00    -0.030 C 
ATOM      9  C   LIG d   1       4.446  -4.136  -4.399  0.00  0.00    -0.046 C 
ATOM     10  C   LIG d   1       5.244  -2.836  -4.457  0.00  0.00    -0.027 C 
ATOM     11  H   LIG d   1       5.057  -2.337  -5.408  0.00  0.00     0.031 H 
ATOM     12  C   LIG d   1       6.746  -3.147  -4.330  0.00  0.00     0.030 C 
ATOM     13  H   LIG d   1       6.915  -3.677  -3.499  0.00  0.00     0.039 H 
ATOM     14  C   LIG d   1       7.537  -1.866  -4.251  0.00  0.00     0.138 C 
ATOM     15  O   LIG d   1       8.522  -1.714  -4.931  0.00  0.00    -0.297 OA
ATOM     16  C   LIG d   1       7.078  -0.766  -3.304  0.00  0.00     0.014 C 
ATOM     17  C   LIG d   1       5.597  -0.553  -3.573  0.00  0.00     0.004 C 
ATOM     18  C   LIG d   1       4.876  -1.905  -3.320  0.00  0.00    -0.029 C 
ATOM     19  H   LIG d   1       5.174  -2.338  -2.364  0.00  0.00     0.031 H 
ATOM     20  C   LIG d   1       3.405  -1.472  -3.275  0.00  0.00    -0.047 C 
ATOM     21  C   LIG d   1       3.453  -0.150  -2.465  0.00  0.00    -0.026 C 
ATOM     22  C   LIG d   1       4.887   0.409  -2.623  0.00  0.00     0.061 C 
ATOM     23  H   LIG d   1       5.393   0.429  -1.659  0.00  0.00     0.060 H 
ATOM     24  H   LIG d   1       9.155  -3.385  -5.071  0.00  0.00     0.028 H 
ATOM     25  H   LIG d   1       8.976  -4.188  -6.641  0.00  0.00     0.028 H 
ATOM     26  H   LIG d   1       8.865  -5.504  -3.987  0.00  0.00     0.035 H 
ATOM     27  H   LIG d   1      10.130  -5.696  -5.119  0.00  0.00     0.035 H 
ATOM     28  H   LIG d   1       6.147  -7.284  -5.756  0.00  0.00     0.065 H 
ATOM     29  H   LIG d   1       4.318  -5.982  -5.515  0.00  0.00     0.031 H 
ATOM     30  H   LIG d   1       4.488  -4.524  -6.525  0.00  0.00     0.031 H 
ATOM     31  H   LIG d   1       4.686  -4.668  -3.478  0.00  0.00     0.027 H 
ATOM     32  H   LIG d   1       3.380  -3.909  -4.421  0.00  0.00     0.027 H 
ATOM     33  H   LIG d   1       7.237  -1.052  -2.359  0.00  0.00     0.035 H 
ATOM     34  H   LIG d   1       7.631   0.153  -3.503  0.00  0.00     0.035 H 
ATOM     35  H   LIG d   1       2.799  -2.218  -2.759  0.00  0.00     0.027 H 
ATOM     36  H   LIG d   1       3.025  -1.295  -4.281  0.00  0.00     0.027 H 
ATOM     37  H   LIG d   1       3.241  -0.346  -1.414  0.00  0.00     0.029 H 
ATOM     38  H   LIG d   1       2.728   0.560  -2.866  0.00  0.00     0.029 H 
ENDROOT
BRANCH   1  39
ATOM     39  C   LIG d   1       6.809  -3.117  -6.770  0.00  0.00    -0.055 C 
ATOM     40  H   LIG d   1       7.632  -3.146  -7.485  0.00  0.00     0.024 H 
ATOM     41  H   LIG d   1       5.907  -3.514  -7.238  0.00  0.00     0.024 H 
ATOM     42  H   LIG d   1       6.634  -2.088  -6.460  0.00  0.00     0.024 H 
ENDBRANCH   1  39
BRANCH  17  43
ATOM     43  C   LIG d   1       5.380  -0.110  -5.021  0.00  0.00    -0.057 C 
ATOM     44  H   LIG d   1       6.006   0.757  -5.234  0.00  0.00     0.024 H 
ATOM     45  H   LIG d   1       5.647  -0.925  -5.694  0.00  0.00     0.024 H 
ATOM     46  H   LIG d   1       4.332   0.153  -5.168  0.00  0.00     0.024 H 
ENDBRANCH  17  43
BRANCH  22  47
ATOM     47  O   LIG d   1       4.848   1.722  -3.188  0.00  0.00    -0.391 OA
ATOM     48  H   LIG d   1       4.844   1.732  -4.155  0.00  0.00     0.210 HD
ENDBRANCH  22  47
TORSDOF 3
ENDMDL
MODEL 8
REMARK VINA RESULT:      -5.6      8.746     10.145
REMARK  3 active torsions:
REMARK  status: ('A' for Active; 'I' for Inactive)
REMARK    1  A    between atoms: C_1  and  C_2 
REMARK    2  A    between atoms: C_18  and  C_26 
REMARK    3  A    between atoms: C_23  and  O_25 
ROOT
ATOM      1  C   LIG d   1      10.897   7.170  -3.269  0.00  0.00    -0.001 C 
ATOM      2  C   LIG d   1      10.688   8.182  -2.171  0.00  0.00    -0.036 C 
ATOM      3  C   LIG d   1       9.752   7.672  -1.076  0.00  0.00     0.011 C 
ATOM      4  C   LIG d   1      10.309   6.353  -0.575  0.00  0.00     0.156 C 
ATOM      5  O   LIG d   1      10.515   6.147   0.604  0.00  0.00    -0.293 OA
ATOM      6  C   LIG d   1      10.587   5.339  -1.602  0.00  0.00    -0.019 C 
ATOM      7  C   LIG d   1      10.839   5.733  -2.847  0.00  0.00    -0.060 C 
ATOM      8  C   LIG d   1      11.080   4.678  -3.913  0.00  0.00    -0.030 C 
ATOM      9  C   LIG d   1      10.136   4.967  -5.089  0.00  0.00    -0.046 C 
ATOM     10  C   LIG d   1      10.337   6.403  -5.562  0.00  0.00    -0.027 C 
ATOM     11  H   LIG d   1      11.385   6.558  -5.820  0.00  0.00     0.031 H 
ATOM     12  C   LIG d   1       9.938   7.377  -4.438  0.00  0.00     0.030 C 
ATOM     13  H   LIG d   1       9.002   7.187  -4.140  0.00  0.00     0.039 H 
ATOM     14  C   LIG d   1      10.003   8.799  -4.936  0.00  0.00     0.138 C 
ATOM     15  O   LIG d   1      10.552   9.650  -4.280  0.00  0.00    -0.297 OA
ATOM     16  C   LIG d   1       9.369   9.148  -6.275  0.00  0.00     0.014 C 
ATOM     17  C   LIG d   1       9.883   8.126  -7.278  0.00  0.00     0.004 C 
ATOM     18  C   LIG d   1       9.472   6.720  -6.765  0.00  0.00    -0.029 C 
ATOM     19  H   LIG d   1       8.417   6.693  -6.491  0.00  0.00     0.031 H 
ATOM     20  C   LIG d   1       9.724   5.849  -8.003  0.00  0.00    -0.047 C 
ATOM     21  C   LIG d   1       9.195   6.730  -9.165  0.00  0.00    -0.026 C 
ATOM     22  C   LIG d   1       9.255   8.194  -8.668  0.00  0.00     0.061 C 
ATOM     23  H   LIG d   1       8.251   8.614  -8.608  0.00  0.00     0.060 H 
ATOM     24  H   LIG d   1      10.265   9.089  -2.603  0.00  0.00     0.028 H 
ATOM     25  H   LIG d   1      11.653   8.422  -1.725  0.00  0.00     0.028 H 
ATOM     26  H   LIG d   1       8.834   7.546  -1.452  0.00  0.00     0.035 H 
ATOM     27  H   LIG d   1       9.713   8.392  -0.257  0.00  0.00     0.035 H 
ATOM     28  H   LIG d   1      10.584   4.288  -1.349  0.00  0.00     0.065 H 
ATOM     29  H   LIG d   1      10.870   3.689  -3.507  0.00  0.00     0.031 H 
ATOM     30  H   LIG d   1      12.115   4.724  -4.252  0.00  0.00     0.031 H 
ATOM     31  H   LIG d   1       9.104   4.831  -4.767  0.00  0.00     0.027 H 
ATOM     32  H   LIG d   1      10.354   4.280  -5.907  0.00  0.00     0.027 H 
ATOM     33  H   LIG d   1       8.373   9.105  -6.194  0.00  0.00     0.035 H 
ATOM     34  H   LIG d   1       9.665  10.152  -6.578  0.00  0.00     0.035 H 
ATOM     35  H   LIG d   1       9.162   4.917  -7.940  0.00  0.00     0.027 H 
ATOM     36  H   LIG d   1      10.789   5.651  -8.123  0.00  0.00     0.027 H 
ATOM     37  H   LIG d   1       8.167   6.457  -9.404  0.00  0.00     0.029 H 
ATOM     38  H   LIG d   1       9.828   6.608 -10.045  0.00  0.00     0.029 H 
ENDROOT
BRANCH   1  39
ATOM     39  C   LIG d   1      12.301   7.409  -3.827  0.00  0.00    -0.055 C 
ATOM     40  H   LIG d   1      13.042   7.127  -3.079  0.00  0.00     0.024 H 
ATOM     41  H   LIG d   1      12.443   6.806  -4.724  0.00  0.00     0.024 H 
ATOM     42  H   LIG d   1      12.420   8.463  -4.075  0.00  0.00     0.024 H 
ENDBRANCH   1  39
BRANCH  17  43
ATOM     43  C   LIG d   1      11.406   8.215  -7.390  0.00  0.00    -0.057 C 
ATOM     44  H   LIG d   1      11.857   7.346  -6.910  0.00  0.00     0.024 H 
ATOM     45  H   LIG d   1      11.693   8.239  -8.441  0.00  0.00     0.024 H 
ATOM     46  H   LIG d   1      11.755   9.124  -6.897  0.00  0.00     0.024 H 
ENDBRANCH  17  43
BRANCH  22  47
ATOM     47  O   LIG d   1      10.070   8.981  -9.540  0.00  0.00    -0.391 OA
ATOM     48  H   LIG d   1       9.598   9.710  -9.966  0.00  0.00     0.210 HD
ENDBRANCH  22  47
TORSDOF 3
ENDMDL
MODEL 9
REMARK VINA RESULT:      -5.6     10.601     13.461
REMARK  3 active torsions:
REMARK  status: ('A' for Active; 'I' for Inactive)
REMARK    1  A    between atoms: C_1  and  C_2 
REMARK    2  A    between atoms: C_18  and  C_26 
REMARK    3  A    between atoms: C_23  and  O_25 
ROOT
ATOM      1  C   LIG d   1      10.502  10.762  -2.425  0.00  0.00    -0.001 C 
ATOM      2  C   LIG d   1       9.734  11.028  -3.695  0.00  0.00    -0.036 C 
ATOM      3  C   LIG d   1       8.583  12.011  -3.488  0.00  0.00     0.011 C 
ATOM      4  C   LIG d   1       9.161  13.268  -2.864  0.00  0.00     0.156 C 
ATOM      5  O   LIG d   1       8.970  14.369  -3.339  0.00  0.00    -0.293 OA
ATOM      6  C   LIG d   1       9.966  13.073  -1.650  0.00  0.00    -0.019 C 
ATOM      7  C   LIG d   1      10.566  11.902  -1.454  0.00  0.00    -0.060 C 
ATOM      8  C   LIG d   1      11.358  11.692  -0.175  0.00  0.00    -0.030 C 
ATOM      9  C   LIG d   1      10.856  10.403   0.489  0.00  0.00    -0.046 C 
ATOM     10  C   LIG d   1      10.942   9.249  -0.506  0.00  0.00    -0.027 C 
ATOM     11  H   LIG d   1      11.965   9.160  -0.872  0.00  0.00     0.031 H 
ATOM     12  C   LIG d   1       9.998   9.521  -1.692  0.00  0.00     0.030 C 
ATOM     13  H   LIG d   1       9.070   9.685  -1.358  0.00  0.00     0.039 H 
ATOM     14  C   LIG d   1       9.971   8.330  -2.617  0.00  0.00     0.138 C 
ATOM     15  O   LIG d   1      10.085   8.481  -3.809  0.00  0.00    -0.297 OA
ATOM     16  C   LIG d   1       9.799   6.936  -2.030  0.00  0.00     0.014 C 
ATOM     17  C   LIG d   1      10.814   6.811  -0.905  0.00  0.00     0.004 C 
ATOM     18  C   LIG d   1      10.516   7.938   0.121  0.00  0.00    -0.029 C 
ATOM     19  H   LIG d   1       9.457   7.967   0.378  0.00  0.00     0.031 H 
ATOM     20  C   LIG d   1      11.347   7.488   1.331  0.00  0.00    -0.047 C 
ATOM     21  C   LIG d   1      11.109   5.955   1.368  0.00  0.00    -0.026 C 
ATOM     22  C   LIG d   1      10.717   5.537  -0.069  0.00  0.00     0.061 C 
ATOM     23  H   LIG d   1       9.698   5.152  -0.085  0.00  0.00     0.060 H 
ATOM     24  H   LIG d   1       9.332  10.086  -4.068  0.00  0.00     0.028 H 
ATOM     25  H   LIG d   1      10.418  11.438  -4.439  0.00  0.00     0.028 H 
ATOM     26  H   LIG d   1       7.898  11.602  -2.885  0.00  0.00     0.035 H 
ATOM     27  H   LIG d   1       8.125  12.252  -4.448  0.00  0.00     0.035 H 
ATOM     28  H   LIG d   1      10.068  13.869  -0.927  0.00  0.00     0.065 H 
ATOM     29  H   LIG d   1      11.205  12.536   0.497  0.00  0.00     0.031 H 
ATOM     30  H   LIG d   1      12.419  11.596  -0.409  0.00  0.00     0.031 H 
ATOM     31  H   LIG d   1       9.821  10.536   0.802  0.00  0.00     0.027 H 
ATOM     32  H   LIG d   1      11.472  10.178   1.359  0.00  0.00     0.027 H 
ATOM     33  H   LIG d   1       8.865   6.832  -1.688  0.00  0.00     0.035 H 
ATOM     34  H   LIG d   1       9.992   6.183  -2.794  0.00  0.00     0.035 H 
ATOM     35  H   LIG d   1      10.981   7.957   2.245  0.00  0.00     0.027 H 
ATOM     36  H   LIG d   1      12.402   7.712   1.177  0.00  0.00     0.027 H 
ATOM     37  H   LIG d   1      10.302   5.718   2.061  0.00  0.00     0.029 H 
ATOM     38  H   LIG d   1      12.024   5.443   1.670  0.00  0.00     0.029 H 
ENDROOT
BRANCH   1  39
ATOM     39  C   LIG d   1      11.942  10.453  -2.836  0.00  0.00    -0.055 C 
ATOM     40  H   LIG d   1      12.224   9.470  -2.460  0.00  0.00     0.024 H 
ATOM     41  H   LIG d   1      12.020  10.462  -3.924  0.00  0.00     0.024 H 
ATOM     42  H   LIG d   1      12.609  11.206  -2.418  0.00  0.00     0.024 H 
ENDBRANCH   1  39
BRANCH  17  43
ATOM     43  C   LIG d   1      12.234   6.969  -1.453  0.00  0.00    -0.057 C 
ATOM     44  H   LIG d   1      12.927   6.395  -0.837  0.00  0.00     0.024 H 
ATOM     45  H   LIG d   1      12.270   6.602  -2.479  0.00  0.00     0.024 H 
ATOM     46  H   LIG d   1      12.516   8.022  -1.433  0.00  0.00     0.024 H 
ENDBRANCH  17  43
BRANCH  22  47
ATOM     47  O   LIG d   1      11.627   4.552  -0.564  0.00  0.00    -0.391 OA
ATOM     48  H   LIG d   1      11.391   3.645  -0.326  0.00  0.00     0.210 HD
ENDBRANCH  22  47
TORSDOF 3
ENDMDL
MODEL 10
REMARK VINA RESULT:      -5.6      2.640      4.272
REMARK  3 active torsions:
REMARK  status: ('A' for Active; 'I' for Inactive)
REMARK    1  A    between atoms: C_1  and  C_2 
REMARK    2  A    between atoms: C_18  and  C_26 
REMARK    3  A    between atoms: C_23  and  O_25 
ROOT
ATOM      1  C   LIG d   1       5.062  -0.822  -4.792  0.00  0.00    -0.001 C 
ATOM      2  C   LIG d   1       3.698  -0.217  -5.008  0.00  0.00    -0.036 C 
ATOM      3  C   LIG d   1       2.873  -0.161  -3.723  0.00  0.00     0.011 C 
ATOM      4  C   LIG d   1       3.695   0.576  -2.683  0.00  0.00     0.156 C 
ATOM      5  O   LIG d   1       3.255   1.528  -2.071  0.00  0.00    -0.293 OA
ATOM      6  C   LIG d   1       5.057   0.070  -2.461  0.00  0.00    -0.019 C 
ATOM      7  C   LIG d   1       5.669  -0.590  -3.441  0.00  0.00    -0.060 C 
ATOM      8  C   LIG d   1       7.058  -1.150  -3.188  0.00  0.00    -0.030 C 
ATOM      9  C   LIG d   1       7.045  -2.639  -3.561  0.00  0.00    -0.046 C 
ATOM     10  C   LIG d   1       6.547  -2.801  -4.994  0.00  0.00    -0.027 C 
ATOM     11  H   LIG d   1       7.169  -2.208  -5.664  0.00  0.00     0.031 H 
ATOM     12  C   LIG d   1       5.088  -2.319  -5.090  0.00  0.00     0.030 C 
ATOM     13  H   LIG d   1       4.525  -2.802  -4.420  0.00  0.00     0.039 H 
ATOM     14  C   LIG d   1       4.539  -2.597  -6.467  0.00  0.00     0.138 C 
ATOM     15  O   LIG d   1       3.939  -1.740  -7.069  0.00  0.00    -0.297 OA
ATOM     16  C   LIG d   1       4.751  -3.971  -7.089  0.00  0.00     0.014 C 
ATOM     17  C   LIG d   1       6.232  -4.286  -6.947  0.00  0.00     0.004 C 
ATOM     18  C   LIG d   1       6.575  -4.251  -5.433  0.00  0.00    -0.029 C 
ATOM     19  H   LIG d   1       5.861  -4.836  -4.853  0.00  0.00     0.031 H 
ATOM     20  C   LIG d   1       7.957  -4.918  -5.410  0.00  0.00    -0.047 C 
ATOM     21  C   LIG d   1       7.798  -6.089  -6.415  0.00  0.00    -0.026 C 
ATOM     22  C   LIG d   1       6.648  -5.693  -7.371  0.00  0.00     0.061 C 
ATOM     23  H   LIG d   1       5.812  -6.383  -7.263  0.00  0.00     0.060 H 
ATOM     24  H   LIG d   1       3.162  -0.813  -5.747  0.00  0.00     0.028 H 
ATOM     25  H   LIG d   1       3.820   0.795  -5.393  0.00  0.00     0.028 H 
ATOM     26  H   LIG d   1       2.669  -1.090  -3.416  0.00  0.00     0.035 H 
ATOM     27  H   LIG d   1       1.941   0.375  -3.906  0.00  0.00     0.035 H 
ATOM     28  H   LIG d   1       5.553   0.230  -1.514  0.00  0.00     0.065 H 
ATOM     29  H   LIG d   1       7.316  -1.036  -2.136  0.00  0.00     0.031 H 
ATOM     30  H   LIG d   1       7.786  -0.622  -3.804  0.00  0.00     0.031 H 
ATOM     31  H   LIG d   1       6.382  -3.176  -2.883  0.00  0.00     0.027 H 
ATOM     32  H   LIG d   1       8.054  -3.043  -3.479  0.00  0.00     0.027 H 
ATOM     33  H   LIG d   1       4.190  -4.644  -6.607  0.00  0.00     0.035 H 
ATOM     34  H   LIG d   1       4.471  -3.950  -8.142  0.00  0.00     0.035 H 
ATOM     35  H   LIG d   1       8.186  -5.295  -4.412  0.00  0.00     0.027 H 
ATOM     36  H   LIG d   1       8.725  -4.222  -5.746  0.00  0.00     0.027 H 
ATOM     37  H   LIG d   1       7.545  -7.006  -5.884  0.00  0.00     0.029 H 
ATOM     38  H   LIG d   1       8.722  -6.226  -6.977  0.00  0.00     0.029 H 
ENDROOT
BRANCH   1  39
ATOM     39  C   LIG d   1       6.000  -0.172  -5.812  0.00  0.00    -0.055 C 
ATOM     40  H   LIG d   1       5.864   0.909  -5.791  0.00  0.00     0.024 H 
ATOM     41  H   LIG d   1       7.033  -0.415  -5.562  0.00  0.00     0.024 H 
ATOM     42  H   LIG d   1       5.769  -0.547  -6.808  0.00  0.00     0.024 H 
ENDBRANCH   1  39
BRANCH  17  43
ATOM     43  C   LIG d   1       7.068  -3.247  -7.695  0.00  0.00    -0.057 C 
ATOM     44  H   LIG d   1       7.387  -3.658  -8.653  0.00  0.00     0.024 H 
ATOM     45  H   LIG d   1       6.469  -2.352  -7.865  0.00  0.00     0.024 H 
ATOM     46  H   LIG d   1       7.945  -2.989  -7.100  0.00  0.00     0.024 H 
ENDBRANCH  17  43
BRANCH  22  47
ATOM     47  O   LIG d   1       7.110  -5.683  -8.724  0.00  0.00    -0.391 OA
ATOM     48  H   LIG d   1       6.727  -6.379  -9.275  0.00  0.00     0.210 HD
ENDBRANCH  22  47
TORSDOF 3
ENDMDL
