MODEL 1
REMARK VINA RESULT:      -6.7      0.000      0.000
REMARK  9 active torsions:
REMARK  status: ('A' for Active; 'I' for Inactive)
REMARK    1  A    between atoms: C_1  and  C_2 
REMARK    2  A    between atoms: N_8  and  C_9 
REMARK    3  A    between atoms: C_9  and  C_10 
REMARK    4  A    between atoms: C_11  and  O_32 
REMARK    5  A    between atoms: C_18  and  O_21 
REMARK    6  A    between atoms: O_21  and  C_22 
REMARK    7  A    between atoms: C_25  and  C_28 
REMARK    8  A    between atoms: C_28  and  O_30 
REMARK    9  A    between atoms: O_30  and  C_31 
ROOT
ATOM      1  C   LIG d   1       7.451  -0.503  -5.719  0.00  0.00     0.081 A 
ATOM      2  C   LIG d   1       8.794  -0.171  -5.782  0.00  0.00     0.129 A 
ATOM      3  C   LIG d   1       9.271   0.671  -6.784  0.00  0.00    -0.019 A 
ATOM      4  C   LIG d   1       8.417   1.181  -7.722  0.00  0.00    -0.044 A 
ATOM      5  C   LIG d   1       7.061   0.855  -7.672  0.00  0.00     0.068 A 
ATOM      6  C   LIG d   1       6.572   0.002  -6.666  0.00  0.00     0.150 A 
ATOM      7  O   LIG d   1       5.261  -0.310  -6.632  0.00  0.00    -0.458 OA
ATOM      8  C   LIG d   1       4.388   0.160  -7.532  0.00  0.00     0.139 A 
ATOM      9  C   LIG d   1       4.748   0.981  -8.540  0.00  0.00     0.210 A 
ATOM     10  C   LIG d   1       6.108   1.384  -8.664  0.00  0.00     0.234 A 
ATOM     11  O   LIG d   1       6.472   2.125  -9.561  0.00  0.00    -0.283 OA
ATOM     12  H   LIG d   1      10.320   0.922  -6.821  0.00  0.00     0.065 H 
ATOM     13  H   LIG d   1       8.790   1.832  -8.497  0.00  0.00     0.063 H 
ATOM     14  H   LIG d   1       3.351  -0.130  -7.447  0.00  0.00     0.107 H 
ENDROOT
BRANCH   1  15
ATOM     15  C   LIG d   1       6.947  -1.415  -4.630  0.00  0.00     0.001 C 
ATOM     16  H   LIG d   1       7.766  -1.635  -3.929  0.00  0.00     0.087 H 
ATOM     17  H   LIG d   1       6.584  -2.353  -5.076  0.00  0.00     0.087 H 
BRANCH  15  18
ATOM     18  N   LIG d   1       5.850  -0.758  -3.910  0.00  0.00     0.241 N 
ATOM     19  C   LIG d   1       5.152  -1.707  -3.034  0.00  0.00    -0.023 C 
ATOM     20  H   LIG d   1       5.863  -2.012  -2.252  0.00  0.00     0.085 H 
ATOM     21  C   LIG d   1       3.930  -1.027  -2.413  0.00  0.00    -0.010 C 
ATOM     22  C   LIG d   1       4.383   0.196  -1.611  0.00  0.00    -0.043 C 
ATOM     23  H   LIG d   1       3.241  -0.711  -3.211  0.00  0.00     0.032 H 
ATOM     24  H   LIG d   1       3.415  -1.735  -1.746  0.00  0.00     0.032 H 
ATOM     25  C   LIG d   1       5.150   1.147  -2.535  0.00  0.00    -0.012 C 
ATOM     26  H   LIG d   1       3.504   0.711  -1.199  0.00  0.00     0.027 H 
ATOM     27  H   LIG d   1       5.039  -0.127  -0.789  0.00  0.00     0.027 H 
ATOM     28  C   LIG d   1       6.336   0.403  -3.154  0.00  0.00    -0.031 C 
ATOM     29  H   LIG d   1       4.481   1.502  -3.333  0.00  0.00     0.032 H 
ATOM     30  H   LIG d   1       5.516   2.006  -1.955  0.00  0.00     0.032 H 
ATOM     31  H   LIG d   1       6.880   1.079  -3.831  0.00  0.00     0.081 H 
ATOM     32  H   LIG d   1       7.012   0.063  -2.356  0.00  0.00     0.081 H 
ATOM     33  H   LIG d   1       5.125  -0.394  -4.654  0.00  0.00     0.204 HD
BRANCH  19  34
ATOM     34  C   LIG d   1       4.701  -2.919  -3.852  0.00  0.00    -0.022 C 
ATOM     35  H   LIG d   1       5.241  -2.936  -4.811  0.00  0.00     0.028 H 
ATOM     36  H   LIG d   1       3.620  -2.851  -4.040  0.00  0.00     0.028 H 
ATOM     37  H   LIG d   1       4.918  -3.841  -3.292  0.00  0.00     0.028 H 
ENDBRANCH  19  34
ENDBRANCH  15  18
ENDBRANCH   1  15
BRANCH   2  38
ATOM     38  O   LIG d   1       9.654  -0.670  -4.858  0.00  0.00    -0.506 OA
ATOM     39  H   LIG d   1      10.718  -0.797  -5.108  0.00  0.00     0.292 HD
ENDBRANCH   2  38
BRANCH   9  40
ATOM     40  O   LIG d   1       3.817   1.428  -9.424  0.00  0.00    -0.449 OA
BRANCH  40  41
ATOM     41  C   LIG d   1       3.230   0.522 -10.246  0.00  0.00     0.129 A 
ATOM     42  C   LIG d   1       1.995  -0.021  -9.909  0.00  0.00    -0.019 A 
ATOM     43  C   LIG d   1       1.396  -0.941 -10.740  0.00  0.00    -0.044 A 
ATOM     44  H   LIG d   1       1.505   0.280  -8.997  0.00  0.00     0.065 H 
ATOM     45  C   LIG d   1       2.033  -1.330 -11.923  0.00  0.00     0.059 A 
ATOM     46  H   LIG d   1       0.438  -1.363 -10.478  0.00  0.00     0.063 H 
ATOM     47  C   LIG d   1       3.274  -0.782 -12.258  0.00  0.00    -0.044 A 
ATOM     48  C   LIG d   1       3.864   0.142 -11.425  0.00  0.00    -0.019 A 
ATOM     49  H   LIG d   1       3.768  -1.079 -13.171  0.00  0.00     0.063 H 
ATOM     50  H   LIG d   1       4.820   0.570 -11.684  0.00  0.00     0.065 H 
BRANCH  45  51
ATOM     51  C   LIG d   1       1.396  -2.316 -12.816  0.00  0.00     0.339 C 
ATOM     52  O   LIG d   1       1.781  -2.436 -13.962  0.00  0.00    -0.245 OA
BRANCH  51  53
ATOM     53  O   LIG d   1       0.387  -3.083 -12.359  0.00  0.00    -0.465 OA
BRANCH  53  54
ATOM     54  C   LIG d   1       0.721  -4.435 -11.947  0.00  0.00     0.082 C 
ATOM     55  H   LIG d   1       1.145  -4.985 -12.800  0.00  0.00     0.066 H 
ATOM     56  H   LIG d   1      -0.187  -4.947 -11.596  0.00  0.00     0.066 H 
ATOM     57  H   LIG d   1       1.459  -4.398 -11.132  0.00  0.00     0.066 H 
ENDBRANCH  53  54
ENDBRANCH  51  53
ENDBRANCH  45  51
ENDBRANCH  40  41
ENDBRANCH   9  40
TORSDOF 9
ENDMDL
MODEL 2
REMARK VINA RESULT:      -6.7      4.572      9.274
REMARK  9 active torsions:
REMARK  status: ('A' for Active; 'I' for Inactive)
REMARK    1  A    between atoms: C_1  and  C_2 
REMARK    2  A    between atoms: N_8  and  C_9 
REMARK    3  A    between atoms: C_9  and  C_10 
REMARK    4  A    between atoms: C_11  and  O_32 
REMARK    5  A    between atoms: C_18  and  O_21 
REMARK    6  A    between atoms: O_21  and  C_22 
REMARK    7  A    between atoms: C_25  and  C_28 
REMARK    8  A    between atoms: C_28  and  O_30 
REMARK    9  A    between atoms: O_30  and  C_31 
ROOT
ATOM      1  C   LIG d   1       7.282  -0.255  -5.960  0.00  0.00     0.081 A 
ATOM      2  C   LIG d   1       6.519  -0.231  -7.116  0.00  0.00     0.129 A 
ATOM      3  C   LIG d   1       6.660   0.803  -8.038  0.00  0.00    -0.019 A 
ATOM      4  C   LIG d   1       7.555   1.811  -7.814  0.00  0.00    -0.044 A 
ATOM      5  C   LIG d   1       8.332   1.801  -6.655  0.00  0.00     0.068 A 
ATOM      6  C   LIG d   1       8.192   0.763  -5.716  0.00  0.00     0.150 A 
ATOM      7  O   LIG d   1       8.944   0.768  -4.597  0.00  0.00    -0.458 OA
ATOM      8  C   LIG d   1       9.830   1.736  -4.331  0.00  0.00     0.139 A 
ATOM      9  C   LIG d   1      10.041   2.779  -5.159  0.00  0.00     0.210 A 
ATOM     10  C   LIG d   1       9.309   2.868  -6.376  0.00  0.00     0.234 A 
ATOM     11  O   LIG d   1       9.473   3.797  -7.150  0.00  0.00    -0.283 OA
ATOM     12  H   LIG d   1       6.058   0.809  -8.935  0.00  0.00     0.065 H 
ATOM     13  H   LIG d   1       7.661   2.610  -8.531  0.00  0.00     0.063 H 
ATOM     14  H   LIG d   1      10.399   1.679  -3.415  0.00  0.00     0.107 H 
ENDROOT
BRANCH   1  15
ATOM     15  C   LIG d   1       7.121  -1.379  -4.970  0.00  0.00     0.001 C 
ATOM     16  H   LIG d   1       7.993  -1.406  -4.300  0.00  0.00     0.087 H 
ATOM     17  H   LIG d   1       7.043  -2.335  -5.510  0.00  0.00     0.087 H 
BRANCH  15  18
ATOM     18  N   LIG d   1       5.903  -1.163  -4.179  0.00  0.00     0.241 N 
ATOM     19  C   LIG d   1       5.395  -2.430  -3.638  0.00  0.00    -0.023 C 
ATOM     20  H   LIG d   1       6.140  -2.800  -2.918  0.00  0.00     0.085 H 
ATOM     21  C   LIG d   1       4.052  -2.188  -2.945  0.00  0.00    -0.010 C 
ATOM     22  C   LIG d   1       4.240  -1.171  -1.817  0.00  0.00    -0.043 C 
ATOM     23  H   LIG d   1       3.326  -1.799  -3.675  0.00  0.00     0.032 H 
ATOM     24  H   LIG d   1       3.678  -3.136  -2.528  0.00  0.00     0.032 H 
ATOM     25  C   LIG d   1       4.817   0.124  -2.398  0.00  0.00    -0.012 C 
ATOM     26  H   LIG d   1       3.270  -0.962  -1.344  0.00  0.00     0.027 H 
ATOM     27  H   LIG d   1       4.934  -1.579  -1.066  0.00  0.00     0.027 H 
ATOM     28  C   LIG d   1       6.137  -0.185  -3.109  0.00  0.00    -0.031 C 
ATOM     29  H   LIG d   1       4.103   0.553  -3.116  0.00  0.00     0.032 H 
ATOM     30  H   LIG d   1       4.996   0.843  -1.585  0.00  0.00     0.032 H 
ATOM     31  H   LIG d   1       6.545   0.740  -3.541  0.00  0.00     0.081 H 
ATOM     32  H   LIG d   1       6.855  -0.599  -2.385  0.00  0.00     0.081 H 
ATOM     33  H   LIG d   1       5.132  -0.751  -4.847  0.00  0.00     0.204 HD
BRANCH  19  34
ATOM     34  C   LIG d   1       5.206  -3.432  -4.778  0.00  0.00    -0.022 C 
ATOM     35  H   LIG d   1       5.552  -2.983  -5.722  0.00  0.00     0.028 H 
ATOM     36  H   LIG d   1       4.142  -3.693  -4.865  0.00  0.00     0.028 H 
ATOM     37  H   LIG d   1       5.791  -4.340  -4.570  0.00  0.00     0.028 H 
ENDBRANCH  19  34
ENDBRANCH  15  18
ENDBRANCH   1  15
BRANCH   2  38
ATOM     38  O   LIG d   1       5.625  -1.225  -7.352  0.00  0.00    -0.506 OA
ATOM     39  H   LIG d   1       5.444  -1.570  -8.381  0.00  0.00     0.292 HD
ENDBRANCH   2  38
BRANCH   9  40
ATOM     40  O   LIG d   1      10.956   3.734  -4.838  0.00  0.00    -0.449 OA
BRANCH  40  41
ATOM     41  C   LIG d   1      10.646   4.607  -3.846  0.00  0.00     0.129 A 
ATOM     42  C   LIG d   1      11.156   4.413  -2.567  0.00  0.00    -0.019 A 
ATOM     43  C   LIG d   1      10.843   5.296  -1.559  0.00  0.00    -0.044 A 
ATOM     44  H   LIG d   1      11.799   3.571  -2.366  0.00  0.00     0.065 H 
ATOM     45  C   LIG d   1      10.010   6.388  -1.822  0.00  0.00     0.059 A 
ATOM     46  H   LIG d   1      11.240   5.145  -0.566  0.00  0.00     0.063 H 
ATOM     47  C   LIG d   1       9.499   6.579  -3.108  0.00  0.00    -0.044 A 
ATOM     48  C   LIG d   1       9.821   5.695  -4.113  0.00  0.00    -0.019 A 
ATOM     49  H   LIG d   1       8.855   7.421  -3.315  0.00  0.00     0.063 H 
ATOM     50  H   LIG d   1       9.430   5.843  -5.109  0.00  0.00     0.065 H 
BRANCH  45  51
ATOM     51  C   LIG d   1       9.671   7.336  -0.744  0.00  0.00     0.339 C 
ATOM     52  O   LIG d   1      10.376   7.409   0.244  0.00  0.00    -0.245 OA
BRANCH  51  53
ATOM     53  O   LIG d   1       8.581   8.119  -0.854  0.00  0.00    -0.465 OA
BRANCH  53  54
ATOM     54  C   LIG d   1       8.792   9.555  -0.790  0.00  0.00     0.082 C 
ATOM     55  H   LIG d   1       8.050  10.063  -1.421  0.00  0.00     0.066 H 
ATOM     56  H   LIG d   1       9.805   9.793  -1.149  0.00  0.00     0.066 H 
ATOM     57  H   LIG d   1       8.683   9.896   0.250  0.00  0.00     0.066 H 
ENDBRANCH  53  54
ENDBRANCH  51  53
ENDBRANCH  45  51
ENDBRANCH  40  41
ENDBRANCH   9  40
TORSDOF 9
ENDMDL
MODEL 3
REMARK VINA RESULT:      -6.6      4.705      9.325
REMARK  9 active torsions:
REMARK  status: ('A' for Active; 'I' for Inactive)
REMARK    1  A    between atoms: C_1  and  C_2 
REMARK    2  A    between atoms: N_8  and  C_9 
REMARK    3  A    between atoms: C_9  and  C_10 
REMARK    4  A    between atoms: C_11  and  O_32 
REMARK    5  A    between atoms: C_18  and  O_21 
REMARK    6  A    between atoms: O_21  and  C_22 
REMARK    7  A    between atoms: C_25  and  C_28 
REMARK    8  A    between atoms: C_28  and  O_30 
REMARK    9  A    between atoms: O_30  and  C_31 
ROOT
ATOM      1  C   LIG d   1       6.746   0.294  -6.557  0.00  0.00     0.081 A 
ATOM      2  C   LIG d   1       6.416   0.352  -7.901  0.00  0.00     0.129 A 
ATOM      3  C   LIG d   1       7.110   1.194  -8.766  0.00  0.00    -0.019 A 
ATOM      4  C   LIG d   1       8.128   1.977  -8.300  0.00  0.00    -0.044 A 
ATOM      5  C   LIG d   1       8.473   1.930  -6.948  0.00  0.00     0.068 A 
ATOM      6  C   LIG d   1       7.774   1.086  -6.066  0.00  0.00     0.150 A 
ATOM      7  O   LIG d   1       8.112   1.054  -4.762  0.00  0.00    -0.458 OA
ATOM      8  C   LIG d   1       9.099   1.806  -4.257  0.00  0.00     0.139 A 
ATOM      9  C   LIG d   1       9.829   2.652  -5.010  0.00  0.00     0.210 A 
ATOM     10  C   LIG d   1       9.565   2.757  -6.405  0.00  0.00     0.234 A 
ATOM     11  O   LIG d   1      10.205   3.511  -7.119  0.00  0.00    -0.283 OA
ATOM     12  H   LIG d   1       6.842   1.229  -9.812  0.00  0.00     0.065 H 
ATOM     13  H   LIG d   1       8.664   2.628  -8.974  0.00  0.00     0.063 H 
ATOM     14  H   LIG d   1       9.317   1.732  -3.202  0.00  0.00     0.107 H 
ENDROOT
BRANCH   1  15
ATOM     15  C   LIG d   1       5.987  -0.621  -5.630  0.00  0.00     0.001 C 
ATOM     16  H   LIG d   1       6.694  -1.288  -5.114  0.00  0.00     0.087 H 
ATOM     17  H   LIG d   1       5.273  -1.222  -6.212  0.00  0.00     0.087 H 
BRANCH  15  18
ATOM     18  N   LIG d   1       5.259   0.181  -4.639  0.00  0.00     0.241 N 
ATOM     19  C   LIG d   1       3.828  -0.148  -4.644  0.00  0.00    -0.023 C 
ATOM     20  H   LIG d   1       3.731  -1.187  -4.297  0.00  0.00     0.085 H 
ATOM     21  C   LIG d   1       3.081   0.805  -3.707  0.00  0.00    -0.010 C 
ATOM     22  C   LIG d   1       3.648   0.670  -2.292  0.00  0.00    -0.043 C 
ATOM     23  H   LIG d   1       3.208   1.840  -4.059  0.00  0.00     0.032 H 
ATOM     24  H   LIG d   1       2.011   0.549  -3.702  0.00  0.00     0.032 H 
ATOM     25  C   LIG d   1       5.150   0.969  -2.320  0.00  0.00    -0.012 C 
ATOM     26  H   LIG d   1       3.143   1.383  -1.624  0.00  0.00     0.027 H 
ATOM     27  H   LIG d   1       3.483  -0.355  -1.926  0.00  0.00     0.027 H 
ATOM     28  C   LIG d   1       5.837   0.013  -3.299  0.00  0.00    -0.031 C 
ATOM     29  H   LIG d   1       5.311   2.007  -2.645  0.00  0.00     0.032 H 
ATOM     30  H   LIG d   1       5.571   0.830  -1.314  0.00  0.00     0.032 H 
ATOM     31  H   LIG d   1       6.914   0.236  -3.334  0.00  0.00     0.081 H 
ATOM     32  H   LIG d   1       5.688  -1.024  -2.964  0.00  0.00     0.081 H 
ATOM     33  H   LIG d   1       5.361   1.240  -4.917  0.00  0.00     0.204 HD
BRANCH  19  34
ATOM     34  C   LIG d   1       3.278  -0.001  -6.064  0.00  0.00    -0.022 C 
ATOM     35  H   LIG d   1       2.200   0.218  -6.019  0.00  0.00     0.028 H 
ATOM     36  H   LIG d   1       3.439  -0.938  -6.618  0.00  0.00     0.028 H 
ATOM     37  H   LIG d   1       3.798   0.821  -6.577  0.00  0.00     0.028 H 
ENDBRANCH  19  34
ENDBRANCH  15  18
ENDBRANCH   1  15
BRANCH   2  38
ATOM     38  O   LIG d   1       5.406  -0.420  -8.379  0.00  0.00    -0.506 OA
ATOM     39  H   LIG d   1       5.584  -1.094  -9.230  0.00  0.00     0.292 HD
ENDBRANCH   2  38
BRANCH   9  40
ATOM     40  O   LIG d   1      10.821   3.392  -4.443  0.00  0.00    -0.449 OA
BRANCH  40  41
ATOM     41  C   LIG d   1      10.466   4.458  -3.683  0.00  0.00     0.129 A 
ATOM     42  C   LIG d   1       9.839   5.551  -4.270  0.00  0.00    -0.019 A 
ATOM     43  C   LIG d   1       9.478   6.635  -3.502  0.00  0.00    -0.044 A 
ATOM     44  H   LIG d   1       9.635   5.550  -5.330  0.00  0.00     0.065 H 
ATOM     45  C   LIG d   1       9.743   6.634  -2.129  0.00  0.00     0.059 A 
ATOM     46  H   LIG d   1       8.992   7.484  -3.959  0.00  0.00     0.063 H 
ATOM     47  C   LIG d   1      10.373   5.534  -1.542  0.00  0.00    -0.044 A 
ATOM     48  C   LIG d   1      10.726   4.452  -2.316  0.00  0.00    -0.019 A 
ATOM     49  H   LIG d   1      10.579   5.530  -0.481  0.00  0.00     0.063 H 
ATOM     50  H   LIG d   1      11.208   3.598  -1.863  0.00  0.00     0.065 H 
BRANCH  45  51
ATOM     51  C   LIG d   1       9.359   7.794  -1.302  0.00  0.00     0.339 C 
ATOM     52  O   LIG d   1       8.240   7.860  -0.832  0.00  0.00    -0.245 OA
BRANCH  51  53
ATOM     53  O   LIG d   1      10.248   8.778  -1.068  0.00  0.00    -0.465 OA
BRANCH  53  54
ATOM     54  C   LIG d   1      10.895   8.787   0.232  0.00  0.00     0.082 C 
ATOM     55  H   LIG d   1      10.200   9.189   0.985  0.00  0.00     0.066 H 
ATOM     56  H   LIG d   1      11.795   9.419   0.190  0.00  0.00     0.066 H 
ATOM     57  H   LIG d   1      11.180   7.761   0.508  0.00  0.00     0.066 H 
ENDBRANCH  53  54
ENDBRANCH  51  53
ENDBRANCH  45  51
ENDBRANCH  40  41
ENDBRANCH   9  40
TORSDOF 9
ENDMDL
MODEL 4
REMARK VINA RESULT:      -6.5      3.976      7.880
REMARK  9 active torsions:
REMARK  status: ('A' for Active; 'I' for Inactive)
REMARK    1  A    between atoms: C_1  and  C_2 
REMARK    2  A    between atoms: N_8  and  C_9 
REMARK    3  A    between atoms: C_9  and  C_10 
REMARK    4  A    between atoms: C_11  and  O_32 
REMARK    5  A    between atoms: C_18  and  O_21 
REMARK    6  A    between atoms: O_21  and  C_22 
REMARK    7  A    between atoms: C_25  and  C_28 
REMARK    8  A    between atoms: C_28  and  O_30 
REMARK    9  A    between atoms: O_30  and  C_31 
ROOT
ATOM      1  C   LIG d   1       6.143  -0.212  -6.449  0.00  0.00     0.081 A 
ATOM      2  C   LIG d   1       4.977  -0.371  -7.181  0.00  0.00     0.129 A 
ATOM      3  C   LIG d   1       4.775   0.347  -8.357  0.00  0.00    -0.019 A 
ATOM      4  C   LIG d   1       5.725   1.220  -8.806  0.00  0.00    -0.044 A 
ATOM      5  C   LIG d   1       6.906   1.391  -8.080  0.00  0.00     0.068 A 
ATOM      6  C   LIG d   1       7.116   0.674  -6.889  0.00  0.00     0.150 A 
ATOM      7  O   LIG d   1       8.256   0.852  -6.193  0.00  0.00    -0.458 OA
ATOM      8  C   LIG d   1       9.215   1.700  -6.590  0.00  0.00     0.139 A 
ATOM      9  C   LIG d   1       9.115   2.439  -7.713  0.00  0.00     0.210 A 
ATOM     10  C   LIG d   1       7.955   2.321  -8.530  0.00  0.00     0.234 A 
ATOM     11  O   LIG d   1       7.830   2.973  -9.553  0.00  0.00    -0.283 OA
ATOM     12  H   LIG d   1       3.861   0.213  -8.917  0.00  0.00     0.065 H 
ATOM     13  H   LIG d   1       5.565   1.774  -9.718  0.00  0.00     0.063 H 
ATOM     14  H   LIG d   1      10.104   1.795  -5.985  0.00  0.00     0.107 H 
ENDROOT
BRANCH   1  15
ATOM     15  C   LIG d   1       6.350  -0.994  -5.177  0.00  0.00     0.001 C 
ATOM     16  H   LIG d   1       7.382  -0.851  -4.823  0.00  0.00     0.087 H 
ATOM     17  H   LIG d   1       6.173  -2.062  -5.371  0.00  0.00     0.087 H 
BRANCH  15  18
ATOM     18  N   LIG d   1       5.412  -0.519  -4.153  0.00  0.00     0.241 N 
ATOM     19  C   LIG d   1       5.158  -1.560  -3.148  0.00  0.00    -0.023 C 
ATOM     20  H   LIG d   1       6.102  -1.733  -2.612  0.00  0.00     0.085 H 
ATOM     21  C   LIG d   1       4.069  -1.086  -2.183  0.00  0.00    -0.010 C 
ATOM     22  C   LIG d   1       4.527   0.206  -1.500  0.00  0.00    -0.043 C 
ATOM     23  H   LIG d   1       3.140  -0.899  -2.741  0.00  0.00     0.032 H 
ATOM     24  H   LIG d   1       3.890  -1.861  -1.423  0.00  0.00     0.032 H 
ATOM     25  C   LIG d   1       4.832   1.260  -2.569  0.00  0.00    -0.012 C 
ATOM     26  H   LIG d   1       3.730   0.573  -0.837  0.00  0.00     0.027 H 
ATOM     27  H   LIG d   1       5.434   0.007  -0.909  0.00  0.00     0.027 H 
ATOM     28  C   LIG d   1       5.897   0.716  -3.525  0.00  0.00    -0.031 C 
ATOM     29  H   LIG d   1       3.915   1.488  -3.131  0.00  0.00     0.032 H 
ATOM     30  H   LIG d   1       5.203   2.175  -2.086  0.00  0.00     0.032 H 
ATOM     31  H   LIG d   1       6.107   1.465  -4.303  0.00  0.00     0.081 H 
ATOM     32  H   LIG d   1       6.819   0.503  -2.963  0.00  0.00     0.081 H 
ATOM     33  H   LIG d   1       4.456  -0.291  -4.647  0.00  0.00     0.204 HD
BRANCH  19  34
ATOM     34  C   LIG d   1       4.696  -2.840  -3.848  0.00  0.00    -0.022 C 
ATOM     35  H   LIG d   1       5.555  -3.320  -4.342  0.00  0.00     0.028 H 
ATOM     36  H   LIG d   1       3.932  -2.593  -4.599  0.00  0.00     0.028 H 
ATOM     37  H   LIG d   1       4.269  -3.531  -3.105  0.00  0.00     0.028 H 
ENDBRANCH  19  34
ENDBRANCH  15  18
ENDBRANCH   1  15
BRANCH   2  38
ATOM     38  O   LIG d   1       4.023  -1.234  -6.746  0.00  0.00    -0.506 OA
ATOM     39  H   LIG d   1       3.186  -0.866  -6.134  0.00  0.00     0.292 HD
ENDBRANCH   2  38
BRANCH   9  40
ATOM     40  O   LIG d   1      10.120   3.284  -8.068  0.00  0.00    -0.449 OA
BRANCH  40  41
ATOM     41  C   LIG d   1       9.958   4.608  -7.822  0.00  0.00     0.129 A 
ATOM     42  C   LIG d   1       9.916   5.070  -6.510  0.00  0.00    -0.019 A 
ATOM     43  C   LIG d   1       9.751   6.413  -6.256  0.00  0.00    -0.044 A 
ATOM     44  H   LIG d   1      10.015   4.375  -5.691  0.00  0.00     0.065 H 
ATOM     45  C   LIG d   1       9.624   7.312  -7.319  0.00  0.00     0.059 A 
ATOM     46  H   LIG d   1       9.718   6.770  -5.238  0.00  0.00     0.063 H 
ATOM     47  C   LIG d   1       9.666   6.845  -8.636  0.00  0.00    -0.044 A 
ATOM     48  C   LIG d   1       9.837   5.501  -8.881  0.00  0.00    -0.019 A 
ATOM     49  H   LIG d   1       9.569   7.537  -9.459  0.00  0.00     0.063 H 
ATOM     50  H   LIG d   1       9.875   5.139  -9.898  0.00  0.00     0.065 H 
BRANCH  45  51
ATOM     51  C   LIG d   1       9.445   8.752  -7.052  0.00  0.00     0.339 C 
ATOM     52  O   LIG d   1       9.413   9.542  -7.975  0.00  0.00    -0.245 OA
BRANCH  51  53
ATOM     53  O   LIG d   1       9.318   9.190  -5.784  0.00  0.00    -0.465 OA
BRANCH  53  54
ATOM     54  C   LIG d   1       9.556  10.603  -5.549  0.00  0.00     0.082 C 
ATOM     55  H   LIG d   1       8.673  11.048  -5.067  0.00  0.00     0.066 H 
ATOM     56  H   LIG d   1       9.743  11.109  -6.508  0.00  0.00     0.066 H 
ATOM     57  H   LIG d   1      10.431  10.725  -4.894  0.00  0.00     0.066 H 
ENDBRANCH  53  54
ENDBRANCH  51  53
ENDBRANCH  45  51
ENDBRANCH  40  41
ENDBRANCH   9  40
TORSDOF 9
ENDMDL
MODEL 5
REMARK VINA RESULT:      -6.4      3.720      8.130
REMARK  9 active torsions:
REMARK  status: ('A' for Active; 'I' for Inactive)
REMARK    1  A    between atoms: C_1  and  C_2 
REMARK    2  A    between atoms: N_8  and  C_9 
REMARK    3  A    between atoms: C_9  and  C_10 
REMARK    4  A    between atoms: C_11  and  O_32 
REMARK    5  A    between atoms: C_18  and  O_21 
REMARK    6  A    between atoms: O_21  and  C_22 
REMARK    7  A    between atoms: C_25  and  C_28 
REMARK    8  A    between atoms: C_28  and  O_30 
REMARK    9  A    between atoms: O_30  and  C_31 
ROOT
ATOM      1  C   LIG d   1       4.757  -0.153  -7.106  0.00  0.00     0.081 A 
ATOM      2  C   LIG d   1       3.851  -0.150  -8.155  0.00  0.00     0.129 A 
ATOM      3  C   LIG d   1       4.128   0.546  -9.329  0.00  0.00    -0.019 A 
ATOM      4  C   LIG d   1       5.300   1.236  -9.463  0.00  0.00    -0.044 A 
ATOM      5  C   LIG d   1       6.223   1.242  -8.416  0.00  0.00     0.068 A 
ATOM      6  C   LIG d   1       5.948   0.546  -7.224  0.00  0.00     0.150 A 
ATOM      7  O   LIG d   1       6.845   0.565  -6.218  0.00  0.00    -0.458 OA
ATOM      8  C   LIG d   1       8.004   1.231  -6.300  0.00  0.00     0.139 A 
ATOM      9  C   LIG d   1       8.365   1.934  -7.392  0.00  0.00     0.210 A 
ATOM     10  C   LIG d   1       7.497   1.974  -8.520  0.00  0.00     0.234 A 
ATOM     11  O   LIG d   1       7.790   2.598  -9.526  0.00  0.00    -0.283 OA
ATOM     12  H   LIG d   1       3.413   0.540 -10.138  0.00  0.00     0.065 H 
ATOM     13  H   LIG d   1       5.511   1.774 -10.374  0.00  0.00     0.063 H 
ATOM     14  H   LIG d   1       8.676   1.204  -5.456  0.00  0.00     0.107 H 
ENDROOT
BRANCH   1  15
ATOM     15  C   LIG d   1       4.445  -0.910  -5.840  0.00  0.00     0.001 C 
ATOM     16  H   LIG d   1       5.154  -1.744  -5.728  0.00  0.00     0.087 H 
ATOM     17  H   LIG d   1       3.420  -1.304  -5.892  0.00  0.00     0.087 H 
BRANCH  15  18
ATOM     18  N   LIG d   1       4.566  -0.007  -4.689  0.00  0.00     0.241 N 
ATOM     19  C   LIG d   1       3.282   0.128  -3.989  0.00  0.00    -0.023 C 
ATOM     20  H   LIG d   1       3.041  -0.854  -3.557  0.00  0.00     0.085 H 
ATOM     21  C   LIG d   1       3.408   1.184  -2.888  0.00  0.00    -0.010 C 
ATOM     22  C   LIG d   1       4.503   0.761  -1.905  0.00  0.00    -0.043 C 
ATOM     23  H   LIG d   1       3.670   2.154  -3.338  0.00  0.00     0.032 H 
ATOM     24  H   LIG d   1       2.449   1.274  -2.356  0.00  0.00     0.032 H 
ATOM     25  C   LIG d   1       5.820   0.579  -2.666  0.00  0.00    -0.012 C 
ATOM     26  H   LIG d   1       4.626   1.537  -1.136  0.00  0.00     0.027 H 
ATOM     27  H   LIG d   1       4.220  -0.188  -1.426  0.00  0.00     0.027 H 
ATOM     28  C   LIG d   1       5.623  -0.458  -3.775  0.00  0.00    -0.031 C 
ATOM     29  H   LIG d   1       6.123   1.539  -3.109  0.00  0.00     0.032 H 
ATOM     30  H   LIG d   1       6.599   0.232  -1.972  0.00  0.00     0.032 H 
ATOM     31  H   LIG d   1       6.563  -0.579  -4.333  0.00  0.00     0.081 H 
ATOM     32  H   LIG d   1       5.335  -1.422  -3.329  0.00  0.00     0.081 H 
ATOM     33  H   LIG d   1       4.849   0.987  -5.064  0.00  0.00     0.204 HD
BRANCH  19  34
ATOM     34  C   LIG d   1       2.203   0.557  -4.985  0.00  0.00    -0.022 C 
ATOM     35  H   LIG d   1       1.227   0.591  -4.476  0.00  0.00     0.028 H 
ATOM     36  H   LIG d   1       2.159  -0.166  -5.813  0.00  0.00     0.028 H 
ATOM     37  H   LIG d   1       2.444   1.554  -5.382  0.00  0.00     0.028 H 
ENDBRANCH  19  34
ENDBRANCH  15  18
ENDBRANCH   1  15
BRANCH   2  38
ATOM     38  O   LIG d   1       2.682  -0.831  -8.036  0.00  0.00    -0.506 OA
ATOM     39  H   LIG d   1       1.724  -0.298  -8.125  0.00  0.00     0.292 HD
ENDBRANCH   2  38
BRANCH   9  40
ATOM     40  O   LIG d   1       9.556   2.592  -7.420  0.00  0.00    -0.449 OA
BRANCH  40  41
ATOM     41  C   LIG d   1       9.684   3.711  -6.664  0.00  0.00     0.129 A 
ATOM     42  C   LIG d   1       9.808   3.605  -5.283  0.00  0.00    -0.019 A 
ATOM     43  C   LIG d   1       9.938   4.738  -4.513  0.00  0.00    -0.044 A 
ATOM     44  H   LIG d   1       9.804   2.633  -4.815  0.00  0.00     0.065 H 
ATOM     45  C   LIG d   1       9.944   5.997  -5.121  0.00  0.00     0.059 A 
ATOM     46  H   LIG d   1      10.034   4.655  -3.441  0.00  0.00     0.063 H 
ATOM     47  C   LIG d   1       9.819   6.100  -6.509  0.00  0.00    -0.044 A 
ATOM     48  C   LIG d   1       9.695   4.962  -7.273  0.00  0.00    -0.019 A 
ATOM     49  H   LIG d   1       9.824   7.071  -6.982  0.00  0.00     0.063 H 
ATOM     50  H   LIG d   1       9.603   5.039  -8.347  0.00  0.00     0.065 H 
BRANCH  45  51
ATOM     51  C   LIG d   1      10.082   7.214  -4.300  0.00  0.00     0.339 C 
ATOM     52  O   LIG d   1       9.772   8.296  -4.759  0.00  0.00    -0.245 OA
BRANCH  51  53
ATOM     53  O   LIG d   1      10.551   7.126  -3.040  0.00  0.00    -0.465 OA
BRANCH  53  54
ATOM     54  C   LIG d   1       9.604   7.365  -1.966  0.00  0.00     0.082 C 
ATOM     55  H   LIG d   1       9.910   8.254  -1.397  0.00  0.00     0.066 H 
ATOM     56  H   LIG d   1       9.581   6.491  -1.296  0.00  0.00     0.066 H 
ATOM     57  H   LIG d   1       8.602   7.528  -2.389  0.00  0.00     0.066 H 
ENDBRANCH  53  54
ENDBRANCH  51  53
ENDBRANCH  45  51
ENDBRANCH  40  41
ENDBRANCH   9  40
TORSDOF 9
ENDMDL
MODEL 6
REMARK VINA RESULT:      -6.3      4.023      8.663
REMARK  9 active torsions:
REMARK  status: ('A' for Active; 'I' for Inactive)
REMARK    1  A    between atoms: C_1  and  C_2 
REMARK    2  A    between atoms: N_8  and  C_9 
REMARK    3  A    between atoms: C_9  and  C_10 
REMARK    4  A    between atoms: C_11  and  O_32 
REMARK    5  A    between atoms: C_18  and  O_21 
REMARK    6  A    between atoms: O_21  and  C_22 
REMARK    7  A    between atoms: C_25  and  C_28 
REMARK    8  A    between atoms: C_28  and  O_30 
REMARK    9  A    between atoms: O_30  and  C_31 
ROOT
ATOM      1  C   LIG d   1       5.386  -0.329  -5.666  0.00  0.00     0.081 A 
ATOM      2  C   LIG d   1       4.730  -0.719  -4.509  0.00  0.00     0.129 A 
ATOM      3  C   LIG d   1       5.197  -0.319  -3.260  0.00  0.00    -0.019 A 
ATOM      4  C   LIG d   1       6.311   0.465  -3.158  0.00  0.00    -0.044 A 
ATOM      5  C   LIG d   1       6.983   0.867  -4.313  0.00  0.00     0.068 A 
ATOM      6  C   LIG d   1       6.520   0.463  -5.579  0.00  0.00     0.150 A 
ATOM      7  O   LIG d   1       7.181   0.852  -6.687  0.00  0.00    -0.458 OA
ATOM      8  C   LIG d   1       8.280   1.617  -6.637  0.00  0.00     0.139 A 
ATOM      9  C   LIG d   1       8.812   2.056  -5.479  0.00  0.00     0.210 A 
ATOM     10  C   LIG d   1       8.187   1.713  -4.246  0.00  0.00     0.234 A 
ATOM     11  O   LIG d   1       8.638   2.092  -3.178  0.00  0.00    -0.283 OA
ATOM     12  H   LIG d   1       4.676  -0.632  -2.367  0.00  0.00     0.065 H 
ATOM     13  H   LIG d   1       6.670   0.773  -2.187  0.00  0.00     0.063 H 
ATOM     14  H   LIG d   1       8.761   1.892  -7.564  0.00  0.00     0.107 H 
ENDROOT
BRANCH   1  15
ATOM     15  C   LIG d   1       4.871  -0.769  -7.012  0.00  0.00     0.001 C 
ATOM     16  H   LIG d   1       3.956  -1.365  -6.878  0.00  0.00     0.087 H 
ATOM     17  H   LIG d   1       5.636  -1.378  -7.516  0.00  0.00     0.087 H 
BRANCH  15  18
ATOM     18  N   LIG d   1       4.569   0.412  -7.830  0.00  0.00     0.241 N 
ATOM     19  C   LIG d   1       4.799   0.139  -9.255  0.00  0.00    -0.023 C 
ATOM     20  H   LIG d   1       4.064  -0.617  -9.565  0.00  0.00     0.085 H 
ATOM     21  C   LIG d   1       4.616   1.429 -10.059  0.00  0.00    -0.010 C 
ATOM     22  C   LIG d   1       3.197   1.960  -9.846  0.00  0.00    -0.043 C 
ATOM     23  H   LIG d   1       5.346   2.180  -9.720  0.00  0.00     0.032 H 
ATOM     24  H   LIG d   1       4.776   1.220 -11.127  0.00  0.00     0.032 H 
ATOM     25  C   LIG d   1       2.964   2.191  -8.350  0.00  0.00    -0.012 C 
ATOM     26  H   LIG d   1       3.074   2.909 -10.389  0.00  0.00     0.027 H 
ATOM     27  H   LIG d   1       2.469   1.226 -10.223  0.00  0.00     0.027 H 
ATOM     28  C   LIG d   1       3.197   0.879  -7.595  0.00  0.00    -0.031 C 
ATOM     29  H   LIG d   1       3.664   2.956  -7.984  0.00  0.00     0.032 H 
ATOM     30  H   LIG d   1       1.931   2.531  -8.188  0.00  0.00     0.032 H 
ATOM     31  H   LIG d   1       3.046   1.045  -6.518  0.00  0.00     0.081 H 
ATOM     32  H   LIG d   1       2.486   0.120  -7.952  0.00  0.00     0.081 H 
ATOM     33  H   LIG d   1       5.254   1.219  -7.529  0.00  0.00     0.204 HD
BRANCH  19  34
ATOM     34  C   LIG d   1       6.223  -0.384  -9.449  0.00  0.00    -0.022 C 
ATOM     35  H   LIG d   1       6.870   0.004  -8.648  0.00  0.00     0.028 H 
ATOM     36  H   LIG d   1       6.607  -0.051 -10.424  0.00  0.00     0.028 H 
ATOM     37  H   LIG d   1       6.218  -1.484  -9.414  0.00  0.00     0.028 H 
ENDBRANCH  19  34
ENDBRANCH  15  18
ENDBRANCH   1  15
BRANCH   2  38
ATOM     38  O   LIG d   1       3.622  -1.500  -4.596  0.00  0.00    -0.506 OA
ATOM     39  H   LIG d   1       3.018  -1.698  -3.698  0.00  0.00     0.292 HD
ENDBRANCH   2  38
BRANCH   9  40
ATOM     40  O   LIG d   1       9.930   2.830  -5.488  0.00  0.00    -0.449 OA
BRANCH  40  41
ATOM     41  C   LIG d   1       9.783   4.160  -5.714  0.00  0.00     0.129 A 
ATOM     42  C   LIG d   1       9.452   5.009  -4.665  0.00  0.00    -0.019 A 
ATOM     43  C   LIG d   1       9.301   6.359  -4.890  0.00  0.00    -0.044 A 
ATOM     44  H   LIG d   1       9.313   4.610  -3.672  0.00  0.00     0.065 H 
ATOM     45  C   LIG d   1       9.482   6.874  -6.178  0.00  0.00     0.059 A 
ATOM     46  H   LIG d   1       9.044   7.018  -4.075  0.00  0.00     0.063 H 
ATOM     47  C   LIG d   1       9.815   6.018  -7.230  0.00  0.00    -0.044 A 
ATOM     48  C   LIG d   1       9.969   4.670  -6.995  0.00  0.00    -0.019 A 
ATOM     49  H   LIG d   1       9.955   6.412  -8.226  0.00  0.00     0.063 H 
ATOM     50  H   LIG d   1      10.231   4.007  -7.807  0.00  0.00     0.065 H 
BRANCH  45  51
ATOM     51  C   LIG d   1       9.321   8.320  -6.425  0.00  0.00     0.339 C 
ATOM     52  O   LIG d   1       9.214   9.087  -5.488  0.00  0.00    -0.245 OA
BRANCH  51  53
ATOM     53  O   LIG d   1       9.291   8.788  -7.687  0.00  0.00    -0.465 OA
BRANCH  53  54
ATOM     54  C   LIG d   1      10.439   9.559  -8.131  0.00  0.00     0.082 C 
ATOM     55  H   LIG d   1      10.588  10.416  -7.458  0.00  0.00     0.066 H 
ATOM     56  H   LIG d   1      10.264   9.923  -9.155  0.00  0.00     0.066 H 
ATOM     57  H   LIG d   1      11.336   8.923  -8.117  0.00  0.00     0.066 H 
ENDBRANCH  53  54
ENDBRANCH  51  53
ENDBRANCH  45  51
ENDBRANCH  40  41
ENDBRANCH   9  40
TORSDOF 9
ENDMDL
MODEL 7
REMARK VINA RESULT:      -6.3      4.430      8.959
REMARK  9 active torsions:
REMARK  status: ('A' for Active; 'I' for Inactive)
REMARK    1  A    between atoms: C_1  and  C_2 
REMARK    2  A    between atoms: N_8  and  C_9 
REMARK    3  A    between atoms: C_9  and  C_10 
REMARK    4  A    between atoms: C_11  and  O_32 
REMARK    5  A    between atoms: C_18  and  O_21 
REMARK    6  A    between atoms: O_21  and  C_22 
REMARK    7  A    between atoms: C_25  and  C_28 
REMARK    8  A    between atoms: C_28  and  O_30 
REMARK    9  A    between atoms: O_30  and  C_31 
ROOT
ATOM      1  C   LIG d   1       6.979  -1.324  -5.286  0.00  0.00     0.081 A 
ATOM      2  C   LIG d   1       7.521  -2.576  -5.050  0.00  0.00     0.129 A 
ATOM      3  C   LIG d   1       8.898  -2.739  -4.914  0.00  0.00    -0.019 A 
ATOM      4  C   LIG d   1       9.734  -1.663  -5.013  0.00  0.00    -0.044 A 
ATOM      5  C   LIG d   1       9.203  -0.394  -5.249  0.00  0.00     0.068 A 
ATOM      6  C   LIG d   1       7.814  -0.222  -5.393  0.00  0.00     0.150 A 
ATOM      7  O   LIG d   1       7.314   1.008  -5.628  0.00  0.00    -0.458 OA
ATOM      8  C   LIG d   1       8.093   2.092  -5.737  0.00  0.00     0.139 A 
ATOM      9  C   LIG d   1       9.435   2.040  -5.621  0.00  0.00     0.210 A 
ATOM     10  C   LIG d   1      10.069   0.792  -5.361  0.00  0.00     0.234 A 
ATOM     11  O   LIG d   1      11.281   0.706  -5.250  0.00  0.00    -0.283 OA
ATOM     12  H   LIG d   1       9.307  -3.722  -4.731  0.00  0.00     0.065 H 
ATOM     13  H   LIG d   1      10.800  -1.793  -4.906  0.00  0.00     0.063 H 
ATOM     14  H   LIG d   1       7.626   3.047  -5.926  0.00  0.00     0.107 H 
ENDROOT
BRANCH   1  15
ATOM     15  C   LIG d   1       5.488  -1.160  -5.431  0.00  0.00     0.001 C 
ATOM     16  H   LIG d   1       4.990  -2.115  -5.204  0.00  0.00     0.087 H 
ATOM     17  H   LIG d   1       5.251  -0.859  -6.463  0.00  0.00     0.087 H 
BRANCH  15  18
ATOM     18  N   LIG d   1       5.015  -0.129  -4.499  0.00  0.00     0.241 N 
ATOM     19  C   LIG d   1       3.553  -0.005  -4.548  0.00  0.00    -0.023 C 
ATOM     20  H   LIG d   1       3.133  -0.948  -4.167  0.00  0.00     0.085 H 
ATOM     21  C   LIG d   1       3.109   1.172  -3.677  0.00  0.00    -0.010 C 
ATOM     22  C   LIG d   1       3.571   0.938  -2.236  0.00  0.00    -0.043 C 
ATOM     23  H   LIG d   1       3.556   2.102  -4.061  0.00  0.00     0.032 H 
ATOM     24  H   LIG d   1       2.012   1.256  -3.704  0.00  0.00     0.032 H 
ATOM     25  C   LIG d   1       5.093   0.764  -2.218  0.00  0.00    -0.012 C 
ATOM     26  H   LIG d   1       3.292   1.802  -1.616  0.00  0.00     0.027 H 
ATOM     27  H   LIG d   1       3.092   0.031  -1.840  0.00  0.00     0.027 H 
ATOM     28  C   LIG d   1       5.479  -0.401  -3.133  0.00  0.00    -0.031 C 
ATOM     29  H   LIG d   1       5.573   1.687  -2.575  0.00  0.00     0.032 H 
ATOM     30  H   LIG d   1       5.425   0.551  -1.191  0.00  0.00     0.032 H 
ATOM     31  H   LIG d   1       6.573  -0.519  -3.134  0.00  0.00     0.081 H 
ATOM     32  H   LIG d   1       5.011  -1.327  -2.766  0.00  0.00     0.081 H 
ATOM     33  H   LIG d   1       5.444   0.835  -4.813  0.00  0.00     0.204 HD
BRANCH  19  34
ATOM     34  C   LIG d   1       3.110   0.234  -5.993  0.00  0.00    -0.022 C 
ATOM     35  H   LIG d   1       3.993   0.248  -6.650  0.00  0.00     0.028 H 
ATOM     36  H   LIG d   1       2.587   1.200  -6.061  0.00  0.00     0.028 H 
ATOM     37  H   LIG d   1       2.431  -0.572  -6.308  0.00  0.00     0.028 H 
ENDBRANCH  19  34
ENDBRANCH  15  18
ENDBRANCH   1  15
BRANCH   2  38
ATOM     38  O   LIG d   1       6.703  -3.655  -4.951  0.00  0.00    -0.506 OA
ATOM     39  H   LIG d   1       6.044  -3.767  -4.077  0.00  0.00     0.292 HD
ENDBRANCH   2  38
BRANCH   9  40
ATOM     40  O   LIG d   1      10.177   3.174  -5.741  0.00  0.00    -0.449 OA
BRANCH  40  41
ATOM     41  C   LIG d   1      10.064   4.116  -4.771  0.00  0.00     0.129 A 
ATOM     42  C   LIG d   1       9.647   5.401  -5.097  0.00  0.00    -0.019 A 
ATOM     43  C   LIG d   1       9.531   6.360  -4.116  0.00  0.00    -0.044 A 
ATOM     44  H   LIG d   1       9.412   5.648  -6.121  0.00  0.00     0.065 H 
ATOM     45  C   LIG d   1       9.836   6.038  -2.789  0.00  0.00     0.059 A 
ATOM     46  H   LIG d   1       9.207   7.357  -4.370  0.00  0.00     0.063 H 
ATOM     47  C   LIG d   1      10.255   4.745  -2.465  0.00  0.00    -0.044 A 
ATOM     48  C   LIG d   1      10.362   3.791  -3.451  0.00  0.00    -0.019 A 
ATOM     49  H   LIG d   1      10.490   4.494  -1.441  0.00  0.00     0.063 H 
ATOM     50  H   LIG d   1      10.682   2.790  -3.202  0.00  0.00     0.065 H 
BRANCH  45  51
ATOM     51  C   LIG d   1       9.714   7.062  -1.734  0.00  0.00     0.339 C 
ATOM     52  O   LIG d   1       8.627   7.314  -1.254  0.00  0.00    -0.245 OA
BRANCH  51  53
ATOM     53  O   LIG d   1      10.810   7.718  -1.304  0.00  0.00    -0.465 OA
BRANCH  53  54
ATOM     54  C   LIG d   1      10.731   9.167  -1.250  0.00  0.00     0.082 C 
ATOM     55  H   LIG d   1      10.598   9.489  -0.207  0.00  0.00     0.066 H 
ATOM     56  H   LIG d   1       9.875   9.511  -1.851  0.00  0.00     0.066 H 
ATOM     57  H   LIG d   1      11.658   9.601  -1.653  0.00  0.00     0.066 H 
ENDBRANCH  53  54
ENDBRANCH  51  53
ENDBRANCH  45  51
ENDBRANCH  40  41
ENDBRANCH   9  40
TORSDOF 9
ENDMDL
MODEL 8
REMARK VINA RESULT:      -6.0      5.193      8.282
REMARK  9 active torsions:
REMARK  status: ('A' for Active; 'I' for Inactive)
REMARK    1  A    between atoms: C_1  and  C_2 
REMARK    2  A    between atoms: N_8  and  C_9 
REMARK    3  A    between atoms: C_9  and  C_10 
REMARK    4  A    between atoms: C_11  and  O_32 
REMARK    5  A    between atoms: C_18  and  O_21 
REMARK    6  A    between atoms: O_21  and  C_22 
REMARK    7  A    between atoms: C_25  and  C_28 
REMARK    8  A    between atoms: C_28  and  O_30 
REMARK    9  A    between atoms: O_30  and  C_31 
ROOT
ATOM      1  C   LIG d   1       4.795  -2.039  -6.965  0.00  0.00     0.081 A 
ATOM      2  C   LIG d   1       4.318  -1.367  -8.079  0.00  0.00     0.129 A 
ATOM      3  C   LIG d   1       3.645  -2.053  -9.086  0.00  0.00    -0.019 A 
ATOM      4  C   LIG d   1       3.445  -3.401  -8.990  0.00  0.00    -0.044 A 
ATOM      5  C   LIG d   1       3.919  -4.093  -7.873  0.00  0.00     0.068 A 
ATOM      6  C   LIG d   1       4.604  -3.408  -6.853  0.00  0.00     0.150 A 
ATOM      7  O   LIG d   1       5.063  -4.088  -5.783  0.00  0.00    -0.458 OA
ATOM      8  C   LIG d   1       4.896  -5.409  -5.647  0.00  0.00     0.139 A 
ATOM      9  C   LIG d   1       4.259  -6.163  -6.565  0.00  0.00     0.210 A 
ATOM     10  C   LIG d   1       3.724  -5.546  -7.731  0.00  0.00     0.234 A 
ATOM     11  O   LIG d   1       3.140  -6.195  -8.583  0.00  0.00    -0.283 OA
ATOM     12  H   LIG d   1       3.279  -1.517  -9.949  0.00  0.00     0.065 H 
ATOM     13  H   LIG d   1       2.923  -3.929  -9.773  0.00  0.00     0.063 H 
ATOM     14  H   LIG d   1       5.289  -5.892  -4.764  0.00  0.00     0.107 H 
ENDROOT
BRANCH   1  15
ATOM     15  C   LIG d   1       5.523  -1.285  -5.881  0.00  0.00     0.001 C 
ATOM     16  H   LIG d   1       5.689  -0.247  -6.204  0.00  0.00     0.087 H 
ATOM     17  H   LIG d   1       6.492  -1.768  -5.686  0.00  0.00     0.087 H 
BRANCH  15  18
ATOM     18  N   LIG d   1       4.716  -1.293  -4.654  0.00  0.00     0.241 N 
ATOM     19  C   LIG d   1       5.549  -1.020  -3.475  0.00  0.00    -0.023 C 
ATOM     20  H   LIG d   1       5.917   0.012  -3.568  0.00  0.00     0.085 H 
ATOM     21  C   LIG d   1       4.707  -1.179  -2.207  0.00  0.00    -0.010 C 
ATOM     22  C   LIG d   1       3.528  -0.204  -2.256  0.00  0.00    -0.043 C 
ATOM     23  H   LIG d   1       4.330  -2.211  -2.143  0.00  0.00     0.032 H 
ATOM     24  H   LIG d   1       5.328  -0.962  -1.325  0.00  0.00     0.032 H 
ATOM     25  C   LIG d   1       2.703  -0.476  -3.519  0.00  0.00    -0.012 C 
ATOM     26  H   LIG d   1       2.897  -0.345  -1.367  0.00  0.00     0.027 H 
ATOM     27  H   LIG d   1       3.906   0.829  -2.279  0.00  0.00     0.027 H 
ATOM     28  C   LIG d   1       3.604  -0.339  -4.749  0.00  0.00    -0.031 C 
ATOM     29  H   LIG d   1       2.291  -1.495  -3.475  0.00  0.00     0.032 H 
ATOM     30  H   LIG d   1       1.880   0.251  -3.582  0.00  0.00     0.032 H 
ATOM     31  H   LIG d   1       3.018  -0.549  -5.656  0.00  0.00     0.081 H 
ATOM     32  H   LIG d   1       4.003   0.685  -4.800  0.00  0.00     0.081 H 
ATOM     33  H   LIG d   1       4.286  -2.298  -4.535  0.00  0.00     0.204 HD
BRANCH  19  34
ATOM     34  C   LIG d   1       6.717  -2.007  -3.438  0.00  0.00    -0.022 C 
ATOM     35  H   LIG d   1       7.162  -2.011  -2.431  0.00  0.00     0.028 H 
ATOM     36  H   LIG d   1       7.477  -1.703  -4.174  0.00  0.00     0.028 H 
ATOM     37  H   LIG d   1       6.354  -3.016  -3.683  0.00  0.00     0.028 H 
ENDBRANCH  19  34
ENDBRANCH  15  18
ENDBRANCH   1  15
BRANCH   2  38
ATOM     38  O   LIG d   1       4.510  -0.027  -8.189  0.00  0.00    -0.506 OA
ATOM     39  H   LIG d   1       4.018   0.534  -8.997  0.00  0.00     0.292 HD
ENDBRANCH   2  38
BRANCH   9  40
ATOM     40  O   LIG d   1       4.118  -7.503  -6.373  0.00  0.00    -0.449 OA
BRANCH  40  41
ATOM     41  C   LIG d   1       5.068  -8.147  -5.650  0.00  0.00     0.129 A 
ATOM     42  C   LIG d   1       4.695  -8.992  -4.611  0.00  0.00    -0.019 A 
ATOM     43  C   LIG d   1       5.656  -9.647  -3.875  0.00  0.00    -0.044 A 
ATOM     44  H   LIG d   1       3.651  -9.136  -4.382  0.00  0.00     0.065 H 
ATOM     45  C   LIG d   1       7.010  -9.460  -4.174  0.00  0.00     0.059 A 
ATOM     46  H   LIG d   1       5.366 -10.303  -3.069  0.00  0.00     0.063 H 
ATOM     47  C   LIG d   1       7.381  -8.610  -5.218  0.00  0.00    -0.044 A 
ATOM     48  C   LIG d   1       6.414  -7.963  -5.953  0.00  0.00    -0.019 A 
ATOM     49  H   LIG d   1       8.426  -8.464  -5.452  0.00  0.00     0.063 H 
ATOM     50  H   LIG d   1       6.699  -7.309  -6.764  0.00  0.00     0.065 H 
BRANCH  45  51
ATOM     51  C   LIG d   1       8.043 -10.159  -3.387  0.00  0.00     0.339 C 
ATOM     52  O   LIG d   1       9.016  -9.551  -2.985  0.00  0.00    -0.245 OA
BRANCH  51  53
ATOM     53  O   LIG d   1       7.909 -11.472  -3.115  0.00  0.00    -0.465 OA
BRANCH  53  54
ATOM     54  C   LIG d   1       8.100 -12.396  -4.218  0.00  0.00     0.082 C 
ATOM     55  H   LIG d   1       7.677 -11.964  -5.137  0.00  0.00     0.066 H 
ATOM     56  H   LIG d   1       7.592 -13.347  -3.993  0.00  0.00     0.066 H 
ATOM     57  H   LIG d   1       9.174 -12.581  -4.362  0.00  0.00     0.066 H 
ENDBRANCH  53  54
ENDBRANCH  51  53
ENDBRANCH  45  51
ENDBRANCH  40  41
ENDBRANCH   9  40
TORSDOF 9
ENDMDL
MODEL 9
REMARK VINA RESULT:      -5.9      6.243      9.595
REMARK  9 active torsions:
REMARK  status: ('A' for Active; 'I' for Inactive)
REMARK    1  A    between atoms: C_1  and  C_2 
REMARK    2  A    between atoms: N_8  and  C_9 
REMARK    3  A    between atoms: C_9  and  C_10 
REMARK    4  A    between atoms: C_11  and  O_32 
REMARK    5  A    between atoms: C_18  and  O_21 
REMARK    6  A    between atoms: O_21  and  C_22 
REMARK    7  A    between atoms: C_25  and  C_28 
REMARK    8  A    between atoms: C_28  and  O_30 
REMARK    9  A    between atoms: O_30  and  C_31 
ROOT
ATOM      1  C   LIG d   1       8.773  -9.408  -3.471  0.00  0.00     0.081 A 
ATOM      2  C   LIG d   1       9.580  -9.721  -2.389  0.00  0.00     0.129 A 
ATOM      3  C   LIG d   1      10.243  -8.720  -1.685  0.00  0.00    -0.019 A 
ATOM      4  C   LIG d   1      10.107  -7.411  -2.053  0.00  0.00    -0.044 A 
ATOM      5  C   LIG d   1       9.297  -7.078  -3.140  0.00  0.00     0.068 A 
ATOM      6  C   LIG d   1       8.628  -8.085  -3.860  0.00  0.00     0.150 A 
ATOM      7  O   LIG d   1       7.855  -7.752  -4.913  0.00  0.00    -0.458 OA
ATOM      8  C   LIG d   1       7.695  -6.484  -5.314  0.00  0.00     0.139 A 
ATOM      9  C   LIG d   1       8.293  -5.443  -4.700  0.00  0.00     0.210 A 
ATOM     10  C   LIG d   1       9.124  -5.679  -3.569  0.00  0.00     0.234 A 
ATOM     11  O   LIG d   1       9.681  -4.764  -2.987  0.00  0.00    -0.283 OA
ATOM     12  H   LIG d   1      10.868  -8.979  -0.843  0.00  0.00     0.065 H 
ATOM     13  H   LIG d   1      10.622  -6.637  -1.504  0.00  0.00     0.063 H 
ATOM     14  H   LIG d   1       7.061  -6.287  -6.166  0.00  0.00     0.107 H 
ENDROOT
BRANCH   1  15
ATOM     15  C   LIG d   1       8.061 -10.501  -4.226  0.00  0.00     0.001 C 
ATOM     16  H   LIG d   1       8.317 -11.477  -3.786  0.00  0.00     0.087 H 
ATOM     17  H   LIG d   1       8.372 -10.481  -5.281  0.00  0.00     0.087 H 
BRANCH  15  18
ATOM     18  N   LIG d   1       6.610 -10.291  -4.139  0.00  0.00     0.241 N 
ATOM     19  C   LIG d   1       5.915 -10.953  -5.249  0.00  0.00    -0.023 C 
ATOM     20  H   LIG d   1       6.054 -12.037  -5.121  0.00  0.00     0.085 H 
ATOM     21  C   LIG d   1       4.428 -10.593  -5.210  0.00  0.00    -0.010 C 
ATOM     22  C   LIG d   1       3.834 -11.043  -3.872  0.00  0.00    -0.043 C 
ATOM     23  H   LIG d   1       4.311  -9.504  -5.318  0.00  0.00     0.032 H 
ATOM     24  H   LIG d   1       3.906 -11.101  -6.034  0.00  0.00     0.032 H 
ATOM     25  C   LIG d   1       4.607 -10.377  -2.729  0.00  0.00    -0.012 C 
ATOM     26  H   LIG d   1       2.776 -10.748  -3.822  0.00  0.00     0.027 H 
ATOM     27  H   LIG d   1       3.915 -12.136  -3.783  0.00  0.00     0.027 H 
ATOM     28  C   LIG d   1       6.090 -10.742  -2.842  0.00  0.00    -0.031 C 
ATOM     29  H   LIG d   1       4.490  -9.285  -2.795  0.00  0.00     0.032 H 
ATOM     30  H   LIG d   1       4.213 -10.731  -1.765  0.00  0.00     0.032 H 
ATOM     31  H   LIG d   1       6.650 -10.252  -2.032  0.00  0.00     0.081 H 
ATOM     32  H   LIG d   1       6.206 -11.833  -2.761  0.00  0.00     0.081 H 
ATOM     33  H   LIG d   1       6.418  -9.211  -4.220  0.00  0.00     0.204 HD
BRANCH  19  34
ATOM     34  C   LIG d   1       6.517 -10.488  -6.577  0.00  0.00    -0.022 C 
ATOM     35  H   LIG d   1       6.575  -9.389  -6.589  0.00  0.00     0.028 H 
ATOM     36  H   LIG d   1       5.882 -10.831  -7.407  0.00  0.00     0.028 H 
ATOM     37  H   LIG d   1       7.527 -10.910  -6.690  0.00  0.00     0.028 H 
ENDBRANCH  19  34
ENDBRANCH  15  18
ENDBRANCH   1  15
BRANCH   2  38
ATOM     38  O   LIG d   1       9.725 -11.018  -2.012  0.00  0.00    -0.506 OA
ATOM     39  H   LIG d   1       9.266 -11.374  -1.078  0.00  0.00     0.292 HD
ENDBRANCH   2  38
BRANCH   9  40
ATOM     40  O   LIG d   1       8.094  -4.176  -5.152  0.00  0.00    -0.449 OA
BRANCH  40  41
ATOM     41  C   LIG d   1       7.123  -3.434  -4.562  0.00  0.00     0.129 A 
ATOM     42  C   LIG d   1       7.468  -2.374  -3.730  0.00  0.00    -0.019 A 
ATOM     43  C   LIG d   1       6.486  -1.620  -3.130  0.00  0.00    -0.044 A 
ATOM     44  H   LIG d   1       8.507  -2.143  -3.556  0.00  0.00     0.065 H 
ATOM     45  C   LIG d   1       5.139  -1.921  -3.358  0.00  0.00     0.059 A 
ATOM     46  H   LIG d   1       6.754  -0.798  -2.484  0.00  0.00     0.063 H 
ATOM     47  C   LIG d   1       4.796  -2.986  -4.195  0.00  0.00    -0.044 A 
ATOM     48  C   LIG d   1       5.784  -3.733  -4.796  0.00  0.00    -0.019 A 
ATOM     49  H   LIG d   1       3.757  -3.221  -4.373  0.00  0.00     0.063 H 
ATOM     50  H   LIG d   1       5.521  -4.553  -5.446  0.00  0.00     0.065 H 
BRANCH  45  51
ATOM     51  C   LIG d   1       4.083  -1.115  -2.716  0.00  0.00     0.339 C 
ATOM     52  O   LIG d   1       4.313  -0.532  -1.674  0.00  0.00    -0.245 OA
BRANCH  51  53
ATOM     53  O   LIG d   1       2.865  -1.027  -3.284  0.00  0.00    -0.465 OA
BRANCH  53  54
ATOM     54  C   LIG d   1       2.629   0.105  -4.163  0.00  0.00     0.082 C 
ATOM     55  H   LIG d   1       2.967   1.029  -3.672  0.00  0.00     0.066 H 
ATOM     56  H   LIG d   1       1.553   0.180  -4.384  0.00  0.00     0.066 H 
ATOM     57  H   LIG d   1       3.186  -0.036  -5.101  0.00  0.00     0.066 H 
ENDBRANCH  53  54
ENDBRANCH  51  53
ENDBRANCH  45  51
ENDBRANCH  40  41
ENDBRANCH   9  40
TORSDOF 9
ENDMDL
MODEL 10
REMARK VINA RESULT:      -5.9      2.184      4.080
REMARK  9 active torsions:
REMARK  status: ('A' for Active; 'I' for Inactive)
REMARK    1  A    between atoms: C_1  and  C_2 
REMARK    2  A    between atoms: N_8  and  C_9 
REMARK    3  A    between atoms: C_9  and  C_10 
REMARK    4  A    between atoms: C_11  and  O_32 
REMARK    5  A    between atoms: C_18  and  O_21 
REMARK    6  A    between atoms: O_21  and  C_22 
REMARK    7  A    between atoms: C_25  and  C_28 
REMARK    8  A    between atoms: C_28  and  O_30 
REMARK    9  A    between atoms: O_30  and  C_31 
ROOT
ATOM      1  C   LIG d   1       4.808  -1.634  -4.229  0.00  0.00     0.081 A 
ATOM      2  C   LIG d   1       4.048  -1.326  -3.112  0.00  0.00     0.129 A 
ATOM      3  C   LIG d   1       3.037  -0.371  -3.184  0.00  0.00    -0.019 A 
ATOM      4  C   LIG d   1       2.781   0.276  -4.360  0.00  0.00    -0.044 A 
ATOM      5  C   LIG d   1       3.537  -0.024  -5.494  0.00  0.00     0.068 A 
ATOM      6  C   LIG d   1       4.563  -0.983  -5.429  0.00  0.00     0.150 A 
ATOM      7  O   LIG d   1       5.291  -1.260  -6.529  0.00  0.00    -0.458 OA
ATOM      8  C   LIG d   1       5.080  -0.648  -7.702  0.00  0.00     0.139 A 
ATOM      9  C   LIG d   1       4.127   0.289  -7.875  0.00  0.00     0.210 A 
ATOM     10  C   LIG d   1       3.291   0.651  -6.781  0.00  0.00     0.234 A 
ATOM     11  O   LIG d   1       2.418   1.494  -6.899  0.00  0.00    -0.283 OA
ATOM     12  H   LIG d   1       2.453  -0.140  -2.305  0.00  0.00     0.065 H 
ATOM     13  H   LIG d   1       1.996   1.016  -4.411  0.00  0.00     0.063 H 
ATOM     14  H   LIG d   1       5.700  -0.917  -8.544  0.00  0.00     0.107 H 
ENDROOT
BRANCH   1  15
ATOM     15  C   LIG d   1       5.900  -2.670  -4.139  0.00  0.00     0.001 C 
ATOM     16  H   LIG d   1       5.850  -3.171  -3.161  0.00  0.00     0.087 H 
ATOM     17  H   LIG d   1       6.879  -2.180  -4.251  0.00  0.00     0.087 H 
BRANCH  15  18
ATOM     18  N   LIG d   1       5.723  -3.662  -5.207  0.00  0.00     0.241 N 
ATOM     19  C   LIG d   1       6.959  -4.423  -5.427  0.00  0.00    -0.023 C 
ATOM     20  H   LIG d   1       7.145  -5.013  -4.518  0.00  0.00     0.085 H 
ATOM     21  C   LIG d   1       6.785  -5.342  -6.639  0.00  0.00    -0.010 C 
ATOM     22  C   LIG d   1       5.615  -6.296  -6.386  0.00  0.00    -0.043 C 
ATOM     23  H   LIG d   1       6.578  -4.735  -7.534  0.00  0.00     0.032 H 
ATOM     24  H   LIG d   1       7.707  -5.922  -6.795  0.00  0.00     0.032 H 
ATOM     25  C   LIG d   1       4.349  -5.479  -6.110  0.00  0.00    -0.012 C 
ATOM     26  H   LIG d   1       5.459  -6.930  -7.271  0.00  0.00     0.027 H 
ATOM     27  H   LIG d   1       5.841  -6.931  -5.515  0.00  0.00     0.027 H 
ATOM     28  C   LIG d   1       4.595  -4.555  -4.914  0.00  0.00    -0.031 C 
ATOM     29  H   LIG d   1       4.100  -4.877  -6.996  0.00  0.00     0.032 H 
ATOM     30  H   LIG d   1       3.515  -6.160  -5.883  0.00  0.00     0.032 H 
ATOM     31  H   LIG d   1       3.693  -3.955  -4.723  0.00  0.00     0.081 H 
ATOM     32  H   LIG d   1       4.828  -5.159  -4.025  0.00  0.00     0.081 H 
ATOM     33  H   LIG d   1       5.491  -3.122  -6.137  0.00  0.00     0.204 HD
BRANCH  19  34
ATOM     34  C   LIG d   1       8.115  -3.454  -5.685  0.00  0.00    -0.022 C 
ATOM     35  H   LIG d   1       8.148  -2.700  -4.884  0.00  0.00     0.028 H 
ATOM     36  H   LIG d   1       7.965  -2.954  -6.653  0.00  0.00     0.028 H 
ATOM     37  H   LIG d   1       9.064  -4.011  -5.703  0.00  0.00     0.028 H 
ENDBRANCH  19  34
ENDBRANCH  15  18
ENDBRANCH   1  15
BRANCH   2  38
ATOM     38  O   LIG d   1       4.293  -1.960  -1.937  0.00  0.00    -0.506 OA
ATOM     39  H   LIG d   1       5.092  -1.599  -1.273  0.00  0.00     0.292 HD
ENDBRANCH   2  38
BRANCH   9  40
ATOM     40  O   LIG d   1       3.957   0.877  -9.090  0.00  0.00    -0.449 OA
BRANCH  40  41
ATOM     41  C   LIG d   1       3.287   0.186 -10.045  0.00  0.00     0.129 A 
ATOM     42  C   LIG d   1       3.910  -0.111 -11.253  0.00  0.00    -0.019 A 
ATOM     43  C   LIG d   1       3.234  -0.812 -12.225  0.00  0.00    -0.044 A 
ATOM     44  H   LIG d   1       4.926   0.208 -11.427  0.00  0.00     0.065 H 
ATOM     45  C   LIG d   1       1.917  -1.225 -11.997  0.00  0.00     0.059 A 
ATOM     46  H   LIG d   1       3.718  -1.042 -13.162  0.00  0.00     0.063 H 
ATOM     47  C   LIG d   1       1.294  -0.925 -10.783  0.00  0.00    -0.044 A 
ATOM     48  C   LIG d   1       1.979  -0.228  -9.813  0.00  0.00    -0.019 A 
ATOM     49  H   LIG d   1       0.277  -1.242 -10.603  0.00  0.00     0.063 H 
ATOM     50  H   LIG d   1       1.501   0.001  -8.873  0.00  0.00     0.065 H 
BRANCH  45  51
ATOM     51  C   LIG d   1       1.187  -1.976 -13.036  0.00  0.00     0.339 C 
ATOM     52  O   LIG d   1       1.802  -2.607 -13.873  0.00  0.00    -0.245 OA
BRANCH  51  53
ATOM     53  O   LIG d   1      -0.160  -1.961 -13.057  0.00  0.00    -0.465 OA
BRANCH  53  54
ATOM     54  C   LIG d   1      -0.835  -3.235 -12.885  0.00  0.00     0.082 C 
ATOM     55  H   LIG d   1      -0.526  -3.925 -13.684  0.00  0.00     0.066 H 
ATOM     56  H   LIG d   1      -1.924  -3.083 -12.933  0.00  0.00     0.066 H 
ATOM     57  H   LIG d   1      -0.568  -3.664 -11.908  0.00  0.00     0.066 H 
ENDBRANCH  53  54
ENDBRANCH  51  53
ENDBRANCH  45  51
ENDBRANCH  40  41
ENDBRANCH   9  40
TORSDOF 9
ENDMDL
