MODEL 1
REMARK VINA RESULT:      -5.6      0.000      0.000
REMARK  11 active torsions:
REMARK  status: ('A' for Active; 'I' for Inactive)
REMARK    1  A    between atoms: C_1  and  O_2 
REMARK    2  A    between atoms: O_2  and  C_3 
REMARK    3  A    between atoms: C_6  and  C_11 
REMARK    4  A    between atoms: C_8  and  O_9 
REMARK    5  A    between atoms: O_9  and  C_10 
REMARK    6  A    between atoms: C_12  and  O_26 
REMARK    7  A    between atoms: C_16  and  O_25 
REMARK    8  A    between atoms: C_18  and  O_23 
REMARK    9  A    between atoms: C_19  and  O_22 
REMARK   10  A    between atoms: O_23  and  C_24 
REMARK   11  A    between atoms: O_26  and  C_27 
ROOT
ATOM      1  C   LIG d   1       3.636  -0.442  -7.965  0.00  0.00     0.181 A 
ATOM      2  C   LIG d   1       4.544   0.340  -8.615  0.00  0.00     0.211 A 
ATOM      3  C   LIG d   1       4.570   0.345 -10.034  0.00  0.00     0.238 A 
ATOM      4  O   LIG d   1       5.367   1.034 -10.651  0.00  0.00    -0.283 OA
ATOM      5  C   LIG d   1       3.598  -0.510 -10.733  0.00  0.00     0.113 A 
ATOM      6  C   LIG d   1       3.553  -0.566 -12.132  0.00  0.00     0.135 A 
ATOM      7  C   LIG d   1       2.629  -1.386 -12.753  0.00  0.00     0.026 A 
ATOM      8  C   LIG d   1       1.742  -2.142 -11.994  0.00  0.00     0.169 A 
ATOM      9  C   LIG d   1       1.779  -2.093 -10.607  0.00  0.00     0.203 A 
ATOM     10  C   LIG d   1       2.705  -1.279  -9.965  0.00  0.00     0.188 A 
ATOM     11  O   LIG d   1       2.755  -1.219  -8.617  0.00  0.00    -0.447 OA
ATOM     12  H   LIG d   1       2.593  -1.436 -13.831  0.00  0.00     0.069 H 
ENDROOT
BRANCH   1  13
ATOM     13  C   LIG d   1       3.623  -0.436  -6.491  0.00  0.00     0.025 A 
ATOM     14  C   LIG d   1       2.799   0.457  -5.801  0.00  0.00    -0.047 A 
ATOM     15  C   LIG d   1       2.788   0.460  -4.422  0.00  0.00    -0.016 A 
ATOM     16  H   LIG d   1       2.172   1.146  -6.347  0.00  0.00     0.063 H 
ATOM     17  C   LIG d   1       3.594  -0.422  -3.717  0.00  0.00     0.162 A 
ATOM     18  H   LIG d   1       2.151   1.152  -3.890  0.00  0.00     0.066 H 
ATOM     19  C   LIG d   1       4.417  -1.316  -4.397  0.00  0.00     0.162 A 
ATOM     20  C   LIG d   1       4.430  -1.329  -5.779  0.00  0.00    -0.005 A 
ATOM     21  H   LIG d   1       5.064  -2.025  -6.308  0.00  0.00     0.066 H 
BRANCH  17  22
ATOM     22  O   LIG d   1       3.578  -0.415  -2.358  0.00  0.00    -0.491 OA
BRANCH  22  23
ATOM     23  C   LIG d   1       4.373   0.576  -1.705  0.00  0.00     0.079 C 
ATOM     24  H   LIG d   1       5.374   0.182  -1.530  0.00  0.00     0.066 H 
ATOM     25  H   LIG d   1       4.436   1.464  -2.333  0.00  0.00     0.066 H 
ATOM     26  H   LIG d   1       3.915   0.838  -0.750  0.00  0.00     0.066 H 
ENDBRANCH  22  23
ENDBRANCH  17  22
BRANCH  19  27
ATOM     27  O   LIG d   1       5.205  -2.180  -3.702  0.00  0.00    -0.491 OA
BRANCH  27  28
ATOM     28  C   LIG d   1       6.585  -1.837  -3.569  0.00  0.00     0.079 C 
ATOM     29  H   LIG d   1       7.071  -2.536  -2.890  0.00  0.00     0.066 H 
ATOM     30  H   LIG d   1       7.067  -1.886  -4.546  0.00  0.00     0.066 H 
ATOM     31  H   LIG d   1       6.672  -0.826  -3.172  0.00  0.00     0.066 H 
ENDBRANCH  27  28
ENDBRANCH  19  27
ENDBRANCH   1  13
BRANCH   2  32
ATOM     32  O   LIG d   1       5.416   1.110  -7.911  0.00  0.00    -0.488 OA
BRANCH  32  33
ATOM     33  C   LIG d   1       6.759   0.634  -7.800  0.00  0.00     0.079 C 
ATOM     34  H   LIG d   1       6.793  -0.199  -7.098  0.00  0.00     0.066 H 
ATOM     35  H   LIG d   1       7.108   0.301  -8.777  0.00  0.00     0.066 H 
ATOM     36  H   LIG d   1       7.401   1.439  -7.441  0.00  0.00     0.066 H 
ENDBRANCH  32  33
ENDBRANCH   2  32
BRANCH   9  37
ATOM     37  O   LIG d   1       0.909  -2.842  -9.875  0.00  0.00    -0.501 OA
ATOM     38  H   LIG d   1       0.349  -3.425 -10.407  0.00  0.00     0.292 HD
ENDBRANCH   9  37
BRANCH   6  39
ATOM     39  O   LIG d   1       4.416   0.176 -12.874  0.00  0.00    -0.506 OA
ATOM     40  H   LIG d   1       4.580   1.059 -12.519  0.00  0.00     0.292 HD
ENDBRANCH   6  39
BRANCH   8  41
ATOM     41  O   LIG d   1       0.836  -2.940 -12.615  0.00  0.00    -0.491 OA
BRANCH  41  42
ATOM     42  C   LIG d   1      -0.256  -2.292 -13.274  0.00  0.00     0.079 C 
ATOM     43  H   LIG d   1      -1.170  -2.452 -12.703  0.00  0.00     0.066 H 
ATOM     44  H   LIG d   1      -0.375  -2.709 -14.274  0.00  0.00     0.066 H 
ATOM     45  H   LIG d   1      -0.054  -1.224 -13.346  0.00  0.00     0.066 H 
ENDBRANCH  41  42
ENDBRANCH   8  41
TORSDOF 11
ENDMDL
MODEL 2
REMARK VINA RESULT:      -5.4      6.143      8.555
REMARK  11 active torsions:
REMARK  status: ('A' for Active; 'I' for Inactive)
REMARK    1  A    between atoms: C_1  and  O_2 
REMARK    2  A    between atoms: O_2  and  C_3 
REMARK    3  A    between atoms: C_6  and  C_11 
REMARK    4  A    between atoms: C_8  and  O_9 
REMARK    5  A    between atoms: O_9  and  C_10 
REMARK    6  A    between atoms: C_12  and  O_26 
REMARK    7  A    between atoms: C_16  and  O_25 
REMARK    8  A    between atoms: C_18  and  O_23 
REMARK    9  A    between atoms: C_19  and  O_22 
REMARK   10  A    between atoms: O_23  and  C_24 
REMARK   11  A    between atoms: O_26  and  C_27 
ROOT
ATOM      1  C   LIG d   1       8.697   2.028  -4.058  0.00  0.00     0.181 A 
ATOM      2  C   LIG d   1       9.328   1.077  -4.802  0.00  0.00     0.211 A 
ATOM      3  C   LIG d   1       8.741  -0.207  -4.937  0.00  0.00     0.238 A 
ATOM      4  O   LIG d   1       9.277  -1.083  -5.597  0.00  0.00    -0.283 OA
ATOM      5  C   LIG d   1       7.461  -0.442  -4.252  0.00  0.00     0.113 A 
ATOM      6  C   LIG d   1       6.810  -1.680  -4.330  0.00  0.00     0.135 A 
ATOM      7  C   LIG d   1       5.611  -1.865  -3.668  0.00  0.00     0.026 A 
ATOM      8  C   LIG d   1       5.047  -0.825  -2.937  0.00  0.00     0.169 A 
ATOM      9  C   LIG d   1       5.685   0.406  -2.853  0.00  0.00     0.203 A 
ATOM     10  C   LIG d   1       6.894   0.608  -3.508  0.00  0.00     0.188 A 
ATOM     11  O   LIG d   1       7.527   1.799  -3.437  0.00  0.00    -0.447 OA
ATOM     12  H   LIG d   1       5.107  -2.819  -3.722  0.00  0.00     0.069 H 
ENDROOT
BRANCH   1  13
ATOM     13  C   LIG d   1       9.321   3.358  -3.928  0.00  0.00     0.025 A 
ATOM     14  C   LIG d   1       9.168   4.306  -4.943  0.00  0.00    -0.047 A 
ATOM     15  C   LIG d   1       9.752   5.548  -4.819  0.00  0.00    -0.016 A 
ATOM     16  H   LIG d   1       8.593   4.065  -5.825  0.00  0.00     0.063 H 
ATOM     17  C   LIG d   1      10.492   5.861  -3.687  0.00  0.00     0.162 A 
ATOM     18  H   LIG d   1       9.634   6.280  -5.605  0.00  0.00     0.066 H 
ATOM     19  C   LIG d   1      10.648   4.921  -2.671  0.00  0.00     0.162 A 
ATOM     20  C   LIG d   1      10.061   3.675  -2.786  0.00  0.00    -0.005 A 
ATOM     21  H   LIG d   1      10.178   2.948  -1.996  0.00  0.00     0.066 H 
BRANCH  17  22
ATOM     22  O   LIG d   1      11.065   7.087  -3.571  0.00  0.00    -0.491 OA
BRANCH  22  23
ATOM     23  C   LIG d   1      10.188   8.198  -3.374  0.00  0.00     0.079 C 
ATOM     24  H   LIG d   1      10.683   8.948  -2.759  0.00  0.00     0.066 H 
ATOM     25  H   LIG d   1       9.929   8.633  -4.340  0.00  0.00     0.066 H 
ATOM     26  H   LIG d   1       9.280   7.860  -2.874  0.00  0.00     0.066 H 
ENDBRANCH  22  23
ENDBRANCH  17  22
BRANCH  19  27
ATOM     27  O   LIG d   1      11.374   5.232  -1.563  0.00  0.00    -0.491 OA
BRANCH  27  28
ATOM     28  C   LIG d   1      10.668   5.820  -0.469  0.00  0.00     0.079 C 
ATOM     29  H   LIG d   1      11.364   6.031   0.343  0.00  0.00     0.066 H 
ATOM     30  H   LIG d   1      10.201   6.750  -0.796  0.00  0.00     0.066 H 
ATOM     31  H   LIG d   1       9.900   5.132  -0.118  0.00  0.00     0.066 H 
ENDBRANCH  27  28
ENDBRANCH  19  27
ENDBRANCH   1  13
BRANCH   2  32
ATOM     32  O   LIG d   1      10.511   1.358  -5.412  0.00  0.00    -0.488 OA
BRANCH  32  33
ATOM     33  C   LIG d   1      11.702   0.934  -4.746  0.00  0.00     0.079 C 
ATOM     34  H   LIG d   1      12.055   0.003  -5.190  0.00  0.00     0.066 H 
ATOM     35  H   LIG d   1      12.469   1.701  -4.849  0.00  0.00     0.066 H 
ATOM     36  H   LIG d   1      11.489   0.774  -3.688  0.00  0.00     0.066 H 
ENDBRANCH  32  33
ENDBRANCH   2  32
BRANCH   9  37
ATOM     37  O   LIG d   1       5.125   1.415  -2.130  0.00  0.00    -0.501 OA
ATOM     38  H   LIG d   1       4.280   1.730  -2.482  0.00  0.00     0.292 HD
ENDBRANCH   9  37
BRANCH   6  39
ATOM     39  O   LIG d   1       7.358  -2.696  -5.048  0.00  0.00    -0.506 OA
ATOM     40  H   LIG d   1       8.319  -2.646  -5.128  0.00  0.00     0.292 HD
ENDBRANCH   6  39
BRANCH   8  41
ATOM     41  O   LIG d   1       3.867  -1.017  -2.295  0.00  0.00    -0.491 OA
BRANCH  41  42
ATOM     42  C   LIG d   1       2.673  -0.835  -3.062  0.00  0.00     0.079 C 
ATOM     43  H   LIG d   1       2.670   0.163  -3.498  0.00  0.00     0.066 H 
ATOM     44  H   LIG d   1       1.805  -0.951  -2.414  0.00  0.00     0.066 H 
ATOM     45  H   LIG d   1       2.636  -1.580  -3.857  0.00  0.00     0.066 H 
ENDBRANCH  41  42
ENDBRANCH   8  41
TORSDOF 11
ENDMDL
MODEL 3
REMARK VINA RESULT:      -5.1      6.945      9.712
REMARK  11 active torsions:
REMARK  status: ('A' for Active; 'I' for Inactive)
REMARK    1  A    between atoms: C_1  and  O_2 
REMARK    2  A    between atoms: O_2  and  C_3 
REMARK    3  A    between atoms: C_6  and  C_11 
REMARK    4  A    between atoms: C_8  and  O_9 
REMARK    5  A    between atoms: O_9  and  C_10 
REMARK    6  A    between atoms: C_12  and  O_26 
REMARK    7  A    between atoms: C_16  and  O_25 
REMARK    8  A    between atoms: C_18  and  O_23 
REMARK    9  A    between atoms: C_19  and  O_22 
REMARK   10  A    between atoms: O_23  and  C_24 
REMARK   11  A    between atoms: O_26  and  C_27 
ROOT
ATOM      1  C   LIG d   1       9.973   3.916  -3.484  0.00  0.00     0.181 A 
ATOM      2  C   LIG d   1      11.096   3.465  -4.111  0.00  0.00     0.211 A 
ATOM      3  C   LIG d   1      11.091   2.179  -4.710  0.00  0.00     0.238 A 
ATOM      4  O   LIG d   1      12.078   1.742  -5.282  0.00  0.00    -0.283 OA
ATOM      5  C   LIG d   1       9.852   1.392  -4.617  0.00  0.00     0.113 A 
ATOM      6  C   LIG d   1       9.758   0.113  -5.180  0.00  0.00     0.135 A 
ATOM      7  C   LIG d   1       8.578  -0.598  -5.067  0.00  0.00     0.026 A 
ATOM      8  C   LIG d   1       7.486  -0.043  -4.409  0.00  0.00     0.169 A 
ATOM      9  C   LIG d   1       7.569   1.225  -3.848  0.00  0.00     0.203 A 
ATOM     10  C   LIG d   1       8.750   1.952  -3.946  0.00  0.00     0.188 A 
ATOM     11  O   LIG d   1       8.847   3.185  -3.406  0.00  0.00    -0.447 OA
ATOM     12  H   LIG d   1       8.502  -1.587  -5.496  0.00  0.00     0.069 H 
ENDROOT
BRANCH   1  13
ATOM     13  C   LIG d   1       9.995   5.255  -2.866  0.00  0.00     0.025 A 
ATOM     14  C   LIG d   1       9.793   6.393  -3.653  0.00  0.00    -0.047 A 
ATOM     15  C   LIG d   1       9.814   7.643  -3.073  0.00  0.00    -0.016 A 
ATOM     16  H   LIG d   1       9.623   6.292  -4.714  0.00  0.00     0.063 H 
ATOM     17  C   LIG d   1      10.034   7.775  -1.709  0.00  0.00     0.162 A 
ATOM     18  H   LIG d   1       9.659   8.522  -3.682  0.00  0.00     0.066 H 
ATOM     19  C   LIG d   1      10.235   6.646  -0.919  0.00  0.00     0.162 A 
ATOM     20  C   LIG d   1      10.210   5.388  -1.492  0.00  0.00    -0.005 A 
ATOM     21  H   LIG d   1      10.361   4.512  -0.879  0.00  0.00     0.066 H 
BRANCH  17  22
ATOM     22  O   LIG d   1      10.052   9.011  -1.143  0.00  0.00    -0.491 OA
BRANCH  22  23
ATOM     23  C   LIG d   1       8.790   9.590  -0.808  0.00  0.00     0.079 C 
ATOM     24  H   LIG d   1       8.850  10.048   0.179  0.00  0.00     0.066 H 
ATOM     25  H   LIG d   1       8.531  10.350  -1.546  0.00  0.00     0.066 H 
ATOM     26  H   LIG d   1       8.024   8.815  -0.802  0.00  0.00     0.066 H 
ENDBRANCH  22  23
ENDBRANCH  17  22
BRANCH  19  27
ATOM     27  O   LIG d   1      10.449   6.780   0.418  0.00  0.00    -0.491 OA
BRANCH  27  28
ATOM     28  C   LIG d   1      11.185   5.740   1.065  0.00  0.00     0.079 C 
ATOM     29  H   LIG d   1      10.591   5.326   1.879  0.00  0.00     0.066 H 
ATOM     30  H   LIG d   1      11.411   4.953   0.344  0.00  0.00     0.066 H 
ATOM     31  H   LIG d   1      12.115   6.145   1.463  0.00  0.00     0.066 H 
ENDBRANCH  27  28
ENDBRANCH  19  27
ENDBRANCH   1  13
BRANCH   2  32
ATOM     32  O   LIG d   1      12.211   4.242  -4.163  0.00  0.00    -0.488 OA
BRANCH  32  33
ATOM     33  C   LIG d   1      13.237   3.970  -3.206  0.00  0.00     0.079 C 
ATOM     34  H   LIG d   1      14.076   4.646  -3.372  0.00  0.00     0.066 H 
ATOM     35  H   LIG d   1      12.844   4.116  -2.201  0.00  0.00     0.066 H 
ATOM     36  H   LIG d   1      13.574   2.939  -3.318  0.00  0.00     0.066 H 
ENDBRANCH  32  33
ENDBRANCH   2  32
BRANCH   9  37
ATOM     37  O   LIG d   1       6.495   1.755  -3.202  0.00  0.00    -0.501 OA
ATOM     38  H   LIG d   1       5.752   1.969  -3.783  0.00  0.00     0.292 HD
ENDBRANCH   9  37
BRANCH   6  39
ATOM     39  O   LIG d   1      10.823  -0.428  -5.827  0.00  0.00    -0.506 OA
ATOM     40  H   LIG d   1      11.644   0.068  -5.716  0.00  0.00     0.292 HD
ENDBRANCH   6  39
BRANCH   8  41
ATOM     41  O   LIG d   1       6.331  -0.749  -4.309  0.00  0.00    -0.491 OA
BRANCH  41  42
ATOM     42  C   LIG d   1       6.345  -1.901  -3.463  0.00  0.00     0.079 C 
ATOM     43  H   LIG d   1       7.338  -2.349  -3.476  0.00  0.00     0.066 H 
ATOM     44  H   LIG d   1       5.615  -2.625  -3.824  0.00  0.00     0.066 H 
ATOM     45  H   LIG d   1       6.092  -1.607  -2.444  0.00  0.00     0.066 H 
ENDBRANCH  41  42
ENDBRANCH   8  41
TORSDOF 11
ENDMDL
MODEL 4
REMARK VINA RESULT:      -5.1      7.737     12.109
REMARK  11 active torsions:
REMARK  status: ('A' for Active; 'I' for Inactive)
REMARK    1  A    between atoms: C_1  and  O_2 
REMARK    2  A    between atoms: O_2  and  C_3 
REMARK    3  A    between atoms: C_6  and  C_11 
REMARK    4  A    between atoms: C_8  and  O_9 
REMARK    5  A    between atoms: O_9  and  C_10 
REMARK    6  A    between atoms: C_12  and  O_26 
REMARK    7  A    between atoms: C_16  and  O_25 
REMARK    8  A    between atoms: C_18  and  O_23 
REMARK    9  A    between atoms: C_19  and  O_22 
REMARK   10  A    between atoms: O_23  and  C_24 
REMARK   11  A    between atoms: O_26  and  C_27 
ROOT
ATOM      1  C   LIG d   1       9.890   4.651  -3.255  0.00  0.00     0.181 A 
ATOM      2  C   LIG d   1       9.716   5.712  -4.093  0.00  0.00     0.211 A 
ATOM      3  C   LIG d   1       9.918   7.029  -3.603  0.00  0.00     0.238 A 
ATOM      4  O   LIG d   1       9.772   8.003  -4.324  0.00  0.00    -0.283 OA
ATOM      5  C   LIG d   1      10.309   7.174  -2.192  0.00  0.00     0.113 A 
ATOM      6  C   LIG d   1      10.528   8.436  -1.625  0.00  0.00     0.135 A 
ATOM      7  C   LIG d   1      10.890   8.532  -0.294  0.00  0.00     0.026 A 
ATOM      8  C   LIG d   1      11.046   7.384   0.474  0.00  0.00     0.169 A 
ATOM      9  C   LIG d   1      10.831   6.129  -0.079  0.00  0.00     0.203 A 
ATOM     10  C   LIG d   1      10.461   6.012  -1.414  0.00  0.00     0.188 A 
ATOM     11  O   LIG d   1      10.248   4.800  -1.968  0.00  0.00    -0.447 OA
ATOM     12  H   LIG d   1      11.056   9.503   0.150  0.00  0.00     0.069 H 
ENDROOT
BRANCH   1  13
ATOM     13  C   LIG d   1       9.677   3.290  -3.780  0.00  0.00     0.025 A 
ATOM     14  C   LIG d   1      10.771   2.501  -4.147  0.00  0.00    -0.047 A 
ATOM     15  C   LIG d   1      10.569   1.229  -4.638  0.00  0.00    -0.016 A 
ATOM     16  H   LIG d   1      11.774   2.888  -4.047  0.00  0.00     0.063 H 
ATOM     17  C   LIG d   1       9.281   0.729  -4.768  0.00  0.00     0.162 A 
ATOM     18  H   LIG d   1      11.415   0.620  -4.922  0.00  0.00     0.066 H 
ATOM     19  C   LIG d   1       8.186   1.509  -4.404  0.00  0.00     0.162 A 
ATOM     20  C   LIG d   1       8.381   2.784  -3.907  0.00  0.00    -0.005 A 
ATOM     21  H   LIG d   1       7.532   3.388  -3.620  0.00  0.00     0.066 H 
BRANCH  17  22
ATOM     22  O   LIG d   1       9.088  -0.527  -5.252  0.00  0.00    -0.491 OA
BRANCH  22  23
ATOM     23  C   LIG d   1      10.250  -1.337  -5.437  0.00  0.00     0.079 C 
ATOM     24  H   LIG d   1      10.542  -1.778  -4.484  0.00  0.00     0.066 H 
ATOM     25  H   LIG d   1      10.031  -2.129  -6.152  0.00  0.00     0.066 H 
ATOM     26  H   LIG d   1      11.066  -0.721  -5.816  0.00  0.00     0.066 H 
ENDBRANCH  22  23
ENDBRANCH  17  22
BRANCH  19  27
ATOM     27  O   LIG d   1       6.925   1.014  -4.533  0.00  0.00    -0.491 OA
BRANCH  27  28
ATOM     28  C   LIG d   1       6.254   0.625  -3.333  0.00  0.00     0.079 C 
ATOM     29  H   LIG d   1       5.177   0.670  -3.487  0.00  0.00     0.066 H 
ATOM     30  H   LIG d   1       6.541  -0.394  -3.071  0.00  0.00     0.066 H 
ATOM     31  H   LIG d   1       6.534   1.301  -2.525  0.00  0.00     0.066 H 
ENDBRANCH  27  28
ENDBRANCH  19  27
ENDBRANCH   1  13
BRANCH   2  32
ATOM     32  O   LIG d   1       9.354   5.511  -5.389  0.00  0.00    -0.488 OA
BRANCH  32  33
ATOM     33  C   LIG d   1      10.402   5.499  -6.361  0.00  0.00     0.079 C 
ATOM     34  H   LIG d   1      10.083   4.924  -7.230  0.00  0.00     0.066 H 
ATOM     35  H   LIG d   1      10.628   6.521  -6.663  0.00  0.00     0.066 H 
ATOM     36  H   LIG d   1      11.292   5.042  -5.929  0.00  0.00     0.066 H 
ENDBRANCH  32  33
ENDBRANCH   2  32
BRANCH   9  37
ATOM     37  O   LIG d   1      10.982   5.012   0.685  0.00  0.00    -0.501 OA
ATOM     38  H   LIG d   1      10.375   4.965   1.438  0.00  0.00     0.292 HD
ENDBRANCH   9  37
BRANCH   6  39
ATOM     39  O   LIG d   1      10.381   9.558  -2.376  0.00  0.00    -0.506 OA
ATOM     40  H   LIG d   1      10.227   9.385  -3.314  0.00  0.00     0.292 HD
ENDBRANCH   6  39
BRANCH   8  41
ATOM     41  O   LIG d   1      11.406   7.491   1.779  0.00  0.00    -0.491 OA
BRANCH  41  42
ATOM     42  C   LIG d   1      11.756   8.795   2.251  0.00  0.00     0.079 C 
ATOM     43  H   LIG d   1      11.304   8.960   3.229  0.00  0.00     0.066 H 
ATOM     44  H   LIG d   1      11.389   9.545   1.550  0.00  0.00     0.066 H 
ATOM     45  H   LIG d   1      12.840   8.873   2.333  0.00  0.00     0.066 H 
ENDBRANCH  41  42
ENDBRANCH   8  41
TORSDOF 11
ENDMDL
MODEL 5
REMARK VINA RESULT:      -4.9      4.413      7.487
REMARK  11 active torsions:
REMARK  status: ('A' for Active; 'I' for Inactive)
REMARK    1  A    between atoms: C_1  and  O_2 
REMARK    2  A    between atoms: O_2  and  C_3 
REMARK    3  A    between atoms: C_6  and  C_11 
REMARK    4  A    between atoms: C_8  and  O_9 
REMARK    5  A    between atoms: O_9  and  C_10 
REMARK    6  A    between atoms: C_12  and  O_26 
REMARK    7  A    between atoms: C_16  and  O_25 
REMARK    8  A    between atoms: C_18  and  O_23 
REMARK    9  A    between atoms: C_19  and  O_22 
REMARK   10  A    between atoms: O_23  and  C_24 
REMARK   11  A    between atoms: O_26  and  C_27 
ROOT
ATOM      1  C   LIG d   1       5.246  -4.369  -5.735  0.00  0.00     0.181 A 
ATOM      2  C   LIG d   1       5.273  -3.810  -6.978  0.00  0.00     0.211 A 
ATOM      3  C   LIG d   1       4.839  -2.469  -7.149  0.00  0.00     0.238 A 
ATOM      4  O   LIG d   1       4.850  -1.935  -8.246  0.00  0.00    -0.283 OA
ATOM      5  C   LIG d   1       4.375  -1.749  -5.953  0.00  0.00     0.113 A 
ATOM      6  C   LIG d   1       3.929  -0.424  -6.029  0.00  0.00     0.135 A 
ATOM      7  C   LIG d   1       3.496   0.219  -4.884  0.00  0.00     0.026 A 
ATOM      8  C   LIG d   1       3.514  -0.443  -3.662  0.00  0.00     0.169 A 
ATOM      9  C   LIG d   1       3.955  -1.758  -3.576  0.00  0.00     0.203 A 
ATOM     10  C   LIG d   1       4.388  -2.421  -4.717  0.00  0.00     0.188 A 
ATOM     11  O   LIG d   1       4.819  -3.698  -4.651  0.00  0.00    -0.447 OA
ATOM     12  H   LIG d   1       3.148   1.240  -4.939  0.00  0.00     0.069 H 
ENDROOT
BRANCH   1  13
ATOM     13  C   LIG d   1       5.700  -5.763  -5.575  0.00  0.00     0.025 A 
ATOM     14  C   LIG d   1       7.066  -6.054  -5.531  0.00  0.00    -0.047 A 
ATOM     15  C   LIG d   1       7.488  -7.357  -5.381  0.00  0.00    -0.016 A 
ATOM     16  H   LIG d   1       7.791  -5.258  -5.616  0.00  0.00     0.063 H 
ATOM     17  C   LIG d   1       6.560  -8.383  -5.273  0.00  0.00     0.162 A 
ATOM     18  H   LIG d   1       8.545  -7.581  -5.348  0.00  0.00     0.066 H 
ATOM     19  C   LIG d   1       5.196  -8.100  -5.315  0.00  0.00     0.162 A 
ATOM     20  C   LIG d   1       4.765  -6.795  -5.460  0.00  0.00    -0.005 A 
ATOM     21  H   LIG d   1       3.708  -6.575  -5.489  0.00  0.00     0.066 H 
BRANCH  17  22
ATOM     22  O   LIG d   1       6.982  -9.665  -5.124  0.00  0.00    -0.491 OA
BRANCH  22  23
ATOM     23  C   LIG d   1       7.761  -9.963  -3.964  0.00  0.00     0.079 C 
ATOM     24  H   LIG d   1       7.182 -10.591  -3.288  0.00  0.00     0.066 H 
ATOM     25  H   LIG d   1       8.669 -10.488  -4.260  0.00  0.00     0.066 H 
ATOM     26  H   LIG d   1       8.027  -9.034  -3.457  0.00  0.00     0.066 H 
ENDBRANCH  22  23
ENDBRANCH  17  22
BRANCH  19  27
ATOM     27  O   LIG d   1       4.289  -9.108  -5.208  0.00  0.00    -0.491 OA
BRANCH  27  28
ATOM     28  C   LIG d   1       4.037  -9.618  -3.897  0.00  0.00     0.079 C 
ATOM     29  H   LIG d   1       3.120  -9.178  -3.506  0.00  0.00     0.066 H 
ATOM     30  H   LIG d   1       3.928 -10.702  -3.945  0.00  0.00     0.066 H 
ATOM     31  H   LIG d   1       4.869  -9.365  -3.242  0.00  0.00     0.066 H 
ENDBRANCH  27  28
ENDBRANCH  19  27
ENDBRANCH   1  13
BRANCH   2  32
ATOM     32  O   LIG d   1       5.713  -4.529  -8.045  0.00  0.00    -0.488 OA
BRANCH  32  33
ATOM     33  C   LIG d   1       4.721  -5.150  -8.864  0.00  0.00     0.079 C 
ATOM     34  H   LIG d   1       5.072  -5.187  -9.895  0.00  0.00     0.066 H 
ATOM     35  H   LIG d   1       4.535  -6.162  -8.506  0.00  0.00     0.066 H 
ATOM     36  H   LIG d   1       3.797  -4.573  -8.815  0.00  0.00     0.066 H 
ENDBRANCH  32  33
ENDBRANCH   2  32
BRANCH   9  37
ATOM     37  O   LIG d   1       3.962  -2.396  -2.373  0.00  0.00    -0.501 OA
ATOM     38  H   LIG d   1       4.683  -2.124  -1.787  0.00  0.00     0.292 HD
ENDBRANCH   9  37
BRANCH   6  39
ATOM     39  O   LIG d   1       3.916   0.225  -7.223  0.00  0.00    -0.506 OA
ATOM     40  H   LIG d   1       3.069   0.181  -7.685  0.00  0.00     0.292 HD
ENDBRANCH   6  39
BRANCH   8  41
ATOM     41  O   LIG d   1       3.091   0.199  -2.543  0.00  0.00    -0.491 OA
BRANCH  41  42
ATOM     42  C   LIG d   1       3.982   1.159  -1.969  0.00  0.00     0.079 C 
ATOM     43  H   LIG d   1       3.436   1.786  -1.265  0.00  0.00     0.066 H 
ATOM     44  H   LIG d   1       4.403   1.781  -2.759  0.00  0.00     0.066 H 
ATOM     45  H   LIG d   1       4.787   0.641  -1.447  0.00  0.00     0.066 H 
ENDBRANCH  41  42
ENDBRANCH   8  41
TORSDOF 11
ENDMDL
MODEL 6
REMARK VINA RESULT:      -4.9     11.082     13.773
REMARK  11 active torsions:
REMARK  status: ('A' for Active; 'I' for Inactive)
REMARK    1  A    between atoms: C_1  and  O_2 
REMARK    2  A    between atoms: O_2  and  C_3 
REMARK    3  A    between atoms: C_6  and  C_11 
REMARK    4  A    between atoms: C_8  and  O_9 
REMARK    5  A    between atoms: O_9  and  C_10 
REMARK    6  A    between atoms: C_12  and  O_26 
REMARK    7  A    between atoms: C_16  and  O_25 
REMARK    8  A    between atoms: C_18  and  O_23 
REMARK    9  A    between atoms: C_19  and  O_22 
REMARK   10  A    between atoms: O_23  and  C_24 
REMARK   11  A    between atoms: O_26  and  C_27 
ROOT
ATOM      1  C   LIG d   1       9.755 -10.214  -0.145  0.00  0.00     0.181 A 
ATOM      2  C   LIG d   1      10.485  -9.717  -1.183  0.00  0.00     0.211 A 
ATOM      3  C   LIG d   1       9.866  -9.536  -2.447  0.00  0.00     0.238 A 
ATOM      4  O   LIG d   1      10.488  -9.091  -3.399  0.00  0.00    -0.283 OA
ATOM      5  C   LIG d   1       8.447  -9.904  -2.566  0.00  0.00     0.113 A 
ATOM      6  C   LIG d   1       7.757  -9.758  -3.776  0.00  0.00     0.135 A 
ATOM      7  C   LIG d   1       6.424 -10.120  -3.850  0.00  0.00     0.026 A 
ATOM      8  C   LIG d   1       5.770 -10.614  -2.727  0.00  0.00     0.169 A 
ATOM      9  C   LIG d   1       6.446 -10.762  -1.523  0.00  0.00     0.203 A 
ATOM     10  C   LIG d   1       7.787 -10.409  -1.431  0.00  0.00     0.188 A 
ATOM     11  O   LIG d   1       8.458 -10.546  -0.268  0.00  0.00    -0.447 OA
ATOM     12  H   LIG d   1       5.889 -10.014  -4.782  0.00  0.00     0.069 H 
ENDROOT
BRANCH   1  13
ATOM     13  C   LIG d   1      10.413 -10.396   1.162  0.00  0.00     0.025 A 
ATOM     14  C   LIG d   1      10.686 -11.682   1.637  0.00  0.00    -0.047 A 
ATOM     15  C   LIG d   1      11.302 -11.849   2.859  0.00  0.00    -0.016 A 
ATOM     16  H   LIG d   1      10.414 -12.544   1.047  0.00  0.00     0.063 H 
ATOM     17  C   LIG d   1      11.652 -10.743   3.620  0.00  0.00     0.162 A 
ATOM     18  H   LIG d   1      11.512 -12.844   3.225  0.00  0.00     0.066 H 
ATOM     19  C   LIG d   1      11.384  -9.458   3.153  0.00  0.00     0.162 A 
ATOM     20  C   LIG d   1      10.771  -9.282   1.927  0.00  0.00    -0.005 A 
ATOM     21  H   LIG d   1      10.567  -8.286   1.562  0.00  0.00     0.066 H 
BRANCH  17  22
ATOM     22  O   LIG d   1      12.259 -10.914   4.823  0.00  0.00    -0.491 OA
BRANCH  22  23
ATOM     23  C   LIG d   1      13.642 -11.272   4.808  0.00  0.00     0.079 C 
ATOM     24  H   LIG d   1      13.932 -11.561   3.798  0.00  0.00     0.066 H 
ATOM     25  H   LIG d   1      14.242 -10.421   5.129  0.00  0.00     0.066 H 
ATOM     26  H   LIG d   1      13.808 -12.110   5.486  0.00  0.00     0.066 H 
ENDBRANCH  22  23
ENDBRANCH  17  22
BRANCH  19  27
ATOM     27  O   LIG d   1      11.729  -8.376   3.902  0.00  0.00    -0.491 OA
BRANCH  27  28
ATOM     28  C   LIG d   1      12.975  -7.747   3.598  0.00  0.00     0.079 C 
ATOM     29  H   LIG d   1      13.249  -7.961   2.565  0.00  0.00     0.066 H 
ATOM     30  H   LIG d   1      12.879  -6.668   3.731  0.00  0.00     0.066 H 
ATOM     31  H   LIG d   1      13.748  -8.128   4.264  0.00  0.00     0.066 H 
ENDBRANCH  27  28
ENDBRANCH  19  27
ENDBRANCH   1  13
BRANCH   2  32
ATOM     32  O   LIG d   1      11.795  -9.394  -1.008  0.00  0.00    -0.488 OA
BRANCH  32  33
ATOM     33  C   LIG d   1      12.129  -8.005  -1.024  0.00  0.00     0.079 C 
ATOM     34  H   LIG d   1      11.738  -7.548  -1.933  0.00  0.00     0.066 H 
ATOM     35  H   LIG d   1      11.693  -7.516  -0.153  0.00  0.00     0.066 H 
ATOM     36  H   LIG d   1      13.213  -7.892  -0.999  0.00  0.00     0.066 H 
ENDBRANCH  32  33
ENDBRANCH   2  32
BRANCH   9  37
ATOM     37  O   LIG d   1       5.794 -11.252  -0.432  0.00  0.00    -0.501 OA
ATOM     38  H   LIG d   1       4.934 -11.647  -0.632  0.00  0.00     0.292 HD
ENDBRANCH   9  37
BRANCH   6  39
ATOM     39  O   LIG d   1       8.394  -9.271  -4.872  0.00  0.00    -0.506 OA
ATOM     40  H   LIG d   1       8.483  -8.309  -4.879  0.00  0.00     0.292 HD
ENDBRANCH   6  39
BRANCH   8  41
ATOM     41  O   LIG d   1       4.460 -10.962  -2.811  0.00  0.00    -0.491 OA
BRANCH  41  42
ATOM     42  C   LIG d   1       3.542  -9.943  -3.216  0.00  0.00     0.079 C 
ATOM     43  H   LIG d   1       2.698  -9.920  -2.528  0.00  0.00     0.066 H 
ATOM     44  H   LIG d   1       3.184 -10.157  -4.223  0.00  0.00     0.066 H 
ATOM     45  H   LIG d   1       4.046  -8.976  -3.207  0.00  0.00     0.066 H 
ENDBRANCH  41  42
ENDBRANCH   8  41
TORSDOF 11
ENDMDL
MODEL 7
REMARK VINA RESULT:      -4.9      9.315     12.825
REMARK  11 active torsions:
REMARK  status: ('A' for Active; 'I' for Inactive)
REMARK    1  A    between atoms: C_1  and  O_2 
REMARK    2  A    between atoms: O_2  and  C_3 
REMARK    3  A    between atoms: C_6  and  C_11 
REMARK    4  A    between atoms: C_8  and  O_9 
REMARK    5  A    between atoms: O_9  and  C_10 
REMARK    6  A    between atoms: C_12  and  O_26 
REMARK    7  A    between atoms: C_16  and  O_25 
REMARK    8  A    between atoms: C_18  and  O_23 
REMARK    9  A    between atoms: C_19  and  O_22 
REMARK   10  A    between atoms: O_23  and  C_24 
REMARK   11  A    between atoms: O_26  and  C_27 
ROOT
ATOM      1  C   LIG d   1      10.438   6.595  -2.744  0.00  0.00     0.181 A 
ATOM      2  C   LIG d   1      10.245   7.002  -1.457  0.00  0.00     0.211 A 
ATOM      3  C   LIG d   1       9.913   8.356  -1.195  0.00  0.00     0.238 A 
ATOM      4  O   LIG d   1       9.733   8.756  -0.056  0.00  0.00    -0.283 OA
ATOM      5  C   LIG d   1       9.795   9.260  -2.350  0.00  0.00     0.113 A 
ATOM      6  C   LIG d   1       9.471  10.613  -2.184  0.00  0.00     0.135 A 
ATOM      7  C   LIG d   1       9.374  11.433  -3.293  0.00  0.00     0.026 A 
ATOM      8  C   LIG d   1       9.585  10.916  -4.566  0.00  0.00     0.169 A 
ATOM      9  C   LIG d   1       9.907   9.576  -4.741  0.00  0.00     0.203 A 
ATOM     10  C   LIG d   1      10.015   8.738  -3.637  0.00  0.00     0.188 A 
ATOM     11  O   LIG d   1      10.326   7.434  -3.789  0.00  0.00    -0.447 OA
ATOM     12  H   LIG d   1       9.128  12.477  -3.171  0.00  0.00     0.069 H 
ENDROOT
BRANCH   1  13
ATOM     13  C   LIG d   1      10.782   5.185  -2.998  0.00  0.00     0.025 A 
ATOM     14  C   LIG d   1      12.118   4.807  -3.157  0.00  0.00    -0.047 A 
ATOM     15  C   LIG d   1      12.437   3.487  -3.394  0.00  0.00    -0.016 A 
ATOM     16  H   LIG d   1      12.900   5.548  -3.093  0.00  0.00     0.063 H 
ATOM     17  C   LIG d   1      11.435   2.531  -3.476  0.00  0.00     0.162 A 
ATOM     18  H   LIG d   1      13.471   3.196  -3.517  0.00  0.00     0.066 H 
ATOM     19  C   LIG d   1      10.101   2.900  -3.319  0.00  0.00     0.162 A 
ATOM     20  C   LIG d   1       9.773   4.221  -3.076  0.00  0.00    -0.005 A 
ATOM     21  H   LIG d   1       8.739   4.507  -2.949  0.00  0.00     0.066 H 
BRANCH  17  22
ATOM     22  O   LIG d   1      11.756   1.232  -3.710  0.00  0.00    -0.491 OA
BRANCH  22  23
ATOM     23  C   LIG d   1      13.143   0.893  -3.695  0.00  0.00     0.079 C 
ATOM     24  H   LIG d   1      13.414   0.512  -2.711  0.00  0.00     0.066 H 
ATOM     25  H   LIG d   1      13.339   0.128  -4.447  0.00  0.00     0.066 H 
ATOM     26  H   LIG d   1      13.737   1.780  -3.917  0.00  0.00     0.066 H 
ENDBRANCH  22  23
ENDBRANCH  17  22
BRANCH  19  27
ATOM     27  O   LIG d   1       9.121   1.960  -3.400  0.00  0.00    -0.491 OA
BRANCH  27  28
ATOM     28  C   LIG d   1       8.077   2.190  -4.349  0.00  0.00     0.079 C 
ATOM     29  H   LIG d   1       8.270   1.609  -5.251  0.00  0.00     0.066 H 
ATOM     30  H   LIG d   1       7.122   1.887  -3.919  0.00  0.00     0.066 H 
ATOM     31  H   LIG d   1       8.042   3.250  -4.601  0.00  0.00     0.066 H 
ENDBRANCH  27  28
ENDBRANCH  19  27
ENDBRANCH   1  13
BRANCH   2  32
ATOM     32  O   LIG d   1      10.369   6.116  -0.432  0.00  0.00    -0.488 OA
BRANCH  32  33
ATOM     33  C   LIG d   1      11.601   6.127   0.291  0.00  0.00     0.079 C 
ATOM     34  H   LIG d   1      12.322   5.481  -0.209  0.00  0.00     0.066 H 
ATOM     35  H   LIG d   1      11.990   7.144   0.330  0.00  0.00     0.066 H 
ATOM     36  H   LIG d   1      11.430   5.765   1.305  0.00  0.00     0.066 H 
ENDBRANCH  32  33
ENDBRANCH   2  32
BRANCH   9  37
ATOM     37  O   LIG d   1      10.116   9.083  -5.993  0.00  0.00    -0.501 OA
ATOM     38  H   LIG d   1       9.856   9.687  -6.702  0.00  0.00     0.292 HD
ENDBRANCH   9  37
BRANCH   6  39
ATOM     39  O   LIG d   1       9.260  11.118  -0.941  0.00  0.00    -0.506 OA
ATOM     40  H   LIG d   1       8.337  11.086  -0.656  0.00  0.00     0.292 HD
ENDBRANCH   6  39
BRANCH   8  41
ATOM     41  O   LIG d   1       9.482  11.729  -5.649  0.00  0.00    -0.491 OA
BRANCH  41  42
ATOM     42  C   LIG d   1       9.716  13.124  -5.437  0.00  0.00     0.079 C 
ATOM     43  H   LIG d   1       9.851  13.312  -4.372  0.00  0.00     0.066 H 
ATOM     44  H   LIG d   1       8.862  13.694  -5.802  0.00  0.00     0.066 H 
ATOM     45  H   LIG d   1      10.613  13.428  -5.977  0.00  0.00     0.066 H 
ENDBRANCH  41  42
ENDBRANCH   8  41
TORSDOF 11
ENDMDL
MODEL 8
REMARK VINA RESULT:      -4.8      9.038     14.541
REMARK  11 active torsions:
REMARK  status: ('A' for Active; 'I' for Inactive)
REMARK    1  A    between atoms: C_1  and  O_2 
REMARK    2  A    between atoms: O_2  and  C_3 
REMARK    3  A    between atoms: C_6  and  C_11 
REMARK    4  A    between atoms: C_8  and  O_9 
REMARK    5  A    between atoms: O_9  and  C_10 
REMARK    6  A    between atoms: C_12  and  O_26 
REMARK    7  A    between atoms: C_16  and  O_25 
REMARK    8  A    between atoms: C_18  and  O_23 
REMARK    9  A    between atoms: C_19  and  O_22 
REMARK   10  A    between atoms: O_23  and  C_24 
REMARK   11  A    between atoms: O_26  and  C_27 
ROOT
ATOM      1  C   LIG d   1      10.603  -7.723  -0.930  0.00  0.00     0.181 A 
ATOM      2  C   LIG d   1      10.062  -8.880  -1.405  0.00  0.00     0.211 A 
ATOM      3  C   LIG d   1      10.066 -10.039  -0.586  0.00  0.00     0.238 A 
ATOM      4  O   LIG d   1       9.589 -11.093  -0.978  0.00  0.00    -0.283 OA
ATOM      5  C   LIG d   1      10.666  -9.923   0.752  0.00  0.00     0.113 A 
ATOM      6  C   LIG d   1      10.713 -11.016   1.625  0.00  0.00     0.135 A 
ATOM      7  C   LIG d   1      11.290 -10.869   2.873  0.00  0.00     0.026 A 
ATOM      8  C   LIG d   1      11.811  -9.641   3.263  0.00  0.00     0.169 A 
ATOM      9  C   LIG d   1      11.769  -8.550   2.403  0.00  0.00     0.203 A 
ATOM     10  C   LIG d   1      11.198  -8.681   1.143  0.00  0.00     0.188 A 
ATOM     11  O   LIG d   1      11.149  -7.631   0.296  0.00  0.00    -0.447 OA
ATOM     12  H   LIG d   1      11.332 -11.711   3.549  0.00  0.00     0.069 H 
ENDROOT
BRANCH   1  13
ATOM     13  C   LIG d   1      10.591  -6.527  -1.793  0.00  0.00     0.025 A 
ATOM     14  C   LIG d   1       9.644  -5.521  -1.583  0.00  0.00    -0.047 A 
ATOM     15  C   LIG d   1       9.635  -4.405  -2.391  0.00  0.00    -0.016 A 
ATOM     16  H   LIG d   1       8.918  -5.619  -0.789  0.00  0.00     0.063 H 
ATOM     17  C   LIG d   1      10.565  -4.276  -3.413  0.00  0.00     0.162 A 
ATOM     18  H   LIG d   1       8.901  -3.628  -2.229  0.00  0.00     0.066 H 
ATOM     19  C   LIG d   1      11.513  -5.274  -3.627  0.00  0.00     0.162 A 
ATOM     20  C   LIG d   1      11.531  -6.394  -2.818  0.00  0.00    -0.005 A 
ATOM     21  H   LIG d   1      12.269  -7.167  -2.981  0.00  0.00     0.066 H 
BRANCH  17  22
ATOM     22  O   LIG d   1      10.552  -3.172  -4.206  0.00  0.00    -0.491 OA
BRANCH  22  23
ATOM     23  C   LIG d   1       9.301  -2.811  -4.794  0.00  0.00     0.079 C 
ATOM     24  H   LIG d   1       8.978  -1.848  -4.399  0.00  0.00     0.066 H 
ATOM     25  H   LIG d   1       9.415  -2.740  -5.876  0.00  0.00     0.066 H 
ATOM     26  H   LIG d   1       8.555  -3.570  -4.557  0.00  0.00     0.066 H 
ENDBRANCH  22  23
ENDBRANCH  17  22
BRANCH  19  27
ATOM     27  O   LIG d   1      12.423  -5.144  -4.630  0.00  0.00    -0.491 OA
BRANCH  27  28
ATOM     28  C   LIG d   1      13.798  -5.051  -4.250  0.00  0.00     0.079 C 
ATOM     29  H   LIG d   1      14.428  -5.194  -5.127  0.00  0.00     0.066 H 
ATOM     30  H   LIG d   1      13.990  -4.067  -3.821  0.00  0.00     0.066 H 
ATOM     31  H   LIG d   1      14.024  -5.820  -3.512  0.00  0.00     0.066 H 
ENDBRANCH  27  28
ENDBRANCH  19  27
ENDBRANCH   1  13
BRANCH   2  32
ATOM     32  O   LIG d   1       9.521  -8.923  -2.652  0.00  0.00    -0.488 OA
BRANCH  32  33
ATOM     33  C   LIG d   1       8.099  -8.810  -2.747  0.00  0.00     0.079 C 
ATOM     34  H   LIG d   1       7.661  -8.901  -1.753  0.00  0.00     0.066 H 
ATOM     35  H   LIG d   1       7.839  -7.842  -3.174  0.00  0.00     0.066 H 
ATOM     36  H   LIG d   1       7.715  -9.604  -3.388  0.00  0.00     0.066 H 
ENDBRANCH  32  33
ENDBRANCH   2  32
BRANCH   9  37
ATOM     37  O   LIG d   1      12.287  -7.354   2.796  0.00  0.00    -0.501 OA
ATOM     38  H   LIG d   1      12.201  -6.652   2.135  0.00  0.00     0.292 HD
ENDBRANCH   9  37
BRANCH   6  39
ATOM     39  O   LIG d   1      10.200 -12.216   1.247  0.00  0.00    -0.506 OA
ATOM     40  H   LIG d   1      10.733 -12.974   1.519  0.00  0.00     0.292 HD
ENDBRANCH   6  39
BRANCH   8  41
ATOM     41  O   LIG d   1      12.370  -9.507   4.493  0.00  0.00    -0.491 OA
BRANCH  41  42
ATOM     42  C   LIG d   1      13.625 -10.158   4.710  0.00  0.00     0.079 C 
ATOM     43  H   LIG d   1      13.546 -10.819   5.572  0.00  0.00     0.066 H 
ATOM     44  H   LIG d   1      14.395  -9.410   4.895  0.00  0.00     0.066 H 
ATOM     45  H   LIG d   1      13.889 -10.741   3.827  0.00  0.00     0.066 H 
ENDBRANCH  41  42
ENDBRANCH   8  41
TORSDOF 11
ENDMDL
MODEL 9
REMARK VINA RESULT:      -4.6     11.064     14.727
REMARK  11 active torsions:
REMARK  status: ('A' for Active; 'I' for Inactive)
REMARK    1  A    between atoms: C_1  and  O_2 
REMARK    2  A    between atoms: O_2  and  C_3 
REMARK    3  A    between atoms: C_6  and  C_11 
REMARK    4  A    between atoms: C_8  and  O_9 
REMARK    5  A    between atoms: O_9  and  C_10 
REMARK    6  A    between atoms: C_12  and  O_26 
REMARK    7  A    between atoms: C_16  and  O_25 
REMARK    8  A    between atoms: C_18  and  O_23 
REMARK    9  A    between atoms: C_19  and  O_22 
REMARK   10  A    between atoms: O_23  and  C_24 
REMARK   11  A    between atoms: O_26  and  C_27 
ROOT
ATOM      1  C   LIG d   1      10.090   9.461  -4.533  0.00  0.00     0.181 A 
ATOM      2  C   LIG d   1       9.498  10.584  -4.038  0.00  0.00     0.211 A 
ATOM      3  C   LIG d   1       9.494  10.810  -2.636  0.00  0.00     0.238 A 
ATOM      4  O   LIG d   1       8.975  11.805  -2.157  0.00  0.00    -0.283 OA
ATOM      5  C   LIG d   1      10.141   9.800  -1.785  0.00  0.00     0.113 A 
ATOM      6  C   LIG d   1      10.183   9.942  -0.392  0.00  0.00     0.135 A 
ATOM      7  C   LIG d   1      10.795   8.968   0.375  0.00  0.00     0.026 A 
ATOM      8  C   LIG d   1      11.375   7.860  -0.232  0.00  0.00     0.169 A 
ATOM      9  C   LIG d   1      11.337   7.710  -1.613  0.00  0.00     0.203 A 
ATOM     10  C   LIG d   1      10.721   8.676  -2.399  0.00  0.00     0.188 A 
ATOM     11  O   LIG d   1      10.677   8.546  -3.742  0.00  0.00    -0.447 OA
ATOM     12  H   LIG d   1      10.827   9.071   1.450  0.00  0.00     0.069 H 
ENDROOT
BRANCH   1  13
ATOM     13  C   LIG d   1      10.085   9.241  -5.991  0.00  0.00     0.025 A 
ATOM     14  C   LIG d   1       9.055   8.508  -6.586  0.00  0.00    -0.047 A 
ATOM     15  C   LIG d   1       9.053   8.305  -7.950  0.00  0.00    -0.016 A 
ATOM     16  H   LIG d   1       8.260   8.101  -5.978  0.00  0.00     0.063 H 
ATOM     17  C   LIG d   1      10.072   8.826  -8.734  0.00  0.00     0.162 A 
ATOM     18  H   LIG d   1       8.255   7.738  -8.408  0.00  0.00     0.066 H 
ATOM     19  C   LIG d   1      11.102   9.558  -8.148  0.00  0.00     0.162 A 
ATOM     20  C   LIG d   1      11.108   9.771  -6.782  0.00  0.00    -0.005 A 
ATOM     21  H   LIG d   1      11.905  10.342  -6.328  0.00  0.00     0.066 H 
BRANCH  17  22
ATOM     22  O   LIG d   1      10.064   8.623 -10.077  0.00  0.00    -0.491 OA
BRANCH  22  23
ATOM     23  C   LIG d   1      10.098   7.268 -10.529  0.00  0.00     0.079 C 
ATOM     24  H   LIG d   1       9.340   6.689 -10.001  0.00  0.00     0.066 H 
ATOM     25  H   LIG d   1       9.898   7.236 -11.600  0.00  0.00     0.066 H 
ATOM     26  H   LIG d   1      11.082   6.843 -10.330  0.00  0.00     0.066 H 
ENDBRANCH  22  23
ENDBRANCH  17  22
BRANCH  19  27
ATOM     27  O   LIG d   1      12.099  10.068  -8.921  0.00  0.00    -0.491 OA
BRANCH  27  28
ATOM     28  C   LIG d   1      13.411   9.540  -8.718  0.00  0.00     0.079 C 
ATOM     29  H   LIG d   1      13.656   8.853  -9.528  0.00  0.00     0.066 H 
ATOM     30  H   LIG d   1      14.133  10.357  -8.704  0.00  0.00     0.066 H 
ATOM     31  H   LIG d   1      13.446   9.007  -7.768  0.00  0.00     0.066 H 
ENDBRANCH  27  28
ENDBRANCH  19  27
ENDBRANCH   1  13
BRANCH   2  32
ATOM     32  O   LIG d   1       8.917  11.482  -4.878  0.00  0.00    -0.488 OA
BRANCH  32  33
ATOM     33  C   LIG d   1       9.637  12.690  -5.136  0.00  0.00     0.079 C 
ATOM     34  H   LIG d   1       9.012  13.368  -5.716  0.00  0.00     0.066 H 
ATOM     35  H   LIG d   1       9.907  13.160  -4.191  0.00  0.00     0.066 H 
ATOM     36  H   LIG d   1      10.542  12.459  -5.698  0.00  0.00     0.066 H 
ENDBRANCH  32  33
ENDBRANCH   2  32
BRANCH   9  37
ATOM     37  O   LIG d   1      11.904   6.617  -2.194  0.00  0.00    -0.501 OA
ATOM     38  H   LIG d   1      12.740   6.345  -1.790  0.00  0.00     0.292 HD
ENDBRANCH   9  37
BRANCH   6  39
ATOM     39  O   LIG d   1       9.621  11.027   0.201  0.00  0.00    -0.506 OA
ATOM     40  H   LIG d   1       8.676  10.933   0.378  0.00  0.00     0.292 HD
ENDBRANCH   6  39
BRANCH   8  41
ATOM     41  O   LIG d   1      11.977   6.913   0.532  0.00  0.00    -0.491 OA
BRANCH  41  42
ATOM     42  C   LIG d   1      11.125   5.977   1.198  0.00  0.00     0.079 C 
ATOM     43  H   LIG d   1      11.668   5.515   2.022  0.00  0.00     0.066 H 
ATOM     44  H   LIG d   1      10.810   5.208   0.493  0.00  0.00     0.066 H 
ATOM     45  H   LIG d   1      10.249   6.496   1.585  0.00  0.00     0.066 H 
ENDBRANCH  41  42
ENDBRANCH   8  41
TORSDOF 11
ENDMDL
MODEL 10
REMARK VINA RESULT:      -4.6     11.755     15.003
REMARK  11 active torsions:
REMARK  status: ('A' for Active; 'I' for Inactive)
REMARK    1  A    between atoms: C_1  and  O_2 
REMARK    2  A    between atoms: O_2  and  C_3 
REMARK    3  A    between atoms: C_6  and  C_11 
REMARK    4  A    between atoms: C_8  and  O_9 
REMARK    5  A    between atoms: O_9  and  C_10 
REMARK    6  A    between atoms: C_12  and  O_26 
REMARK    7  A    between atoms: C_16  and  O_25 
REMARK    8  A    between atoms: C_18  and  O_23 
REMARK    9  A    between atoms: C_19  and  O_22 
REMARK   10  A    between atoms: O_23  and  C_24 
REMARK   11  A    between atoms: O_26  and  C_27 
ROOT
ATOM      1  C   LIG d   1      11.891   8.743   0.176  0.00  0.00     0.181 A 
ATOM      2  C   LIG d   1      11.354   9.636  -0.701  0.00  0.00     0.211 A 
ATOM      3  C   LIG d   1      10.655   9.161  -1.841  0.00  0.00     0.238 A 
ATOM      4  O   LIG d   1      10.159   9.932  -2.647  0.00  0.00    -0.283 OA
ATOM      5  C   LIG d   1      10.551   7.704  -2.014  0.00  0.00     0.113 A 
ATOM      6  C   LIG d   1       9.881   7.148  -3.110  0.00  0.00     0.135 A 
ATOM      7  C   LIG d   1       9.809   5.773  -3.241  0.00  0.00     0.026 A 
ATOM      8  C   LIG d   1      10.389   4.948  -2.284  0.00  0.00     0.169 A 
ATOM      9  C   LIG d   1      11.057   5.490  -1.194  0.00  0.00     0.203 A 
ATOM     10  C   LIG d   1      11.144   6.870  -1.049  0.00  0.00     0.188 A 
ATOM     11  O   LIG d   1      11.789   7.413   0.005  0.00  0.00    -0.447 OA
ATOM     12  H   LIG d   1       9.296   5.339  -4.086  0.00  0.00     0.069 H 
ENDROOT
BRANCH   1  13
ATOM     13  C   LIG d   1      12.614   9.253   1.356  0.00  0.00     0.025 A 
ATOM     14  C   LIG d   1      13.923   9.725   1.226  0.00  0.00    -0.047 A 
ATOM     15  C   LIG d   1      14.596  10.202   2.331  0.00  0.00    -0.016 A 
ATOM     16  H   LIG d   1      14.408   9.715   0.261  0.00  0.00     0.063 H 
ATOM     17  C   LIG d   1      13.976  10.215   3.572  0.00  0.00     0.162 A 
ATOM     18  H   LIG d   1      15.608  10.565   2.229  0.00  0.00     0.066 H 
ATOM     19  C   LIG d   1      12.672   9.747   3.710  0.00  0.00     0.162 A 
ATOM     20  C   LIG d   1      11.988   9.272   2.606  0.00  0.00    -0.005 A 
ATOM     21  H   LIG d   1      10.975   8.914   2.710  0.00  0.00     0.066 H 
BRANCH  17  22
ATOM     22  O   LIG d   1      14.645  10.687   4.657  0.00  0.00    -0.491 OA
BRANCH  22  23
ATOM     23  C   LIG d   1      15.610   9.820   5.253  0.00  0.00     0.079 C 
ATOM     24  H   LIG d   1      15.110   8.937   5.651  0.00  0.00     0.066 H 
ATOM     25  H   LIG d   1      16.340   9.517   4.502  0.00  0.00     0.066 H 
ATOM     26  H   LIG d   1      16.119  10.344   6.063  0.00  0.00     0.066 H 
ENDBRANCH  22  23
ENDBRANCH  17  22
BRANCH  19  27
ATOM     27  O   LIG d   1      12.068   9.763   4.928  0.00  0.00    -0.491 OA
BRANCH  27  28
ATOM     28  C   LIG d   1      11.759   8.497   5.516  0.00  0.00     0.079 C 
ATOM     29  H   LIG d   1      10.948   8.617   6.233  0.00  0.00     0.066 H 
ATOM     30  H   LIG d   1      11.454   7.799   4.735  0.00  0.00     0.066 H 
ATOM     31  H   LIG d   1      12.640   8.109   6.026  0.00  0.00     0.066 H 
ENDBRANCH  27  28
ENDBRANCH  19  27
ENDBRANCH   1  13
BRANCH   2  32
ATOM     32  O   LIG d   1      11.483  10.973  -0.484  0.00  0.00    -0.488 OA
BRANCH  32  33
ATOM     33  C   LIG d   1      10.387  11.638   0.147  0.00  0.00     0.079 C 
ATOM     34  H   LIG d   1       9.570  11.747  -0.566  0.00  0.00     0.066 H 
ATOM     35  H   LIG d   1      10.050  11.052   1.001  0.00  0.00     0.066 H 
ATOM     36  H   LIG d   1      10.706  12.623   0.487  0.00  0.00     0.066 H 
ENDBRANCH  32  33
ENDBRANCH   2  32
BRANCH   9  37
ATOM     37  O   LIG d   1      11.625   4.670  -0.267  0.00  0.00    -0.501 OA
ATOM     38  H   LIG d   1      11.848   3.791  -0.603  0.00  0.00     0.292 HD
ENDBRANCH   9  37
BRANCH   6  39
ATOM     39  O   LIG d   1       9.309   7.953  -4.042  0.00  0.00    -0.506 OA
ATOM     40  H   LIG d   1       8.581   7.541  -4.524  0.00  0.00     0.292 HD
ENDBRANCH   6  39
BRANCH   8  41
ATOM     41  O   LIG d   1      10.308   3.599  -2.421  0.00  0.00    -0.491 OA
BRANCH  41  42
ATOM     42  C   LIG d   1       9.438   3.101  -3.441  0.00  0.00     0.079 C 
ATOM     43  H   LIG d   1      10.030   2.625  -4.222  0.00  0.00     0.066 H 
ATOM     44  H   LIG d   1       8.870   3.927  -3.867  0.00  0.00     0.066 H 
ATOM     45  H   LIG d   1       8.753   2.372  -3.009  0.00  0.00     0.066 H 
ENDBRANCH  41  42
ENDBRANCH   8  41
TORSDOF 11
ENDMDL
