MODEL 1
REMARK VINA RESULT:      -7.0      0.000      0.000
REMARK  15 active torsions:
REMARK  status: ('A' for Active; 'I' for Inactive)
REMARK    1  A    between atoms: C_1  and  C_2 
REMARK    2  A    between atoms: C_5  and  S_8 
REMARK    3  A    between atoms: S_8  and  N_11 
REMARK    4  A    between atoms: N_11  and  C_12 
REMARK    5  A    between atoms: C_12  and  C_13 
REMARK    6  A    between atoms: C_13  and  N_14 
REMARK    7  A    between atoms: N_14  and  C_15 
REMARK    8  A    between atoms: N_14  and  S_28 
REMARK    9  A    between atoms: C_15  and  C_16 
REMARK   10  A    between atoms: C_16  and  N_17 
REMARK   11  A    between atoms: N_17  and  S_18 
REMARK   12  A    between atoms: S_18  and  C_21 
REMARK   13  A    between atoms: C_24  and  C_27 
REMARK   14  A    between atoms: S_28  and  C_31 
REMARK   15  A    between atoms: C_34  and  C_37 
ROOT
ATOM      1  N   LIG d   1       5.578  -3.091  -6.706  0.00  0.00    -0.174 N 
ENDROOT
BRANCH   1   2
ATOM      2  C   LIG d   1       4.574  -2.130  -7.165  0.00  0.00     0.035 C 
ATOM      3  H   LIG d   1       3.815  -2.000  -6.392  0.00  0.00     0.046 H 
ATOM      4  H   LIG d   1       4.103  -2.501  -8.075  0.00  0.00     0.046 H 
BRANCH   2   5
ATOM      5  C   LIG d   1       5.247  -0.786  -7.450  0.00  0.00     0.032 C 
ATOM      6  H   LIG d   1       5.539  -0.741  -8.498  0.00  0.00     0.045 H 
ATOM      7  H   LIG d   1       6.130  -0.681  -6.821  0.00  0.00     0.045 H 
BRANCH   5   8
ATOM      8  N   LIG d   1       4.309   0.302  -7.159  0.00  0.00    -0.189 N 
ATOM      9  H   LIG d   1       3.941   0.400  -6.267  0.00  0.00     0.148 HD
BRANCH   8  10
ATOM     10  S   LIG d   1       3.876   1.364  -8.353  0.00  0.00     0.058 S 
ATOM     11  O   LIG d   1       5.081   1.933  -8.847  0.00  0.00    -0.153 OA
ATOM     12  O   LIG d   1       2.819   2.156  -7.830  0.00  0.00    -0.153 OA
BRANCH  10  13
ATOM     13  C   LIG d   1       3.191   0.415  -9.671  0.00  0.00     0.105 A 
ATOM     14  C   LIG d   1       3.858   0.328 -10.878  0.00  0.00    -0.035 A 
ATOM     15  C   LIG d   1       3.322  -0.416 -11.912  0.00  0.00    -0.057 A 
ATOM     16  H   LIG d   1       4.800   0.841 -11.014  0.00  0.00     0.064 H 
ATOM     17  C   LIG d   1       2.119  -1.073 -11.739  0.00  0.00    -0.050 A 
ATOM     18  H   LIG d   1       3.843  -0.485 -12.855  0.00  0.00     0.062 H 
ATOM     19  C   LIG d   1       1.449  -0.981 -10.533  0.00  0.00    -0.057 A 
ATOM     20  C   LIG d   1       1.987  -0.241  -9.497  0.00  0.00    -0.035 A 
ATOM     21  H   LIG d   1       0.505  -1.491 -10.398  0.00  0.00     0.062 H 
ATOM     22  H   LIG d   1       1.466  -0.172  -8.554  0.00  0.00     0.064 H 
BRANCH  17  23
ATOM     23  C   LIG d   1       1.533  -1.885 -12.866  0.00  0.00    -0.040 C 
ATOM     24  H   LIG d   1       0.483  -1.624 -12.994  0.00  0.00     0.028 H 
ATOM     25  H   LIG d   1       2.076  -1.671 -13.787  0.00  0.00     0.028 H 
ATOM     26  H   LIG d   1       1.619  -2.946 -12.631  0.00  0.00     0.028 H 
ENDBRANCH  17  23
ENDBRANCH  10  13
ENDBRANCH   8  10
ENDBRANCH   5   8
ENDBRANCH   2   5
ENDBRANCH   1   2
BRANCH   1  27
ATOM     27  C   LIG d   1       6.664  -3.500  -7.600  0.00  0.00     0.035 C 
ATOM     28  H   LIG d   1       6.970  -2.651  -8.213  0.00  0.00     0.046 H 
ATOM     29  H   LIG d   1       7.512  -3.844  -7.007  0.00  0.00     0.046 H 
BRANCH  27  30
ATOM     30  C   LIG d   1       6.180  -4.634  -8.506  0.00  0.00     0.032 C 
ATOM     31  H   LIG d   1       5.262  -4.330  -9.009  0.00  0.00     0.045 H 
ATOM     32  H   LIG d   1       6.945  -4.855  -9.251  0.00  0.00     0.045 H 
BRANCH  30  33
ATOM     33  N   LIG d   1       5.924  -5.829  -7.699  0.00  0.00    -0.189 N 
ATOM     34  H   LIG d   1       6.488  -6.029  -6.937  0.00  0.00     0.148 HD
BRANCH  33  35
ATOM     35  S   LIG d   1       4.670  -6.838  -8.088  0.00  0.00     0.058 S 
ATOM     36  O   LIG d   1       3.474  -6.110  -7.849  0.00  0.00    -0.153 OA
ATOM     37  O   LIG d   1       4.979  -7.400  -9.356  0.00  0.00    -0.153 OA
BRANCH  35  38
ATOM     38  C   LIG d   1       4.691  -8.166  -6.930  0.00  0.00     0.105 A 
ATOM     39  C   LIG d   1       4.895  -7.908  -5.587  0.00  0.00    -0.035 A 
ATOM     40  C   LIG d   1       4.907  -8.950  -4.678  0.00  0.00    -0.057 A 
ATOM     41  H   LIG d   1       5.040  -6.894  -5.248  0.00  0.00     0.064 H 
ATOM     42  C   LIG d   1       4.725 -10.249  -5.112  0.00  0.00    -0.050 A 
ATOM     43  H   LIG d   1       5.061  -8.747  -3.628  0.00  0.00     0.062 H 
ATOM     44  C   LIG d   1       4.527 -10.507  -6.456  0.00  0.00    -0.057 A 
ATOM     45  C   LIG d   1       4.510  -9.466  -7.365  0.00  0.00    -0.035 A 
ATOM     46  H   LIG d   1       4.386 -11.523  -6.795  0.00  0.00     0.062 H 
ATOM     47  H   LIG d   1       4.355  -9.668  -8.415  0.00  0.00     0.064 H 
BRANCH  42  48
ATOM     48  C   LIG d   1       4.742 -11.384  -4.122  0.00  0.00    -0.040 C 
ATOM     49  H   LIG d   1       4.717 -12.334  -4.656  0.00  0.00     0.028 H 
ATOM     50  H   LIG d   1       5.651 -11.328  -3.521  0.00  0.00     0.028 H 
ATOM     51  H   LIG d   1       3.872 -11.311  -3.469  0.00  0.00     0.028 H 
ENDBRANCH  42  48
ENDBRANCH  35  38
ENDBRANCH  33  35
ENDBRANCH  30  33
ENDBRANCH  27  30
ENDBRANCH   1  27
BRANCH   1  52
ATOM     52  S   LIG d   1       5.486  -3.718  -5.175  0.00  0.00     0.061 S 
ATOM     53  O   LIG d   1       4.305  -4.506  -5.129  0.00  0.00    -0.153 OA
ATOM     54  O   LIG d   1       6.770  -4.251  -4.878  0.00  0.00    -0.153 OA
BRANCH  52  55
ATOM     55  C   LIG d   1       5.235  -2.366  -4.074  0.00  0.00     0.105 A 
ATOM     56  C   LIG d   1       6.197  -1.381  -3.957  0.00  0.00    -0.035 A 
ATOM     57  C   LIG d   1       5.999  -0.319  -3.096  0.00  0.00    -0.057 A 
ATOM     58  H   LIG d   1       7.105  -1.441  -4.540  0.00  0.00     0.064 H 
ATOM     59  C   LIG d   1       4.839  -0.244  -2.346  0.00  0.00    -0.050 A 
ATOM     60  H   LIG d   1       6.749   0.453  -3.007  0.00  0.00     0.062 H 
ATOM     61  C   LIG d   1       3.879  -1.232  -2.460  0.00  0.00    -0.057 A 
ATOM     62  C   LIG d   1       4.076  -2.293  -3.323  0.00  0.00    -0.035 A 
ATOM     63  H   LIG d   1       2.974  -1.174  -1.873  0.00  0.00     0.062 H 
ATOM     64  H   LIG d   1       3.325  -3.065  -3.412  0.00  0.00     0.064 H 
BRANCH  59  65
ATOM     65  C   LIG d   1       4.623   0.912  -1.405  0.00  0.00    -0.040 C 
ATOM     66  H   LIG d   1       3.935   1.626  -1.857  0.00  0.00     0.028 H 
ATOM     67  H   LIG d   1       4.201   0.544  -0.469  0.00  0.00     0.028 H 
ATOM     68  H   LIG d   1       5.576   1.401  -1.205  0.00  0.00     0.028 H 
ENDBRANCH  59  65
ENDBRANCH  52  55
ENDBRANCH   1  52
TORSDOF 15
ENDMDL
MODEL 2
REMARK VINA RESULT:      -7.0      2.352      8.356
REMARK  15 active torsions:
REMARK  status: ('A' for Active; 'I' for Inactive)
REMARK    1  A    between atoms: C_1  and  C_2 
REMARK    2  A    between atoms: C_5  and  S_8 
REMARK    3  A    between atoms: S_8  and  N_11 
REMARK    4  A    between atoms: N_11  and  C_12 
REMARK    5  A    between atoms: C_12  and  C_13 
REMARK    6  A    between atoms: C_13  and  N_14 
REMARK    7  A    between atoms: N_14  and  C_15 
REMARK    8  A    between atoms: N_14  and  S_28 
REMARK    9  A    between atoms: C_15  and  C_16 
REMARK   10  A    between atoms: C_16  and  N_17 
REMARK   11  A    between atoms: N_17  and  S_18 
REMARK   12  A    between atoms: S_18  and  C_21 
REMARK   13  A    between atoms: C_24  and  C_27 
REMARK   14  A    between atoms: S_28  and  C_31 
REMARK   15  A    between atoms: C_34  and  C_37 
ROOT
ATOM      1  N   LIG d   1       5.251   0.320  -8.029  0.00  0.00    -0.174 N 
ENDROOT
BRANCH   1   2
ATOM      2  C   LIG d   1       4.782  -0.608  -7.000  0.00  0.00     0.035 C 
ATOM      3  H   LIG d   1       3.829  -0.258  -6.601  0.00  0.00     0.046 H 
ATOM      4  H   LIG d   1       5.514  -0.659  -6.193  0.00  0.00     0.046 H 
BRANCH   2   5
ATOM      5  C   LIG d   1       4.599  -1.999  -7.611  0.00  0.00     0.032 C 
ATOM      6  H   LIG d   1       5.516  -2.295  -8.120  0.00  0.00     0.045 H 
ATOM      7  H   LIG d   1       3.777  -1.976  -8.326  0.00  0.00     0.045 H 
BRANCH   5   8
ATOM      8  N   LIG d   1       4.297  -2.963  -6.551  0.00  0.00    -0.189 N 
ATOM      9  H   LIG d   1       4.034  -2.651  -5.671  0.00  0.00     0.148 HD
BRANCH   8  10
ATOM     10  S   LIG d   1       4.402  -4.588  -6.853  0.00  0.00     0.058 S 
ATOM     11  O   LIG d   1       4.598  -4.728  -8.254  0.00  0.00    -0.153 OA
ATOM     12  O   LIG d   1       3.317  -5.200  -6.172  0.00  0.00    -0.153 OA
BRANCH  10  13
ATOM     13  C   LIG d   1       5.875  -5.168  -6.079  0.00  0.00     0.105 A 
ATOM     14  C   LIG d   1       6.056  -6.521  -5.864  0.00  0.00    -0.035 A 
ATOM     15  C   LIG d   1       7.211  -6.976  -5.258  0.00  0.00    -0.057 A 
ATOM     16  H   LIG d   1       5.294  -7.223  -6.171  0.00  0.00     0.064 H 
ATOM     17  C   LIG d   1       8.187  -6.078  -4.867  0.00  0.00    -0.050 A 
ATOM     18  H   LIG d   1       7.353  -8.033  -5.090  0.00  0.00     0.062 H 
ATOM     19  C   LIG d   1       8.003  -4.724  -5.077  0.00  0.00    -0.057 A 
ATOM     20  C   LIG d   1       6.850  -4.269  -5.688  0.00  0.00    -0.035 A 
ATOM     21  H   LIG d   1       8.763  -4.021  -4.766  0.00  0.00     0.062 H 
ATOM     22  H   LIG d   1       6.708  -3.212  -5.856  0.00  0.00     0.064 H 
BRANCH  17  23
ATOM     23  C   LIG d   1       9.447  -6.574  -4.205  0.00  0.00    -0.040 C 
ATOM     24  H   LIG d   1       9.319  -7.618  -3.918  0.00  0.00     0.028 H 
ATOM     25  H   LIG d   1      10.281  -6.487  -4.900  0.00  0.00     0.028 H 
ATOM     26  H   LIG d   1       9.650  -5.975  -3.317  0.00  0.00     0.028 H 
ENDBRANCH  17  23
ENDBRANCH  10  13
ENDBRANCH   8  10
ENDBRANCH   5   8
ENDBRANCH   2   5
ENDBRANCH   1   2
BRANCH   1  27
ATOM     27  C   LIG d   1       6.670   0.356  -8.393  0.00  0.00     0.035 C 
ATOM     28  H   LIG d   1       6.883  -0.435  -9.111  0.00  0.00     0.046 H 
ATOM     29  H   LIG d   1       6.907   1.323  -8.836  0.00  0.00     0.046 H 
BRANCH  27  30
ATOM     30  C   LIG d   1       7.523   0.148  -7.139  0.00  0.00     0.032 C 
ATOM     31  H   LIG d   1       7.066  -0.617  -6.512  0.00  0.00     0.045 H 
ATOM     32  H   LIG d   1       8.524  -0.171  -7.430  0.00  0.00     0.045 H 
BRANCH  30  33
ATOM     33  N   LIG d   1       7.609   1.405  -6.392  0.00  0.00    -0.189 N 
ATOM     34  H   LIG d   1       7.428   2.247  -6.837  0.00  0.00     0.148 HD
BRANCH  33  35
ATOM     35  S   LIG d   1       8.015   1.388  -4.786  0.00  0.00     0.058 S 
ATOM     36  O   LIG d   1       9.254   0.701  -4.688  0.00  0.00    -0.153 OA
ATOM     37  O   LIG d   1       7.840   2.715  -4.309  0.00  0.00    -0.153 OA
BRANCH  35  38
ATOM     38  C   LIG d   1       6.820   0.394  -3.958  0.00  0.00     0.105 A 
ATOM     39  C   LIG d   1       5.747   0.990  -3.321  0.00  0.00    -0.035 A 
ATOM     40  C   LIG d   1       4.806   0.208  -2.675  0.00  0.00    -0.057 A 
ATOM     41  H   LIG d   1       5.641   2.063  -3.331  0.00  0.00     0.064 H 
ATOM     42  C   LIG d   1       4.944  -1.166  -2.658  0.00  0.00    -0.050 A 
ATOM     43  H   LIG d   1       3.966   0.673  -2.182  0.00  0.00     0.062 H 
ATOM     44  C   LIG d   1       6.020  -1.762  -3.290  0.00  0.00    -0.057 A 
ATOM     45  C   LIG d   1       6.958  -0.982  -3.939  0.00  0.00    -0.035 A 
ATOM     46  H   LIG d   1       6.127  -2.837  -3.275  0.00  0.00     0.062 H 
ATOM     47  H   LIG d   1       7.798  -1.447  -4.434  0.00  0.00     0.064 H 
BRANCH  42  48
ATOM     48  C   LIG d   1       3.921  -2.017  -1.950  0.00  0.00    -0.040 C 
ATOM     49  H   LIG d   1       3.571  -1.498  -1.057  0.00  0.00     0.028 H 
ATOM     50  H   LIG d   1       3.079  -2.203  -2.617  0.00  0.00     0.028 H 
ATOM     51  H   LIG d   1       4.374  -2.967  -1.663  0.00  0.00     0.028 H 
ENDBRANCH  42  48
ENDBRANCH  35  38
ENDBRANCH  33  35
ENDBRANCH  30  33
ENDBRANCH  27  30
ENDBRANCH   1  27
BRANCH   1  52
ATOM     52  S   LIG d   1       4.178   1.331  -8.785  0.00  0.00     0.061 S 
ATOM     53  O   LIG d   1       3.241   1.740  -7.798  0.00  0.00    -0.153 OA
ATOM     54  O   LIG d   1       4.953   2.259  -9.533  0.00  0.00    -0.153 OA
BRANCH  52  55
ATOM     55  C   LIG d   1       3.286   0.362  -9.955  0.00  0.00     0.105 A 
ATOM     56  C   LIG d   1       2.027  -0.113  -9.643  0.00  0.00    -0.035 A 
ATOM     57  C   LIG d   1       1.325  -0.870 -10.562  0.00  0.00    -0.057 A 
ATOM     58  H   LIG d   1       1.589   0.109  -8.681  0.00  0.00     0.064 H 
ATOM     59  C   LIG d   1       1.887  -1.159 -11.792  0.00  0.00    -0.050 A 
ATOM     60  H   LIG d   1       0.339  -1.238 -10.320  0.00  0.00     0.062 H 
ATOM     61  C   LIG d   1       3.148  -0.687 -12.103  0.00  0.00    -0.057 A 
ATOM     62  C   LIG d   1       3.849   0.073 -11.185  0.00  0.00    -0.035 A 
ATOM     63  H   LIG d   1       3.587  -0.913 -13.063  0.00  0.00     0.062 H 
ATOM     64  H   LIG d   1       4.835   0.441 -11.428  0.00  0.00     0.064 H 
BRANCH  59  65
ATOM     65  C   LIG d   1       1.124  -1.987 -12.794  0.00  0.00    -0.040 C 
ATOM     66  H   LIG d   1       0.085  -2.074 -12.478  0.00  0.00     0.028 H 
ATOM     67  H   LIG d   1       1.168  -1.504 -13.771  0.00  0.00     0.028 H 
ATOM     68  H   LIG d   1       1.569  -2.979 -12.859  0.00  0.00     0.028 H 
ENDBRANCH  59  65
ENDBRANCH  52  55
ENDBRANCH   1  52
TORSDOF 15
ENDMDL
MODEL 3
REMARK VINA RESULT:      -7.0      2.356      6.701
REMARK  15 active torsions:
REMARK  status: ('A' for Active; 'I' for Inactive)
REMARK    1  A    between atoms: C_1  and  C_2 
REMARK    2  A    between atoms: C_5  and  S_8 
REMARK    3  A    between atoms: S_8  and  N_11 
REMARK    4  A    between atoms: N_11  and  C_12 
REMARK    5  A    between atoms: C_12  and  C_13 
REMARK    6  A    between atoms: C_13  and  N_14 
REMARK    7  A    between atoms: N_14  and  C_15 
REMARK    8  A    between atoms: N_14  and  S_28 
REMARK    9  A    between atoms: C_15  and  C_16 
REMARK   10  A    between atoms: C_16  and  N_17 
REMARK   11  A    between atoms: N_17  and  S_18 
REMARK   12  A    between atoms: S_18  and  C_21 
REMARK   13  A    between atoms: C_24  and  C_27 
REMARK   14  A    between atoms: S_28  and  C_31 
REMARK   15  A    between atoms: C_34  and  C_37 
ROOT
ATOM      1  N   LIG d   1       5.258   0.294  -8.009  0.00  0.00    -0.174 N 
ENDROOT
BRANCH   1   2
ATOM      2  C   LIG d   1       6.672   0.302  -8.390  0.00  0.00     0.035 C 
ATOM      3  H   LIG d   1       6.914   1.253  -8.867  0.00  0.00     0.046 H 
ATOM      4  H   LIG d   1       6.866  -0.513  -9.087  0.00  0.00     0.046 H 
BRANCH   2   5
ATOM      5  C   LIG d   1       7.538   0.123  -7.141  0.00  0.00     0.032 C 
ATOM      6  H   LIG d   1       8.534  -0.208  -7.434  0.00  0.00     0.045 H 
ATOM      7  H   LIG d   1       7.085  -0.623  -6.489  0.00  0.00     0.045 H 
BRANCH   5   8
ATOM      8  N   LIG d   1       7.638   1.399  -6.428  0.00  0.00    -0.189 N 
ATOM      9  H   LIG d   1       7.468   2.231  -6.897  0.00  0.00     0.148 HD
BRANCH   8  10
ATOM     10  S   LIG d   1       8.041   1.421  -4.822  0.00  0.00     0.058 S 
ATOM     11  O   LIG d   1       7.851   2.756  -4.375  0.00  0.00    -0.153 OA
ATOM     12  O   LIG d   1       9.288   0.750  -4.706  0.00  0.00    -0.153 OA
BRANCH  10  13
ATOM     13  C   LIG d   1       6.855   0.432  -3.974  0.00  0.00     0.105 A 
ATOM     14  C   LIG d   1       6.988  -0.943  -3.958  0.00  0.00    -0.035 A 
ATOM     15  C   LIG d   1       6.058  -1.720  -3.292  0.00  0.00    -0.057 A 
ATOM     16  H   LIG d   1       7.819  -1.412  -4.464  0.00  0.00     0.064 H 
ATOM     17  C   LIG d   1       4.995  -1.120  -2.642  0.00  0.00    -0.050 A 
ATOM     18  H   LIG d   1       6.162  -2.794  -3.278  0.00  0.00     0.062 H 
ATOM     19  C   LIG d   1       4.860   0.255  -2.664  0.00  0.00    -0.057 A 
ATOM     20  C   LIG d   1       5.792   1.032  -3.325  0.00  0.00    -0.035 A 
ATOM     21  H   LIG d   1       4.026   0.724  -2.160  0.00  0.00     0.062 H 
ATOM     22  H   LIG d   1       5.688   2.107  -3.339  0.00  0.00     0.064 H 
BRANCH  17  23
ATOM     23  C   LIG d   1       3.981  -1.967  -1.916  0.00  0.00    -0.040 C 
ATOM     24  H   LIG d   1       4.400  -2.955  -1.728  0.00  0.00     0.028 H 
ATOM     25  H   LIG d   1       3.725  -1.494  -0.968  0.00  0.00     0.028 H 
ATOM     26  H   LIG d   1       3.084  -2.062  -2.528  0.00  0.00     0.028 H 
ENDBRANCH  17  23
ENDBRANCH  10  13
ENDBRANCH   8  10
ENDBRANCH   5   8
ENDBRANCH   2   5
ENDBRANCH   1   2
BRANCH   1  27
ATOM     27  C   LIG d   1       4.785  -0.622  -6.967  0.00  0.00     0.035 C 
ATOM     28  H   LIG d   1       5.533  -0.693  -6.178  0.00  0.00     0.046 H 
ATOM     29  H   LIG d   1       3.851  -0.245  -6.551  0.00  0.00     0.046 H 
BRANCH  27  30
ATOM     30  C   LIG d   1       4.552  -2.008  -7.574  0.00  0.00     0.032 C 
ATOM     31  H   LIG d   1       3.680  -1.975  -8.228  0.00  0.00     0.045 H 
ATOM     32  H   LIG d   1       5.428  -2.304  -8.150  0.00  0.00     0.045 H 
BRANCH  30  33
ATOM     33  N   LIG d   1       4.322  -2.978  -6.500  0.00  0.00    -0.189 N 
ATOM     34  H   LIG d   1       4.111  -2.670  -5.606  0.00  0.00     0.148 HD
BRANCH  33  35
ATOM     35  S   LIG d   1       4.421  -4.601  -6.816  0.00  0.00     0.058 S 
ATOM     36  O   LIG d   1       3.331  -5.212  -6.141  0.00  0.00    -0.153 OA
ATOM     37  O   LIG d   1       4.619  -4.730  -8.217  0.00  0.00    -0.153 OA
BRANCH  35  38
ATOM     38  C   LIG d   1       5.889  -5.193  -6.042  0.00  0.00     0.105 A 
ATOM     39  C   LIG d   1       6.063  -6.549  -5.838  0.00  0.00    -0.035 A 
ATOM     40  C   LIG d   1       7.218  -7.014  -5.235  0.00  0.00    -0.057 A 
ATOM     41  H   LIG d   1       5.301  -7.245  -6.152  0.00  0.00     0.064 H 
ATOM     42  C   LIG d   1       8.192  -6.122  -4.828  0.00  0.00    -0.050 A 
ATOM     43  H   LIG d   1       7.356  -8.073  -5.080  0.00  0.00     0.062 H 
ATOM     44  C   LIG d   1       8.014  -4.765  -5.026  0.00  0.00    -0.057 A 
ATOM     45  C   LIG d   1       6.863  -4.301  -5.633  0.00  0.00    -0.035 A 
ATOM     46  H   LIG d   1       8.776  -4.069  -4.707  0.00  0.00     0.062 H 
ATOM     47  H   LIG d   1       6.725  -3.241  -5.789  0.00  0.00     0.064 H 
BRANCH  42  48
ATOM     48  C   LIG d   1       9.448  -6.629  -4.166  0.00  0.00    -0.040 C 
ATOM     49  H   LIG d   1       9.359  -7.701  -3.992  0.00  0.00     0.028 H 
ATOM     50  H   LIG d   1      10.303  -6.434  -4.814  0.00  0.00     0.028 H 
ATOM     51  H   LIG d   1       9.589  -6.116  -3.214  0.00  0.00     0.028 H 
ENDBRANCH  42  48
ENDBRANCH  35  38
ENDBRANCH  33  35
ENDBRANCH  30  33
ENDBRANCH  27  30
ENDBRANCH   1  27
BRANCH   1  52
ATOM     52  S   LIG d   1       4.193   1.319  -8.756  0.00  0.00     0.061 S 
ATOM     53  O   LIG d   1       3.262   1.731  -7.764  0.00  0.00    -0.153 OA
ATOM     54  O   LIG d   1       4.974   2.245  -9.500  0.00  0.00    -0.153 OA
BRANCH  52  55
ATOM     55  C   LIG d   1       3.289   0.365  -9.929  0.00  0.00     0.105 A 
ATOM     56  C   LIG d   1       2.020  -0.088  -9.622  0.00  0.00    -0.035 A 
ATOM     57  C   LIG d   1       1.310  -0.833 -10.544  0.00  0.00    -0.057 A 
ATOM     58  H   LIG d   1       1.583   0.141  -8.661  0.00  0.00     0.064 H 
ATOM     59  C   LIG d   1       1.871  -1.131 -11.772  0.00  0.00    -0.050 A 
ATOM     60  H   LIG d   1       0.316  -1.184 -10.305  0.00  0.00     0.062 H 
ATOM     61  C   LIG d   1       3.141  -0.681 -12.078  0.00  0.00    -0.057 A 
ATOM     62  C   LIG d   1       3.851   0.067 -11.157  0.00  0.00    -0.035 A 
ATOM     63  H   LIG d   1       3.580  -0.914 -13.037  0.00  0.00     0.062 H 
ATOM     64  H   LIG d   1       4.844   0.418 -11.396  0.00  0.00     0.064 H 
BRANCH  59  65
ATOM     65  C   LIG d   1       1.098  -1.945 -12.777  0.00  0.00    -0.040 C 
ATOM     66  H   LIG d   1       0.769  -2.876 -12.315  0.00  0.00     0.028 H 
ATOM     67  H   LIG d   1       0.228  -1.379 -13.110  0.00  0.00     0.028 H 
ATOM     68  H   LIG d   1       1.736  -2.168 -13.631  0.00  0.00     0.028 H 
ENDBRANCH  59  65
ENDBRANCH  52  55
ENDBRANCH   1  52
TORSDOF 15
ENDMDL
MODEL 4
REMARK VINA RESULT:      -7.0      1.053      7.812
REMARK  15 active torsions:
REMARK  status: ('A' for Active; 'I' for Inactive)
REMARK    1  A    between atoms: C_1  and  C_2 
REMARK    2  A    between atoms: C_5  and  S_8 
REMARK    3  A    between atoms: S_8  and  N_11 
REMARK    4  A    between atoms: N_11  and  C_12 
REMARK    5  A    between atoms: C_12  and  C_13 
REMARK    6  A    between atoms: C_13  and  N_14 
REMARK    7  A    between atoms: N_14  and  C_15 
REMARK    8  A    between atoms: N_14  and  S_28 
REMARK    9  A    between atoms: C_15  and  C_16 
REMARK   10  A    between atoms: C_16  and  N_17 
REMARK   11  A    between atoms: N_17  and  S_18 
REMARK   12  A    between atoms: S_18  and  C_21 
REMARK   13  A    between atoms: C_24  and  C_27 
REMARK   14  A    between atoms: S_28  and  C_31 
REMARK   15  A    between atoms: C_34  and  C_37 
ROOT
ATOM      1  N   LIG d   1       5.227  -3.101  -6.745  0.00  0.00    -0.174 N 
ENDROOT
BRANCH   1   2
ATOM      2  C   LIG d   1       5.735  -3.858  -7.890  0.00  0.00     0.035 C 
ATOM      3  H   LIG d   1       6.433  -4.621  -7.541  0.00  0.00     0.046 H 
ATOM      4  H   LIG d   1       6.249  -3.184  -8.575  0.00  0.00     0.046 H 
BRANCH   2   5
ATOM      5  C   LIG d   1       4.568  -4.530  -8.615  0.00  0.00     0.032 C 
ATOM      6  H   LIG d   1       4.912  -4.921  -9.573  0.00  0.00     0.045 H 
ATOM      7  H   LIG d   1       3.776  -3.801  -8.783  0.00  0.00     0.045 H 
BRANCH   5   8
ATOM      8  N   LIG d   1       4.052  -5.631  -7.797  0.00  0.00    -0.189 N 
ATOM      9  H   LIG d   1       3.429  -5.450  -7.077  0.00  0.00     0.148 HD
BRANCH   8  10
ATOM     10  S   LIG d   1       4.533  -7.186  -8.103  0.00  0.00     0.058 S 
ATOM     11  O   LIG d   1       5.502  -7.115  -9.140  0.00  0.00    -0.153 OA
ATOM     12  O   LIG d   1       3.349  -7.963  -8.219  0.00  0.00    -0.153 OA
BRANCH  10  13
ATOM     13  C   LIG d   1       5.376  -7.763  -6.666  0.00  0.00     0.105 A 
ATOM     14  C   LIG d   1       4.806  -8.746  -5.880  0.00  0.00    -0.035 A 
ATOM     15  C   LIG d   1       5.466  -9.199  -4.754  0.00  0.00    -0.057 A 
ATOM     16  H   LIG d   1       3.844  -9.161  -6.146  0.00  0.00     0.064 H 
ATOM     17  C   LIG d   1       6.697  -8.669  -4.414  0.00  0.00    -0.050 A 
ATOM     18  H   LIG d   1       5.021  -9.967  -4.139  0.00  0.00     0.062 H 
ATOM     19  C   LIG d   1       7.264  -7.682  -5.198  0.00  0.00    -0.057 A 
ATOM     20  C   LIG d   1       6.606  -7.232  -6.327  0.00  0.00    -0.035 A 
ATOM     21  H   LIG d   1       8.224  -7.264  -4.930  0.00  0.00     0.062 H 
ATOM     22  H   LIG d   1       7.051  -6.464  -6.942  0.00  0.00     0.064 H 
BRANCH  17  23
ATOM     23  C   LIG d   1       7.417  -9.163  -3.186  0.00  0.00    -0.040 C 
ATOM     24  H   LIG d   1       7.663 -10.217  -3.308  0.00  0.00     0.028 H 
ATOM     25  H   LIG d   1       8.334  -8.590  -3.046  0.00  0.00     0.028 H 
ATOM     26  H   LIG d   1       6.774  -9.038  -2.314  0.00  0.00     0.028 H 
ENDBRANCH  17  23
ENDBRANCH  10  13
ENDBRANCH   8  10
ENDBRANCH   5   8
ENDBRANCH   2   5
ENDBRANCH   1   2
BRANCH   1  27
ATOM     27  C   LIG d   1       4.495  -1.850  -6.960  0.00  0.00     0.035 C 
ATOM     28  H   LIG d   1       3.539  -2.065  -7.437  0.00  0.00     0.046 H 
ATOM     29  H   LIG d   1       4.321  -1.362  -6.001  0.00  0.00     0.046 H 
BRANCH  27  30
ATOM     30  C   LIG d   1       5.318  -0.926  -7.861  0.00  0.00     0.032 C 
ATOM     31  H   LIG d   1       6.375  -1.027  -7.616  0.00  0.00     0.045 H 
ATOM     32  H   LIG d   1       5.160  -1.200  -8.904  0.00  0.00     0.045 H 
BRANCH  30  33
ATOM     33  N   LIG d   1       4.898   0.462  -7.651  0.00  0.00    -0.189 N 
ATOM     34  H   LIG d   1       4.883   0.834  -6.757  0.00  0.00     0.148 HD
BRANCH  33  35
ATOM     35  S   LIG d   1       4.450   1.395  -8.944  0.00  0.00     0.058 S 
ATOM     36  O   LIG d   1       3.657   2.453  -8.425  0.00  0.00    -0.153 OA
ATOM     37  O   LIG d   1       5.627   1.628  -9.705  0.00  0.00    -0.153 OA
BRANCH  35  38
ATOM     38  C   LIG d   1       3.386   0.415  -9.950  0.00  0.00     0.105 A 
ATOM     39  C   LIG d   1       3.784   0.046 -11.221  0.00  0.00    -0.035 A 
ATOM     40  C   LIG d   1       2.950  -0.728 -12.008  0.00  0.00    -0.057 A 
ATOM     41  H   LIG d   1       4.746   0.357 -11.598  0.00  0.00     0.064 H 
ATOM     42  C   LIG d   1       1.717  -1.123 -11.528  0.00  0.00    -0.050 A 
ATOM     43  H   LIG d   1       3.264  -1.020 -12.999  0.00  0.00     0.062 H 
ATOM     44  C   LIG d   1       1.316  -0.748 -10.259  0.00  0.00    -0.057 A 
ATOM     45  C   LIG d   1       2.150   0.020  -9.470  0.00  0.00    -0.035 A 
ATOM     46  H   LIG d   1       0.351  -1.057  -9.884  0.00  0.00     0.062 H 
ATOM     47  H   LIG d   1       1.838   0.313  -8.478  0.00  0.00     0.064 H 
BRANCH  42  48
ATOM     48  C   LIG d   1       0.807  -1.962 -12.388  0.00  0.00    -0.040 C 
ATOM     49  H   LIG d   1       1.323  -2.877 -12.678  0.00  0.00     0.028 H 
ATOM     50  H   LIG d   1      -0.093  -2.213 -11.827  0.00  0.00     0.028 H 
ATOM     51  H   LIG d   1       0.532  -1.401 -13.282  0.00  0.00     0.028 H 
ENDBRANCH  42  48
ENDBRANCH  35  38
ENDBRANCH  33  35
ENDBRANCH  30  33
ENDBRANCH  27  30
ENDBRANCH   1  27
BRANCH   1  52
ATOM     52  S   LIG d   1       5.479  -3.657  -5.205  0.00  0.00     0.061 S 
ATOM     53  O   LIG d   1       4.447  -4.597  -4.938  0.00  0.00    -0.153 OA
ATOM     54  O   LIG d   1       6.857  -3.993  -5.116  0.00  0.00    -0.153 OA
BRANCH  52  55
ATOM     55  C   LIG d   1       5.220  -2.300  -4.112  0.00  0.00     0.105 A 
ATOM     56  C   LIG d   1       6.130  -1.260  -4.073  0.00  0.00    -0.035 A 
ATOM     57  C   LIG d   1       5.925  -0.193  -3.219  0.00  0.00    -0.057 A 
ATOM     58  H   LIG d   1       7.000  -1.281  -4.712  0.00  0.00     0.064 H 
ATOM     59  C   LIG d   1       4.813  -0.169  -2.398  0.00  0.00    -0.050 A 
ATOM     60  H   LIG d   1       6.633   0.622  -3.192  0.00  0.00     0.062 H 
ATOM     61  C   LIG d   1       3.905  -1.211  -2.433  0.00  0.00    -0.057 A 
ATOM     62  C   LIG d   1       4.108  -2.277  -3.290  0.00  0.00    -0.035 A 
ATOM     63  H   LIG d   1       3.037  -1.193  -1.792  0.00  0.00     0.062 H 
ATOM     64  H   LIG d   1       3.399  -3.091  -3.318  0.00  0.00     0.064 H 
BRANCH  59  65
ATOM     65  C   LIG d   1       4.590   0.992  -1.464  0.00  0.00    -0.040 C 
ATOM     66  H   LIG d   1       3.521   1.127  -1.299  0.00  0.00     0.028 H 
ATOM     67  H   LIG d   1       5.082   0.791  -0.512  0.00  0.00     0.028 H 
ATOM     68  H   LIG d   1       5.006   1.898  -1.904  0.00  0.00     0.028 H 
ENDBRANCH  59  65
ENDBRANCH  52  55
ENDBRANCH   1  52
TORSDOF 15
ENDMDL
MODEL 5
REMARK VINA RESULT:      -7.0      3.336      6.933
REMARK  15 active torsions:
REMARK  status: ('A' for Active; 'I' for Inactive)
REMARK    1  A    between atoms: C_1  and  C_2 
REMARK    2  A    between atoms: C_5  and  S_8 
REMARK    3  A    between atoms: S_8  and  N_11 
REMARK    4  A    between atoms: N_11  and  C_12 
REMARK    5  A    between atoms: C_12  and  C_13 
REMARK    6  A    between atoms: C_13  and  N_14 
REMARK    7  A    between atoms: N_14  and  C_15 
REMARK    8  A    between atoms: N_14  and  S_28 
REMARK    9  A    between atoms: C_15  and  C_16 
REMARK   10  A    between atoms: C_16  and  N_17 
REMARK   11  A    between atoms: N_17  and  S_18 
REMARK   12  A    between atoms: S_18  and  C_21 
REMARK   13  A    between atoms: C_24  and  C_27 
REMARK   14  A    between atoms: S_28  and  C_31 
REMARK   15  A    between atoms: C_34  and  C_37 
ROOT
ATOM      1  N   LIG d   1       5.000  -2.972  -6.885  0.00  0.00    -0.174 N 
ENDROOT
BRANCH   1   2
ATOM      2  C   LIG d   1       4.806  -1.531  -7.057  0.00  0.00     0.035 C 
ATOM      3  H   LIG d   1       4.838  -1.041  -6.082  0.00  0.00     0.046 H 
ATOM      4  H   LIG d   1       3.839  -1.346  -7.524  0.00  0.00     0.046 H 
BRANCH   2   5
ATOM      5  C   LIG d   1       5.917  -0.970  -7.946  0.00  0.00     0.032 C 
ATOM      6  H   LIG d   1       5.611  -1.027  -8.990  0.00  0.00     0.045 H 
ATOM      7  H   LIG d   1       6.828  -1.551  -7.801  0.00  0.00     0.045 H 
BRANCH   5   8
ATOM      8  N   LIG d   1       6.169   0.429  -7.588  0.00  0.00    -0.189 N 
ATOM      9  H   LIG d   1       5.512   0.925  -7.076  0.00  0.00     0.148 HD
BRANCH   8  10
ATOM     10  S   LIG d   1       7.577   1.163  -8.058  0.00  0.00     0.058 S 
ATOM     11  O   LIG d   1       7.216   2.183  -8.979  0.00  0.00    -0.153 OA
ATOM     12  O   LIG d   1       8.486   0.124  -8.392  0.00  0.00    -0.153 OA
BRANCH  10  13
ATOM     13  C   LIG d   1       8.239   1.976  -6.641  0.00  0.00     0.105 A 
ATOM     14  C   LIG d   1       7.849   1.583  -5.375  0.00  0.00    -0.035 A 
ATOM     15  C   LIG d   1       8.368   2.220  -4.263  0.00  0.00    -0.057 A 
ATOM     16  H   LIG d   1       7.139   0.778  -5.253  0.00  0.00     0.064 H 
ATOM     17  C   LIG d   1       9.277   3.249  -4.418  0.00  0.00    -0.050 A 
ATOM     18  H   LIG d   1       8.064   1.913  -3.274  0.00  0.00     0.062 H 
ATOM     19  C   LIG d   1       9.662   3.646  -5.685  0.00  0.00    -0.057 A 
ATOM     20  C   LIG d   1       9.147   3.006  -6.797  0.00  0.00    -0.035 A 
ATOM     21  H   LIG d   1      10.369   4.454  -5.807  0.00  0.00     0.062 H 
ATOM     22  H   LIG d   1       9.451   3.313  -7.786  0.00  0.00     0.064 H 
BRANCH  17  23
ATOM     23  C   LIG d   1       9.843   3.944  -3.206  0.00  0.00    -0.040 C 
ATOM     24  H   LIG d   1      10.809   3.508  -2.955  0.00  0.00     0.028 H 
ATOM     25  H   LIG d   1       9.967   5.005  -3.421  0.00  0.00     0.028 H 
ATOM     26  H   LIG d   1       9.159   3.821  -2.366  0.00  0.00     0.028 H 
ENDBRANCH  17  23
ENDBRANCH  10  13
ENDBRANCH   8  10
ENDBRANCH   5   8
ENDBRANCH   2   5
ENDBRANCH   1   2
BRANCH   1  27
ATOM     27  C   LIG d   1       4.924  -3.865  -8.044  0.00  0.00     0.035 C 
ATOM     28  H   LIG d   1       5.614  -3.521  -8.814  0.00  0.00     0.046 H 
ATOM     29  H   LIG d   1       5.193  -4.877  -7.741  0.00  0.00     0.046 H 
BRANCH  27  30
ATOM     30  C   LIG d   1       3.498  -3.861  -8.600  0.00  0.00     0.032 C 
ATOM     31  H   LIG d   1       3.020  -4.815  -8.377  0.00  0.00     0.045 H 
ATOM     32  H   LIG d   1       2.930  -3.054  -8.137  0.00  0.00     0.045 H 
BRANCH  30  33
ATOM     33  N   LIG d   1       3.539  -3.661 -10.050  0.00  0.00    -0.189 N 
ATOM     34  H   LIG d   1       4.214  -4.109 -10.582  0.00  0.00     0.148 HD
BRANCH  33  35
ATOM     35  S   LIG d   1       2.431  -2.670 -10.781  0.00  0.00     0.058 S 
ATOM     36  O   LIG d   1       2.642  -2.789 -12.180  0.00  0.00    -0.153 OA
ATOM     37  O   LIG d   1       1.177  -2.946 -10.173  0.00  0.00    -0.153 OA
BRANCH  35  38
ATOM     38  C   LIG d   1       2.848  -1.014 -10.347  0.00  0.00     0.105 A 
ATOM     39  C   LIG d   1       3.831  -0.343 -11.050  0.00  0.00    -0.035 A 
ATOM     40  C   LIG d   1       4.155   0.958 -10.712  0.00  0.00    -0.057 A 
ATOM     41  H   LIG d   1       4.344  -0.832 -11.864  0.00  0.00     0.064 H 
ATOM     42  C   LIG d   1       3.503   1.584  -9.667  0.00  0.00    -0.050 A 
ATOM     43  H   LIG d   1       4.920   1.484 -11.264  0.00  0.00     0.062 H 
ATOM     44  C   LIG d   1       2.523   0.910  -8.960  0.00  0.00    -0.057 A 
ATOM     45  C   LIG d   1       2.196  -0.389  -9.301  0.00  0.00    -0.035 A 
ATOM     46  H   LIG d   1       2.014   1.400  -8.143  0.00  0.00     0.062 H 
ATOM     47  H   LIG d   1       1.431  -0.915  -8.749  0.00  0.00     0.064 H 
BRANCH  42  48
ATOM     48  C   LIG d   1       3.859   3.000  -9.296  0.00  0.00    -0.040 C 
ATOM     49  H   LIG d   1       3.141   3.378  -8.568  0.00  0.00     0.028 H 
ATOM     50  H   LIG d   1       4.860   3.022  -8.865  0.00  0.00     0.028 H 
ATOM     51  H   LIG d   1       3.835   3.627 -10.188  0.00  0.00     0.028 H 
ENDBRANCH  42  48
ENDBRANCH  35  38
ENDBRANCH  33  35
ENDBRANCH  30  33
ENDBRANCH  27  30
ENDBRANCH   1  27
BRANCH   1  52
ATOM     52  S   LIG d   1       5.304  -3.594  -5.380  0.00  0.00     0.061 S 
ATOM     53  O   LIG d   1       4.272  -4.533  -5.112  0.00  0.00    -0.153 OA
ATOM     54  O   LIG d   1       6.681  -3.947  -5.358  0.00  0.00    -0.153 OA
BRANCH  52  55
ATOM     55  C   LIG d   1       5.102  -2.280  -4.224  0.00  0.00     0.105 A 
ATOM     56  C   LIG d   1       6.169  -1.454  -3.923  0.00  0.00    -0.035 A 
ATOM     57  C   LIG d   1       6.010  -0.421  -3.019  0.00  0.00    -0.057 A 
ATOM     58  H   LIG d   1       7.127  -1.616  -4.395  0.00  0.00     0.064 H 
ATOM     59  C   LIG d   1       4.785  -0.217  -2.410  0.00  0.00    -0.050 A 
ATOM     60  H   LIG d   1       6.843   0.227  -2.786  0.00  0.00     0.062 H 
ATOM     61  C   LIG d   1       3.720  -1.046  -2.708  0.00  0.00    -0.057 A 
ATOM     62  C   LIG d   1       3.878  -2.077  -3.615  0.00  0.00    -0.035 A 
ATOM     63  H   LIG d   1       2.764  -0.887  -2.232  0.00  0.00     0.062 H 
ATOM     64  H   LIG d   1       3.045  -2.725  -3.847  0.00  0.00     0.064 H 
BRANCH  59  65
ATOM     65  C   LIG d   1       4.612   0.907  -1.422  0.00  0.00    -0.040 C 
ATOM     66  H   LIG d   1       4.001   1.692  -1.867  0.00  0.00     0.028 H 
ATOM     67  H   LIG d   1       4.121   0.529  -0.525  0.00  0.00     0.028 H 
ATOM     68  H   LIG d   1       5.589   1.313  -1.158  0.00  0.00     0.028 H 
ENDBRANCH  59  65
ENDBRANCH  52  55
ENDBRANCH   1  52
TORSDOF 15
ENDMDL
MODEL 6
REMARK VINA RESULT:      -6.9      3.636      9.471
REMARK  15 active torsions:
REMARK  status: ('A' for Active; 'I' for Inactive)
REMARK    1  A    between atoms: C_1  and  C_2 
REMARK    2  A    between atoms: C_5  and  S_8 
REMARK    3  A    between atoms: S_8  and  N_11 
REMARK    4  A    between atoms: N_11  and  C_12 
REMARK    5  A    between atoms: C_12  and  C_13 
REMARK    6  A    between atoms: C_13  and  N_14 
REMARK    7  A    between atoms: N_14  and  C_15 
REMARK    8  A    between atoms: N_14  and  S_28 
REMARK    9  A    between atoms: C_15  and  C_16 
REMARK   10  A    between atoms: C_16  and  N_17 
REMARK   11  A    between atoms: N_17  and  S_18 
REMARK   12  A    between atoms: S_18  and  C_21 
REMARK   13  A    between atoms: C_24  and  C_27 
REMARK   14  A    between atoms: S_28  and  C_31 
REMARK   15  A    between atoms: C_34  and  C_37 
ROOT
ATOM      1  N   LIG d   1       5.217   0.259  -8.159  0.00  0.00    -0.174 N 
ENDROOT
BRANCH   1   2
ATOM      2  C   LIG d   1       4.647  -0.670  -7.182  0.00  0.00     0.035 C 
ATOM      3  H   LIG d   1       3.568  -0.519  -7.122  0.00  0.00     0.046 H 
ATOM      4  H   LIG d   1       5.093  -0.489  -6.204  0.00  0.00     0.046 H 
BRANCH   2   5
ATOM      5  C   LIG d   1       4.936  -2.108  -7.617  0.00  0.00     0.032 C 
ATOM      6  H   LIG d   1       6.012  -2.285  -7.596  0.00  0.00     0.045 H 
ATOM      7  H   LIG d   1       4.562  -2.265  -8.628  0.00  0.00     0.045 H 
BRANCH   5   8
ATOM      8  N   LIG d   1       4.272  -3.039  -6.700  0.00  0.00    -0.189 N 
ATOM      9  H   LIG d   1       3.381  -3.364  -6.902  0.00  0.00     0.148 HD
BRANCH   8  10
ATOM     10  S   LIG d   1       5.043  -3.535  -5.322  0.00  0.00     0.058 S 
ATOM     11  O   LIG d   1       6.417  -3.681  -5.654  0.00  0.00    -0.153 OA
ATOM     12  O   LIG d   1       4.272  -4.603  -4.787  0.00  0.00    -0.153 OA
BRANCH  10  13
ATOM     13  C   LIG d   1       4.943  -2.211  -4.163  0.00  0.00     0.105 A 
ATOM     14  C   LIG d   1       6.039  -1.398  -3.948  0.00  0.00    -0.035 A 
ATOM     15  C   LIG d   1       5.962  -0.359  -3.040  0.00  0.00    -0.057 A 
ATOM     16  H   LIG d   1       6.958  -1.574  -4.490  0.00  0.00     0.064 H 
ATOM     17  C   LIG d   1       4.787  -0.133  -2.347  0.00  0.00    -0.050 A 
ATOM     18  H   LIG d   1       6.818   0.277  -2.871  0.00  0.00     0.062 H 
ATOM     19  C   LIG d   1       3.692  -0.951  -2.559  0.00  0.00    -0.057 A 
ATOM     20  C   LIG d   1       3.768  -1.987  -3.470  0.00  0.00    -0.035 A 
ATOM     21  H   LIG d   1       2.775  -0.778  -2.014  0.00  0.00     0.062 H 
ATOM     22  H   LIG d   1       2.912  -2.622  -3.639  0.00  0.00     0.064 H 
BRANCH  17  23
ATOM     23  C   LIG d   1       4.702   1.000  -1.356  0.00  0.00    -0.040 C 
ATOM     24  H   LIG d   1       4.014   1.758  -1.729  0.00  0.00     0.028 H 
ATOM     25  H   LIG d   1       4.341   0.620  -0.400  0.00  0.00     0.028 H 
ATOM     26  H   LIG d   1       5.690   1.440  -1.223  0.00  0.00     0.028 H 
ENDBRANCH  17  23
ENDBRANCH  10  13
ENDBRANCH   8  10
ENDBRANCH   5   8
ENDBRANCH   2   5
ENDBRANCH   1   2
BRANCH   1  27
ATOM     27  C   LIG d   1       6.662   0.273  -8.402  0.00  0.00     0.035 C 
ATOM     28  H   LIG d   1       7.106  -0.640  -8.005  0.00  0.00     0.046 H 
ATOM     29  H   LIG d   1       6.849   0.332  -9.475  0.00  0.00     0.046 H 
BRANCH  27  30
ATOM     30  C   LIG d   1       7.284   1.487  -7.708  0.00  0.00     0.032 C 
ATOM     31  H   LIG d   1       8.216   1.752  -8.208  0.00  0.00     0.045 H 
ATOM     32  H   LIG d   1       6.593   2.328  -7.758  0.00  0.00     0.045 H 
BRANCH  30  33
ATOM     33  N   LIG d   1       7.557   1.161  -6.306  0.00  0.00    -0.189 N 
ATOM     34  H   LIG d   1       6.823   1.016  -5.691  0.00  0.00     0.148 HD
BRANCH  33  35
ATOM     35  S   LIG d   1       9.121   1.039  -5.774  0.00  0.00     0.058 S 
ATOM     36  O   LIG d   1       9.165  -0.079  -4.900  0.00  0.00    -0.153 OA
ATOM     37  O   LIG d   1       9.950   1.142  -6.923  0.00  0.00    -0.153 OA
BRANCH  35  38
ATOM     38  C   LIG d   1       9.447   2.462  -4.787  0.00  0.00     0.105 A 
ATOM     39  C   LIG d   1       9.979   2.317  -3.520  0.00  0.00    -0.035 A 
ATOM     40  C   LIG d   1      10.239   3.435  -2.748  0.00  0.00    -0.057 A 
ATOM     41  H   LIG d   1      10.194   1.333  -3.134  0.00  0.00     0.064 H 
ATOM     42  C   LIG d   1       9.959   4.695  -3.240  0.00  0.00    -0.050 A 
ATOM     43  H   LIG d   1      10.659   3.321  -1.760  0.00  0.00     0.062 H 
ATOM     44  C   LIG d   1       9.422   4.840  -4.506  0.00  0.00    -0.057 A 
ATOM     45  C   LIG d   1       9.166   3.724  -5.279  0.00  0.00    -0.035 A 
ATOM     46  H   LIG d   1       9.202   5.825  -4.889  0.00  0.00     0.062 H 
ATOM     47  H   LIG d   1       8.746   3.836  -6.268  0.00  0.00     0.064 H 
BRANCH  42  48
ATOM     48  C   LIG d   1      10.239   5.912  -2.397  0.00  0.00    -0.040 C 
ATOM     49  H   LIG d   1      10.852   6.614  -2.963  0.00  0.00     0.028 H 
ATOM     50  H   LIG d   1       9.297   6.389  -2.124  0.00  0.00     0.028 H 
ATOM     51  H   LIG d   1      10.770   5.614  -1.492  0.00  0.00     0.028 H 
ENDBRANCH  42  48
ENDBRANCH  35  38
ENDBRANCH  33  35
ENDBRANCH  30  33
ENDBRANCH  27  30
ENDBRANCH   1  27
BRANCH   1  52
ATOM     52  S   LIG d   1       4.228   1.296  -8.991  0.00  0.00     0.061 S 
ATOM     53  O   LIG d   1       3.359   1.885  -8.034  0.00  0.00    -0.153 OA
ATOM     54  O   LIG d   1       5.071   2.071  -9.834  0.00  0.00    -0.153 OA
BRANCH  52  55
ATOM     55  C   LIG d   1       3.220   0.315 -10.052  0.00  0.00     0.105 A 
ATOM     56  C   LIG d   1       3.684  -0.053 -11.301  0.00  0.00    -0.035 A 
ATOM     57  C   LIG d   1       2.896  -0.826 -12.132  0.00  0.00    -0.057 A 
ATOM     58  H   LIG d   1       4.665   0.262 -11.627  0.00  0.00     0.064 H 
ATOM     59  C   LIG d   1       1.638  -1.225 -11.716  0.00  0.00    -0.050 A 
ATOM     60  H   LIG d   1       3.259  -1.117 -13.106  0.00  0.00     0.062 H 
ATOM     61  C   LIG d   1       1.172  -0.853 -10.469  0.00  0.00    -0.057 A 
ATOM     62  C   LIG d   1       1.963  -0.082  -9.637  0.00  0.00    -0.035 A 
ATOM     63  H   LIG d   1       0.190  -1.164 -10.145  0.00  0.00     0.062 H 
ATOM     64  H   LIG d   1       1.598   0.208  -8.663  0.00  0.00     0.064 H 
BRANCH  59  65
ATOM     65  C   LIG d   1       0.776  -2.065 -12.623  0.00  0.00    -0.040 C 
ATOM     66  H   LIG d   1       0.630  -3.049 -12.177  0.00  0.00     0.028 H 
ATOM     67  H   LIG d   1      -0.191  -1.579 -12.756  0.00  0.00     0.028 H 
ATOM     68  H   LIG d   1       1.265  -2.173 -13.591  0.00  0.00     0.028 H 
ENDBRANCH  59  65
ENDBRANCH  52  55
ENDBRANCH   1  52
TORSDOF 15
ENDMDL
MODEL 7
REMARK VINA RESULT:      -6.9      3.560      8.220
REMARK  15 active torsions:
REMARK  status: ('A' for Active; 'I' for Inactive)
REMARK    1  A    between atoms: C_1  and  C_2 
REMARK    2  A    between atoms: C_5  and  S_8 
REMARK    3  A    between atoms: S_8  and  N_11 
REMARK    4  A    between atoms: N_11  and  C_12 
REMARK    5  A    between atoms: C_12  and  C_13 
REMARK    6  A    between atoms: C_13  and  N_14 
REMARK    7  A    between atoms: N_14  and  C_15 
REMARK    8  A    between atoms: N_14  and  S_28 
REMARK    9  A    between atoms: C_15  and  C_16 
REMARK   10  A    between atoms: C_16  and  N_17 
REMARK   11  A    between atoms: N_17  and  S_18 
REMARK   12  A    between atoms: S_18  and  C_21 
REMARK   13  A    between atoms: C_24  and  C_27 
REMARK   14  A    between atoms: S_28  and  C_31 
REMARK   15  A    between atoms: C_34  and  C_37 
ROOT
ATOM      1  N   LIG d   1       5.257   0.073  -8.113  0.00  0.00    -0.174 N 
ENDROOT
BRANCH   1   2
ATOM      2  C   LIG d   1       6.719   0.064  -8.169  0.00  0.00     0.035 C 
ATOM      3  H   LIG d   1       7.048   0.437  -9.140  0.00  0.00     0.046 H 
ATOM      4  H   LIG d   1       7.083  -0.954  -8.030  0.00  0.00     0.046 H 
BRANCH   2   5
ATOM      5  C   LIG d   1       7.278   0.961  -7.063  0.00  0.00     0.032 C 
ATOM      6  H   LIG d   1       7.049   0.525  -6.091  0.00  0.00     0.045 H 
ATOM      7  H   LIG d   1       6.826   1.950  -7.133  0.00  0.00     0.045 H 
BRANCH   5   8
ATOM      8  N   LIG d   1       8.731   1.077  -7.214  0.00  0.00    -0.189 N 
ATOM      9  H   LIG d   1       9.114   1.271  -8.084  0.00  0.00     0.148 HD
BRANCH   8  10
ATOM     10  S   LIG d   1       9.719   0.878  -5.901  0.00  0.00     0.058 S 
ATOM     11  O   LIG d   1      11.035   0.698  -6.406  0.00  0.00    -0.153 OA
ATOM     12  O   LIG d   1       9.090  -0.080  -5.060  0.00  0.00    -0.153 OA
BRANCH  10  13
ATOM     13  C   LIG d   1       9.723   2.401  -5.015  0.00  0.00     0.105 A 
ATOM     14  C   LIG d   1       9.533   3.592  -5.690  0.00  0.00    -0.035 A 
ATOM     15  C   LIG d   1       9.535   4.787  -4.996  0.00  0.00    -0.057 A 
ATOM     16  H   LIG d   1       9.382   3.589  -6.760  0.00  0.00     0.064 H 
ATOM     17  C   LIG d   1       9.727   4.792  -3.627  0.00  0.00    -0.050 A 
ATOM     18  H   LIG d   1       9.387   5.718  -5.523  0.00  0.00     0.062 H 
ATOM     19  C   LIG d   1       9.923   3.600  -2.954  0.00  0.00    -0.057 A 
ATOM     20  C   LIG d   1       9.916   2.404  -3.647  0.00  0.00    -0.035 A 
ATOM     21  H   LIG d   1      10.078   3.603  -1.884  0.00  0.00     0.062 H 
ATOM     22  H   LIG d   1      10.065   1.474  -3.120  0.00  0.00     0.064 H 
BRANCH  17  23
ATOM     23  C   LIG d   1       9.730   6.095  -2.870  0.00  0.00    -0.040 C 
ATOM     24  H   LIG d   1      10.503   6.068  -2.103  0.00  0.00     0.028 H 
ATOM     25  H   LIG d   1       9.931   6.915  -3.560  0.00  0.00     0.028 H 
ATOM     26  H   LIG d   1       8.757   6.244  -2.401  0.00  0.00     0.028 H 
ENDBRANCH  17  23
ENDBRANCH  10  13
ENDBRANCH   8  10
ENDBRANCH   5   8
ENDBRANCH   2   5
ENDBRANCH   1   2
BRANCH   1  27
ATOM     27  C   LIG d   1       4.550  -0.884  -7.258  0.00  0.00     0.035 C 
ATOM     28  H   LIG d   1       4.699  -0.617  -6.212  0.00  0.00     0.046 H 
ATOM     29  H   LIG d   1       3.485  -0.861  -7.490  0.00  0.00     0.046 H 
BRANCH  27  30
ATOM     30  C   LIG d   1       5.097  -2.292  -7.507  0.00  0.00     0.032 C 
ATOM     31  H   LIG d   1       4.940  -2.562  -8.551  0.00  0.00     0.045 H 
ATOM     32  H   LIG d   1       6.164  -2.312  -7.284  0.00  0.00     0.045 H 
BRANCH  30  33
ATOM     33  N   LIG d   1       4.399  -3.247  -6.643  0.00  0.00    -0.189 N 
ATOM     34  H   LIG d   1       3.536  -3.600  -6.909  0.00  0.00     0.148 HD
BRANCH  33  35
ATOM     35  S   LIG d   1       5.085  -3.725  -5.213  0.00  0.00     0.058 S 
ATOM     36  O   LIG d   1       4.253  -4.748  -4.687  0.00  0.00    -0.153 OA
ATOM     37  O   LIG d   1       6.467  -3.925  -5.473  0.00  0.00    -0.153 OA
BRANCH  35  38
ATOM     38  C   LIG d   1       4.973  -2.363  -4.101  0.00  0.00     0.105 A 
ATOM     39  C   LIG d   1       3.826  -2.175  -3.352  0.00  0.00    -0.035 A 
ATOM     40  C   LIG d   1       3.740  -1.108  -2.476  0.00  0.00    -0.057 A 
ATOM     41  H   LIG d   1       3.000  -2.863  -3.448  0.00  0.00     0.064 H 
ATOM     42  C   LIG d   1       4.796  -0.225  -2.357  0.00  0.00    -0.050 A 
ATOM     43  H   LIG d   1       2.847  -0.965  -1.887  0.00  0.00     0.062 H 
ATOM     44  C   LIG d   1       5.941  -0.410  -3.111  0.00  0.00    -0.057 A 
ATOM     45  C   LIG d   1       6.029  -1.478  -3.983  0.00  0.00    -0.035 A 
ATOM     46  H   LIG d   1       6.766   0.281  -3.018  0.00  0.00     0.062 H 
ATOM     47  H   LIG d   1       6.923  -1.623  -4.572  0.00  0.00     0.064 H 
BRANCH  42  48
ATOM     48  C   LIG d   1       4.701   0.939  -1.406  0.00  0.00    -0.040 C 
ATOM     49  H   LIG d   1       4.751   0.576  -0.379  0.00  0.00     0.028 H 
ATOM     50  H   LIG d   1       5.527   1.627  -1.589  0.00  0.00     0.028 H 
ATOM     51  H   LIG d   1       3.755   1.459  -1.561  0.00  0.00     0.028 H 
ENDBRANCH  42  48
ENDBRANCH  35  38
ENDBRANCH  33  35
ENDBRANCH  30  33
ENDBRANCH  27  30
ENDBRANCH   1  27
BRANCH   1  52
ATOM     52  S   LIG d   1       4.399   1.166  -9.016  0.00  0.00     0.061 S 
ATOM     53  O   LIG d   1       3.564   1.875  -8.111  0.00  0.00    -0.153 OA
ATOM     54  O   LIG d   1       5.338   1.820  -9.860  0.00  0.00    -0.153 OA
BRANCH  52  55
ATOM     55  C   LIG d   1       3.331   0.244 -10.071  0.00  0.00     0.105 A 
ATOM     56  C   LIG d   1       3.769  -0.158 -11.318  0.00  0.00    -0.035 A 
ATOM     57  C   LIG d   1       2.932  -0.885 -12.144  0.00  0.00    -0.057 A 
ATOM     58  H   LIG d   1       4.766   0.094 -11.647  0.00  0.00     0.064 H 
ATOM     59  C   LIG d   1       1.654  -1.204 -11.725  0.00  0.00    -0.050 A 
ATOM     60  H   LIG d   1       3.276  -1.203 -13.118  0.00  0.00     0.062 H 
ATOM     61  C   LIG d   1       1.214  -0.798 -10.479  0.00  0.00    -0.057 A 
ATOM     62  C   LIG d   1       2.052  -0.074  -9.652  0.00  0.00    -0.035 A 
ATOM     63  H   LIG d   1       0.215  -1.047 -10.152  0.00  0.00     0.062 H 
ATOM     64  H   LIG d   1       1.708   0.243  -8.678  0.00  0.00     0.064 H 
BRANCH  59  65
ATOM     65  C   LIG d   1       0.740  -1.993 -12.626  0.00  0.00    -0.040 C 
ATOM     66  H   LIG d   1       1.268  -2.868 -13.005  0.00  0.00     0.028 H 
ATOM     67  H   LIG d   1      -0.136  -2.314 -12.062  0.00  0.00     0.028 H 
ATOM     68  H   LIG d   1       0.425  -1.369 -13.462  0.00  0.00     0.028 H 
ENDBRANCH  59  65
ENDBRANCH  52  55
ENDBRANCH   1  52
TORSDOF 15
ENDMDL
MODEL 8
REMARK VINA RESULT:      -6.8      2.546      6.835
REMARK  15 active torsions:
REMARK  status: ('A' for Active; 'I' for Inactive)
REMARK    1  A    between atoms: C_1  and  C_2 
REMARK    2  A    between atoms: C_5  and  S_8 
REMARK    3  A    between atoms: S_8  and  N_11 
REMARK    4  A    between atoms: N_11  and  C_12 
REMARK    5  A    between atoms: C_12  and  C_13 
REMARK    6  A    between atoms: C_13  and  N_14 
REMARK    7  A    between atoms: N_14  and  C_15 
REMARK    8  A    between atoms: N_14  and  S_28 
REMARK    9  A    between atoms: C_15  and  C_16 
REMARK   10  A    between atoms: C_16  and  N_17 
REMARK   11  A    between atoms: N_17  and  S_18 
REMARK   12  A    between atoms: S_18  and  C_21 
REMARK   13  A    between atoms: C_24  and  C_27 
REMARK   14  A    between atoms: S_28  and  C_31 
REMARK   15  A    between atoms: C_34  and  C_37 
ROOT
ATOM      1  N   LIG d   1       4.905  -3.205  -6.771  0.00  0.00    -0.174 N 
ENDROOT
BRANCH   1   2
ATOM      2  C   LIG d   1       3.977  -3.995  -7.582  0.00  0.00     0.035 C 
ATOM      3  H   LIG d   1       3.428  -3.333  -8.254  0.00  0.00     0.046 H 
ATOM      4  H   LIG d   1       3.273  -4.513  -6.930  0.00  0.00     0.046 H 
BRANCH   2   5
ATOM      5  C   LIG d   1       4.761  -5.019  -8.403  0.00  0.00     0.032 C 
ATOM      6  H   LIG d   1       4.815  -5.960  -7.856  0.00  0.00     0.045 H 
ATOM      7  H   LIG d   1       5.769  -4.646  -8.584  0.00  0.00     0.045 H 
BRANCH   5   8
ATOM      8  N   LIG d   1       4.085  -5.239  -9.685  0.00  0.00    -0.189 N 
ATOM      9  H   LIG d   1       4.163  -4.581 -10.393  0.00  0.00     0.148 HD
BRANCH   8  10
ATOM     10  S   LIG d   1       3.190  -6.611  -9.924  0.00  0.00     0.058 S 
ATOM     11  O   LIG d   1       3.209  -7.328  -8.697  0.00  0.00    -0.153 OA
ATOM     12  O   LIG d   1       3.637  -7.181 -11.146  0.00  0.00    -0.153 OA
BRANCH  10  13
ATOM     13  C   LIG d   1       1.522  -6.105 -10.184  0.00  0.00     0.105 A 
ATOM     14  C   LIG d   1       0.505  -7.041 -10.162  0.00  0.00    -0.035 A 
ATOM     15  C   LIG d   1      -0.803  -6.645 -10.365  0.00  0.00    -0.057 A 
ATOM     16  H   LIG d   1       0.732  -8.082  -9.984  0.00  0.00     0.064 H 
ATOM     17  C   LIG d   1      -1.095  -5.312 -10.591  0.00  0.00    -0.050 A 
ATOM     18  H   LIG d   1      -1.598  -7.376 -10.347  0.00  0.00     0.062 H 
ATOM     19  C   LIG d   1      -0.077  -4.378 -10.620  0.00  0.00    -0.057 A 
ATOM     20  C   LIG d   1       1.231  -4.773 -10.412  0.00  0.00    -0.035 A 
ATOM     21  H   LIG d   1      -0.304  -3.337 -10.802  0.00  0.00     0.062 H 
ATOM     22  H   LIG d   1       2.026  -4.043 -10.430  0.00  0.00     0.064 H 
BRANCH  17  23
ATOM     23  C   LIG d   1      -2.522  -4.881 -10.814  0.00  0.00    -0.040 C 
ATOM     24  H   LIG d   1      -3.139  -5.755 -11.013  0.00  0.00     0.028 H 
ATOM     25  H   LIG d   1      -2.890  -4.371  -9.924  0.00  0.00     0.028 H 
ATOM     26  H   LIG d   1      -2.566  -4.202 -11.666  0.00  0.00     0.028 H 
ENDBRANCH  17  23
ENDBRANCH  10  13
ENDBRANCH   8  10
ENDBRANCH   5   8
ENDBRANCH   2   5
ENDBRANCH   1   2
BRANCH   1  27
ATOM     27  C   LIG d   1       5.456  -1.954  -7.296  0.00  0.00     0.035 C 
ATOM     28  H   LIG d   1       6.218  -1.576  -6.614  0.00  0.00     0.046 H 
ATOM     29  H   LIG d   1       5.902  -2.136  -8.274  0.00  0.00     0.046 H 
BRANCH  27  30
ATOM     30  C   LIG d   1       4.335  -0.920  -7.431  0.00  0.00     0.032 C 
ATOM     31  H   LIG d   1       3.654  -1.224  -8.226  0.00  0.00     0.045 H 
ATOM     32  H   LIG d   1       3.788  -0.852  -6.490  0.00  0.00     0.045 H 
BRANCH  30  33
ATOM     33  N   LIG d   1       4.913   0.387  -7.756  0.00  0.00    -0.189 N 
ATOM     34  H   LIG d   1       5.761   0.652  -7.369  0.00  0.00     0.148 HD
BRANCH  33  35
ATOM     35  S   LIG d   1       4.116   1.412  -8.785  0.00  0.00     0.058 S 
ATOM     36  O   LIG d   1       3.084   2.026  -8.027  0.00  0.00    -0.153 OA
ATOM     37  O   LIG d   1       5.114   2.163  -9.463  0.00  0.00    -0.153 OA
BRANCH  35  38
ATOM     38  C   LIG d   1       3.323   0.414 -10.002  0.00  0.00     0.105 A 
ATOM     39  C   LIG d   1       2.056  -0.086  -9.766  0.00  0.00    -0.035 A 
ATOM     40  C   LIG d   1       1.432  -0.865 -10.723  0.00  0.00    -0.057 A 
ATOM     41  H   LIG d   1       1.552   0.135  -8.838  0.00  0.00     0.064 H 
ATOM     42  C   LIG d   1       2.078  -1.151 -11.910  0.00  0.00    -0.050 A 
ATOM     43  H   LIG d   1       0.440  -1.251 -10.541  0.00  0.00     0.062 H 
ATOM     44  C   LIG d   1       3.348  -0.657 -12.143  0.00  0.00    -0.057 A 
ATOM     45  C   LIG d   1       3.970   0.126 -11.189  0.00  0.00    -0.035 A 
ATOM     46  H   LIG d   1       3.853  -0.882 -13.071  0.00  0.00     0.062 H 
ATOM     47  H   LIG d   1       4.962   0.513 -11.371  0.00  0.00     0.064 H 
BRANCH  42  48
ATOM     48  C   LIG d   1       1.399  -2.004 -12.951  0.00  0.00    -0.040 C 
ATOM     49  H   LIG d   1       1.166  -1.395 -13.824  0.00  0.00     0.028 H 
ATOM     50  H   LIG d   1       2.063  -2.819 -13.242  0.00  0.00     0.028 H 
ATOM     51  H   LIG d   1       0.478  -2.416 -12.539  0.00  0.00     0.028 H 
ENDBRANCH  42  48
ENDBRANCH  35  38
ENDBRANCH  33  35
ENDBRANCH  30  33
ENDBRANCH  27  30
ENDBRANCH   1  27
BRANCH   1  52
ATOM     52  S   LIG d   1       5.334  -3.727  -5.258  0.00  0.00     0.061 S 
ATOM     53  O   LIG d   1       4.378  -4.709  -4.881  0.00  0.00    -0.153 OA
ATOM     54  O   LIG d   1       6.728  -3.997  -5.302  0.00  0.00    -0.153 OA
BRANCH  52  55
ATOM     55  C   LIG d   1       5.119  -2.367  -4.158  0.00  0.00     0.105 A 
ATOM     56  C   LIG d   1       3.889  -2.141  -3.569  0.00  0.00    -0.035 A 
ATOM     57  C   LIG d   1       3.721  -1.077  -2.704  0.00  0.00    -0.057 A 
ATOM     58  H   LIG d   1       3.059  -2.798  -3.784  0.00  0.00     0.064 H 
ATOM     59  C   LIG d   1       4.782  -0.233  -2.433  0.00  0.00    -0.050 A 
ATOM     60  H   LIG d   1       2.761  -0.903  -2.240  0.00  0.00     0.062 H 
ATOM     61  C   LIG d   1       6.011  -0.456  -3.025  0.00  0.00    -0.057 A 
ATOM     62  C   LIG d   1       6.180  -1.522  -3.888  0.00  0.00    -0.035 A 
ATOM     63  H   LIG d   1       6.840   0.204  -2.814  0.00  0.00     0.062 H 
ATOM     64  H   LIG d   1       7.140  -1.696  -4.351  0.00  0.00     0.064 H 
BRANCH  59  65
ATOM     65  C   LIG d   1       4.600   0.930  -1.492  0.00  0.00    -0.040 C 
ATOM     66  H   LIG d   1       5.136   1.797  -1.876  0.00  0.00     0.028 H 
ATOM     67  H   LIG d   1       3.538   1.166  -1.410  0.00  0.00     0.028 H 
ATOM     68  H   LIG d   1       4.990   0.667  -0.509  0.00  0.00     0.028 H 
ENDBRANCH  59  65
ENDBRANCH  52  55
ENDBRANCH   1  52
TORSDOF 15
ENDMDL
MODEL 9
REMARK VINA RESULT:      -6.7      2.601      7.568
REMARK  15 active torsions:
REMARK  status: ('A' for Active; 'I' for Inactive)
REMARK    1  A    between atoms: C_1  and  C_2 
REMARK    2  A    between atoms: C_5  and  S_8 
REMARK    3  A    between atoms: S_8  and  N_11 
REMARK    4  A    between atoms: N_11  and  C_12 
REMARK    5  A    between atoms: C_12  and  C_13 
REMARK    6  A    between atoms: C_13  and  N_14 
REMARK    7  A    between atoms: N_14  and  C_15 
REMARK    8  A    between atoms: N_14  and  S_28 
REMARK    9  A    between atoms: C_15  and  C_16 
REMARK   10  A    between atoms: C_16  and  N_17 
REMARK   11  A    between atoms: N_17  and  S_18 
REMARK   12  A    between atoms: S_18  and  C_21 
REMARK   13  A    between atoms: C_24  and  C_27 
REMARK   14  A    between atoms: S_28  and  C_31 
REMARK   15  A    between atoms: C_34  and  C_37 
ROOT
ATOM      1  N   LIG d   1       5.463   0.154  -8.177  0.00  0.00    -0.174 N 
ENDROOT
BRANCH   1   2
ATOM      2  C   LIG d   1       5.003  -0.847  -7.213  0.00  0.00     0.035 C 
ATOM      3  H   LIG d   1       3.976  -0.624  -6.919  0.00  0.00     0.046 H 
ATOM      4  H   LIG d   1       5.644  -0.825  -6.331  0.00  0.00     0.046 H 
BRANCH   2   5
ATOM      5  C   LIG d   1       5.060  -2.235  -7.851  0.00  0.00     0.032 C 
ATOM      6  H   LIG d   1       6.030  -2.689  -7.648  0.00  0.00     0.045 H 
ATOM      7  H   LIG d   1       4.919  -2.146  -8.929  0.00  0.00     0.045 H 
BRANCH   5   8
ATOM      8  N   LIG d   1       4.001  -3.077  -7.288  0.00  0.00    -0.189 N 
ATOM      9  H   LIG d   1       3.219  -2.668  -6.886  0.00  0.00     0.148 HD
BRANCH   8  10
ATOM     10  S   LIG d   1       4.139  -4.726  -7.339  0.00  0.00     0.058 S 
ATOM     11  O   LIG d   1       3.359  -5.232  -6.264  0.00  0.00    -0.153 OA
ATOM     12  O   LIG d   1       5.523  -5.015  -7.476  0.00  0.00    -0.153 OA
BRANCH  10  13
ATOM     13  C   LIG d   1       3.361  -5.268  -8.824  0.00  0.00     0.105 A 
ATOM     14  C   LIG d   1       3.379  -6.608  -9.164  0.00  0.00    -0.035 A 
ATOM     15  C   LIG d   1       2.768  -7.034 -10.329  0.00  0.00    -0.057 A 
ATOM     16  H   LIG d   1       3.870  -7.323  -8.519  0.00  0.00     0.064 H 
ATOM     17  C   LIG d   1       2.138  -6.120 -11.153  0.00  0.00    -0.050 A 
ATOM     18  H   LIG d   1       2.782  -8.080 -10.594  0.00  0.00     0.062 H 
ATOM     19  C   LIG d   1       2.126  -4.779 -10.815  0.00  0.00    -0.057 A 
ATOM     20  C   LIG d   1       2.732  -4.354  -9.649  0.00  0.00    -0.035 A 
ATOM     21  H   LIG d   1       1.638  -4.064 -11.462  0.00  0.00     0.062 H 
ATOM     22  H   LIG d   1       2.719  -3.307  -9.383  0.00  0.00     0.064 H 
BRANCH  17  23
ATOM     23  C   LIG d   1       1.473  -6.584 -12.423  0.00  0.00    -0.040 C 
ATOM     24  H   LIG d   1       1.775  -7.608 -12.639  0.00  0.00     0.028 H 
ATOM     25  H   LIG d   1       0.390  -6.542 -12.302  0.00  0.00     0.028 H 
ATOM     26  H   LIG d   1       1.772  -5.935 -13.247  0.00  0.00     0.028 H 
ENDBRANCH  17  23
ENDBRANCH  10  13
ENDBRANCH   8  10
ENDBRANCH   5   8
ENDBRANCH   2   5
ENDBRANCH   1   2
BRANCH   1  27
ATOM     27  C   LIG d   1       6.876   0.208  -8.560  0.00  0.00     0.035 C 
ATOM     28  H   LIG d   1       7.107  -0.627  -9.220  0.00  0.00     0.046 H 
ATOM     29  H   LIG d   1       7.076   1.147  -9.077  0.00  0.00     0.046 H 
BRANCH  27  30
ATOM     30  C   LIG d   1       7.748   0.121  -7.305  0.00  0.00     0.032 C 
ATOM     31  H   LIG d   1       7.469  -0.762  -6.730  0.00  0.00     0.045 H 
ATOM     32  H   LIG d   1       8.796   0.049  -7.595  0.00  0.00     0.045 H 
BRANCH  30  33
ATOM     33  N   LIG d   1       7.549   1.320  -6.487  0.00  0.00    -0.189 N 
ATOM     34  H   LIG d   1       7.161   2.116  -6.881  0.00  0.00     0.148 HD
BRANCH  33  35
ATOM     35  S   LIG d   1       7.986   1.315  -4.889  0.00  0.00     0.058 S 
ATOM     36  O   LIG d   1       9.223   0.622  -4.810  0.00  0.00    -0.153 OA
ATOM     37  O   LIG d   1       7.828   2.647  -4.421  0.00  0.00    -0.153 OA
BRANCH  35  38
ATOM     38  C   LIG d   1       6.803   0.333  -4.029  0.00  0.00     0.105 A 
ATOM     39  C   LIG d   1       5.839   0.941  -3.247  0.00  0.00    -0.035 A 
ATOM     40  C   LIG d   1       4.907   0.171  -2.575  0.00  0.00    -0.057 A 
ATOM     41  H   LIG d   1       5.811   2.017  -3.163  0.00  0.00     0.064 H 
ATOM     42  C   LIG d   1       4.946  -1.206  -2.678  0.00  0.00    -0.050 A 
ATOM     43  H   LIG d   1       4.151   0.646  -1.969  0.00  0.00     0.062 H 
ATOM     44  C   LIG d   1       5.914  -1.815  -3.456  0.00  0.00    -0.057 A 
ATOM     45  C   LIG d   1       6.842  -1.045  -4.131  0.00  0.00    -0.035 A 
ATOM     46  H   LIG d   1       5.944  -2.892  -3.535  0.00  0.00     0.062 H 
ATOM     47  H   LIG d   1       7.599  -1.520  -4.739  0.00  0.00     0.064 H 
BRANCH  42  48
ATOM     48  C   LIG d   1       3.933  -2.046  -1.943  0.00  0.00    -0.040 C 
ATOM     49  H   LIG d   1       3.358  -2.632  -2.659  0.00  0.00     0.028 H 
ATOM     50  H   LIG d   1       4.449  -2.716  -1.254  0.00  0.00     0.028 H 
ATOM     51  H   LIG d   1       3.261  -1.396  -1.382  0.00  0.00     0.028 H 
ENDBRANCH  42  48
ENDBRANCH  35  38
ENDBRANCH  33  35
ENDBRANCH  30  33
ENDBRANCH  27  30
ENDBRANCH   1  27
BRANCH   1  52
ATOM     52  S   LIG d   1       4.385   1.226  -8.837  0.00  0.00     0.061 S 
ATOM     53  O   LIG d   1       3.564   1.684  -7.771  0.00  0.00    -0.153 OA
ATOM     54  O   LIG d   1       5.142   2.112  -9.651  0.00  0.00    -0.153 OA
BRANCH  52  55
ATOM     55  C   LIG d   1       3.341   0.312  -9.922  0.00  0.00     0.105 A 
ATOM     56  C   LIG d   1       3.761   0.026 -11.208  0.00  0.00    -0.035 A 
ATOM     57  C   LIG d   1       2.943  -0.694 -12.058  0.00  0.00    -0.057 A 
ATOM     58  H   LIG d   1       4.728   0.364 -11.547  0.00  0.00     0.064 H 
ATOM     59  C   LIG d   1       1.702  -1.123 -11.625  0.00  0.00    -0.050 A 
ATOM     60  H   LIG d   1       3.273  -0.921 -13.061  0.00  0.00     0.062 H 
ATOM     61  C   LIG d   1       1.281  -0.833 -10.341  0.00  0.00    -0.057 A 
ATOM     62  C   LIG d   1       2.099  -0.116  -9.489  0.00  0.00    -0.035 A 
ATOM     63  H   LIG d   1       0.311  -1.168 -10.003  0.00  0.00     0.062 H 
ATOM     64  H   LIG d   1       1.770   0.111  -8.486  0.00  0.00     0.064 H 
BRANCH  59  65
ATOM     65  C   LIG d   1       0.809  -1.906 -12.553  0.00  0.00    -0.040 C 
ATOM     66  H   LIG d   1       1.419  -2.445 -13.277  0.00  0.00     0.028 H 
ATOM     67  H   LIG d   1       0.219  -2.617 -11.973  0.00  0.00     0.028 H 
ATOM     68  H   LIG d   1       0.142  -1.222 -13.077  0.00  0.00     0.028 H 
ENDBRANCH  59  65
ENDBRANCH  52  55
ENDBRANCH   1  52
TORSDOF 15
ENDMDL
MODEL 10
REMARK VINA RESULT:      -6.7      2.648      6.993
REMARK  15 active torsions:
REMARK  status: ('A' for Active; 'I' for Inactive)
REMARK    1  A    between atoms: C_1  and  C_2 
REMARK    2  A    between atoms: C_5  and  S_8 
REMARK    3  A    between atoms: S_8  and  N_11 
REMARK    4  A    between atoms: N_11  and  C_12 
REMARK    5  A    between atoms: C_12  and  C_13 
REMARK    6  A    between atoms: C_13  and  N_14 
REMARK    7  A    between atoms: N_14  and  C_15 
REMARK    8  A    between atoms: N_14  and  S_28 
REMARK    9  A    between atoms: C_15  and  C_16 
REMARK   10  A    between atoms: C_16  and  N_17 
REMARK   11  A    between atoms: N_17  and  S_18 
REMARK   12  A    between atoms: S_18  and  C_21 
REMARK   13  A    between atoms: C_24  and  C_27 
REMARK   14  A    between atoms: S_28  and  C_31 
REMARK   15  A    between atoms: C_34  and  C_37 
ROOT
ATOM      1  N   LIG d   1       5.379  -0.052  -8.088  0.00  0.00    -0.174 N 
ENDROOT
BRANCH   1   2
ATOM      2  C   LIG d   1       5.873   0.397  -6.785  0.00  0.00     0.035 C 
ATOM      3  H   LIG d   1       5.772  -0.411  -6.060  0.00  0.00     0.046 H 
ATOM      4  H   LIG d   1       5.292   1.257  -6.452  0.00  0.00     0.046 H 
BRANCH   2   5
ATOM      5  C   LIG d   1       7.345   0.792  -6.906  0.00  0.00     0.032 C 
ATOM      6  H   LIG d   1       7.517   1.264  -7.873  0.00  0.00     0.045 H 
ATOM      7  H   LIG d   1       7.969  -0.098  -6.820  0.00  0.00     0.045 H 
BRANCH   5   8
ATOM      8  N   LIG d   1       7.689   1.733  -5.837  0.00  0.00    -0.189 N 
ATOM      9  H   LIG d   1       7.605   2.688  -5.986  0.00  0.00     0.148 HD
BRANCH   8  10
ATOM     10  S   LIG d   1       8.218   1.167  -4.373  0.00  0.00     0.058 S 
ATOM     11  O   LIG d   1       8.358   2.300  -3.526  0.00  0.00    -0.153 OA
ATOM     12  O   LIG d   1       9.297   0.283  -4.645  0.00  0.00    -0.153 OA
BRANCH  10  13
ATOM     13  C   LIG d   1       6.922   0.187  -3.693  0.00  0.00     0.105 A 
ATOM     14  C   LIG d   1       6.963  -1.190  -3.810  0.00  0.00    -0.035 A 
ATOM     15  C   LIG d   1       5.947  -1.960  -3.276  0.00  0.00    -0.057 A 
ATOM     16  H   LIG d   1       7.791  -1.665  -4.317  0.00  0.00     0.064 H 
ATOM     17  C   LIG d   1       4.889  -1.352  -2.626  0.00  0.00    -0.050 A 
ATOM     18  H   LIG d   1       5.980  -3.035  -3.366  0.00  0.00     0.062 H 
ATOM     19  C   LIG d   1       4.845   0.025  -2.515  0.00  0.00    -0.057 A 
ATOM     20  C   LIG d   1       5.864   0.794  -3.044  0.00  0.00    -0.035 A 
ATOM     21  H   LIG d   1       4.015   0.500  -2.011  0.00  0.00     0.062 H 
ATOM     22  H   LIG d   1       5.831   1.870  -2.954  0.00  0.00     0.064 H 
BRANCH  17  23
ATOM     23  C   LIG d   1       3.780  -2.192  -2.044  0.00  0.00    -0.040 C 
ATOM     24  H   LIG d   1       2.819  -1.816  -2.393  0.00  0.00     0.028 H 
ATOM     25  H   LIG d   1       3.903  -3.227  -2.362  0.00  0.00     0.028 H 
ATOM     26  H   LIG d   1       3.818  -2.139  -0.955  0.00  0.00     0.028 H 
ENDBRANCH  17  23
ENDBRANCH  10  13
ENDBRANCH   8  10
ENDBRANCH   5   8
ENDBRANCH   2   5
ENDBRANCH   1   2
BRANCH   1  27
ATOM     27  C   LIG d   1       5.432  -1.472  -8.443  0.00  0.00     0.035 C 
ATOM     28  H   LIG d   1       4.622  -1.706  -9.133  0.00  0.00     0.046 H 
ATOM     29  H   LIG d   1       6.389  -1.693  -8.916  0.00  0.00     0.046 H 
BRANCH  27  30
ATOM     30  C   LIG d   1       5.283  -2.320  -7.177  0.00  0.00     0.032 C 
ATOM     31  H   LIG d   1       6.141  -2.985  -7.082  0.00  0.00     0.045 H 
ATOM     32  H   LIG d   1       5.232  -1.667  -6.306  0.00  0.00     0.045 H 
BRANCH  30  33
ATOM     33  N   LIG d   1       4.055  -3.115  -7.264  0.00  0.00    -0.189 N 
ATOM     34  H   LIG d   1       3.192  -2.675  -7.267  0.00  0.00     0.148 HD
BRANCH  33  35
ATOM     35  S   LIG d   1       4.143  -4.766  -7.357  0.00  0.00     0.058 S 
ATOM     36  O   LIG d   1       5.517  -5.092  -7.505  0.00  0.00    -0.153 OA
ATOM     37  O   LIG d   1       3.349  -5.276  -6.294  0.00  0.00    -0.153 OA
BRANCH  35  38
ATOM     38  C   LIG d   1       3.347  -5.246  -8.854  0.00  0.00     0.105 A 
ATOM     39  C   LIG d   1       3.296  -6.580  -9.213  0.00  0.00    -0.035 A 
ATOM     40  C   LIG d   1       2.667  -6.956 -10.386  0.00  0.00    -0.057 A 
ATOM     41  H   LIG d   1       3.742  -7.328  -8.576  0.00  0.00     0.064 H 
ATOM     42  C   LIG d   1       2.100  -5.998 -11.204  0.00  0.00    -0.050 A 
ATOM     43  H   LIG d   1       2.622  -7.999 -10.663  0.00  0.00     0.062 H 
ATOM     44  C   LIG d   1       2.157  -4.663 -10.848  0.00  0.00    -0.057 A 
ATOM     45  C   LIG d   1       2.780  -4.287  -9.674  0.00  0.00    -0.035 A 
ATOM     46  H   LIG d   1       1.713  -3.915 -11.489  0.00  0.00     0.062 H 
ATOM     47  H   LIG d   1       2.825  -3.244  -9.396  0.00  0.00     0.064 H 
BRANCH  42  48
ATOM     48  C   LIG d   1       1.418  -6.408 -12.484  0.00  0.00    -0.040 C 
ATOM     49  H   LIG d   1       2.115  -6.305 -13.316  0.00  0.00     0.028 H 
ATOM     50  H   LIG d   1       1.094  -7.447 -12.406  0.00  0.00     0.028 H 
ATOM     51  H   LIG d   1       0.551  -5.770 -12.656  0.00  0.00     0.028 H 
ENDBRANCH  42  48
ENDBRANCH  35  38
ENDBRANCH  33  35
ENDBRANCH  30  33
ENDBRANCH  27  30
ENDBRANCH   1  27
BRANCH   1  52
ATOM     52  S   LIG d   1       4.760   1.046  -9.163  0.00  0.00     0.061 S 
ATOM     53  O   LIG d   1       4.097   2.039  -8.393  0.00  0.00    -0.153 OA
ATOM     54  O   LIG d   1       5.808   1.360 -10.071  0.00  0.00    -0.153 OA
BRANCH  52  55
ATOM     55  C   LIG d   1       3.517   0.217 -10.096  0.00  0.00     0.105 A 
ATOM     56  C   LIG d   1       3.779  -0.188 -11.391  0.00  0.00    -0.035 A 
ATOM     57  C   LIG d   1       2.805  -0.842 -12.122  0.00  0.00    -0.057 A 
ATOM     58  H   LIG d   1       4.746   0.005 -11.832  0.00  0.00     0.064 H 
ATOM     59  C   LIG d   1       1.565  -1.085 -11.560  0.00  0.00    -0.050 A 
ATOM     60  H   LIG d   1       3.011  -1.162 -13.133  0.00  0.00     0.062 H 
ATOM     61  C   LIG d   1       1.302  -0.676 -10.266  0.00  0.00    -0.057 A 
ATOM     62  C   LIG d   1       2.277  -0.024  -9.534  0.00  0.00    -0.035 A 
ATOM     63  H   LIG d   1       0.333  -0.864  -9.827  0.00  0.00     0.062 H 
ATOM     64  H   LIG d   1       2.071   0.296  -8.523  0.00  0.00     0.064 H 
BRANCH  59  65
ATOM     65  C   LIG d   1       0.502  -1.795 -12.357  0.00  0.00    -0.040 C 
ATOM     66  H   LIG d   1       0.904  -2.077 -13.330  0.00  0.00     0.028 H 
ATOM     67  H   LIG d   1       0.185  -2.690 -11.821  0.00  0.00     0.028 H 
ATOM     68  H   LIG d   1      -0.352  -1.132 -12.494  0.00  0.00     0.028 H 
ENDBRANCH  59  65
ENDBRANCH  52  55
ENDBRANCH   1  52
TORSDOF 15
ENDMDL
