MODEL 1
REMARK VINA RESULT:      -4.9      0.000      0.000
REMARK  3 active torsions:
REMARK  status: ('A' for Active; 'I' for Inactive)
REMARK    1  A    between atoms: C_2  and  C_3 
REMARK    2  A    between atoms: C_3  and  N_4 
REMARK    3  A    between atoms: C_10  and  N_12 
ROOT
ATOM      1  N   LIG d   1       3.267  -0.961  -4.267  0.00  0.00     0.239 N 
ATOM      2  C   LIG d   1       3.076   0.301  -4.940  0.00  0.00    -0.026 C 
ATOM      3  C   LIG d   1       2.846   0.115  -6.446  0.00  0.00     0.031 C 
ATOM      4  C   LIG d   1       4.221  -0.084  -7.085  0.00  0.00     0.059 A 
ATOM      5  C   LIG d   1       5.020  -1.119  -6.752  0.00  0.00     0.019 A 
ATOM      6  S   LIG d   1       6.466  -0.848  -7.728  0.00  0.00    -0.057 SA
ATOM      7  C   LIG d   1       5.934   0.547  -8.513  0.00  0.00     0.156 A 
ATOM      8  N   LIG d   1       4.735   0.736  -8.004  0.00  0.00    -0.230 NA
ATOM      9  C   LIG d   1       4.686  -2.240  -5.801  0.00  0.00     0.021 C 
ATOM     10  C   LIG d   1       4.553  -1.610  -4.401  0.00  0.00    -0.027 C 
ATOM     11  H   LIG d   1       2.212   0.808  -4.510  0.00  0.00     0.082 H 
ATOM     12  H   LIG d   1       3.960   0.921  -4.790  0.00  0.00     0.082 H 
ATOM     13  H   LIG d   1       2.224  -0.762  -6.622  0.00  0.00     0.038 H 
ATOM     14  H   LIG d   1       2.368   1.002  -6.862  0.00  0.00     0.038 H 
ATOM     15  H   LIG d   1       3.744  -2.707  -6.092  0.00  0.00     0.037 H 
ATOM     16  H   LIG d   1       5.486  -2.980  -5.803  0.00  0.00     0.037 H 
ATOM     17  H   LIG d   1       5.346  -0.874  -4.259  0.00  0.00     0.082 H 
ATOM     18  H   LIG d   1       4.646  -2.388  -3.643  0.00  0.00     0.082 H 
ATOM     19  H   LIG d   1       2.563  -1.600  -4.607  0.00  0.00     0.204 HD
ENDROOT
BRANCH   1  20
ATOM     20  C   LIG d   1       3.018  -0.747  -2.835  0.00  0.00    -0.013 C 
ATOM     21  H   LIG d   1       3.579  -1.480  -2.256  0.00  0.00     0.086 H 
ATOM     22  H   LIG d   1       1.954  -0.858  -2.630  0.00  0.00     0.086 H 
BRANCH  20  23
ATOM     23  C   LIG d   1       3.462   0.642  -2.452  0.00  0.00    -0.046 C 
ATOM     24  C   LIG d   1       4.498   0.803  -1.666  0.00  0.00    -0.098 C 
ATOM     25  H   LIG d   1       5.033  -0.057  -1.294  0.00  0.00     0.053 H 
ATOM     26  H   LIG d   1       4.819   1.798  -1.395  0.00  0.00     0.053 H 
ATOM     27  H   LIG d   1       2.926   1.502  -2.824  0.00  0.00     0.062 H 
ENDBRANCH  20  23
ENDBRANCH   1  20
BRANCH   7  28
ATOM     28  N   LIG d   1       6.597   1.308  -9.463  0.00  0.00    -0.338 N 
ATOM     29  H   LIG d   1       6.218   1.414 -10.349  0.00  0.00     0.144 HD
ATOM     30  H   LIG d   1       7.440   1.733  -9.241  0.00  0.00     0.144 HD
ENDBRANCH   7  28
TORSDOF 3
ENDMDL
MODEL 2
REMARK VINA RESULT:      -4.9      2.515      3.813
REMARK  3 active torsions:
REMARK  status: ('A' for Active; 'I' for Inactive)
REMARK    1  A    between atoms: C_2  and  C_3 
REMARK    2  A    between atoms: C_3  and  N_4 
REMARK    3  A    between atoms: C_10  and  N_12 
ROOT
ATOM      1  N   LIG d   1       3.938  -0.513  -4.044  0.00  0.00     0.239 N 
ATOM      2  C   LIG d   1       3.681  -1.818  -3.483  0.00  0.00    -0.026 C 
ATOM      3  C   LIG d   1       4.843  -2.787  -3.738  0.00  0.00     0.031 C 
ATOM      4  C   LIG d   1       4.683  -3.306  -5.167  0.00  0.00     0.059 A 
ATOM      5  C   LIG d   1       4.714  -2.481  -6.234  0.00  0.00     0.019 A 
ATOM      6  S   LIG d   1       4.443  -3.570  -7.598  0.00  0.00    -0.057 SA
ATOM      7  C   LIG d   1       4.343  -5.001  -6.711  0.00  0.00     0.156 A 
ATOM      8  N   LIG d   1       4.502  -4.594  -5.469  0.00  0.00    -0.230 NA
ATOM      9  C   LIG d   1       4.971  -0.996  -6.213  0.00  0.00     0.021 C 
ATOM     10  C   LIG d   1       3.782  -0.351  -5.474  0.00  0.00    -0.027 C 
ATOM     11  H   LIG d   1       3.531  -1.719  -2.408  0.00  0.00     0.082 H 
ATOM     12  H   LIG d   1       2.774  -2.225  -3.931  0.00  0.00     0.082 H 
ATOM     13  H   LIG d   1       5.793  -2.263  -3.637  0.00  0.00     0.038 H 
ATOM     14  H   LIG d   1       4.797  -3.617  -3.033  0.00  0.00     0.038 H 
ATOM     15  H   LIG d   1       5.899  -0.786  -5.682  0.00  0.00     0.037 H 
ATOM     16  H   LIG d   1       5.028  -0.614  -7.232  0.00  0.00     0.037 H 
ATOM     17  H   LIG d   1       2.855  -0.829  -5.793  0.00  0.00     0.082 H 
ATOM     18  H   LIG d   1       3.740   0.712  -5.715  0.00  0.00     0.082 H 
ATOM     19  H   LIG d   1       4.885  -0.258  -3.807  0.00  0.00     0.204 HD
ENDROOT
BRANCH   1  20
ATOM     20  C   LIG d   1       3.040   0.443  -3.384  0.00  0.00    -0.013 C 
ATOM     21  H   LIG d   1       2.352  -0.094  -2.732  0.00  0.00     0.086 H 
ATOM     22  H   LIG d   1       2.475   0.992  -4.137  0.00  0.00     0.086 H 
BRANCH  20  23
ATOM     23  C   LIG d   1       3.855   1.411  -2.564  0.00  0.00    -0.046 C 
ATOM     24  C   LIG d   1       4.621   0.967  -1.598  0.00  0.00    -0.098 C 
ATOM     25  H   LIG d   1       4.668  -0.091  -1.389  0.00  0.00     0.053 H 
ATOM     26  H   LIG d   1       5.208   1.660  -1.014  0.00  0.00     0.053 H 
ATOM     27  H   LIG d   1       3.807   2.469  -2.773  0.00  0.00     0.062 H 
ENDBRANCH  20  23
ENDBRANCH   1  20
BRANCH   7  28
ATOM     28  N   LIG d   1       4.143  -6.291  -7.176  0.00  0.00    -0.338 N 
ATOM     29  H   LIG d   1       3.481  -6.460  -7.865  0.00  0.00     0.144 HD
ATOM     30  H   LIG d   1       4.663  -7.024  -6.813  0.00  0.00     0.144 HD
ENDBRANCH   7  28
TORSDOF 3
ENDMDL
MODEL 3
REMARK VINA RESULT:      -4.7      1.923      2.216
REMARK  3 active torsions:
REMARK  status: ('A' for Active; 'I' for Inactive)
REMARK    1  A    between atoms: C_2  and  C_3 
REMARK    2  A    between atoms: C_3  and  N_4 
REMARK    3  A    between atoms: C_10  and  N_12 
ROOT
ATOM      1  N   LIG d   1       4.136  -1.714  -5.202  0.00  0.00     0.239 N 
ATOM      2  C   LIG d   1       3.847  -0.308  -5.054  0.00  0.00    -0.026 C 
ATOM      3  C   LIG d   1       2.647   0.121  -5.910  0.00  0.00     0.031 C 
ATOM      4  C   LIG d   1       3.166   0.319  -7.335  0.00  0.00     0.059 A 
ATOM      5  C   LIG d   1       3.719  -0.690  -8.039  0.00  0.00     0.019 A 
ATOM      6  S   LIG d   1       4.175   0.079  -9.562  0.00  0.00    -0.057 SA
ATOM      7  C   LIG d   1       3.597   1.622  -9.202  0.00  0.00     0.156 A 
ATOM      8  N   LIG d   1       3.117   1.484  -7.984  0.00  0.00    -0.230 NA
ATOM      9  C   LIG d   1       3.848  -2.126  -7.600  0.00  0.00     0.021 C 
ATOM     10  C   LIG d   1       4.820  -2.139  -6.404  0.00  0.00    -0.027 C 
ATOM     11  H   LIG d   1       3.628  -0.098  -4.007  0.00  0.00     0.082 H 
ATOM     12  H   LIG d   1       4.721   0.269  -5.354  0.00  0.00     0.082 H 
ATOM     13  H   LIG d   1       1.884  -0.657  -5.897  0.00  0.00     0.038 H 
ATOM     14  H   LIG d   1       2.234   1.056  -5.531  0.00  0.00     0.038 H 
ATOM     15  H   LIG d   1       2.875  -2.511  -7.294  0.00  0.00     0.037 H 
ATOM     16  H   LIG d   1       4.251  -2.730  -8.414  0.00  0.00     0.037 H 
ATOM     17  H   LIG d   1       5.651  -1.461  -6.606  0.00  0.00     0.082 H 
ATOM     18  H   LIG d   1       5.207  -3.148  -6.262  0.00  0.00     0.082 H 
ATOM     19  H   LIG d   1       3.261  -2.214  -5.152  0.00  0.00     0.204 HD
ENDROOT
BRANCH   1  20
ATOM     20  C   LIG d   1       4.950  -2.127  -4.052  0.00  0.00    -0.013 C 
ATOM     21  H   LIG d   1       5.737  -1.393  -3.880  0.00  0.00     0.086 H 
ATOM     22  H   LIG d   1       5.398  -3.100  -4.254  0.00  0.00     0.086 H 
BRANCH  20  23
ATOM     23  C   LIG d   1       4.076  -2.221  -2.827  0.00  0.00    -0.046 C 
ATOM     24  C   LIG d   1       4.337  -1.478  -1.779  0.00  0.00    -0.098 C 
ATOM     25  H   LIG d   1       5.177  -0.800  -1.793  0.00  0.00     0.053 H 
ATOM     26  H   LIG d   1       3.708  -1.542  -0.903  0.00  0.00     0.053 H 
ATOM     27  H   LIG d   1       3.237  -2.900  -2.813  0.00  0.00     0.062 H 
ENDBRANCH  20  23
ENDBRANCH   1  20
BRANCH   7  28
ATOM     28  N   LIG d   1       3.622   2.759  -9.994  0.00  0.00    -0.338 N 
ATOM     29  H   LIG d   1       3.623   3.637  -9.582  0.00  0.00     0.144 HD
ATOM     30  H   LIG d   1       3.637   2.677 -10.960  0.00  0.00     0.144 HD
ENDBRANCH   7  28
TORSDOF 3
ENDMDL
MODEL 4
REMARK VINA RESULT:      -4.6      2.163      2.851
REMARK  3 active torsions:
REMARK  status: ('A' for Active; 'I' for Inactive)
REMARK    1  A    between atoms: C_2  and  C_3 
REMARK    2  A    between atoms: C_3  and  N_4 
REMARK    3  A    between atoms: C_10  and  N_12 
ROOT
ATOM      1  N   LIG d   1       3.548  -0.121  -4.507  0.00  0.00     0.239 N 
ATOM      2  C   LIG d   1       4.176  -1.383  -4.812  0.00  0.00    -0.026 C 
ATOM      3  C   LIG d   1       5.102  -1.280  -6.031  0.00  0.00     0.031 C 
ATOM      4  C   LIG d   1       4.212  -1.358  -7.273  0.00  0.00     0.059 A 
ATOM      5  C   LIG d   1       3.252  -0.444  -7.520  0.00  0.00     0.019 A 
ATOM      6  S   LIG d   1       2.516  -1.023  -9.019  0.00  0.00    -0.057 SA
ATOM      7  C   LIG d   1       3.510  -2.368  -9.236  0.00  0.00     0.156 A 
ATOM      8  N   LIG d   1       4.311  -2.320  -8.193  0.00  0.00    -0.230 NA
ATOM      9  C   LIG d   1       2.952   0.787  -6.704  0.00  0.00     0.021 C 
ATOM     10  C   LIG d   1       2.437   0.297  -5.336  0.00  0.00    -0.027 C 
ATOM     11  H   LIG d   1       4.760  -1.707  -3.950  0.00  0.00     0.082 H 
ATOM     12  H   LIG d   1       3.404  -2.126  -5.014  0.00  0.00     0.082 H 
ATOM     13  H   LIG d   1       5.635  -0.330  -6.015  0.00  0.00     0.038 H 
ATOM     14  H   LIG d   1       5.813  -2.107  -6.031  0.00  0.00     0.038 H 
ATOM     15  H   LIG d   1       3.859   1.376  -6.573  0.00  0.00     0.037 H 
ATOM     16  H   LIG d   1       2.186   1.384  -7.199  0.00  0.00     0.037 H 
ATOM     17  H   LIG d   1       1.760  -0.544  -5.485  0.00  0.00     0.082 H 
ATOM     18  H   LIG d   1       1.901   1.107  -4.840  0.00  0.00     0.082 H 
ATOM     19  H   LIG d   1       4.257   0.596  -4.558  0.00  0.00     0.204 HD
ENDROOT
BRANCH   1  20
ATOM     20  C   LIG d   1       3.074  -0.179  -3.118  0.00  0.00    -0.013 C 
ATOM     21  H   LIG d   1       3.441  -1.091  -2.647  0.00  0.00     0.086 H 
ATOM     22  H   LIG d   1       1.984  -0.176  -3.105  0.00  0.00     0.086 H 
BRANCH  20  23
ATOM     23  C   LIG d   1       3.589   1.019  -2.362  0.00  0.00    -0.046 C 
ATOM     24  C   LIG d   1       4.654   0.908  -1.607  0.00  0.00    -0.098 C 
ATOM     25  H   LIG d   1       5.162  -0.042  -1.526  0.00  0.00     0.053 H 
ATOM     26  H   LIG d   1       5.026   1.767  -1.069  0.00  0.00     0.053 H 
ATOM     27  H   LIG d   1       3.081   1.968  -2.443  0.00  0.00     0.062 H 
ENDBRANCH  20  23
ENDBRANCH   1  20
BRANCH   7  28
ATOM     28  N   LIG d   1       3.487  -3.299 -10.263  0.00  0.00    -0.338 N 
ATOM     29  H   LIG d   1       4.294  -3.481 -10.770  0.00  0.00     0.144 HD
ATOM     30  H   LIG d   1       2.666  -3.768 -10.475  0.00  0.00     0.144 HD
ENDBRANCH   7  28
TORSDOF 3
ENDMDL
MODEL 5
REMARK VINA RESULT:      -4.5      2.559      4.741
REMARK  3 active torsions:
REMARK  status: ('A' for Active; 'I' for Inactive)
REMARK    1  A    between atoms: C_2  and  C_3 
REMARK    2  A    between atoms: C_3  and  N_4 
REMARK    3  A    between atoms: C_10  and  N_12 
ROOT
ATOM      1  N   LIG d   1       2.821  -0.364  -7.582  0.00  0.00     0.239 N 
ATOM      2  C   LIG d   1       4.036  -1.108  -7.810  0.00  0.00    -0.026 C 
ATOM      3  C   LIG d   1       4.235  -2.209  -6.759  0.00  0.00     0.031 C 
ATOM      4  C   LIG d   1       4.812  -1.535  -5.513  0.00  0.00     0.059 A 
ATOM      5  C   LIG d   1       4.142  -0.573  -4.847  0.00  0.00     0.019 A 
ATOM      6  S   LIG d   1       5.255  -0.123  -3.552  0.00  0.00    -0.057 SA
ATOM      7  C   LIG d   1       6.480  -1.217  -3.935  0.00  0.00     0.156 A 
ATOM      8  N   LIG d   1       6.005  -1.837  -4.995  0.00  0.00    -0.230 NA
ATOM      9  C   LIG d   1       2.752  -0.073  -5.150  0.00  0.00     0.021 C 
ATOM     10  C   LIG d   1       2.822   0.623  -6.524  0.00  0.00    -0.027 C 
ATOM     11  H   LIG d   1       3.994  -1.565  -8.798  0.00  0.00     0.082 H 
ATOM     12  H   LIG d   1       4.884  -0.424  -7.772  0.00  0.00     0.082 H 
ATOM     13  H   LIG d   1       3.279  -2.673  -6.521  0.00  0.00     0.038 H 
ATOM     14  H   LIG d   1       4.932  -2.959  -7.132  0.00  0.00     0.038 H 
ATOM     15  H   LIG d   1       2.056  -0.910  -5.191  0.00  0.00     0.037 H 
ATOM     16  H   LIG d   1       2.438   0.639  -4.387  0.00  0.00     0.037 H 
ATOM     17  H   LIG d   1       3.735   1.216  -6.583  0.00  0.00     0.082 H 
ATOM     18  H   LIG d   1       1.959   1.280  -6.641  0.00  0.00     0.082 H 
ATOM     19  H   LIG d   1       2.087  -1.027  -7.384  0.00  0.00     0.204 HD
ENDROOT
BRANCH   1  20
ATOM     20  C   LIG d   1       2.474   0.321  -8.834  0.00  0.00    -0.013 C 
ATOM     21  H   LIG d   1       1.402   0.237  -9.010  0.00  0.00     0.086 H 
ATOM     22  H   LIG d   1       3.016  -0.137  -9.662  0.00  0.00     0.086 H 
BRANCH  20  23
ATOM     23  C   LIG d   1       2.853   1.777  -8.731  0.00  0.00    -0.046 C 
ATOM     24  C   LIG d   1       3.574   2.333  -9.673  0.00  0.00    -0.098 C 
ATOM     25  H   LIG d   1       3.897   1.749 -10.522  0.00  0.00     0.053 H 
ATOM     26  H   LIG d   1       3.842   3.377  -9.602  0.00  0.00     0.053 H 
ATOM     27  H   LIG d   1       2.531   2.360  -7.882  0.00  0.00     0.062 H 
ENDBRANCH  20  23
ENDBRANCH   1  20
BRANCH   7  28
ATOM     28  N   LIG d   1       7.691  -1.416  -3.292  0.00  0.00    -0.338 N 
ATOM     29  H   LIG d   1       7.718  -1.507  -2.326  0.00  0.00     0.144 HD
ATOM     30  H   LIG d   1       8.512  -1.462  -3.806  0.00  0.00     0.144 HD
ENDBRANCH   7  28
TORSDOF 3
ENDMDL
MODEL 6
REMARK VINA RESULT:      -4.4     10.259     11.882
REMARK  3 active torsions:
REMARK  status: ('A' for Active; 'I' for Inactive)
REMARK    1  A    between atoms: C_2  and  C_3 
REMARK    2  A    between atoms: C_3  and  N_4 
REMARK    3  A    between atoms: C_10  and  N_12 
ROOT
ATOM      1  N   LIG d   1      10.588   5.210  -1.241  0.00  0.00     0.239 N 
ATOM      2  C   LIG d   1      11.592   5.258  -0.205  0.00  0.00    -0.026 C 
ATOM      3  C   LIG d   1      11.064   5.930   1.070  0.00  0.00     0.031 C 
ATOM      4  C   LIG d   1      11.145   7.440   0.842  0.00  0.00     0.059 A 
ATOM      5  C   LIG d   1      10.461   8.050  -0.149  0.00  0.00     0.019 A 
ATOM      6  S   LIG d   1      10.939   9.743   0.009  0.00  0.00    -0.057 SA
ATOM      7  C   LIG d   1      11.949   9.554   1.347  0.00  0.00     0.156 A 
ATOM      8  N   LIG d   1      11.885   8.262   1.589  0.00  0.00    -0.230 NA
ATOM      9  C   LIG d   1       9.494   7.399  -1.105  0.00  0.00     0.021 C 
ATOM     10  C   LIG d   1      10.317   6.428  -1.975  0.00  0.00    -0.027 C 
ATOM     11  H   LIG d   1      11.905   4.241   0.034  0.00  0.00     0.082 H 
ATOM     12  H   LIG d   1      12.454   5.817  -0.571  0.00  0.00     0.082 H 
ATOM     13  H   LIG d   1      10.030   5.635   1.245  0.00  0.00     0.038 H 
ATOM     14  H   LIG d   1      11.683   5.649   1.922  0.00  0.00     0.038 H 
ATOM     15  H   LIG d   1       8.734   6.850  -0.549  0.00  0.00     0.037 H 
ATOM     16  H   LIG d   1       9.026   8.156  -1.733  0.00  0.00     0.037 H 
ATOM     17  H   LIG d   1      11.260   6.901  -2.251  0.00  0.00     0.082 H 
ATOM     18  H   LIG d   1       9.756   6.188  -2.878  0.00  0.00     0.082 H 
ATOM     19  H   LIG d   1       9.724   4.907  -0.817  0.00  0.00     0.204 HD
ENDROOT
BRANCH   1  20
ATOM     20  C   LIG d   1      10.992   4.183  -2.210  0.00  0.00    -0.013 C 
ATOM     21  H   LIG d   1      11.256   3.267  -1.680  0.00  0.00     0.086 H 
ATOM     22  H   LIG d   1      11.853   4.536  -2.776  0.00  0.00     0.086 H 
BRANCH  20  23
ATOM     23  C   LIG d   1       9.849   3.906  -3.153  0.00  0.00    -0.046 C 
ATOM     24  C   LIG d   1       9.485   2.670  -3.394  0.00  0.00    -0.098 C 
ATOM     25  H   LIG d   1      10.004   1.851  -2.918  0.00  0.00     0.053 H 
ATOM     26  H   LIG d   1       8.663   2.471  -4.066  0.00  0.00     0.053 H 
ATOM     27  H   LIG d   1       9.331   4.724  -3.628  0.00  0.00     0.062 H 
ENDBRANCH  20  23
ENDBRANCH   1  20
BRANCH   7  28
ATOM     28  N   LIG d   1      12.671  10.523   2.026  0.00  0.00    -0.338 N 
ATOM     29  H   LIG d   1      12.664  10.542   2.996  0.00  0.00     0.144 HD
ATOM     30  H   LIG d   1      13.182  11.182   1.531  0.00  0.00     0.144 HD
ENDBRANCH   7  28
TORSDOF 3
ENDMDL
MODEL 7
REMARK VINA RESULT:      -4.2      2.660      3.565
REMARK  3 active torsions:
REMARK  status: ('A' for Active; 'I' for Inactive)
REMARK    1  A    between atoms: C_2  and  C_3 
REMARK    2  A    between atoms: C_3  and  N_4 
REMARK    3  A    between atoms: C_10  and  N_12 
ROOT
ATOM      1  N   LIG d   1       5.387  -1.944  -5.526  0.00  0.00     0.239 N 
ATOM      2  C   LIG d   1       4.670  -3.048  -6.118  0.00  0.00    -0.026 C 
ATOM      3  C   LIG d   1       4.839  -3.086  -7.643  0.00  0.00     0.031 C 
ATOM      4  C   LIG d   1       3.860  -2.064  -8.223  0.00  0.00     0.059 A 
ATOM      5  C   LIG d   1       3.939  -0.751  -7.924  0.00  0.00     0.019 A 
ATOM      6  S   LIG d   1       2.577  -0.050  -8.805  0.00  0.00    -0.057 SA
ATOM      7  C   LIG d   1       2.028  -1.478  -9.516  0.00  0.00     0.156 A 
ATOM      8  N   LIG d   1       2.867  -2.383  -9.056  0.00  0.00    -0.230 NA
ATOM      9  C   LIG d   1       4.990  -0.085  -7.073  0.00  0.00     0.021 C 
ATOM     10  C   LIG d   1       4.806  -0.624  -5.640  0.00  0.00    -0.027 C 
ATOM     11  H   LIG d   1       5.044  -3.982  -5.697  0.00  0.00     0.082 H 
ATOM     12  H   LIG d   1       3.610  -2.952  -5.880  0.00  0.00     0.082 H 
ATOM     13  H   LIG d   1       5.860  -2.817  -7.911  0.00  0.00     0.038 H 
ATOM     14  H   LIG d   1       4.603  -4.081  -8.019  0.00  0.00     0.038 H 
ATOM     15  H   LIG d   1       5.984  -0.339  -7.443  0.00  0.00     0.037 H 
ATOM     16  H   LIG d   1       4.850   0.995  -7.086  0.00  0.00     0.037 H 
ATOM     17  H   LIG d   1       3.742  -0.675  -5.407  0.00  0.00     0.082 H 
ATOM     18  H   LIG d   1       5.296   0.049  -4.936  0.00  0.00     0.082 H 
ATOM     19  H   LIG d   1       6.305  -1.914  -5.946  0.00  0.00     0.204 HD
ENDROOT
BRANCH   1  20
ATOM     20  C   LIG d   1       5.560  -2.236  -4.098  0.00  0.00    -0.013 C 
ATOM     21  H   LIG d   1       6.031  -1.385  -3.607  0.00  0.00     0.086 H 
ATOM     22  H   LIG d   1       6.190  -3.118  -3.981  0.00  0.00     0.086 H 
BRANCH  20  23
ATOM     23  C   LIG d   1       4.213  -2.495  -3.472  0.00  0.00    -0.046 C 
ATOM     24  C   LIG d   1       3.918  -1.960  -2.312  0.00  0.00    -0.098 C 
ATOM     25  H   LIG d   1       4.639  -1.336  -1.805  0.00  0.00     0.053 H 
ATOM     26  H   LIG d   1       2.951  -2.141  -1.866  0.00  0.00     0.053 H 
ATOM     27  H   LIG d   1       3.493  -3.119  -3.978  0.00  0.00     0.062 H 
ENDBRANCH  20  23
ENDBRANCH   1  20
BRANCH   7  28
ATOM     28  N   LIG d   1       0.955  -1.656 -10.375  0.00  0.00    -0.338 N 
ATOM     29  H   LIG d   1       0.536  -0.887 -10.792  0.00  0.00     0.144 HD
ATOM     30  H   LIG d   1       0.623  -2.548 -10.558  0.00  0.00     0.144 HD
ENDBRANCH   7  28
TORSDOF 3
ENDMDL
MODEL 8
REMARK VINA RESULT:      -4.2      2.857      3.328
REMARK  3 active torsions:
REMARK  status: ('A' for Active; 'I' for Inactive)
REMARK    1  A    between atoms: C_2  and  C_3 
REMARK    2  A    between atoms: C_3  and  N_4 
REMARK    3  A    between atoms: C_10  and  N_12 
ROOT
ATOM      1  N   LIG d   1       3.354  -0.690  -6.957  0.00  0.00     0.239 N 
ATOM      2  C   LIG d   1       3.284   0.516  -7.747  0.00  0.00    -0.026 C 
ATOM      3  C   LIG d   1       2.368   0.347  -8.967  0.00  0.00     0.031 C 
ATOM      4  C   LIG d   1       3.185  -0.376 -10.038  0.00  0.00     0.059 A 
ATOM      5  C   LIG d   1       3.686  -1.613  -9.840  0.00  0.00     0.019 A 
ATOM      6  S   LIG d   1       4.558  -1.944 -11.340  0.00  0.00    -0.057 SA
ATOM      7  C   LIG d   1       4.191  -0.496 -12.122  0.00  0.00     0.156 A 
ATOM      8  N   LIG d   1       3.464   0.148 -11.234  0.00  0.00    -0.230 NA
ATOM      9  C   LIG d   1       3.479  -2.481  -8.625  0.00  0.00     0.021 C 
ATOM     10  C   LIG d   1       4.179  -1.771  -7.449  0.00  0.00    -0.027 C 
ATOM     11  H   LIG d   1       2.902   1.327  -7.126  0.00  0.00     0.082 H 
ATOM     12  H   LIG d   1       4.287   0.776  -8.088  0.00  0.00     0.082 H 
ATOM     13  H   LIG d   1       1.497  -0.248  -8.698  0.00  0.00     0.038 H 
ATOM     14  H   LIG d   1       2.054   1.324  -9.335  0.00  0.00     0.038 H 
ATOM     15  H   LIG d   1       2.414  -2.584  -8.418  0.00  0.00     0.037 H 
ATOM     16  H   LIG d   1       3.926  -3.462  -8.788  0.00  0.00     0.037 H 
ATOM     17  H   LIG d   1       5.136  -1.371  -7.786  0.00  0.00     0.082 H 
ATOM     18  H   LIG d   1       4.352  -2.488  -6.645  0.00  0.00     0.082 H 
ATOM     19  H   LIG d   1       2.414  -1.043  -6.853  0.00  0.00     0.204 HD
ENDROOT
BRANCH   1  20
ATOM     20  C   LIG d   1       3.842  -0.323  -5.621  0.00  0.00    -0.013 C 
ATOM     21  H   LIG d   1       4.552   0.499  -5.707  0.00  0.00     0.086 H 
ATOM     22  H   LIG d   1       4.333  -1.183  -5.166  0.00  0.00     0.086 H 
BRANCH  20  23
ATOM     23  C   LIG d   1       2.679   0.105  -4.763  0.00  0.00    -0.046 C 
ATOM     24  C   LIG d   1       2.524  -0.410  -3.568  0.00  0.00    -0.098 C 
ATOM     25  H   LIG d   1       3.228  -1.141  -3.199  0.00  0.00     0.053 H 
ATOM     26  H   LIG d   1       1.694  -0.099  -2.950  0.00  0.00     0.053 H 
ATOM     27  H   LIG d   1       1.976   0.836  -5.132  0.00  0.00     0.062 H 
ENDBRANCH  20  23
ENDBRANCH   1  20
BRANCH   7  28
ATOM     28  N   LIG d   1       4.566  -0.083 -13.391  0.00  0.00    -0.338 N 
ATOM     29  H   LIG d   1       5.084  -0.674 -13.960  0.00  0.00     0.144 HD
ATOM     30  H   LIG d   1       4.310   0.796 -13.711  0.00  0.00     0.144 HD
ENDBRANCH   7  28
TORSDOF 3
ENDMDL
MODEL 9
REMARK VINA RESULT:      -4.2      2.869      5.465
REMARK  3 active torsions:
REMARK  status: ('A' for Active; 'I' for Inactive)
REMARK    1  A    between atoms: C_2  and  C_3 
REMARK    2  A    between atoms: C_3  and  N_4 
REMARK    3  A    between atoms: C_10  and  N_12 
ROOT
ATOM      1  N   LIG d   1       3.270  -1.408  -9.032  0.00  0.00     0.239 N 
ATOM      2  C   LIG d   1       2.383  -0.460  -8.401  0.00  0.00    -0.026 C 
ATOM      3  C   LIG d   1       3.156   0.613  -7.622  0.00  0.00     0.031 C 
ATOM      4  C   LIG d   1       3.544  -0.007  -6.279  0.00  0.00     0.059 A 
ATOM      5  C   LIG d   1       4.336  -1.096  -6.197  0.00  0.00     0.019 A 
ATOM      6  S   LIG d   1       4.423  -1.407  -4.461  0.00  0.00    -0.057 SA
ATOM      7  C   LIG d   1       3.471  -0.106  -3.965  0.00  0.00     0.156 A 
ATOM      8  N   LIG d   1       3.136   0.470  -5.100  0.00  0.00    -0.230 NA
ATOM      9  C   LIG d   1       5.002  -1.810  -7.346  0.00  0.00     0.021 C 
ATOM     10  C   LIG d   1       3.874  -2.424  -8.199  0.00  0.00    -0.027 C 
ATOM     11  H   LIG d   1       1.778   0.026  -9.167  0.00  0.00     0.082 H 
ATOM     12  H   LIG d   1       1.724  -0.992  -7.715  0.00  0.00     0.082 H 
ATOM     13  H   LIG d   1       4.052   0.899  -8.172  0.00  0.00     0.038 H 
ATOM     14  H   LIG d   1       2.523   1.485  -7.460  0.00  0.00     0.038 H 
ATOM     15  H   LIG d   1       5.576  -1.101  -7.942  0.00  0.00     0.037 H 
ATOM     16  H   LIG d   1       5.654  -2.596  -6.967  0.00  0.00     0.037 H 
ATOM     17  H   LIG d   1       3.116  -2.852  -7.542  0.00  0.00     0.082 H 
ATOM     18  H   LIG d   1       4.287  -3.211  -8.831  0.00  0.00     0.082 H 
ATOM     19  H   LIG d   1       4.014  -0.886  -9.471  0.00  0.00     0.204 HD
ENDROOT
BRANCH   1  20
ATOM     20  C   LIG d   1       2.517  -2.087 -10.095  0.00  0.00    -0.013 C 
ATOM     21  H   LIG d   1       2.097  -3.015  -9.706  0.00  0.00     0.086 H 
ATOM     22  H   LIG d   1       3.183  -2.310 -10.928  0.00  0.00     0.086 H 
BRANCH  20  23
ATOM     23  C   LIG d   1       1.401  -1.191 -10.570  0.00  0.00    -0.046 C 
ATOM     24  C   LIG d   1       1.014  -1.236 -11.821  0.00  0.00    -0.098 C 
ATOM     25  H   LIG d   1       1.495  -1.913 -12.511  0.00  0.00     0.053 H 
ATOM     26  H   LIG d   1       0.212  -0.597 -12.160  0.00  0.00     0.053 H 
ATOM     27  H   LIG d   1       0.921  -0.514  -9.880  0.00  0.00     0.062 H 
ENDBRANCH  20  23
ENDBRANCH   1  20
BRANCH   7  28
ATOM     28  N   LIG d   1       3.124   0.266  -2.675  0.00  0.00    -0.338 N 
ATOM     29  H   LIG d   1       3.693   0.873  -2.177  0.00  0.00     0.144 HD
ATOM     30  H   LIG d   1       2.314  -0.081  -2.271  0.00  0.00     0.144 HD
ENDBRANCH   7  28
TORSDOF 3
ENDMDL
MODEL 10
REMARK VINA RESULT:      -4.1     11.667     13.256
REMARK  3 active torsions:
REMARK  status: ('A' for Active; 'I' for Inactive)
REMARK    1  A    between atoms: C_2  and  C_3 
REMARK    2  A    between atoms: C_3  and  N_4 
REMARK    3  A    between atoms: C_10  and  N_12 
ROOT
ATOM      1  N   LIG d   1       9.928  11.667  -1.125  0.00  0.00     0.239 N 
ATOM      2  C   LIG d   1       9.252  10.629  -1.866  0.00  0.00    -0.026 C 
ATOM      3  C   LIG d   1       8.587   9.606  -0.935  0.00  0.00     0.031 C 
ATOM      4  C   LIG d   1       9.684   8.644  -0.476  0.00  0.00     0.059 A 
ATOM      5  C   LIG d   1      10.756   9.067   0.225  0.00  0.00     0.019 A 
ATOM      6  S   LIG d   1      11.703   7.593   0.449  0.00  0.00    -0.057 SA
ATOM      7  C   LIG d   1      10.646   6.541  -0.340  0.00  0.00     0.156 A 
ATOM      8  N   LIG d   1       9.671   7.333  -0.730  0.00  0.00    -0.230 NA
ATOM      9  C   LIG d   1      11.010  10.468   0.718  0.00  0.00     0.021 C 
ATOM     10  C   LIG d   1      11.209  11.348  -0.533  0.00  0.00    -0.027 C 
ATOM     11  H   LIG d   1       8.488  11.083  -2.498  0.00  0.00     0.082 H 
ATOM     12  H   LIG d   1       9.975  10.116  -2.500  0.00  0.00     0.082 H 
ATOM     13  H   LIG d   1       8.153  10.113  -0.074  0.00  0.00     0.038 H 
ATOM     14  H   LIG d   1       7.814   9.058  -1.475  0.00  0.00     0.038 H 
ATOM     15  H   LIG d   1      10.154  10.823   1.291  0.00  0.00     0.037 H 
ATOM     16  H   LIG d   1      11.909  10.489   1.334  0.00  0.00     0.037 H 
ATOM     17  H   LIG d   1      11.820  10.811  -1.260  0.00  0.00     0.082 H 
ATOM     18  H   LIG d   1      11.716  12.271  -0.249  0.00  0.00     0.082 H 
ATOM     19  H   LIG d   1       9.312  11.967  -0.384  0.00  0.00     0.204 HD
ENDROOT
BRANCH   1  20
ATOM     20  C   LIG d   1      10.123  12.808  -2.030  0.00  0.00    -0.013 C 
ATOM     21  H   LIG d   1      11.021  12.649  -2.627  0.00  0.00     0.086 H 
ATOM     22  H   LIG d   1      10.231  13.721  -1.445  0.00  0.00     0.086 H 
BRANCH  20  23
ATOM     23  C   LIG d   1       8.930  12.934  -2.942  0.00  0.00    -0.046 C 
ATOM     24  C   LIG d   1       8.310  14.084  -3.053  0.00  0.00    -0.098 C 
ATOM     25  H   LIG d   1       8.653  14.939  -2.490  0.00  0.00     0.053 H 
ATOM     26  H   LIG d   1       7.458  14.176  -3.710  0.00  0.00     0.053 H 
ATOM     27  H   LIG d   1       8.586  12.079  -3.504  0.00  0.00     0.062 H 
ENDBRANCH  20  23
ENDBRANCH   1  20
BRANCH   7  28
ATOM     28  N   LIG d   1      10.774   5.174  -0.531  0.00  0.00    -0.338 N 
ATOM     29  H   LIG d   1      10.266   4.558   0.020  0.00  0.00     0.144 HD
ATOM     30  H   LIG d   1      11.372   4.833  -1.215  0.00  0.00     0.144 HD
ENDBRANCH   7  28
TORSDOF 3
ENDMDL
