MODEL 1
REMARK VINA RESULT:      -7.3      0.000      0.000
REMARK  6 active torsions:
REMARK  status: ('A' for Active; 'I' for Inactive)
REMARK    1  A    between atoms: C_1  and  O_2 
REMARK    2  A    between atoms: O_2  and  C_3 
REMARK    3  A    between atoms: C_8  and  N_9 
REMARK       I    between atoms: N_9  and  C_10 
REMARK       I    between atoms: C_10  and  N_12 
REMARK    4  A    between atoms: N_12  and  C_13 
REMARK    5  A    between atoms: C_15  and  N_22 
REMARK    6  A    between atoms: C_17  and  N_19 
ROOT
ATOM      1  N   LIG d   1       2.454  -0.178  -4.945  0.00  0.00    -0.266 N 
ATOM      2  C   LIG d   1       3.069  -0.054  -6.138  0.00  0.00     0.308 C 
ATOM      3  O   LIG d   1       4.274   0.101  -6.187  0.00  0.00    -0.252 OA
ATOM      4  N   LIG d   1       2.348  -0.102  -7.276  0.00  0.00    -0.269 N 
ATOM      5  H   LIG d   1       1.507  -0.380  -4.906  0.00  0.00     0.157 HD
ATOM      6  H   LIG d   1       1.380  -0.148  -7.235  0.00  0.00     0.156 HD
ENDROOT
BRANCH   1   7
ATOM      7  C   LIG d   1       3.185  -0.013  -3.759  0.00  0.00     0.077 A 
ATOM      8  C   LIG d   1       3.767  -1.117  -3.140  0.00  0.00     0.141 A 
ATOM      9  C   LIG d   1       4.488  -0.949  -1.970  0.00  0.00    -0.018 A 
ATOM     10  C   LIG d   1       4.631   0.312  -1.419  0.00  0.00    -0.058 A 
ATOM     11  H   LIG d   1       4.940  -1.803  -1.485  0.00  0.00     0.066 H 
ATOM     12  C   LIG d   1       4.054   1.408  -2.035  0.00  0.00    -0.060 A 
ATOM     13  H   LIG d   1       5.194   0.441  -0.506  0.00  0.00     0.062 H 
ATOM     14  C   LIG d   1       3.332   1.248  -3.203  0.00  0.00    -0.037 A 
ATOM     15  H   LIG d   1       4.167   2.390  -1.601  0.00  0.00     0.062 H 
ATOM     16  H   LIG d   1       2.883   2.106  -3.681  0.00  0.00     0.064 H 
BRANCH   8  17
ATOM     17  O   LIG d   1       3.622  -2.357  -3.679  0.00  0.00    -0.493 OA
BRANCH  17  18
ATOM     18  C   LIG d   1       4.785  -2.955  -4.253  0.00  0.00     0.079 C 
ATOM     19  H   LIG d   1       4.509  -3.482  -5.167  0.00  0.00     0.066 H 
ATOM     20  H   LIG d   1       5.515  -2.181  -4.486  0.00  0.00     0.066 H 
ATOM     21  H   LIG d   1       5.218  -3.662  -3.544  0.00  0.00     0.066 H 
ENDBRANCH  17  18
ENDBRANCH   8  17
ENDBRANCH   1   7
BRANCH   4  22
ATOM     22  C   LIG d   1       2.996  -0.087  -8.516  0.00  0.00     0.048 A 
ATOM     23  C   LIG d   1       4.300   0.383  -8.614  0.00  0.00     0.037 A 
ATOM     24  C   LIG d   1       4.937   0.396  -9.839  0.00  0.00     0.281 A 
ATOM     25  H   LIG d   1       4.814   0.738  -7.733  0.00  0.00     0.070 H 
ATOM     26  C   LIG d   1       4.278  -0.058 -10.968  0.00  0.00     0.093 A 
ATOM     27  C   LIG d   1       2.980  -0.526 -10.873  0.00  0.00     0.281 A 
ATOM     28  H   LIG d   1       4.779  -0.046 -11.925  0.00  0.00     0.075 H 
ATOM     29  C   LIG d   1       2.340  -0.548  -9.649  0.00  0.00     0.037 A 
ATOM     30  H   LIG d   1       1.328  -0.918  -9.575  0.00  0.00     0.070 H 
BRANCH  24  31
ATOM     31  N   LIG d   1       6.326   0.897  -9.945  0.00  0.00     0.080 N 
ATOM     32  O   LIG d   1       7.175   0.224 -10.503  0.00  0.00     0.041 OA
ATOM     33  O   LIG d   1       6.620   1.981  -9.474  0.00  0.00    -0.576 OA
ENDBRANCH  24  31
BRANCH  27  34
ATOM     34  N   LIG d   1       2.280  -1.011 -12.083  0.00  0.00     0.080 N 
ATOM     35  O   LIG d   1       1.078  -1.205 -12.055  0.00  0.00     0.041 OA
ATOM     36  O   LIG d   1       2.906  -1.216 -13.108  0.00  0.00    -0.576 OA
ENDBRANCH  27  34
ENDBRANCH   4  22
TORSDOF 6
ENDMDL
MODEL 2
REMARK VINA RESULT:      -7.3      0.011      3.095
REMARK  6 active torsions:
REMARK  status: ('A' for Active; 'I' for Inactive)
REMARK    1  A    between atoms: C_1  and  O_2 
REMARK    2  A    between atoms: O_2  and  C_3 
REMARK    3  A    between atoms: C_8  and  N_9 
REMARK       I    between atoms: N_9  and  C_10 
REMARK       I    between atoms: C_10  and  N_12 
REMARK    4  A    between atoms: N_12  and  C_13 
REMARK    5  A    between atoms: C_15  and  N_22 
REMARK    6  A    between atoms: C_17  and  N_19 
ROOT
ATOM      1  N   LIG d   1       2.460  -0.190  -4.947  0.00  0.00    -0.266 N 
ATOM      2  C   LIG d   1       3.075  -0.063  -6.138  0.00  0.00     0.308 C 
ATOM      3  O   LIG d   1       4.280   0.098  -6.186  0.00  0.00    -0.252 OA
ATOM      4  N   LIG d   1       2.356  -0.113  -7.278  0.00  0.00    -0.269 N 
ATOM      5  H   LIG d   1       1.513  -0.397  -4.909  0.00  0.00     0.157 HD
ATOM      6  H   LIG d   1       1.388  -0.164  -7.238  0.00  0.00     0.156 HD
ENDROOT
BRANCH   1   7
ATOM      7  C   LIG d   1       3.188  -0.023  -3.760  0.00  0.00     0.077 A 
ATOM      8  C   LIG d   1       3.768  -1.126  -3.137  0.00  0.00     0.141 A 
ATOM      9  C   LIG d   1       4.487  -0.955  -1.965  0.00  0.00    -0.018 A 
ATOM     10  C   LIG d   1       4.629   0.307  -1.418  0.00  0.00    -0.058 A 
ATOM     11  H   LIG d   1       4.937  -1.808  -1.478  0.00  0.00     0.066 H 
ATOM     12  C   LIG d   1       4.054   1.402  -2.037  0.00  0.00    -0.060 A 
ATOM     13  H   LIG d   1       5.190   0.438  -0.504  0.00  0.00     0.062 H 
ATOM     14  C   LIG d   1       3.335   1.240  -3.206  0.00  0.00    -0.037 A 
ATOM     15  H   LIG d   1       4.166   2.385  -1.606  0.00  0.00     0.062 H 
ATOM     16  H   LIG d   1       2.887   2.096  -3.687  0.00  0.00     0.064 H 
BRANCH   8  17
ATOM     17  O   LIG d   1       3.623  -2.367  -3.672  0.00  0.00    -0.493 OA
BRANCH  17  18
ATOM     18  C   LIG d   1       4.782  -2.957  -4.265  0.00  0.00     0.079 C 
ATOM     19  H   LIG d   1       5.120  -3.791  -3.649  0.00  0.00     0.066 H 
ATOM     20  H   LIG d   1       4.536  -3.319  -5.263  0.00  0.00     0.066 H 
ATOM     21  H   LIG d   1       5.575  -2.211  -4.334  0.00  0.00     0.066 H 
ENDBRANCH  17  18
ENDBRANCH   8  17
ENDBRANCH   1   7
BRANCH   4  22
ATOM     22  C   LIG d   1       3.006  -0.094  -8.517  0.00  0.00     0.048 A 
ATOM     23  C   LIG d   1       2.349  -0.546  -9.654  0.00  0.00     0.037 A 
ATOM     24  C   LIG d   1       2.993  -0.524 -10.875  0.00  0.00     0.281 A 
ATOM     25  H   LIG d   1       1.336  -0.915  -9.582  0.00  0.00     0.070 H 
ATOM     26  C   LIG d   1       4.290  -0.054 -10.967  0.00  0.00     0.093 A 
ATOM     27  C   LIG d   1       4.946   0.397  -9.837  0.00  0.00     0.281 A 
ATOM     28  H   LIG d   1       4.791  -0.039 -11.924  0.00  0.00     0.075 H 
ATOM     29  C   LIG d   1       4.306   0.384  -8.613  0.00  0.00     0.037 A 
ATOM     30  H   LIG d   1       4.817   0.741  -7.731  0.00  0.00     0.070 H 
BRANCH  24  31
ATOM     31  N   LIG d   1       2.294  -1.007 -12.088  0.00  0.00     0.080 N 
ATOM     32  O   LIG d   1       1.092  -1.202 -12.061  0.00  0.00     0.041 OA
ATOM     33  O   LIG d   1       2.921  -1.209 -13.113  0.00  0.00    -0.576 OA
ENDBRANCH  24  31
BRANCH  27  34
ATOM     34  N   LIG d   1       6.334   0.901  -9.940  0.00  0.00     0.080 N 
ATOM     35  O   LIG d   1       7.187   0.230 -10.495  0.00  0.00     0.041 OA
ATOM     36  O   LIG d   1       6.625   1.986  -9.469  0.00  0.00    -0.576 OA
ENDBRANCH  27  34
ENDBRANCH   4  22
TORSDOF 6
ENDMDL
MODEL 3
REMARK VINA RESULT:      -6.8      5.737      8.130
REMARK  6 active torsions:
REMARK  status: ('A' for Active; 'I' for Inactive)
REMARK    1  A    between atoms: C_1  and  O_2 
REMARK    2  A    between atoms: O_2  and  C_3 
REMARK    3  A    between atoms: C_8  and  N_9 
REMARK       I    between atoms: N_9  and  C_10 
REMARK       I    between atoms: C_10  and  N_12 
REMARK    4  A    between atoms: N_12  and  C_13 
REMARK    5  A    between atoms: C_15  and  N_22 
REMARK    6  A    between atoms: C_17  and  N_19 
ROOT
ATOM      1  N   LIG d   1       7.252  -0.286  -3.703  0.00  0.00    -0.266 N 
ATOM      2  C   LIG d   1       7.625   1.004  -3.799  0.00  0.00     0.308 C 
ATOM      3  O   LIG d   1       6.813   1.888  -3.605  0.00  0.00    -0.252 OA
ATOM      4  N   LIG d   1       8.899   1.317  -4.111  0.00  0.00    -0.269 N 
ATOM      5  H   LIG d   1       7.914  -0.990  -3.780  0.00  0.00     0.157 HD
ATOM      6  H   LIG d   1       9.527   0.615  -4.342  0.00  0.00     0.156 HD
ENDROOT
BRANCH   1   7
ATOM      7  C   LIG d   1       5.904  -0.613  -3.492  0.00  0.00     0.077 A 
ATOM      8  C   LIG d   1       4.993  -0.528  -4.542  0.00  0.00     0.141 A 
ATOM      9  C   LIG d   1       3.664  -0.853  -4.328  0.00  0.00    -0.018 A 
ATOM     10  C   LIG d   1       3.244  -1.260  -3.074  0.00  0.00    -0.058 A 
ATOM     11  H   LIG d   1       2.954  -0.788  -5.139  0.00  0.00     0.066 H 
ATOM     12  C   LIG d   1       4.149  -1.344  -2.032  0.00  0.00    -0.060 A 
ATOM     13  H   LIG d   1       2.206  -1.513  -2.909  0.00  0.00     0.062 H 
ATOM     14  C   LIG d   1       5.477  -1.022  -2.237  0.00  0.00    -0.037 A 
ATOM     15  H   LIG d   1       3.817  -1.662  -1.055  0.00  0.00     0.062 H 
ATOM     16  H   LIG d   1       6.181  -1.089  -1.421  0.00  0.00     0.064 H 
BRANCH   8  17
ATOM     17  O   LIG d   1       5.406  -0.123  -5.772  0.00  0.00    -0.493 OA
BRANCH  17  18
ATOM     18  C   LIG d   1       4.609  -0.523  -6.888  0.00  0.00     0.079 C 
ATOM     19  H   LIG d   1       3.566  -0.265  -6.702  0.00  0.00     0.066 H 
ATOM     20  H   LIG d   1       4.955  -0.011  -7.785  0.00  0.00     0.066 H 
ATOM     21  H   LIG d   1       4.696  -1.601  -7.029  0.00  0.00     0.066 H 
ENDBRANCH  17  18
ENDBRANCH   8  17
ENDBRANCH   1   7
BRANCH   4  22
ATOM     22  C   LIG d   1       9.314   2.653  -4.102  0.00  0.00     0.048 A 
ATOM     23  C   LIG d   1       9.304   3.393  -5.277  0.00  0.00     0.037 A 
ATOM     24  C   LIG d   1       9.714   4.712  -5.264  0.00  0.00     0.281 A 
ATOM     25  H   LIG d   1       8.976   2.937  -6.200  0.00  0.00     0.070 H 
ATOM     26  C   LIG d   1      10.135   5.295  -4.082  0.00  0.00     0.093 A 
ATOM     27  C   LIG d   1      10.146   4.560  -2.911  0.00  0.00     0.281 A 
ATOM     28  H   LIG d   1      10.456   6.327  -4.076  0.00  0.00     0.075 H 
ATOM     29  C   LIG d   1       9.731   3.243  -2.916  0.00  0.00     0.037 A 
ATOM     30  H   LIG d   1       9.736   2.671  -2.000  0.00  0.00     0.070 H 
BRANCH  24  31
ATOM     31  N   LIG d   1       9.704   5.502  -6.516  0.00  0.00     0.080 N 
ATOM     32  O   LIG d   1       9.788   6.716  -6.470  0.00  0.00     0.041 OA
ATOM     33  O   LIG d   1       9.611   4.938  -7.591  0.00  0.00    -0.576 OA
ENDBRANCH  24  31
BRANCH  27  34
ATOM     34  N   LIG d   1      10.598   5.189  -1.649  0.00  0.00     0.080 N 
ATOM     35  O   LIG d   1       9.999   6.150  -1.199  0.00  0.00     0.041 OA
ATOM     36  O   LIG d   1      11.568   4.746  -1.061  0.00  0.00    -0.576 OA
ENDBRANCH  27  34
ENDBRANCH   4  22
TORSDOF 6
ENDMDL
MODEL 4
REMARK VINA RESULT:      -6.8      5.696      7.776
REMARK  6 active torsions:
REMARK  status: ('A' for Active; 'I' for Inactive)
REMARK    1  A    between atoms: C_1  and  O_2 
REMARK    2  A    between atoms: O_2  and  C_3 
REMARK    3  A    between atoms: C_8  and  N_9 
REMARK       I    between atoms: N_9  and  C_10 
REMARK       I    between atoms: C_10  and  N_12 
REMARK    4  A    between atoms: N_12  and  C_13 
REMARK    5  A    between atoms: C_15  and  N_22 
REMARK    6  A    between atoms: C_17  and  N_19 
ROOT
ATOM      1  N   LIG d   1       7.126  -0.254  -3.799  0.00  0.00    -0.266 N 
ATOM      2  C   LIG d   1       7.528   1.029  -3.874  0.00  0.00     0.308 C 
ATOM      3  O   LIG d   1       6.747   1.927  -3.622  0.00  0.00    -0.252 OA
ATOM      4  N   LIG d   1       8.796   1.319  -4.228  0.00  0.00    -0.269 N 
ATOM      5  H   LIG d   1       7.766  -0.972  -3.922  0.00  0.00     0.157 HD
ATOM      6  H   LIG d   1       9.397   0.609  -4.504  0.00  0.00     0.156 HD
ENDROOT
BRANCH   1   7
ATOM      7  C   LIG d   1       5.780  -0.553  -3.543  0.00  0.00     0.077 A 
ATOM      8  C   LIG d   1       4.836  -0.449  -4.562  0.00  0.00     0.141 A 
ATOM      9  C   LIG d   1       3.508  -0.746  -4.303  0.00  0.00    -0.018 A 
ATOM     10  C   LIG d   1       3.123  -1.147  -3.037  0.00  0.00    -0.058 A 
ATOM     11  H   LIG d   1       2.773  -0.666  -5.090  0.00  0.00     0.066 H 
ATOM     12  C   LIG d   1       4.060  -1.252  -2.026  0.00  0.00    -0.060 A 
ATOM     13  H   LIG d   1       2.086  -1.379  -2.838  0.00  0.00     0.062 H 
ATOM     14  C   LIG d   1       5.387  -0.956  -2.275  0.00  0.00    -0.037 A 
ATOM     15  H   LIG d   1       3.754  -1.564  -1.038  0.00  0.00     0.062 H 
ATOM     16  H   LIG d   1       6.116  -1.039  -1.484  0.00  0.00     0.064 H 
BRANCH   8  17
ATOM     17  O   LIG d   1       5.215  -0.049  -5.805  0.00  0.00    -0.493 OA
BRANCH  17  18
ATOM     18  C   LIG d   1       4.346  -0.387  -6.888  0.00  0.00     0.079 C 
ATOM     19  H   LIG d   1       3.310  -0.329  -6.554  0.00  0.00     0.066 H 
ATOM     20  H   LIG d   1       4.503   0.311  -7.710  0.00  0.00     0.066 H 
ATOM     21  H   LIG d   1       4.563  -1.401  -7.225  0.00  0.00     0.066 H 
ENDBRANCH  17  18
ENDBRANCH   8  17
ENDBRANCH   1   7
BRANCH   4  22
ATOM     22  C   LIG d   1       9.246   2.644  -4.198  0.00  0.00     0.048 A 
ATOM     23  C   LIG d   1       9.680   3.204  -3.003  0.00  0.00     0.037 A 
ATOM     24  C   LIG d   1      10.124   4.511  -2.977  0.00  0.00     0.281 A 
ATOM     25  H   LIG d   1       9.669   2.618  -2.096  0.00  0.00     0.070 H 
ATOM     26  C   LIG d   1      10.137   5.263  -4.138  0.00  0.00     0.093 A 
ATOM     27  C   LIG d   1       9.705   4.707  -5.328  0.00  0.00     0.281 A 
ATOM     28  H   LIG d   1      10.484   6.285  -4.114  0.00  0.00     0.075 H 
ATOM     29  C   LIG d   1       9.266   3.398  -5.363  0.00  0.00     0.037 A 
ATOM     30  H   LIG d   1       8.933   2.964  -6.294  0.00  0.00     0.070 H 
BRANCH  24  31
ATOM     31  N   LIG d   1      10.587   5.110  -1.704  0.00  0.00     0.080 N 
ATOM     32  O   LIG d   1       9.997   6.064  -1.230  0.00  0.00     0.041 OA
ATOM     33  O   LIG d   1      11.557   4.648  -1.131  0.00  0.00    -0.576 OA
ENDBRANCH  24  31
BRANCH  27  34
ATOM     34  N   LIG d   1       9.721   5.515  -6.569  0.00  0.00     0.080 N 
ATOM     35  O   LIG d   1       9.602   4.972  -7.652  0.00  0.00     0.041 OA
ATOM     36  O   LIG d   1       9.854   6.725  -6.506  0.00  0.00    -0.576 OA
ENDBRANCH  27  34
ENDBRANCH   4  22
TORSDOF 6
ENDMDL
MODEL 5
REMARK VINA RESULT:      -6.7      6.007      8.175
REMARK  6 active torsions:
REMARK  status: ('A' for Active; 'I' for Inactive)
REMARK    1  A    between atoms: C_1  and  O_2 
REMARK    2  A    between atoms: O_2  and  C_3 
REMARK    3  A    between atoms: C_8  and  N_9 
REMARK       I    between atoms: N_9  and  C_10 
REMARK       I    between atoms: C_10  and  N_12 
REMARK    4  A    between atoms: N_12  and  C_13 
REMARK    5  A    between atoms: C_15  and  N_22 
REMARK    6  A    between atoms: C_17  and  N_19 
ROOT
ATOM      1  N   LIG d   1       6.076   0.541  -4.807  0.00  0.00    -0.266 N 
ATOM      2  C   LIG d   1       7.115   1.120  -4.176  0.00  0.00     0.308 C 
ATOM      3  O   LIG d   1       7.299   0.913  -2.991  0.00  0.00    -0.252 OA
ATOM      4  N   LIG d   1       7.952   1.929  -4.856  0.00  0.00    -0.269 N 
ATOM      5  H   LIG d   1       5.973   0.641  -5.766  0.00  0.00     0.157 HD
ATOM      6  H   LIG d   1       7.762   2.156  -5.780  0.00  0.00     0.156 HD
ENDROOT
BRANCH   1   7
ATOM      7  C   LIG d   1       5.141  -0.208  -4.077  0.00  0.00     0.077 A 
ATOM      8  C   LIG d   1       5.274  -1.591  -3.985  0.00  0.00     0.141 A 
ATOM      9  C   LIG d   1       4.348  -2.325  -3.262  0.00  0.00    -0.018 A 
ATOM     10  C   LIG d   1       3.295  -1.685  -2.634  0.00  0.00    -0.058 A 
ATOM     11  H   LIG d   1       4.447  -3.398  -3.188  0.00  0.00     0.066 H 
ATOM     12  C   LIG d   1       3.163  -0.311  -2.726  0.00  0.00    -0.060 A 
ATOM     13  H   LIG d   1       2.574  -2.259  -2.071  0.00  0.00     0.062 H 
ATOM     14  C   LIG d   1       4.083   0.428  -3.445  0.00  0.00    -0.037 A 
ATOM     15  H   LIG d   1       2.339   0.185  -2.235  0.00  0.00     0.062 H 
ATOM     16  H   LIG d   1       3.977   1.501  -3.515  0.00  0.00     0.064 H 
BRANCH   8  17
ATOM     17  O   LIG d   1       6.306  -2.220  -4.607  0.00  0.00    -0.493 OA
BRANCH  17  18
ATOM     18  C   LIG d   1       7.419  -2.600  -3.795  0.00  0.00     0.079 C 
ATOM     19  H   LIG d   1       8.262  -1.941  -4.004  0.00  0.00     0.066 H 
ATOM     20  H   LIG d   1       7.146  -2.518  -2.743  0.00  0.00     0.066 H 
ATOM     21  H   LIG d   1       7.698  -3.630  -4.020  0.00  0.00     0.066 H 
ENDBRANCH  17  18
ENDBRANCH   8  17
ENDBRANCH   1   7
BRANCH   4  22
ATOM     22  C   LIG d   1       9.093   2.441  -4.230  0.00  0.00     0.048 A 
ATOM     23  C   LIG d   1       9.035   3.660  -3.566  0.00  0.00     0.037 A 
ATOM     24  C   LIG d   1      10.164   4.162  -2.948  0.00  0.00     0.281 A 
ATOM     25  H   LIG d   1       8.109   4.214  -3.533  0.00  0.00     0.070 H 
ATOM     26  C   LIG d   1      11.351   3.453  -2.991  0.00  0.00     0.093 A 
ATOM     27  C   LIG d   1      11.411   2.240  -3.652  0.00  0.00     0.281 A 
ATOM     28  H   LIG d   1      12.233   3.849  -2.508  0.00  0.00     0.075 H 
ATOM     29  C   LIG d   1      10.285   1.729  -4.266  0.00  0.00     0.037 A 
ATOM     30  H   LIG d   1      10.331   0.779  -4.778  0.00  0.00     0.070 H 
BRANCH  24  31
ATOM     31  N   LIG d   1      10.104   5.461  -2.240  0.00  0.00     0.080 N 
ATOM     32  O   LIG d   1       9.631   6.436  -2.796  0.00  0.00     0.041 OA
ATOM     33  O   LIG d   1      10.528   5.554  -1.102  0.00  0.00    -0.576 OA
ENDBRANCH  24  31
BRANCH  27  34
ATOM     34  N   LIG d   1      12.684   1.485  -3.695  0.00  0.00     0.080 N 
ATOM     35  O   LIG d   1      12.670   0.273  -3.816  0.00  0.00     0.041 OA
ATOM     36  O   LIG d   1      13.746   2.076  -3.608  0.00  0.00    -0.576 OA
ENDBRANCH  27  34
ENDBRANCH   4  22
TORSDOF 6
ENDMDL
MODEL 6
REMARK VINA RESULT:      -6.7      1.718      3.484
REMARK  6 active torsions:
REMARK  status: ('A' for Active; 'I' for Inactive)
REMARK    1  A    between atoms: C_1  and  O_2 
REMARK    2  A    between atoms: O_2  and  C_3 
REMARK    3  A    between atoms: C_8  and  N_9 
REMARK       I    between atoms: N_9  and  C_10 
REMARK       I    between atoms: C_10  and  N_12 
REMARK    4  A    between atoms: N_12  and  C_13 
REMARK    5  A    between atoms: C_15  and  N_22 
REMARK    6  A    between atoms: C_17  and  N_19 
ROOT
ATOM      1  N   LIG d   1       3.228   0.563  -5.560  0.00  0.00    -0.266 N 
ATOM      2  C   LIG d   1       3.414   0.008  -6.774  0.00  0.00     0.308 C 
ATOM      3  O   LIG d   1       3.855  -1.121  -6.865  0.00  0.00    -0.252 OA
ATOM      4  N   LIG d   1       3.111   0.705  -7.887  0.00  0.00    -0.269 N 
ATOM      5  H   LIG d   1       2.803   1.432  -5.483  0.00  0.00     0.157 HD
ATOM      6  H   LIG d   1       2.832   1.632  -7.818  0.00  0.00     0.156 HD
ENDROOT
BRANCH   1   7
ATOM      7  C   LIG d   1       3.649  -0.115  -4.407  0.00  0.00     0.077 A 
ATOM      8  C   LIG d   1       4.979  -0.040  -4.000  0.00  0.00     0.141 A 
ATOM      9  C   LIG d   1       5.389  -0.712  -2.860  0.00  0.00    -0.018 A 
ATOM     10  C   LIG d   1       4.479  -1.453  -2.129  0.00  0.00    -0.058 A 
ATOM     11  H   LIG d   1       6.420  -0.657  -2.541  0.00  0.00     0.066 H 
ATOM     12  C   LIG d   1       3.159  -1.527  -2.533  0.00  0.00    -0.060 A 
ATOM     13  H   LIG d   1       4.801  -1.976  -1.239  0.00  0.00     0.062 H 
ATOM     14  C   LIG d   1       2.742  -0.860  -3.669  0.00  0.00    -0.037 A 
ATOM     15  H   LIG d   1       2.452  -2.108  -1.959  0.00  0.00     0.062 H 
ATOM     16  H   LIG d   1       1.710  -0.920  -3.982  0.00  0.00     0.064 H 
BRANCH   8  17
ATOM     17  O   LIG d   1       5.874   0.684  -4.723  0.00  0.00    -0.493 OA
BRANCH  17  18
ATOM     18  C   LIG d   1       6.962  -0.030  -5.312  0.00  0.00     0.079 C 
ATOM     19  H   LIG d   1       6.622  -0.526  -6.221  0.00  0.00     0.066 H 
ATOM     20  H   LIG d   1       7.764   0.667  -5.556  0.00  0.00     0.066 H 
ATOM     21  H   LIG d   1       7.331  -0.776  -4.607  0.00  0.00     0.066 H 
ENDBRANCH  17  18
ENDBRANCH   8  17
ENDBRANCH   1   7
BRANCH   4  22
ATOM     22  C   LIG d   1       3.197   0.092  -9.142  0.00  0.00     0.048 A 
ATOM     23  C   LIG d   1       2.074  -0.502  -9.704  0.00  0.00     0.037 A 
ATOM     24  C   LIG d   1       2.163  -1.106 -10.943  0.00  0.00     0.281 A 
ATOM     25  H   LIG d   1       1.134  -0.492  -9.173  0.00  0.00     0.070 H 
ATOM     26  C   LIG d   1       3.367  -1.121 -11.624  0.00  0.00     0.093 A 
ATOM     27  C   LIG d   1       4.486  -0.530 -11.065  0.00  0.00     0.281 A 
ATOM     28  H   LIG d   1       3.433  -1.594 -12.592  0.00  0.00     0.075 H 
ATOM     29  C   LIG d   1       4.403   0.081  -9.829  0.00  0.00     0.037 A 
ATOM     30  H   LIG d   1       5.276   0.546  -9.396  0.00  0.00     0.070 H 
BRANCH  24  31
ATOM     31  N   LIG d   1       0.967  -1.740 -11.544  0.00  0.00     0.080 N 
ATOM     32  O   LIG d   1       0.750  -2.924 -11.363  0.00  0.00     0.041 OA
ATOM     33  O   LIG d   1       0.201  -1.076 -12.221  0.00  0.00    -0.576 OA
ENDBRANCH  24  31
BRANCH  27  34
ATOM     34  N   LIG d   1       5.773  -0.548 -11.797  0.00  0.00     0.080 N 
ATOM     35  O   LIG d   1       5.785  -0.706 -13.005  0.00  0.00     0.041 OA
ATOM     36  O   LIG d   1       6.820  -0.405 -11.191  0.00  0.00    -0.576 OA
ENDBRANCH  27  34
ENDBRANCH   4  22
TORSDOF 6
ENDMDL
MODEL 7
REMARK VINA RESULT:      -6.7      6.028      8.213
REMARK  6 active torsions:
REMARK  status: ('A' for Active; 'I' for Inactive)
REMARK    1  A    between atoms: C_1  and  O_2 
REMARK    2  A    between atoms: O_2  and  C_3 
REMARK    3  A    between atoms: C_8  and  N_9 
REMARK       I    between atoms: N_9  and  C_10 
REMARK       I    between atoms: C_10  and  N_12 
REMARK    4  A    between atoms: N_12  and  C_13 
REMARK    5  A    between atoms: C_15  and  N_22 
REMARK    6  A    between atoms: C_17  and  N_19 
ROOT
ATOM      1  N   LIG d   1       6.058   0.599  -4.787  0.00  0.00    -0.266 N 
ATOM      2  C   LIG d   1       7.114   1.146  -4.155  0.00  0.00     0.308 C 
ATOM      3  O   LIG d   1       7.318   0.895  -2.983  0.00  0.00    -0.252 OA
ATOM      4  N   LIG d   1       7.944   1.973  -4.821  0.00  0.00    -0.269 N 
ATOM      5  H   LIG d   1       5.938   0.735  -5.740  0.00  0.00     0.157 HD
ATOM      6  H   LIG d   1       7.739   2.235  -5.732  0.00  0.00     0.156 HD
ENDROOT
BRANCH   1   7
ATOM      7  C   LIG d   1       5.131  -0.169  -4.067  0.00  0.00     0.077 A 
ATOM      8  C   LIG d   1       5.276  -1.553  -3.998  0.00  0.00     0.141 A 
ATOM      9  C   LIG d   1       4.357  -2.306  -3.285  0.00  0.00    -0.018 A 
ATOM     10  C   LIG d   1       3.301  -1.684  -2.644  0.00  0.00    -0.058 A 
ATOM     11  H   LIG d   1       4.465  -3.379  -3.229  0.00  0.00     0.066 H 
ATOM     12  C   LIG d   1       3.157  -0.310  -2.713  0.00  0.00    -0.060 A 
ATOM     13  H   LIG d   1       2.585  -2.273  -2.088  0.00  0.00     0.062 H 
ATOM     14  C   LIG d   1       4.069   0.448  -3.422  0.00  0.00    -0.037 A 
ATOM     15  H   LIG d   1       2.331   0.171  -2.212  0.00  0.00     0.062 H 
ATOM     16  H   LIG d   1       3.955   1.521  -3.474  0.00  0.00     0.064 H 
BRANCH   8  17
ATOM     17  O   LIG d   1       6.311  -2.164  -4.632  0.00  0.00    -0.493 OA
BRANCH  17  18
ATOM     18  C   LIG d   1       7.404  -2.598  -3.821  0.00  0.00     0.079 C 
ATOM     19  H   LIG d   1       8.251  -1.927  -3.963  0.00  0.00     0.066 H 
ATOM     20  H   LIG d   1       7.105  -2.590  -2.773  0.00  0.00     0.066 H 
ATOM     21  H   LIG d   1       7.690  -3.610  -4.109  0.00  0.00     0.066 H 
ENDBRANCH  17  18
ENDBRANCH   8  17
ENDBRANCH   1   7
BRANCH   4  22
ATOM     22  C   LIG d   1       9.102   2.453  -4.198  0.00  0.00     0.048 A 
ATOM     23  C   LIG d   1      10.284   1.727  -4.273  0.00  0.00     0.037 A 
ATOM     24  C   LIG d   1      11.425   2.205  -3.658  0.00  0.00     0.281 A 
ATOM     25  H   LIG d   1      10.310   0.791  -4.811  0.00  0.00     0.070 H 
ATOM     26  C   LIG d   1      11.392   3.403  -2.969  0.00  0.00     0.093 A 
ATOM     27  C   LIG d   1      10.216   4.127  -2.893  0.00  0.00     0.281 A 
ATOM     28  H   LIG d   1      12.286   3.773  -2.488  0.00  0.00     0.075 H 
ATOM     29  C   LIG d   1       9.073   3.659  -3.511  0.00  0.00     0.037 A 
ATOM     30  H   LIG d   1       8.157   4.228  -3.455  0.00  0.00     0.070 H 
BRANCH  24  31
ATOM     31  N   LIG d   1      12.685   1.432  -3.737  0.00  0.00     0.080 N 
ATOM     32  O   LIG d   1      13.757   2.011  -3.724  0.00  0.00     0.041 OA
ATOM     33  O   LIG d   1      12.651   0.217  -3.816  0.00  0.00    -0.576 OA
ENDBRANCH  24  31
BRANCH  27  34
ATOM     34  N   LIG d   1      10.186   5.410  -2.154  0.00  0.00     0.080 N 
ATOM     35  O   LIG d   1       9.498   6.330  -2.558  0.00  0.00     0.041 OA
ATOM     36  O   LIG d   1      10.849   5.545  -1.141  0.00  0.00    -0.576 OA
ENDBRANCH  27  34
ENDBRANCH   4  22
TORSDOF 6
ENDMDL
MODEL 8
REMARK VINA RESULT:      -6.6      2.560      3.847
REMARK  6 active torsions:
REMARK  status: ('A' for Active; 'I' for Inactive)
REMARK    1  A    between atoms: C_1  and  O_2 
REMARK    2  A    between atoms: O_2  and  C_3 
REMARK    3  A    between atoms: C_8  and  N_9 
REMARK       I    between atoms: N_9  and  C_10 
REMARK       I    between atoms: C_10  and  N_12 
REMARK    4  A    between atoms: N_12  and  C_13 
REMARK    5  A    between atoms: C_15  and  N_22 
REMARK    6  A    between atoms: C_17  and  N_19 
ROOT
ATOM      1  N   LIG d   1       5.743  -1.530  -5.165  0.00  0.00    -0.266 N 
ATOM      2  C   LIG d   1       4.924  -1.509  -6.234  0.00  0.00     0.308 C 
ATOM      3  O   LIG d   1       3.889  -0.871  -6.194  0.00  0.00    -0.252 OA
ATOM      4  N   LIG d   1       5.250  -2.194  -7.348  0.00  0.00    -0.269 N 
ATOM      5  H   LIG d   1       6.605  -1.972  -5.222  0.00  0.00     0.157 HD
ATOM      6  H   LIG d   1       6.035  -2.764  -7.354  0.00  0.00     0.156 HD
ENDROOT
BRANCH   1   7
ATOM      7  C   LIG d   1       5.351  -0.913  -3.968  0.00  0.00     0.077 A 
ATOM      8  C   LIG d   1       5.730   0.401  -3.705  0.00  0.00     0.141 A 
ATOM      9  C   LIG d   1       5.339   1.006  -2.521  0.00  0.00    -0.018 A 
ATOM     10  C   LIG d   1       4.574   0.307  -1.606  0.00  0.00    -0.058 A 
ATOM     11  H   LIG d   1       5.632   2.025  -2.312  0.00  0.00     0.066 H 
ATOM     12  C   LIG d   1       4.198  -0.998  -1.868  0.00  0.00    -0.060 A 
ATOM     13  H   LIG d   1       4.270   0.780  -0.684  0.00  0.00     0.062 H 
ATOM     14  C   LIG d   1       4.584  -1.609  -3.047  0.00  0.00    -0.037 A 
ATOM     15  H   LIG d   1       3.601  -1.541  -1.151  0.00  0.00     0.062 H 
ATOM     16  H   LIG d   1       4.288  -2.627  -3.249  0.00  0.00     0.064 H 
BRANCH   8  17
ATOM     17  O   LIG d   1       6.487   1.087  -4.602  0.00  0.00    -0.493 OA
BRANCH  17  18
ATOM     18  C   LIG d   1       7.844   1.351  -4.240  0.00  0.00     0.079 C 
ATOM     19  H   LIG d   1       8.373   1.771  -5.095  0.00  0.00     0.066 H 
ATOM     20  H   LIG d   1       7.868   2.061  -3.413  0.00  0.00     0.066 H 
ATOM     21  H   LIG d   1       8.326   0.421  -3.935  0.00  0.00     0.066 H 
ENDBRANCH  17  18
ENDBRANCH   8  17
ENDBRANCH   1   7
BRANCH   4  22
ATOM     22  C   LIG d   1       4.457  -2.083  -8.496  0.00  0.00     0.048 A 
ATOM     23  C   LIG d   1       3.482  -3.035  -8.763  0.00  0.00     0.037 A 
ATOM     24  C   LIG d   1       2.701  -2.922  -9.896  0.00  0.00     0.281 A 
ATOM     25  H   LIG d   1       3.336  -3.863  -8.085  0.00  0.00     0.070 H 
ATOM     26  C   LIG d   1       2.889  -1.862 -10.765  0.00  0.00     0.093 A 
ATOM     27  C   LIG d   1       3.860  -0.913 -10.501  0.00  0.00     0.281 A 
ATOM     28  H   LIG d   1       2.277  -1.777 -11.651  0.00  0.00     0.075 H 
ATOM     29  C   LIG d   1       4.640  -1.017  -9.366  0.00  0.00     0.037 A 
ATOM     30  H   LIG d   1       5.394  -0.272  -9.159  0.00  0.00     0.070 H 
BRANCH  24  31
ATOM     31  N   LIG d   1       1.662  -3.937 -10.182  0.00  0.00     0.080 N 
ATOM     32  O   LIG d   1       1.923  -5.122 -10.077  0.00  0.00     0.041 OA
ATOM     33  O   LIG d   1       0.546  -3.586 -10.523  0.00  0.00    -0.576 OA
ENDBRANCH  24  31
BRANCH  27  34
ATOM     34  N   LIG d   1       4.057   0.220 -11.434  0.00  0.00     0.080 N 
ATOM     35  O   LIG d   1       3.975   1.365 -11.028  0.00  0.00     0.041 OA
ATOM     36  O   LIG d   1       4.301   0.006 -12.608  0.00  0.00    -0.576 OA
ENDBRANCH  27  34
ENDBRANCH   4  22
TORSDOF 6
ENDMDL
MODEL 9
REMARK VINA RESULT:      -6.4      4.563      5.908
REMARK  6 active torsions:
REMARK  status: ('A' for Active; 'I' for Inactive)
REMARK    1  A    between atoms: C_1  and  O_2 
REMARK    2  A    between atoms: O_2  and  C_3 
REMARK    3  A    between atoms: C_8  and  N_9 
REMARK       I    between atoms: N_9  and  C_10 
REMARK       I    between atoms: C_10  and  N_12 
REMARK    4  A    between atoms: N_12  and  C_13 
REMARK    5  A    between atoms: C_15  and  N_22 
REMARK    6  A    between atoms: C_17  and  N_19 
ROOT
ATOM      1  N   LIG d   1       7.468  -0.402  -3.536  0.00  0.00    -0.266 N 
ATOM      2  C   LIG d   1       7.646   0.553  -4.470  0.00  0.00     0.308 C 
ATOM      3  O   LIG d   1       6.684   1.118  -4.953  0.00  0.00    -0.252 OA
ATOM      4  N   LIG d   1       8.891   0.881  -4.869  0.00  0.00    -0.269 N 
ATOM      5  H   LIG d   1       8.234  -0.798  -3.093  0.00  0.00     0.157 HD
ATOM      6  H   LIG d   1       9.653   0.378  -4.542  0.00  0.00     0.156 HD
ENDROOT
BRANCH   1   7
ATOM      7  C   LIG d   1       6.172  -0.824  -3.203  0.00  0.00     0.077 A 
ATOM      8  C   LIG d   1       5.692  -2.042  -3.678  0.00  0.00     0.141 A 
ATOM      9  C   LIG d   1       4.412  -2.455  -3.346  0.00  0.00    -0.018 A 
ATOM     10  C   LIG d   1       3.615  -1.658  -2.544  0.00  0.00    -0.058 A 
ATOM     11  H   LIG d   1       4.036  -3.398  -3.712  0.00  0.00     0.066 H 
ATOM     12  C   LIG d   1       4.091  -0.449  -2.073  0.00  0.00    -0.060 A 
ATOM     13  H   LIG d   1       2.617  -1.982  -2.286  0.00  0.00     0.062 H 
ATOM     14  C   LIG d   1       5.367  -0.030  -2.400  0.00  0.00    -0.037 A 
ATOM     15  H   LIG d   1       3.466   0.170  -1.448  0.00  0.00     0.062 H 
ATOM     16  H   LIG d   1       5.737   0.915  -2.030  0.00  0.00     0.064 H 
BRANCH   8  17
ATOM     17  O   LIG d   1       6.475  -2.822  -4.471  0.00  0.00    -0.493 OA
BRANCH  17  18
ATOM     18  C   LIG d   1       6.126  -2.897  -5.854  0.00  0.00     0.079 C 
ATOM     19  H   LIG d   1       5.210  -2.333  -6.029  0.00  0.00     0.066 H 
ATOM     20  H   LIG d   1       6.932  -2.477  -6.456  0.00  0.00     0.066 H 
ATOM     21  H   LIG d   1       5.969  -3.940  -6.133  0.00  0.00     0.066 H 
ENDBRANCH  17  18
ENDBRANCH   8  17
ENDBRANCH   1   7
BRANCH   4  22
ATOM     22  C   LIG d   1       9.084   1.947  -5.754  0.00  0.00     0.048 A 
ATOM     23  C   LIG d   1       9.517   3.178  -5.278  0.00  0.00     0.037 A 
ATOM     24  C   LIG d   1       9.707   4.227  -6.155  0.00  0.00     0.281 A 
ATOM     25  H   LIG d   1       9.705   3.313  -4.223  0.00  0.00     0.070 H 
ATOM     26  C   LIG d   1       9.466   4.055  -7.506  0.00  0.00     0.093 A 
ATOM     27  C   LIG d   1       9.034   2.831  -7.982  0.00  0.00     0.281 A 
ATOM     28  H   LIG d   1       9.615   4.879  -8.189  0.00  0.00     0.075 H 
ATOM     29  C   LIG d   1       8.848   1.775  -7.112  0.00  0.00     0.037 A 
ATOM     30  H   LIG d   1       8.515   0.818  -7.486  0.00  0.00     0.070 H 
BRANCH  24  31
ATOM     31  N   LIG d   1      10.169   5.540  -5.648  0.00  0.00     0.080 N 
ATOM     32  O   LIG d   1      10.972   6.192  -6.291  0.00  0.00     0.041 OA
ATOM     33  O   LIG d   1       9.747   5.966  -4.588  0.00  0.00    -0.576 OA
ENDBRANCH  24  31
BRANCH  27  34
ATOM     34  N   LIG d   1       8.777   2.651  -9.429  0.00  0.00     0.080 N 
ATOM     35  O   LIG d   1       8.147   1.685  -9.821  0.00  0.00     0.041 OA
ATOM     36  O   LIG d   1       9.197   3.469 -10.229  0.00  0.00    -0.576 OA
ENDBRANCH  27  34
ENDBRANCH   4  22
TORSDOF 6
ENDMDL
MODEL 10
REMARK VINA RESULT:      -6.4     12.208     15.013
REMARK  6 active torsions:
REMARK  status: ('A' for Active; 'I' for Inactive)
REMARK    1  A    between atoms: C_1  and  O_2 
REMARK    2  A    between atoms: O_2  and  C_3 
REMARK    3  A    between atoms: C_8  and  N_9 
REMARK       I    between atoms: N_9  and  C_10 
REMARK       I    between atoms: C_10  and  N_12 
REMARK    4  A    between atoms: N_12  and  C_13 
REMARK    5  A    between atoms: C_15  and  N_22 
REMARK    6  A    between atoms: C_17  and  N_19 
ROOT
ATOM      1  N   LIG d   1       8.771  10.942  -3.844  0.00  0.00    -0.266 N 
ATOM      2  C   LIG d   1       9.586  10.499  -2.868  0.00  0.00     0.308 C 
ATOM      3  O   LIG d   1      10.792  10.573  -3.002  0.00  0.00    -0.252 OA
ATOM      4  N   LIG d   1       9.064   9.973  -1.741  0.00  0.00    -0.269 N 
ATOM      5  H   LIG d   1       7.811  10.957  -3.707  0.00  0.00     0.157 HD
ATOM      6  H   LIG d   1       8.106   9.843  -1.666  0.00  0.00     0.156 HD
ENDROOT
BRANCH   1   7
ATOM      7  C   LIG d   1       9.311  11.383  -5.062  0.00  0.00     0.077 A 
ATOM      8  C   LIG d   1       9.593  10.467  -6.072  0.00  0.00     0.141 A 
ATOM      9  C   LIG d   1      10.126  10.908  -7.272  0.00  0.00    -0.018 A 
ATOM     10  C   LIG d   1      10.374  12.255  -7.466  0.00  0.00    -0.058 A 
ATOM     11  H   LIG d   1      10.347  10.201  -8.058  0.00  0.00     0.066 H 
ATOM     12  C   LIG d   1      10.094  13.165  -6.463  0.00  0.00    -0.060 A 
ATOM     13  H   LIG d   1      10.790  12.597  -8.403  0.00  0.00     0.062 H 
ATOM     14  C   LIG d   1       9.563  12.732  -5.262  0.00  0.00    -0.037 A 
ATOM     15  H   LIG d   1      10.290  14.215  -6.617  0.00  0.00     0.062 H 
ATOM     16  H   LIG d   1       9.344  13.445  -4.481  0.00  0.00     0.064 H 
BRANCH   8  17
ATOM     17  O   LIG d   1       9.354   9.143  -5.879  0.00  0.00    -0.493 OA
BRANCH  17  18
ATOM     18  C   LIG d   1       9.264   8.323  -7.046  0.00  0.00     0.079 C 
ATOM     19  H   LIG d   1       8.411   7.650  -6.952  0.00  0.00     0.066 H 
ATOM     20  H   LIG d   1       9.134   8.954  -7.925  0.00  0.00     0.066 H 
ATOM     21  H   LIG d   1      10.179   7.738  -7.150  0.00  0.00     0.066 H 
ENDBRANCH  17  18
ENDBRANCH   8  17
ENDBRANCH   1   7
BRANCH   4  22
ATOM     22  C   LIG d   1       9.905   9.616  -0.681  0.00  0.00     0.048 A 
ATOM     23  C   LIG d   1      10.417  10.594   0.161  0.00  0.00     0.037 A 
ATOM     24  C   LIG d   1      11.245  10.238   1.207  0.00  0.00     0.281 A 
ATOM     25  H   LIG d   1      10.167  11.632  -0.003  0.00  0.00     0.070 H 
ATOM     26  C   LIG d   1      11.565   8.908   1.416  0.00  0.00     0.093 A 
ATOM     27  C   LIG d   1      11.057   7.933   0.578  0.00  0.00     0.281 A 
ATOM     28  H   LIG d   1      12.214   8.633   2.234  0.00  0.00     0.075 H 
ATOM     29  C   LIG d   1      10.223   8.281  -0.466  0.00  0.00     0.037 A 
ATOM     30  H   LIG d   1       9.822   7.518  -1.116  0.00  0.00     0.070 H 
BRANCH  24  31
ATOM     31  N   LIG d   1      11.792  11.280   2.105  0.00  0.00     0.080 N 
ATOM     32  O   LIG d   1      12.268  10.967   3.181  0.00  0.00     0.041 OA
ATOM     33  O   LIG d   1      11.764  12.450   1.768  0.00  0.00    -0.576 OA
ENDBRANCH  24  31
BRANCH  27  34
ATOM     34  N   LIG d   1      11.402   6.511   0.806  0.00  0.00     0.080 N 
ATOM     35  O   LIG d   1      10.626   5.783   1.398  0.00  0.00     0.041 OA
ATOM     36  O   LIG d   1      12.464   6.070   0.402  0.00  0.00    -0.576 OA
ENDBRANCH  27  34
ENDBRANCH   4  22
TORSDOF 6
ENDMDL
