MODEL 1
REMARK VINA RESULT:      -5.6      0.000      0.000
REMARK  7 active torsions:
REMARK  status: ('A' for Active; 'I' for Inactive)
REMARK    1  A    between atoms: C_1  and  C_2 
REMARK    2  A    between atoms: C_2  and  C_3 
REMARK    3  A    between atoms: C_2  and  C_4 
REMARK    4  A    between atoms: C_2  and  O_20 
REMARK    5  A    between atoms: C_5  and  C_6 
REMARK    6  A    between atoms: C_6  and  N_7 
REMARK    7  A    between atoms: C_12  and  C_14 
ROOT
ATOM      1  N   LIG d   1       4.390  -0.975  -4.296  0.00  0.00    -0.284 N 
ATOM      2  C   LIG d   1       3.167  -0.185  -4.107  0.00  0.00     0.000 C 
ATOM      3  C   LIG d   1       3.090   0.302  -2.658  0.00  0.00    -0.040 C 
ATOM      4  C   LIG d   1       4.323   1.154  -2.345  0.00  0.00    -0.050 C 
ATOM      5  C   LIG d   1       5.584   0.324  -2.596  0.00  0.00    -0.033 C 
ATOM      6  C   LIG d   1       5.589  -0.163  -4.047  0.00  0.00     0.038 C 
ATOM      7  H   LIG d   1       5.593   0.695  -4.718  0.00  0.00     0.051 H 
ATOM      8  H   LIG d   1       3.181   0.674  -4.779  0.00  0.00     0.043 H 
ATOM      9  H   LIG d   1       2.297  -0.804  -4.329  0.00  0.00     0.043 H 
ATOM     10  H   LIG d   1       2.190   0.901  -2.523  0.00  0.00     0.028 H 
ATOM     11  H   LIG d   1       3.061  -0.557  -1.987  0.00  0.00     0.028 H 
ATOM     12  H   LIG d   1       4.331   2.033  -2.990  0.00  0.00     0.027 H 
ATOM     13  H   LIG d   1       4.294   1.468  -1.302  0.00  0.00     0.027 H 
ATOM     14  H   LIG d   1       6.467   0.939  -2.417  0.00  0.00     0.028 H 
ATOM     15  H   LIG d   1       5.595  -0.533  -1.924  0.00  0.00     0.028 H 
ENDROOT
BRANCH   1  16
ATOM     16  C   LIG d   1       4.429  -1.574  -5.637  0.00  0.00     0.061 C 
ATOM     17  H   LIG d   1       3.719  -2.400  -5.685  0.00  0.00     0.056 H 
ATOM     18  H   LIG d   1       5.433  -1.945  -5.840  0.00  0.00     0.056 H 
BRANCH  16  19
ATOM     19  C   LIG d   1       4.069  -0.557  -6.639  0.00  0.00    -0.084 C 
ATOM     20  C   LIG d   1       3.782   0.253  -7.437  0.00  0.00    -0.067 C 
BRANCH  20  21
ATOM     21  C   LIG d   1       3.421   1.269  -8.440  0.00  0.00     0.121 C 
BRANCH  21  22
ATOM     22  C   LIG d   1       4.688   1.770  -9.138  0.00  0.00    -0.025 C 
ATOM     23  H   LIG d   1       4.897   2.791  -8.820  0.00  0.00     0.027 H 
ATOM     24  H   LIG d   1       5.527   1.127  -8.873  0.00  0.00     0.027 H 
ATOM     25  H   LIG d   1       4.539   1.749 -10.217  0.00  0.00     0.027 H 
ENDBRANCH  21  22
BRANCH  21  26
ATOM     26  C   LIG d   1       2.478   0.651  -9.475  0.00  0.00    -0.025 C 
ATOM     27  H   LIG d   1       3.056   0.058 -10.183  0.00  0.00     0.027 H 
ATOM     28  H   LIG d   1       1.754   0.012  -8.970  0.00  0.00     0.027 H 
ATOM     29  H   LIG d   1       1.953   1.444 -10.007  0.00  0.00     0.027 H 
ENDBRANCH  21  26
BRANCH  21  30
ATOM     30  O   LIG d   1       2.768   2.365  -7.795  0.00  0.00    -0.377 OA
ATOM     31  H   LIG d   1       1.912   2.139  -7.405  0.00  0.00     0.211 HD
ENDBRANCH  21  30
ENDBRANCH  20  21
ENDBRANCH  16  19
ENDBRANCH   1  16
BRANCH   6  32
ATOM     32  C   LIG d   1       6.819  -0.998  -4.293  0.00  0.00    -0.012 A 
ATOM     33  C   LIG d   1       7.763  -0.598  -5.220  0.00  0.00     0.032 A 
ATOM     34  N   LIG d   1       8.845  -1.320  -5.437  0.00  0.00    -0.263 NA
ATOM     35  H   LIG d   1       7.614   0.319  -5.770  0.00  0.00     0.083 H 
ATOM     36  C   LIG d   1       9.063  -2.450  -4.793  0.00  0.00     0.028 A 
ATOM     37  C   LIG d   1       8.162  -2.917  -3.856  0.00  0.00    -0.043 A 
ATOM     38  H   LIG d   1       9.959  -3.017  -5.000  0.00  0.00     0.083 H 
ATOM     39  C   LIG d   1       7.016  -2.182  -3.597  0.00  0.00    -0.054 A 
ATOM     40  H   LIG d   1       8.347  -3.843  -3.332  0.00  0.00     0.063 H 
ATOM     41  H   LIG d   1       6.293  -2.521  -2.869  0.00  0.00     0.062 H 
ENDBRANCH   6  32
TORSDOF 7
ENDMDL
MODEL 2
REMARK VINA RESULT:      -5.4      1.776      3.800
REMARK  7 active torsions:
REMARK  status: ('A' for Active; 'I' for Inactive)
REMARK    1  A    between atoms: C_1  and  C_2 
REMARK    2  A    between atoms: C_2  and  C_3 
REMARK    3  A    between atoms: C_2  and  C_4 
REMARK    4  A    between atoms: C_2  and  O_20 
REMARK    5  A    between atoms: C_5  and  C_6 
REMARK    6  A    between atoms: C_6  and  N_7 
REMARK    7  A    between atoms: C_12  and  C_14 
ROOT
ATOM      1  N   LIG d   1       5.942  -1.581  -5.884  0.00  0.00    -0.284 N 
ATOM      2  C   LIG d   1       6.360  -2.616  -6.837  0.00  0.00     0.000 C 
ATOM      3  C   LIG d   1       7.814  -3.009  -6.561  0.00  0.00    -0.040 C 
ATOM      4  C   LIG d   1       7.933  -3.532  -5.127  0.00  0.00    -0.050 C 
ATOM      5  C   LIG d   1       7.445  -2.453  -4.157  0.00  0.00    -0.033 C 
ATOM      6  C   LIG d   1       6.002  -2.076  -4.502  0.00  0.00     0.038 C 
ATOM      7  H   LIG d   1       5.364  -2.954  -4.402  0.00  0.00     0.051 H 
ATOM      8  H   LIG d   1       5.720  -3.492  -6.727  0.00  0.00     0.043 H 
ATOM      9  H   LIG d   1       6.275  -2.230  -7.854  0.00  0.00     0.043 H 
ATOM     10  H   LIG d   1       8.119  -3.789  -7.259  0.00  0.00     0.028 H 
ATOM     11  H   LIG d   1       8.456  -2.137  -6.685  0.00  0.00     0.028 H 
ATOM     12  H   LIG d   1       7.320  -4.427  -5.014  0.00  0.00     0.027 H 
ATOM     13  H   LIG d   1       8.973  -3.773  -4.912  0.00  0.00     0.027 H 
ATOM     14  H   LIG d   1       7.487  -2.835  -3.136  0.00  0.00     0.028 H 
ATOM     15  H   LIG d   1       8.082  -1.573  -4.242  0.00  0.00     0.028 H 
ENDROOT
BRANCH   1  16
ATOM     16  C   LIG d   1       4.599  -1.080  -6.206  0.00  0.00     0.061 C 
ATOM     17  H   LIG d   1       4.184  -0.570  -5.336  0.00  0.00     0.056 H 
ATOM     18  H   LIG d   1       3.955  -1.917  -6.478  0.00  0.00     0.056 H 
BRANCH  16  19
ATOM     19  C   LIG d   1       4.684  -0.139  -7.334  0.00  0.00    -0.084 C 
ATOM     20  C   LIG d   1       4.752   0.613  -8.233  0.00  0.00    -0.067 C 
BRANCH  20  21
ATOM     21  C   LIG d   1       4.835   1.555  -9.360  0.00  0.00     0.121 C 
BRANCH  21  22
ATOM     22  C   LIG d   1       4.588   0.805 -10.671  0.00  0.00    -0.025 C 
ATOM     23  H   LIG d   1       5.079  -0.167 -10.631  0.00  0.00     0.027 H 
ATOM     24  H   LIG d   1       3.517   0.667 -10.815  0.00  0.00     0.027 H 
ATOM     25  H   LIG d   1       4.995   1.383 -11.501  0.00  0.00     0.027 H 
ENDBRANCH  21  22
BRANCH  21  26
ATOM     26  C   LIG d   1       3.778   2.648  -9.190  0.00  0.00    -0.025 C 
ATOM     27  H   LIG d   1       4.084   3.329  -8.397  0.00  0.00     0.027 H 
ATOM     28  H   LIG d   1       3.673   3.201 -10.124  0.00  0.00     0.027 H 
ATOM     29  H   LIG d   1       2.823   2.192  -8.929  0.00  0.00     0.027 H 
ENDBRANCH  21  26
BRANCH  21  30
ATOM     30  O   LIG d   1       6.135   2.150  -9.389  0.00  0.00    -0.377 OA
ATOM     31  H   LIG d   1       6.734   1.754 -10.037  0.00  0.00     0.211 HD
ENDBRANCH  21  30
ENDBRANCH  20  21
ENDBRANCH  16  19
ENDBRANCH   1  16
BRANCH   6  32
ATOM     32  C   LIG d   1       5.525  -0.999  -3.562  0.00  0.00    -0.012 A 
ATOM     33  C   LIG d   1       6.186   0.212  -3.493  0.00  0.00     0.032 A 
ATOM     34  N   LIG d   1       5.771   1.162  -2.677  0.00  0.00    -0.263 NA
ATOM     35  H   LIG d   1       7.049   0.386  -4.118  0.00  0.00     0.083 H 
ATOM     36  C   LIG d   1       4.726   0.992  -1.891  0.00  0.00     0.028 A 
ATOM     37  C   LIG d   1       4.018  -0.196  -1.901  0.00  0.00    -0.043 A 
ATOM     38  H   LIG d   1       4.418   1.790  -1.233  0.00  0.00     0.083 H 
ATOM     39  C   LIG d   1       4.421  -1.214  -2.750  0.00  0.00    -0.054 A 
ATOM     40  H   LIG d   1       3.163  -0.328  -1.255  0.00  0.00     0.063 H 
ATOM     41  H   LIG d   1       3.888  -2.153  -2.780  0.00  0.00     0.062 H 
ENDBRANCH   6  32
TORSDOF 7
ENDMDL
MODEL 3
REMARK VINA RESULT:      -5.4      1.927      2.222
REMARK  7 active torsions:
REMARK  status: ('A' for Active; 'I' for Inactive)
REMARK    1  A    between atoms: C_1  and  C_2 
REMARK    2  A    between atoms: C_2  and  C_3 
REMARK    3  A    between atoms: C_2  and  C_4 
REMARK    4  A    between atoms: C_2  and  O_20 
REMARK    5  A    between atoms: C_5  and  C_6 
REMARK    6  A    between atoms: C_6  and  N_7 
REMARK    7  A    between atoms: C_12  and  C_14 
ROOT
ATOM      1  N   LIG d   1       4.344  -1.282  -5.122  0.00  0.00    -0.284 N 
ATOM      2  C   LIG d   1       3.685  -0.063  -4.636  0.00  0.00     0.000 C 
ATOM      3  C   LIG d   1       2.664  -0.429  -3.556  0.00  0.00    -0.040 C 
ATOM      4  C   LIG d   1       3.379  -1.139  -2.403  0.00  0.00    -0.050 C 
ATOM      5  C   LIG d   1       4.097  -2.378  -2.945  0.00  0.00    -0.033 C 
ATOM      6  C   LIG d   1       5.077  -1.956  -4.042  0.00  0.00     0.038 C 
ATOM      7  H   LIG d   1       5.817  -1.274  -3.625  0.00  0.00     0.051 H 
ATOM      8  H   LIG d   1       4.432   0.611  -4.215  0.00  0.00     0.043 H 
ATOM      9  H   LIG d   1       3.177   0.430  -5.464  0.00  0.00     0.043 H 
ATOM     10  H   LIG d   1       2.187   0.478  -3.184  0.00  0.00     0.028 H 
ATOM     11  H   LIG d   1       1.909  -1.092  -3.979  0.00  0.00     0.028 H 
ATOM     12  H   LIG d   1       4.108  -0.462  -1.955  0.00  0.00     0.027 H 
ATOM     13  H   LIG d   1       2.650  -1.439  -1.652  0.00  0.00     0.027 H 
ATOM     14  H   LIG d   1       4.644  -2.865  -2.137  0.00  0.00     0.028 H 
ATOM     15  H   LIG d   1       3.365  -3.071  -3.358  0.00  0.00     0.028 H 
ENDROOT
BRANCH   1  16
ATOM     16  C   LIG d   1       5.230  -0.985  -6.255  0.00  0.00     0.061 C 
ATOM     17  H   LIG d   1       5.680  -1.911  -6.616  0.00  0.00     0.056 H 
ATOM     18  H   LIG d   1       6.015  -0.301  -5.933  0.00  0.00     0.056 H 
BRANCH  16  19
ATOM     19  C   LIG d   1       4.451  -0.363  -7.338  0.00  0.00    -0.084 C 
ATOM     20  C   LIG d   1       3.829   0.132  -8.201  0.00  0.00    -0.067 C 
BRANCH  20  21
ATOM     21  C   LIG d   1       3.049   0.753  -9.284  0.00  0.00     0.121 C 
BRANCH  21  22
ATOM     22  C   LIG d   1       3.966   1.039 -10.475  0.00  0.00    -0.025 C 
ATOM     23  H   LIG d   1       3.658   1.968 -10.955  0.00  0.00     0.027 H 
ATOM     24  H   LIG d   1       4.995   1.132 -10.127  0.00  0.00     0.027 H 
ATOM     25  H   LIG d   1       3.897   0.220 -11.190  0.00  0.00     0.027 H 
ENDBRANCH  21  22
BRANCH  21  26
ATOM     26  C   LIG d   1       1.931  -0.199  -9.717  0.00  0.00    -0.025 C 
ATOM     27  H   LIG d   1       1.560  -0.741  -8.848  0.00  0.00     0.027 H 
ATOM     28  H   LIG d   1       1.119   0.374 -10.164  0.00  0.00     0.027 H 
ATOM     29  H   LIG d   1       2.321  -0.907 -10.448  0.00  0.00     0.027 H 
ENDBRANCH  21  26
BRANCH  21  30
ATOM     30  O   LIG d   1       2.478   1.978  -8.818  0.00  0.00    -0.377 OA
ATOM     31  H   LIG d   1       1.910   2.418  -9.465  0.00  0.00     0.211 HD
ENDBRANCH  21  30
ENDBRANCH  20  21
ENDBRANCH  16  19
ENDBRANCH   1  16
BRANCH   6  32
ATOM     32  C   LIG d   1       5.772  -3.175  -4.592  0.00  0.00    -0.012 A 
ATOM     33  C   LIG d   1       7.148  -3.282  -4.537  0.00  0.00     0.032 A 
ATOM     34  N   LIG d   1       7.762  -4.348  -5.010  0.00  0.00    -0.263 NA
ATOM     35  H   LIG d   1       7.727  -2.484  -4.095  0.00  0.00     0.083 H 
ATOM     36  C   LIG d   1       7.096  -5.342  -5.564  0.00  0.00     0.028 A 
ATOM     37  C   LIG d   1       5.718  -5.304  -5.661  0.00  0.00    -0.043 A 
ATOM     38  H   LIG d   1       7.634  -6.197  -5.945  0.00  0.00     0.083 H 
ATOM     39  C   LIG d   1       5.037  -4.202  -5.168  0.00  0.00    -0.054 A 
ATOM     40  H   LIG d   1       5.178  -6.122  -6.115  0.00  0.00     0.063 H 
ATOM     41  H   LIG d   1       3.960  -4.144  -5.229  0.00  0.00     0.062 H 
ENDBRANCH   6  32
TORSDOF 7
ENDMDL
MODEL 4
REMARK VINA RESULT:      -5.4      2.812      6.231
REMARK  7 active torsions:
REMARK  status: ('A' for Active; 'I' for Inactive)
REMARK    1  A    between atoms: C_1  and  C_2 
REMARK    2  A    between atoms: C_2  and  C_3 
REMARK    3  A    between atoms: C_2  and  C_4 
REMARK    4  A    between atoms: C_2  and  O_20 
REMARK    5  A    between atoms: C_5  and  C_6 
REMARK    6  A    between atoms: C_6  and  N_7 
REMARK    7  A    between atoms: C_12  and  C_14 
ROOT
ATOM      1  N   LIG d   1       4.492  -1.762  -7.475  0.00  0.00    -0.284 N 
ATOM      2  C   LIG d   1       4.767  -3.196  -7.320  0.00  0.00     0.000 C 
ATOM      3  C   LIG d   1       3.730  -4.004  -8.105  0.00  0.00    -0.040 C 
ATOM      4  C   LIG d   1       3.794  -3.609  -9.583  0.00  0.00    -0.050 C 
ATOM      5  C   LIG d   1       3.553  -2.103  -9.712  0.00  0.00    -0.033 C 
ATOM      6  C   LIG d   1       4.595  -1.351  -8.881  0.00  0.00     0.038 C 
ATOM      7  H   LIG d   1       5.592  -1.581  -9.256  0.00  0.00     0.051 H 
ATOM      8  H   LIG d   1       5.764  -3.418  -7.702  0.00  0.00     0.043 H 
ATOM      9  H   LIG d   1       4.714  -3.465  -6.265  0.00  0.00     0.043 H 
ATOM     10  H   LIG d   1       3.944  -5.068  -8.002  0.00  0.00     0.028 H 
ATOM     11  H   LIG d   1       2.734  -3.793  -7.714  0.00  0.00     0.028 H 
ATOM     12  H   LIG d   1       4.778  -3.857  -9.983  0.00  0.00     0.027 H 
ATOM     13  H   LIG d   1       3.029  -4.151 -10.138  0.00  0.00     0.027 H 
ATOM     14  H   LIG d   1       3.640  -1.809 -10.758  0.00  0.00     0.028 H 
ATOM     15  H   LIG d   1       2.554  -1.863  -9.348  0.00  0.00     0.028 H 
ENDROOT
BRANCH   1  16
ATOM     16  C   LIG d   1       5.383  -0.961  -6.625  0.00  0.00     0.061 C 
ATOM     17  H   LIG d   1       5.531   0.020  -7.079  0.00  0.00     0.056 H 
ATOM     18  H   LIG d   1       6.344  -1.465  -6.528  0.00  0.00     0.056 H 
BRANCH  16  19
ATOM     19  C   LIG d   1       4.777  -0.800  -5.294  0.00  0.00    -0.084 C 
ATOM     20  C   LIG d   1       4.293  -0.671  -4.232  0.00  0.00    -0.067 C 
BRANCH  20  21
ATOM     21  C   LIG d   1       3.686  -0.509  -2.901  0.00  0.00     0.121 C 
BRANCH  21  22
ATOM     22  C   LIG d   1       4.334  -1.491  -1.922  0.00  0.00    -0.025 C 
ATOM     23  H   LIG d   1       3.955  -2.496  -2.112  0.00  0.00     0.027 H 
ATOM     24  H   LIG d   1       5.415  -1.478  -2.056  0.00  0.00     0.027 H 
ATOM     25  H   LIG d   1       4.090  -1.199  -0.901  0.00  0.00     0.027 H 
ENDBRANCH  21  22
BRANCH  21  26
ATOM     26  C   LIG d   1       3.910   0.923  -2.410  0.00  0.00    -0.025 C 
ATOM     27  H   LIG d   1       3.407   1.619  -3.080  0.00  0.00     0.027 H 
ATOM     28  H   LIG d   1       3.506   1.030  -1.404  0.00  0.00     0.027 H 
ATOM     29  H   LIG d   1       4.979   1.140  -2.397  0.00  0.00     0.027 H 
ENDBRANCH  21  26
BRANCH  21  30
ATOM     30  O   LIG d   1       2.284  -0.772  -2.981  0.00  0.00    -0.377 OA
ATOM     31  H   LIG d   1       1.907  -1.145  -2.172  0.00  0.00     0.211 HD
ENDBRANCH  21  30
ENDBRANCH  20  21
ENDBRANCH  16  19
ENDBRANCH   1  16
BRANCH   6  32
ATOM     32  C   LIG d   1       4.349   0.132  -8.989  0.00  0.00    -0.012 A 
ATOM     33  C   LIG d   1       5.350   0.978  -9.426  0.00  0.00     0.032 A 
ATOM     34  N   LIG d   1       5.140   2.276  -9.529  0.00  0.00    -0.263 NA
ATOM     35  H   LIG d   1       6.314   0.571  -9.691  0.00  0.00     0.083 H 
ATOM     36  C   LIG d   1       3.981   2.817  -9.210  0.00  0.00     0.028 A 
ATOM     37  C   LIG d   1       2.934   2.035  -8.759  0.00  0.00    -0.043 A 
ATOM     38  H   LIG d   1       3.847   3.885  -9.302  0.00  0.00     0.083 H 
ATOM     39  C   LIG d   1       3.115   0.666  -8.645  0.00  0.00    -0.054 A 
ATOM     40  H   LIG d   1       1.986   2.485  -8.500  0.00  0.00     0.063 H 
ATOM     41  H   LIG d   1       2.315   0.029  -8.296  0.00  0.00     0.062 H 
ENDBRANCH   6  32
TORSDOF 7
ENDMDL
MODEL 5
REMARK VINA RESULT:      -5.2      1.937      3.667
REMARK  7 active torsions:
REMARK  status: ('A' for Active; 'I' for Inactive)
REMARK    1  A    between atoms: C_1  and  C_2 
REMARK    2  A    between atoms: C_2  and  C_3 
REMARK    3  A    between atoms: C_2  and  C_4 
REMARK    4  A    between atoms: C_2  and  O_20 
REMARK    5  A    between atoms: C_5  and  C_6 
REMARK    6  A    between atoms: C_6  and  N_7 
REMARK    7  A    between atoms: C_12  and  C_14 
ROOT
ATOM      1  N   LIG d   1       6.525   0.272  -5.699  0.00  0.00    -0.284 N 
ATOM      2  C   LIG d   1       7.807   0.668  -6.295  0.00  0.00     0.000 C 
ATOM      3  C   LIG d   1       8.336   1.919  -5.589  0.00  0.00    -0.040 C 
ATOM      4  C   LIG d   1       8.516   1.620  -4.098  0.00  0.00    -0.050 C 
ATOM      5  C   LIG d   1       7.178   1.163  -3.512  0.00  0.00    -0.033 C 
ATOM      6  C   LIG d   1       6.683  -0.066  -4.278  0.00  0.00     0.038 C 
ATOM      7  H   LIG d   1       7.406  -0.874  -4.174  0.00  0.00     0.051 H 
ATOM      8  H   LIG d   1       8.526  -0.144  -6.182  0.00  0.00     0.043 H 
ATOM      9  H   LIG d   1       7.664   0.882  -7.355  0.00  0.00     0.043 H 
ATOM     10  H   LIG d   1       9.295   2.203  -6.022  0.00  0.00     0.028 H 
ATOM     11  H   LIG d   1       7.623   2.735  -5.713  0.00  0.00     0.028 H 
ATOM     12  H   LIG d   1       9.257   0.830  -3.973  0.00  0.00     0.027 H 
ATOM     13  H   LIG d   1       8.852   2.520  -3.584  0.00  0.00     0.027 H 
ATOM     14  H   LIG d   1       7.309   0.907  -2.460  0.00  0.00     0.028 H 
ATOM     15  H   LIG d   1       6.448   1.967  -3.602  0.00  0.00     0.028 H 
ENDROOT
BRANCH   1  16
ATOM     16  C   LIG d   1       5.920  -0.842  -6.441  0.00  0.00     0.061 C 
ATOM     17  H   LIG d   1       5.394  -1.497  -5.747  0.00  0.00     0.056 H 
ATOM     18  H   LIG d   1       6.702  -1.406  -6.951  0.00  0.00     0.056 H 
BRANCH  16  19
ATOM     19  C   LIG d   1       4.971  -0.312  -7.433  0.00  0.00    -0.084 C 
ATOM     20  C   LIG d   1       4.214   0.110  -8.224  0.00  0.00    -0.067 C 
BRANCH  20  21
ATOM     21  C   LIG d   1       3.265   0.640  -9.217  0.00  0.00     0.121 C 
BRANCH  21  22
ATOM     22  C   LIG d   1       2.079  -0.318  -9.351  0.00  0.00    -0.025 C 
ATOM     23  H   LIG d   1       2.175  -1.119  -8.618  0.00  0.00     0.027 H 
ATOM     24  H   LIG d   1       1.151   0.226  -9.176  0.00  0.00     0.027 H 
ATOM     25  H   LIG d   1       2.068  -0.743 -10.355  0.00  0.00     0.027 H 
ENDBRANCH  21  22
BRANCH  21  26
ATOM     26  C   LIG d   1       2.763   2.012  -8.760  0.00  0.00    -0.025 C 
ATOM     27  H   LIG d   1       3.188   2.248  -7.785  0.00  0.00     0.027 H 
ATOM     28  H   LIG d   1       3.068   2.769  -9.483  0.00  0.00     0.027 H 
ATOM     29  H   LIG d   1       1.675   1.996  -8.689  0.00  0.00     0.027 H 
ENDBRANCH  21  26
BRANCH  21  30
ATOM     30  O   LIG d   1       3.919   0.768 -10.481  0.00  0.00    -0.377 OA
ATOM     31  H   LIG d   1       3.344   0.603 -11.240  0.00  0.00     0.211 HD
ENDBRANCH  21  30
ENDBRANCH  20  21
ENDBRANCH  16  19
ENDBRANCH   1  16
BRANCH   6  32
ATOM     32  C   LIG d   1       5.355  -0.507  -3.717  0.00  0.00    -0.012 A 
ATOM     33  C   LIG d   1       4.253   0.323  -3.793  0.00  0.00     0.032 A 
ATOM     34  N   LIG d   1       3.086  -0.058  -3.310  0.00  0.00    -0.263 NA
ATOM     35  H   LIG d   1       4.347   1.293  -4.258  0.00  0.00     0.083 H 
ATOM     36  C   LIG d   1       2.928  -1.230  -2.728  0.00  0.00     0.028 A 
ATOM     37  C   LIG d   1       3.986  -2.111  -2.609  0.00  0.00    -0.043 A 
ATOM     38  H   LIG d   1       1.958  -1.506  -2.339  0.00  0.00     0.083 H 
ATOM     39  C   LIG d   1       5.226  -1.748  -3.111  0.00  0.00    -0.054 A 
ATOM     40  H   LIG d   1       3.849  -3.070  -2.132  0.00  0.00     0.063 H 
ATOM     41  H   LIG d   1       6.071  -2.416  -3.034  0.00  0.00     0.062 H 
ENDBRANCH   6  32
TORSDOF 7
ENDMDL
MODEL 6
REMARK VINA RESULT:      -5.0      2.616      5.088
REMARK  7 active torsions:
REMARK  status: ('A' for Active; 'I' for Inactive)
REMARK    1  A    between atoms: C_1  and  C_2 
REMARK    2  A    between atoms: C_2  and  C_3 
REMARK    3  A    between atoms: C_2  and  C_4 
REMARK    4  A    between atoms: C_2  and  O_20 
REMARK    5  A    between atoms: C_5  and  C_6 
REMARK    6  A    between atoms: C_6  and  N_7 
REMARK    7  A    between atoms: C_12  and  C_14 
ROOT
ATOM      1  N   LIG d   1       4.464   0.454  -7.600  0.00  0.00    -0.284 N 
ATOM      2  C   LIG d   1       3.057   0.638  -7.977  0.00  0.00     0.000 C 
ATOM      3  C   LIG d   1       2.838   2.078  -8.447  0.00  0.00    -0.040 C 
ATOM      4  C   LIG d   1       3.748   2.365  -9.644  0.00  0.00    -0.050 C 
ATOM      5  C   LIG d   1       5.203   2.119  -9.238  0.00  0.00    -0.033 C 
ATOM      6  C   LIG d   1       5.355   0.677  -8.746  0.00  0.00     0.038 C 
ATOM      7  H   LIG d   1       5.092  -0.010  -9.550  0.00  0.00     0.051 H 
ATOM      8  H   LIG d   1       2.805  -0.049  -8.785  0.00  0.00     0.043 H 
ATOM      9  H   LIG d   1       2.420   0.436  -7.116  0.00  0.00     0.043 H 
ATOM     10  H   LIG d   1       1.797   2.210  -8.742  0.00  0.00     0.028 H 
ATOM     11  H   LIG d   1       3.076   2.766  -7.635  0.00  0.00     0.028 H 
ATOM     12  H   LIG d   1       3.483   1.703 -10.469  0.00  0.00     0.027 H 
ATOM     13  H   LIG d   1       3.626   3.402  -9.954  0.00  0.00     0.027 H 
ATOM     14  H   LIG d   1       5.854   2.279 -10.099  0.00  0.00     0.028 H 
ATOM     15  H   LIG d   1       5.480   2.807  -8.440  0.00  0.00     0.028 H 
ENDROOT
BRANCH   1  16
ATOM     16  C   LIG d   1       4.682  -0.876  -7.014  0.00  0.00     0.061 C 
ATOM     17  H   LIG d   1       5.738  -1.136  -7.090  0.00  0.00     0.056 H 
ATOM     18  H   LIG d   1       4.087  -1.612  -7.553  0.00  0.00     0.056 H 
BRANCH  16  19
ATOM     19  C   LIG d   1       4.280  -0.860  -5.599  0.00  0.00    -0.084 C 
ATOM     20  C   LIG d   1       3.959  -0.847  -4.470  0.00  0.00    -0.067 C 
BRANCH  20  21
ATOM     21  C   LIG d   1       3.556  -0.830  -3.054  0.00  0.00     0.121 C 
BRANCH  21  22
ATOM     22  C   LIG d   1       3.921  -2.166  -2.403  0.00  0.00    -0.025 C 
ATOM     23  H   LIG d   1       4.552  -2.740  -3.082  0.00  0.00     0.027 H 
ATOM     24  H   LIG d   1       4.459  -1.983  -1.474  0.00  0.00     0.027 H 
ATOM     25  H   LIG d   1       3.011  -2.727  -2.192  0.00  0.00     0.027 H 
ENDBRANCH  21  22
BRANCH  21  26
ATOM     26  C   LIG d   1       4.284   0.306  -2.331  0.00  0.00    -0.025 C 
ATOM     27  H   LIG d   1       3.600   1.141  -2.187  0.00  0.00     0.027 H 
ATOM     28  H   LIG d   1       4.637  -0.048  -1.362  0.00  0.00     0.027 H 
ATOM     29  H   LIG d   1       5.135   0.631  -2.930  0.00  0.00     0.027 H 
ENDBRANCH  21  26
BRANCH  21  30
ATOM     30  O   LIG d   1       2.144  -0.626  -2.963  0.00  0.00    -0.377 OA
ATOM     31  H   LIG d   1       1.646  -1.422  -2.734  0.00  0.00     0.211 HD
ENDBRANCH  21  30
ENDBRANCH  20  21
ENDBRANCH  16  19
ENDBRANCH   1  16
BRANCH   6  32
ATOM     32  C   LIG d   1       6.782   0.437  -8.326  0.00  0.00    -0.012 A 
ATOM     33  C   LIG d   1       7.382   1.252  -7.387  0.00  0.00     0.032 A 
ATOM     34  N   LIG d   1       8.629   1.044  -7.010  0.00  0.00    -0.263 NA
ATOM     35  H   LIG d   1       6.822   2.067  -6.951  0.00  0.00     0.083 H 
ATOM     36  C   LIG d   1       9.352   0.067  -7.519  0.00  0.00     0.028 A 
ATOM     37  C   LIG d   1       8.822  -0.786  -8.469  0.00  0.00    -0.043 A 
ATOM     38  H   LIG d   1      10.372  -0.070  -7.190  0.00  0.00     0.083 H 
ATOM     39  C   LIG d   1       7.513  -0.602  -8.884  0.00  0.00    -0.054 A 
ATOM     40  H   LIG d   1       9.420  -1.585  -8.881  0.00  0.00     0.063 H 
ATOM     41  H   LIG d   1       7.071  -1.253  -9.624  0.00  0.00     0.062 H 
ENDBRANCH   6  32
TORSDOF 7
ENDMDL
MODEL 7
REMARK VINA RESULT:      -5.0      2.950      5.536
REMARK  7 active torsions:
REMARK  status: ('A' for Active; 'I' for Inactive)
REMARK    1  A    between atoms: C_1  and  C_2 
REMARK    2  A    between atoms: C_2  and  C_3 
REMARK    3  A    between atoms: C_2  and  C_4 
REMARK    4  A    between atoms: C_2  and  O_20 
REMARK    5  A    between atoms: C_5  and  C_6 
REMARK    6  A    between atoms: C_6  and  N_7 
REMARK    7  A    between atoms: C_12  and  C_14 
ROOT
ATOM      1  N   LIG d   1       4.612  -0.439  -5.327  0.00  0.00    -0.284 N 
ATOM      2  C   LIG d   1       4.861  -1.110  -4.046  0.00  0.00     0.000 C 
ATOM      3  C   LIG d   1       4.144  -0.355  -2.924  0.00  0.00    -0.040 C 
ATOM      4  C   LIG d   1       2.642  -0.317  -3.219  0.00  0.00    -0.050 C 
ATOM      5  C   LIG d   1       2.414   0.344  -4.581  0.00  0.00    -0.033 C 
ATOM      6  C   LIG d   1       3.180  -0.432  -5.655  0.00  0.00     0.038 C 
ATOM      7  H   LIG d   1       2.812  -1.457  -5.694  0.00  0.00     0.051 H 
ATOM      8  H   LIG d   1       4.484  -2.133  -4.092  0.00  0.00     0.043 H 
ATOM      9  H   LIG d   1       5.932  -1.127  -3.845  0.00  0.00     0.043 H 
ATOM     10  H   LIG d   1       4.316  -0.863  -1.975  0.00  0.00     0.028 H 
ATOM     11  H   LIG d   1       4.530   0.664  -2.868  0.00  0.00     0.028 H 
ATOM     12  H   LIG d   1       2.249  -1.334  -3.237  0.00  0.00     0.027 H 
ATOM     13  H   LIG d   1       2.133   0.257  -2.445  0.00  0.00     0.027 H 
ATOM     14  H   LIG d   1       1.349   0.335  -4.816  0.00  0.00     0.028 H 
ATOM     15  H   LIG d   1       2.771   1.373  -4.551  0.00  0.00     0.028 H 
ENDROOT
BRANCH   1  16
ATOM     16  C   LIG d   1       5.396  -1.055  -6.406  0.00  0.00     0.061 C 
ATOM     17  H   LIG d   1       6.459  -0.945  -6.191  0.00  0.00     0.056 H 
ATOM     18  H   LIG d   1       5.164  -0.564  -7.351  0.00  0.00     0.056 H 
BRANCH  16  19
ATOM     19  C   LIG d   1       5.060  -2.485  -6.500  0.00  0.00    -0.084 C 
ATOM     20  C   LIG d   1       4.792  -3.625  -6.576  0.00  0.00    -0.067 C 
BRANCH  20  21
ATOM     21  C   LIG d   1       4.455  -5.055  -6.672  0.00  0.00     0.121 C 
BRANCH  21  22
ATOM     22  C   LIG d   1       4.753  -5.556  -8.086  0.00  0.00    -0.025 C 
ATOM     23  H   LIG d   1       4.998  -4.709  -8.727  0.00  0.00     0.027 H 
ATOM     24  H   LIG d   1       5.595  -6.247  -8.057  0.00  0.00     0.027 H 
ATOM     25  H   LIG d   1       3.876  -6.068  -8.482  0.00  0.00     0.027 H 
ENDBRANCH  21  22
BRANCH  21  26
ATOM     26  C   LIG d   1       5.293  -5.844  -5.663  0.00  0.00    -0.025 C 
ATOM     27  H   LIG d   1       6.037  -6.436  -6.195  0.00  0.00     0.027 H 
ATOM     28  H   LIG d   1       5.794  -5.152  -4.986  0.00  0.00     0.027 H 
ATOM     29  H   LIG d   1       4.643  -6.506  -5.090  0.00  0.00     0.027 H 
ENDBRANCH  21  26
BRANCH  21  30
ATOM     30  O   LIG d   1       3.067  -5.238  -6.384  0.00  0.00    -0.377 OA
ATOM     31  H   LIG d   1       2.521  -5.396  -7.166  0.00  0.00     0.211 HD
ENDBRANCH  21  30
ENDBRANCH  20  21
ENDBRANCH  16  19
ENDBRANCH   1  16
BRANCH   6  32
ATOM     32  C   LIG d   1       2.975   0.227  -6.994  0.00  0.00    -0.012 A 
ATOM     33  C   LIG d   1       3.155   1.588  -7.139  0.00  0.00     0.032 A 
ATOM     34  N   LIG d   1       2.983   2.172  -8.310  0.00  0.00    -0.263 NA
ATOM     35  H   LIG d   1       3.446   2.182  -6.285  0.00  0.00     0.083 H 
ATOM     36  C   LIG d   1       2.622   1.488  -9.377  0.00  0.00     0.028 A 
ATOM     37  C   LIG d   1       2.417   0.122  -9.308  0.00  0.00    -0.043 A 
ATOM     38  H   LIG d   1       2.486   2.000 -10.318  0.00  0.00     0.083 H 
ATOM     39  C   LIG d   1       2.595  -0.526  -8.096  0.00  0.00    -0.054 A 
ATOM     40  H   LIG d   1       2.122  -0.432 -10.187  0.00  0.00     0.063 H 
ATOM     41  H   LIG d   1       2.442  -1.592  -8.011  0.00  0.00     0.062 H 
ENDBRANCH   6  32
TORSDOF 7
ENDMDL
MODEL 8
REMARK VINA RESULT:      -5.0      2.901      5.290
REMARK  7 active torsions:
REMARK  status: ('A' for Active; 'I' for Inactive)
REMARK    1  A    between atoms: C_1  and  C_2 
REMARK    2  A    between atoms: C_2  and  C_3 
REMARK    3  A    between atoms: C_2  and  C_4 
REMARK    4  A    between atoms: C_2  and  O_20 
REMARK    5  A    between atoms: C_5  and  C_6 
REMARK    6  A    between atoms: C_6  and  N_7 
REMARK    7  A    between atoms: C_12  and  C_14 
ROOT
ATOM      1  N   LIG d   1       5.448   0.052  -4.312  0.00  0.00    -0.284 N 
ATOM      2  C   LIG d   1       5.911  -0.004  -2.920  0.00  0.00     0.000 C 
ATOM      3  C   LIG d   1       4.738   0.279  -1.979  0.00  0.00    -0.040 C 
ATOM      4  C   LIG d   1       3.638  -0.760  -2.213  0.00  0.00    -0.050 C 
ATOM      5  C   LIG d   1       3.208  -0.713  -3.682  0.00  0.00    -0.033 C 
ATOM      6  C   LIG d   1       4.425  -0.969  -4.574  0.00  0.00     0.038 C 
ATOM      7  H   LIG d   1       4.833  -1.956  -4.357  0.00  0.00     0.051 H 
ATOM      8  H   LIG d   1       6.312  -0.996  -2.711  0.00  0.00     0.043 H 
ATOM      9  H   LIG d   1       6.690   0.743  -2.765  0.00  0.00     0.043 H 
ATOM     10  H   LIG d   1       5.079   0.222  -0.945  0.00  0.00     0.028 H 
ATOM     11  H   LIG d   1       4.345   1.277  -2.179  0.00  0.00     0.028 H 
ATOM     12  H   LIG d   1       4.020  -1.753  -1.977  0.00  0.00     0.027 H 
ATOM     13  H   LIG d   1       2.783  -0.536  -1.575  0.00  0.00     0.027 H 
ATOM     14  H   LIG d   1       2.455  -1.481  -3.866  0.00  0.00     0.028 H 
ATOM     15  H   LIG d   1       2.791   0.267  -3.908  0.00  0.00     0.028 H 
ENDROOT
BRANCH   1  16
ATOM     16  C   LIG d   1       6.574  -0.079  -5.247  0.00  0.00     0.061 C 
ATOM     17  H   LIG d   1       6.222   0.094  -6.265  0.00  0.00     0.056 H 
ATOM     18  H   LIG d   1       6.993  -1.082  -5.173  0.00  0.00     0.056 H 
BRANCH  16  19
ATOM     19  C   LIG d   1       7.608   0.913  -4.911  0.00  0.00    -0.084 C 
ATOM     20  C   LIG d   1       8.434   1.703  -4.642  0.00  0.00    -0.067 C 
BRANCH  20  21
ATOM     21  C   LIG d   1       9.469   2.693  -4.306  0.00  0.00     0.121 C 
BRANCH  21  22
ATOM     22  C   LIG d   1      10.842   2.016  -4.303  0.00  0.00    -0.025 C 
ATOM     23  H   LIG d   1      11.543   2.614  -4.886  0.00  0.00     0.027 H 
ATOM     24  H   LIG d   1      11.202   1.928  -3.279  0.00  0.00     0.027 H 
ATOM     25  H   LIG d   1      10.757   1.023  -4.746  0.00  0.00     0.027 H 
ENDBRANCH  21  22
BRANCH  21  26
ATOM     26  C   LIG d   1       9.456   3.817  -5.345  0.00  0.00    -0.025 C 
ATOM     27  H   LIG d   1      10.066   3.527  -6.200  0.00  0.00     0.027 H 
ATOM     28  H   LIG d   1       8.432   3.998  -5.671  0.00  0.00     0.027 H 
ATOM     29  H   LIG d   1       9.862   4.726  -4.901  0.00  0.00     0.027 H 
ENDBRANCH  21  26
BRANCH  21  30
ATOM     30  O   LIG d   1       9.205   3.238  -3.011  0.00  0.00    -0.377 OA
ATOM     31  H   LIG d   1       8.535   2.754  -2.510  0.00  0.00     0.211 HD
ENDBRANCH  21  30
ENDBRANCH  20  21
ENDBRANCH  16  19
ENDBRANCH   1  16
BRANCH   6  32
ATOM     32  C   LIG d   1       4.010  -0.904  -6.021  0.00  0.00    -0.012 A 
ATOM     33  C   LIG d   1       4.448  -1.859  -6.918  0.00  0.00     0.032 A 
ATOM     34  N   LIG d   1       4.084  -1.813  -8.185  0.00  0.00    -0.263 NA
ATOM     35  H   LIG d   1       5.091  -2.657  -6.577  0.00  0.00     0.083 H 
ATOM     36  C   LIG d   1       3.306  -0.855  -8.647  0.00  0.00     0.028 A 
ATOM     37  C   LIG d   1       2.834   0.140  -7.811  0.00  0.00    -0.043 A 
ATOM     38  H   LIG d   1       3.033  -0.846  -9.692  0.00  0.00     0.083 H 
ATOM     39  C   LIG d   1       3.190   0.120  -6.471  0.00  0.00    -0.054 A 
ATOM     40  H   LIG d   1       2.196   0.922  -8.196  0.00  0.00     0.063 H 
ATOM     41  H   LIG d   1       2.836   0.883  -5.794  0.00  0.00     0.062 H 
ENDBRANCH   6  32
TORSDOF 7
ENDMDL
MODEL 9
REMARK VINA RESULT:      -4.7      2.951      5.376
REMARK  7 active torsions:
REMARK  status: ('A' for Active; 'I' for Inactive)
REMARK    1  A    between atoms: C_1  and  C_2 
REMARK    2  A    between atoms: C_2  and  C_3 
REMARK    3  A    between atoms: C_2  and  C_4 
REMARK    4  A    between atoms: C_2  and  O_20 
REMARK    5  A    between atoms: C_5  and  C_6 
REMARK    6  A    between atoms: C_6  and  N_7 
REMARK    7  A    between atoms: C_12  and  C_14 
ROOT
ATOM      1  N   LIG d   1       4.374  -0.530  -8.055  0.00  0.00    -0.284 N 
ATOM      2  C   LIG d   1       3.506   0.647  -7.925  0.00  0.00     0.000 C 
ATOM      3  C   LIG d   1       2.624   0.772  -9.170  0.00  0.00    -0.040 C 
ATOM      4  C   LIG d   1       1.778  -0.496  -9.321  0.00  0.00    -0.050 C 
ATOM      5  C   LIG d   1       2.705  -1.711  -9.405  0.00  0.00    -0.033 C 
ATOM      6  C   LIG d   1       3.585  -1.765  -8.153  0.00  0.00     0.038 C 
ATOM      7  H   LIG d   1       2.953  -1.864  -7.271  0.00  0.00     0.051 H 
ATOM      8  H   LIG d   1       2.874   0.536  -7.043  0.00  0.00     0.043 H 
ATOM      9  H   LIG d   1       4.119   1.542  -7.823  0.00  0.00     0.043 H 
ATOM     10  H   LIG d   1       1.968   1.636  -9.066  0.00  0.00     0.028 H 
ATOM     11  H   LIG d   1       3.255   0.896 -10.051  0.00  0.00     0.028 H 
ATOM     12  H   LIG d   1       1.120  -0.598  -8.458  0.00  0.00     0.027 H 
ATOM     13  H   LIG d   1       1.181  -0.429 -10.230  0.00  0.00     0.027 H 
ATOM     14  H   LIG d   1       2.108  -2.621  -9.469  0.00  0.00     0.028 H 
ATOM     15  H   LIG d   1       3.336  -1.626 -10.289  0.00  0.00     0.028 H 
ENDROOT
BRANCH   1  16
ATOM     16  C   LIG d   1       5.331  -0.604  -6.942  0.00  0.00     0.061 C 
ATOM     17  H   LIG d   1       5.981   0.271  -6.964  0.00  0.00     0.056 H 
ATOM     18  H   LIG d   1       5.933  -1.507  -7.040  0.00  0.00     0.056 H 
BRANCH  16  19
ATOM     19  C   LIG d   1       4.597  -0.639  -5.667  0.00  0.00    -0.084 C 
ATOM     20  C   LIG d   1       4.012  -0.667  -4.650  0.00  0.00    -0.067 C 
BRANCH  20  21
ATOM     21  C   LIG d   1       3.278  -0.702  -3.374  0.00  0.00     0.121 C 
BRANCH  21  22
ATOM     22  C   LIG d   1       3.723  -1.920  -2.562  0.00  0.00    -0.025 C 
ATOM     23  H   LIG d   1       3.522  -1.745  -1.505  0.00  0.00     0.027 H 
ATOM     24  H   LIG d   1       3.174  -2.800  -2.896  0.00  0.00     0.027 H 
ATOM     25  H   LIG d   1       4.791  -2.082  -2.707  0.00  0.00     0.027 H 
ENDBRANCH  21  22
BRANCH  21  26
ATOM     26  C   LIG d   1       3.573   0.574  -2.582  0.00  0.00    -0.025 C 
ATOM     27  H   LIG d   1       4.231   0.339  -1.747  0.00  0.00     0.027 H 
ATOM     28  H   LIG d   1       4.058   1.302  -3.234  0.00  0.00     0.027 H 
ATOM     29  H   LIG d   1       2.640   0.991  -2.204  0.00  0.00     0.027 H 
ENDBRANCH  21  26
BRANCH  21  30
ATOM     30  O   LIG d   1       1.875  -0.788  -3.633  0.00  0.00    -0.377 OA
ATOM     31  H   LIG d   1       1.499  -1.665  -3.472  0.00  0.00     0.211 HD
ENDBRANCH  21  30
ENDBRANCH  20  21
ENDBRANCH  16  19
ENDBRANCH   1  16
BRANCH   6  32
ATOM     32  C   LIG d   1       4.513  -2.948  -8.241  0.00  0.00    -0.012 A 
ATOM     33  C   LIG d   1       5.440  -3.036  -9.262  0.00  0.00     0.032 A 
ATOM     34  N   LIG d   1       6.260  -4.066  -9.343  0.00  0.00    -0.263 NA
ATOM     35  H   LIG d   1       5.497  -2.250 -10.000  0.00  0.00     0.083 H 
ATOM     36  C   LIG d   1       6.221  -5.052  -8.468  0.00  0.00     0.028 A 
ATOM     37  C   LIG d   1       5.317  -5.036  -7.423  0.00  0.00    -0.043 A 
ATOM     38  H   LIG d   1       6.906  -5.881  -8.569  0.00  0.00     0.083 H 
ATOM     39  C   LIG d   1       4.444  -3.967  -7.302  0.00  0.00    -0.054 A 
ATOM     40  H   LIG d   1       5.291  -5.847  -6.710  0.00  0.00     0.063 H 
ATOM     41  H   LIG d   1       3.726  -3.927  -6.496  0.00  0.00     0.062 H 
ENDBRANCH   6  32
TORSDOF 7
ENDMDL
MODEL 10
REMARK VINA RESULT:      -4.7      4.759      6.878
REMARK  7 active torsions:
REMARK  status: ('A' for Active; 'I' for Inactive)
REMARK    1  A    between atoms: C_1  and  C_2 
REMARK    2  A    between atoms: C_2  and  C_3 
REMARK    3  A    between atoms: C_2  and  C_4 
REMARK    4  A    between atoms: C_2  and  O_20 
REMARK    5  A    between atoms: C_5  and  C_6 
REMARK    6  A    between atoms: C_6  and  N_7 
REMARK    7  A    between atoms: C_12  and  C_14 
ROOT
ATOM      1  N   LIG d   1       9.036   2.560  -4.926  0.00  0.00    -0.284 N 
ATOM      2  C   LIG d   1       8.990   1.625  -6.058  0.00  0.00     0.000 C 
ATOM      3  C   LIG d   1       8.941   2.412  -7.370  0.00  0.00    -0.040 C 
ATOM      4  C   LIG d   1      10.180   3.305  -7.472  0.00  0.00    -0.050 C 
ATOM      5  C   LIG d   1      10.230   4.235  -6.257  0.00  0.00    -0.033 C 
ATOM      6  C   LIG d   1      10.243   3.396  -4.977  0.00  0.00     0.038 C 
ATOM      7  H   LIG d   1      11.127   2.759  -4.970  0.00  0.00     0.051 H 
ATOM      8  H   LIG d   1       9.881   0.996  -6.045  0.00  0.00     0.043 H 
ATOM      9  H   LIG d   1       8.102   0.999  -5.976  0.00  0.00     0.043 H 
ATOM     10  H   LIG d   1       8.922   1.717  -8.210  0.00  0.00     0.028 H 
ATOM     11  H   LIG d   1       8.043   3.031  -7.389  0.00  0.00     0.028 H 
ATOM     12  H   LIG d   1      11.075   2.683  -7.492  0.00  0.00     0.027 H 
ATOM     13  H   LIG d   1      10.127   3.898  -8.384  0.00  0.00     0.027 H 
ATOM     14  H   LIG d   1      11.133   4.844  -6.301  0.00  0.00     0.028 H 
ATOM     15  H   LIG d   1       9.354   4.883  -6.259  0.00  0.00     0.028 H 
ENDROOT
BRANCH   1  16
ATOM     16  C   LIG d   1       8.945   1.843  -3.647  0.00  0.00     0.061 C 
ATOM     17  H   LIG d   1       9.152   2.534  -2.829  0.00  0.00     0.056 H 
ATOM     18  H   LIG d   1       9.674   1.033  -3.632  0.00  0.00     0.056 H 
BRANCH  16  19
ATOM     19  C   LIG d   1       7.591   1.288  -3.491  0.00  0.00    -0.084 C 
ATOM     20  C   LIG d   1       6.511   0.846  -3.367  0.00  0.00    -0.067 C 
BRANCH  20  21
ATOM     21  C   LIG d   1       5.156   0.292  -3.211  0.00  0.00     0.121 C 
BRANCH  21  22
ATOM     22  C   LIG d   1       5.244  -1.223  -3.013  0.00  0.00    -0.025 C 
ATOM     23  H   LIG d   1       4.697  -1.504  -2.113  0.00  0.00     0.027 H 
ATOM     24  H   LIG d   1       4.809  -1.728  -3.875  0.00  0.00     0.027 H 
ATOM     25  H   LIG d   1       6.289  -1.515  -2.908  0.00  0.00     0.027 H 
ENDBRANCH  21  22
BRANCH  21  26
ATOM     26  C   LIG d   1       4.483   0.928  -1.992  0.00  0.00    -0.025 C 
ATOM     27  H   LIG d   1       5.208   1.018  -1.183  0.00  0.00     0.027 H 
ATOM     28  H   LIG d   1       4.110   1.917  -2.258  0.00  0.00     0.027 H 
ATOM     29  H   LIG d   1       3.652   0.301  -1.668  0.00  0.00     0.027 H 
ENDBRANCH  21  26
BRANCH  21  30
ATOM     30  O   LIG d   1       4.387   0.575  -4.382  0.00  0.00    -0.377 OA
ATOM     31  H   LIG d   1       4.848   1.124  -5.031  0.00  0.00     0.211 HD
ENDBRANCH  21  30
ENDBRANCH  20  21
ENDBRANCH  16  19
ENDBRANCH   1  16
BRANCH   6  32
ATOM     32  C   LIG d   1      10.271   4.308  -3.778  0.00  0.00    -0.012 A 
ATOM     33  C   LIG d   1      11.058   4.003  -2.684  0.00  0.00     0.032 A 
ATOM     34  N   LIG d   1      11.094   4.799  -1.634  0.00  0.00    -0.263 NA
ATOM     35  H   LIG d   1      11.656   3.103  -2.692  0.00  0.00     0.083 H 
ATOM     36  C   LIG d   1      10.376   5.904  -1.578  0.00  0.00     0.028 A 
ATOM     37  C   LIG d   1       9.560   6.272  -2.632  0.00  0.00    -0.043 A 
ATOM     38  H   LIG d   1      10.426   6.529  -0.699  0.00  0.00     0.083 H 
ATOM     39  C   LIG d   1       9.502   5.463  -3.755  0.00  0.00    -0.054 A 
ATOM     40  H   LIG d   1       8.975   7.178  -2.580  0.00  0.00     0.063 H 
ATOM     41  H   LIG d   1       8.874   5.725  -4.594  0.00  0.00     0.062 H 
ENDBRANCH   6  32
TORSDOF 7
ENDMDL
