MODEL 1
REMARK VINA RESULT:      -6.2      0.000      0.000
REMARK  21 active torsions:
REMARK  status: ('A' for Active; 'I' for Inactive)
REMARK    1  A    between atoms: C_1  and  C_2 
REMARK    2  A    between atoms: C_2  and  O_4 
REMARK    3  A    between atoms: O_4  and  C_5 
REMARK    4  A    between atoms: C_9  and  C_23 
REMARK    5  A    between atoms: C_11  and  O_19 
REMARK    6  A    between atoms: C_13  and  O_15 
REMARK    7  A    between atoms: O_15  and  C_16 
REMARK    8  A    between atoms: C_16  and  C_18 
REMARK    9  A    between atoms: O_19  and  C_20 
REMARK   10  A    between atoms: C_20  and  C_22 
REMARK   11  A    between atoms: C_24  and  O_59 
REMARK   12  A    between atoms: C_28  and  O_29 
REMARK   13  A    between atoms: O_29  and  C_30 
REMARK   14  A    between atoms: C_34  and  C_36 
REMARK   15  A    between atoms: C_39  and  O_42 
REMARK   16  A    between atoms: O_42  and  C_43 
REMARK   17  A    between atoms: C_45  and  O_58 
REMARK   18  A    between atoms: C_47  and  O_57 
REMARK   19  A    between atoms: C_49  and  O_56 
REMARK   20  A    between atoms: C_51  and  C_54 
REMARK   21  A    between atoms: C_54  and  O_55 
ROOT
ATOM      1  C   LIG d   1       7.110  -0.251  -7.390  0.00  0.00     0.069 A 
ATOM      2  C   LIG d   1       7.154  -0.427  -6.011  0.00  0.00     0.130 A 
ATOM      3  C   LIG d   1       7.752   0.521  -5.196  0.00  0.00     0.024 A 
ATOM      4  C   LIG d   1       8.313   1.660  -5.753  0.00  0.00     0.146 A 
ATOM      5  C   LIG d   1       8.271   1.840  -7.147  0.00  0.00     0.106 A 
ATOM      6  C   LIG d   1       7.671   0.875  -7.964  0.00  0.00     0.144 A 
ATOM      7  C   LIG d   1       8.874   3.057  -7.715  0.00  0.00     0.197 A 
ATOM      8  O   LIG d   1       8.865   3.266  -8.919  0.00  0.00    -0.287 OA
ATOM      9  C   LIG d   1       9.463   3.975  -6.814  0.00  0.00     0.029 A 
ATOM     10  C   LIG d   1       9.451   3.707  -5.481  0.00  0.00     0.139 A 
ATOM     11  O   LIG d   1       8.898   2.594  -4.974  0.00  0.00    -0.454 OA
ATOM     12  H   LIG d   1       7.779   0.375  -4.126  0.00  0.00     0.069 H 
ATOM     13  H   LIG d   1       9.919   4.883  -7.183  0.00  0.00     0.069 H 
ENDROOT
BRANCH   1  14
ATOM     14  C   LIG d   1       6.458  -1.294  -8.260  0.00  0.00     0.131 C 
ATOM     15  O   LIG d   1       6.696  -2.591  -7.711  0.00  0.00    -0.364 OA
ATOM     16  C   LIG d   1       6.138  -3.660  -8.478  0.00  0.00     0.089 C 
ATOM     17  C   LIG d   1       4.617  -3.498  -8.547  0.00  0.00     0.166 C 
ATOM     18  H   LIG d   1       6.380  -4.612  -8.004  0.00  0.00     0.060 H 
ATOM     19  H   LIG d   1       6.552  -3.640  -9.486  0.00  0.00     0.060 H 
ATOM     20  H   LIG d   1       4.195  -4.289  -9.167  0.00  0.00     0.080 H 
ATOM     21  C   LIG d   1       4.284  -2.133  -9.159  0.00  0.00     0.181 C 
ATOM     22  C   LIG d   1       4.949  -1.036  -8.322  0.00  0.00     0.173 C 
ATOM     23  H   LIG d   1       4.660  -2.091 -10.181  0.00  0.00     0.081 H 
ATOM     24  H   LIG d   1       4.764  -0.065  -8.781  0.00  0.00     0.080 H 
ATOM     25  H   LIG d   1       6.876  -1.242  -9.265  0.00  0.00     0.069 H 
BRANCH  17  26
ATOM     26  O   LIG d   1       4.067  -3.578  -7.231  0.00  0.00    -0.455 OA
BRANCH  26  27
ATOM     27  C   LIG d   1       4.007  -4.795  -6.668  0.00  0.00     0.304 C 
ATOM     28  O   LIG d   1       3.397  -5.683  -7.215  0.00  0.00    -0.251 OA
BRANCH  27  29
ATOM     29  C   LIG d   1       4.700  -5.054  -5.355  0.00  0.00     0.033 C 
ATOM     30  H   LIG d   1       4.084  -5.711  -4.743  0.00  0.00     0.034 H 
ATOM     31  H   LIG d   1       5.664  -5.527  -5.541  0.00  0.00     0.034 H 
ATOM     32  H   LIG d   1       4.854  -4.108  -4.834  0.00  0.00     0.034 H 
ENDBRANCH  27  29
ENDBRANCH  26  27
ENDBRANCH  17  26
BRANCH  21  33
ATOM     33  O   LIG d   1       2.867  -1.944  -9.161  0.00  0.00    -0.454 OA
BRANCH  33  34
ATOM     34  C   LIG d   1       2.368  -1.089 -10.066  0.00  0.00     0.304 C 
ATOM     35  O   LIG d   1       1.470  -0.341  -9.760  0.00  0.00    -0.251 OA
BRANCH  34  36
ATOM     36  C   LIG d   1       2.931  -1.059 -11.464  0.00  0.00     0.033 C 
ATOM     37  H   LIG d   1       4.018  -1.007 -11.418  0.00  0.00     0.034 H 
ATOM     38  H   LIG d   1       2.631  -1.962 -11.996  0.00  0.00     0.034 H 
ATOM     39  H   LIG d   1       2.548  -0.184 -11.991  0.00  0.00     0.034 H 
ENDBRANCH  34  36
ENDBRANCH  33  34
ENDBRANCH  21  33
BRANCH  22  40
ATOM     40  O   LIG d   1       4.409  -1.049  -6.999  0.00  0.00    -0.455 OA
BRANCH  40  41
ATOM     41  C   LIG d   1       3.671   0.011  -6.632  0.00  0.00     0.304 C 
ATOM     42  O   LIG d   1       3.493   0.921  -7.405  0.00  0.00    -0.251 OA
BRANCH  41  43
ATOM     43  C   LIG d   1       3.063   0.064  -5.253  0.00  0.00     0.033 C 
ATOM     44  H   LIG d   1       2.725   1.080  -5.044  0.00  0.00     0.034 H 
ATOM     45  H   LIG d   1       2.215  -0.619  -5.203  0.00  0.00     0.034 H 
ATOM     46  H   LIG d   1       3.810  -0.229  -4.515  0.00  0.00     0.034 H 
ENDBRANCH  41  43
ENDBRANCH  40  41
ENDBRANCH  22  40
ENDBRANCH   1  14
BRANCH   6  47
ATOM     47  O   LIG d   1       7.634   1.046  -9.310  0.00  0.00    -0.494 OA
BRANCH  47  48
ATOM     48  C   LIG d   1       8.561   0.285 -10.087  0.00  0.00     0.079 C 
ATOM     49  H   LIG d   1       8.023  -0.266 -10.857  0.00  0.00     0.066 H 
ATOM     50  H   LIG d   1       9.282   0.957 -10.555  0.00  0.00     0.066 H 
ATOM     51  H   LIG d   1       9.088  -0.417  -9.439  0.00  0.00     0.066 H 
ENDBRANCH  47  48
ENDBRANCH   6  47
BRANCH   2  52
ATOM     52  O   LIG d   1       6.606  -1.539  -5.457  0.00  0.00    -0.506 OA
ATOM     53  H   LIG d   1       5.696  -1.708  -5.736  0.00  0.00     0.292 HD
ENDBRANCH   2  52
BRANCH  10  54
ATOM     54  C   LIG d   1      10.072   4.676  -4.558  0.00  0.00     0.018 A 
ATOM     55  C   LIG d   1       9.930   4.516  -3.177  0.00  0.00    -0.048 A 
ATOM     56  C   LIG d   1      10.515   5.420  -2.317  0.00  0.00    -0.019 A 
ATOM     57  H   LIG d   1       9.367   3.683  -2.782  0.00  0.00     0.063 H 
ATOM     58  C   LIG d   1      11.235   6.497  -2.823  0.00  0.00     0.124 A 
ATOM     59  H   LIG d   1      10.410   5.294  -1.249  0.00  0.00     0.065 H 
ATOM     60  C   LIG d   1      11.373   6.662  -4.196  0.00  0.00    -0.019 A 
ATOM     61  C   LIG d   1      10.796   5.760  -5.062  0.00  0.00    -0.048 A 
ATOM     62  H   LIG d   1      11.933   7.500  -4.584  0.00  0.00     0.065 H 
ATOM     63  H   LIG d   1      10.904   5.889  -6.129  0.00  0.00     0.063 H 
BRANCH  58  64
ATOM     64  O   LIG d   1      11.804   7.388  -1.973  0.00  0.00    -0.461 OA
BRANCH  64  65
ATOM     65  C   LIG d   1      10.938   8.046  -1.045  0.00  0.00     0.231 C 
ATOM     66  H   LIG d   1      10.462   7.305  -0.405  0.00  0.00     0.108 H 
ATOM     67  O   LIG d   1      11.698   8.951  -0.243  0.00  0.00    -0.331 OA
ATOM     68  C   LIG d   1      10.929   9.647   0.740  0.00  0.00     0.114 C 
ATOM     69  C   LIG d   1       9.856  10.488   0.045  0.00  0.00     0.112 C 
ATOM     70  H   LIG d   1      10.453   8.926   1.405  0.00  0.00     0.065 H 
ATOM     71  C   LIG d   1       8.978   9.573  -0.814  0.00  0.00     0.115 C 
ATOM     72  H   LIG d   1       9.240  10.985   0.796  0.00  0.00     0.065 H 
ATOM     73  C   LIG d   1       9.864   8.823  -1.812  0.00  0.00     0.145 C 
ATOM     74  H   LIG d   1       8.462   8.857  -0.175  0.00  0.00     0.065 H 
ATOM     75  H   LIG d   1       9.255   8.129  -2.391  0.00  0.00     0.068 H 
BRANCH  68  76
ATOM     76  C   LIG d   1      11.847  10.561   1.554  0.00  0.00     0.073 C 
ATOM     77  H   LIG d   1      12.097  10.079   2.499  0.00  0.00     0.058 H 
ATOM     78  H   LIG d   1      12.760  10.752   0.991  0.00  0.00     0.058 H 
BRANCH  76  79
ATOM     79  O   LIG d   1      11.180  11.798   1.811  0.00  0.00    -0.392 OA
ATOM     80  H   LIG d   1      11.039  12.341   1.023  0.00  0.00     0.209 HD
ENDBRANCH  76  79
ENDBRANCH  68  76
BRANCH  69  81
ATOM     81  O   LIG d   1      10.479  11.469  -0.785  0.00  0.00    -0.387 OA
ATOM     82  H   LIG d   1      11.403  11.273  -1.000  0.00  0.00     0.210 HD
ENDBRANCH  69  81
BRANCH  71  83
ATOM     83  O   LIG d   1       8.017  10.358  -1.524  0.00  0.00    -0.386 OA
ATOM     84  H   LIG d   1       7.165  10.439  -1.073  0.00  0.00     0.210 HD
ENDBRANCH  71  83
BRANCH  73  85
ATOM     85  O   LIG d   1      10.490   9.759  -2.694  0.00  0.00    -0.383 OA
ATOM     86  H   LIG d   1      11.403   9.535  -2.920  0.00  0.00     0.210 HD
ENDBRANCH  73  85
ENDBRANCH  64  65
ENDBRANCH  58  64
ENDBRANCH  10  54
TORSDOF 21
ENDMDL
MODEL 2
REMARK VINA RESULT:      -6.1      3.641      6.151
REMARK  21 active torsions:
REMARK  status: ('A' for Active; 'I' for Inactive)
REMARK    1  A    between atoms: C_1  and  C_2 
REMARK    2  A    between atoms: C_2  and  O_4 
REMARK    3  A    between atoms: O_4  and  C_5 
REMARK    4  A    between atoms: C_9  and  C_23 
REMARK    5  A    between atoms: C_11  and  O_19 
REMARK    6  A    between atoms: C_13  and  O_15 
REMARK    7  A    between atoms: O_15  and  C_16 
REMARK    8  A    between atoms: C_16  and  C_18 
REMARK    9  A    between atoms: O_19  and  C_20 
REMARK   10  A    between atoms: C_20  and  C_22 
REMARK   11  A    between atoms: C_24  and  O_59 
REMARK   12  A    between atoms: C_28  and  O_29 
REMARK   13  A    between atoms: O_29  and  C_30 
REMARK   14  A    between atoms: C_34  and  C_36 
REMARK   15  A    between atoms: C_39  and  O_42 
REMARK   16  A    between atoms: O_42  and  C_43 
REMARK   17  A    between atoms: C_45  and  O_58 
REMARK   18  A    between atoms: C_47  and  O_57 
REMARK   19  A    between atoms: C_49  and  O_56 
REMARK   20  A    between atoms: C_51  and  C_54 
REMARK   21  A    between atoms: C_54  and  O_55 
ROOT
ATOM      1  C   LIG d   1      10.158   2.907  -4.829  0.00  0.00     0.069 A 
ATOM      2  C   LIG d   1      10.739   2.239  -3.758  0.00  0.00     0.130 A 
ATOM      3  C   LIG d   1      10.998   2.901  -2.568  0.00  0.00     0.024 A 
ATOM      4  C   LIG d   1      10.678   4.244  -2.438  0.00  0.00     0.146 A 
ATOM      5  C   LIG d   1      10.091   4.923  -3.521  0.00  0.00     0.106 A 
ATOM      6  C   LIG d   1       9.838   4.248  -4.720  0.00  0.00     0.144 A 
ATOM      7  C   LIG d   1       9.761   6.348  -3.359  0.00  0.00     0.197 A 
ATOM      8  O   LIG d   1       9.249   6.987  -4.266  0.00  0.00    -0.287 OA
ATOM      9  C   LIG d   1      10.057   6.949  -2.113  0.00  0.00     0.029 A 
ATOM     10  C   LIG d   1      10.625   6.204  -1.127  0.00  0.00     0.139 A 
ATOM     11  O   LIG d   1      10.923   4.905  -1.287  0.00  0.00    -0.454 OA
ATOM     12  H   LIG d   1      11.449   2.372  -1.741  0.00  0.00     0.069 H 
ATOM     13  H   LIG d   1       9.834   7.993  -1.945  0.00  0.00     0.069 H 
ENDROOT
BRANCH   1  14
ATOM     14  C   LIG d   1       9.885   2.171  -6.116  0.00  0.00     0.131 C 
ATOM     15  O   LIG d   1      10.886   1.172  -6.315  0.00  0.00    -0.364 OA
ATOM     16  C   LIG d   1      10.734   0.427  -7.526  0.00  0.00     0.089 C 
ATOM     17  C   LIG d   1       9.392  -0.309  -7.506  0.00  0.00     0.166 C 
ATOM     18  H   LIG d   1      11.545  -0.297  -7.611  0.00  0.00     0.060 H 
ATOM     19  H   LIG d   1      10.763   1.108  -8.377  0.00  0.00     0.060 H 
ATOM     20  H   LIG d   1       9.256  -0.843  -8.446  0.00  0.00     0.080 H 
ATOM     21  C   LIG d   1       8.261   0.708  -7.326  0.00  0.00     0.181 C 
ATOM     22  C   LIG d   1       8.508   1.504  -6.039  0.00  0.00     0.173 C 
ATOM     23  H   LIG d   1       8.244   1.388  -8.178  0.00  0.00     0.081 H 
ATOM     24  H   LIG d   1       7.739   2.269  -5.931  0.00  0.00     0.080 H 
ATOM     25  H   LIG d   1       9.902   2.874  -6.948  0.00  0.00     0.069 H 
BRANCH  17  26
ATOM     26  O   LIG d   1       9.374  -1.240  -6.422  0.00  0.00    -0.455 OA
BRANCH  26  27
ATOM     27  C   LIG d   1      10.210  -2.287  -6.503  0.00  0.00     0.304 C 
ATOM     28  O   LIG d   1      10.180  -3.010  -7.471  0.00  0.00    -0.251 OA
BRANCH  27  29
ATOM     29  C   LIG d   1      11.187  -2.560  -5.388  0.00  0.00     0.033 C 
ATOM     30  H   LIG d   1      10.911  -1.974  -4.512  0.00  0.00     0.034 H 
ATOM     31  H   LIG d   1      11.165  -3.620  -5.138  0.00  0.00     0.034 H 
ATOM     32  H   LIG d   1      12.191  -2.283  -5.709  0.00  0.00     0.034 H 
ENDBRANCH  27  29
ENDBRANCH  26  27
ENDBRANCH  17  26
BRANCH  21  33
ATOM     33  O   LIG d   1       7.011   0.022  -7.234  0.00  0.00    -0.454 OA
BRANCH  33  34
ATOM     34  C   LIG d   1       5.950   0.609  -7.808  0.00  0.00     0.304 C 
ATOM     35  O   LIG d   1       4.861   0.528  -7.290  0.00  0.00    -0.251 OA
BRANCH  34  36
ATOM     36  C   LIG d   1       6.118   1.373  -9.096  0.00  0.00     0.033 C 
ATOM     37  H   LIG d   1       5.906   0.716  -9.939  0.00  0.00     0.034 H 
ATOM     38  H   LIG d   1       5.428   2.217  -9.111  0.00  0.00     0.034 H 
ATOM     39  H   LIG d   1       7.142   1.740  -9.170  0.00  0.00     0.034 H 
ENDBRANCH  34  36
ENDBRANCH  33  34
ENDBRANCH  21  33
BRANCH  22  40
ATOM     40  O   LIG d   1       8.466   0.624  -4.916  0.00  0.00    -0.455 OA
BRANCH  40  41
ATOM     41  C   LIG d   1       7.382   0.693  -4.127  0.00  0.00     0.304 C 
ATOM     42  O   LIG d   1       6.854   1.759  -3.918  0.00  0.00    -0.251 OA
BRANCH  41  43
ATOM     43  C   LIG d   1       6.824  -0.560  -3.501  0.00  0.00     0.033 C 
ATOM     44  H   LIG d   1       6.634  -1.300  -4.278  0.00  0.00     0.034 H 
ATOM     45  H   LIG d   1       7.542  -0.960  -2.785  0.00  0.00     0.034 H 
ATOM     46  H   LIG d   1       5.891  -0.325  -2.988  0.00  0.00     0.034 H 
ENDBRANCH  41  43
ENDBRANCH  40  41
ENDBRANCH  22  40
ENDBRANCH   1  14
BRANCH   6  47
ATOM     47  O   LIG d   1       9.277   4.904  -5.768  0.00  0.00    -0.494 OA
BRANCH  47  48
ATOM     48  C   LIG d   1      10.144   5.281  -6.839  0.00  0.00     0.079 C 
ATOM     49  H   LIG d   1      10.926   5.939  -6.459  0.00  0.00     0.066 H 
ATOM     50  H   LIG d   1      10.597   4.389  -7.272  0.00  0.00     0.066 H 
ATOM     51  H   LIG d   1       9.570   5.805  -7.604  0.00  0.00     0.066 H 
ENDBRANCH  47  48
ENDBRANCH   6  47
BRANCH   2  52
ATOM     52  O   LIG d   1      11.055   0.924  -3.877  0.00  0.00    -0.506 OA
ATOM     53  H   LIG d   1      10.355   0.324  -3.587  0.00  0.00     0.292 HD
ENDBRANCH   2  52
BRANCH  10  54
ATOM     54  C   LIG d   1      10.929   6.849   0.164  0.00  0.00     0.018 A 
ATOM     55  C   LIG d   1      11.196   8.219   0.217  0.00  0.00    -0.048 A 
ATOM     56  C   LIG d   1      11.475   8.819   1.426  0.00  0.00    -0.019 A 
ATOM     57  H   LIG d   1      11.181   8.810  -0.687  0.00  0.00     0.063 H 
ATOM     58  C   LIG d   1      11.501   8.060   2.590  0.00  0.00     0.124 A 
ATOM     59  H   LIG d   1      11.676   9.879   1.468  0.00  0.00     0.065 H 
ATOM     60  C   LIG d   1      11.241   6.695   2.541  0.00  0.00    -0.019 A 
ATOM     61  C   LIG d   1      10.956   6.089   1.337  0.00  0.00    -0.048 A 
ATOM     62  H   LIG d   1      11.262   6.109   3.448  0.00  0.00     0.065 H 
ATOM     63  H   LIG d   1      10.754   5.029   1.300  0.00  0.00     0.063 H 
BRANCH  58  64
ATOM     64  O   LIG d   1      11.781   8.653   3.778  0.00  0.00    -0.461 OA
BRANCH  64  65
ATOM     65  C   LIG d   1      12.064   7.791   4.883  0.00  0.00     0.231 C 
ATOM     66  H   LIG d   1      11.925   6.754   4.580  0.00  0.00     0.108 H 
ATOM     67  O   LIG d   1      13.414   7.988   5.307  0.00  0.00    -0.331 OA
ATOM     68  C   LIG d   1      13.811   7.152   6.396  0.00  0.00     0.114 C 
ATOM     69  C   LIG d   1      12.933   7.451   7.613  0.00  0.00     0.112 C 
ATOM     70  H   LIG d   1      13.696   6.106   6.112  0.00  0.00     0.065 H 
ATOM     71  C   LIG d   1      11.464   7.231   7.240  0.00  0.00     0.115 C 
ATOM     72  H   LIG d   1      13.205   6.784   8.432  0.00  0.00     0.065 H 
ATOM     73  C   LIG d   1      11.114   8.116   6.040  0.00  0.00     0.145 C 
ATOM     74  H   LIG d   1      11.307   6.184   6.979  0.00  0.00     0.065 H 
ATOM     75  H   LIG d   1      10.086   7.925   5.733  0.00  0.00     0.068 H 
BRANCH  68  76
ATOM     76  C   LIG d   1      15.275   7.428   6.743  0.00  0.00     0.073 C 
ATOM     77  H   LIG d   1      15.350   8.377   7.276  0.00  0.00     0.058 H 
ATOM     78  H   LIG d   1      15.656   6.626   7.375  0.00  0.00     0.058 H 
BRANCH  76  79
ATOM     79  O   LIG d   1      16.045   7.494   5.542  0.00  0.00    -0.392 OA
ATOM     80  H   LIG d   1      16.993   7.345   5.672  0.00  0.00     0.209 HD
ENDBRANCH  76  79
ENDBRANCH  68  76
BRANCH  69  81
ATOM     81  O   LIG d   1      13.123   8.807   8.020  0.00  0.00    -0.387 OA
ATOM     82  H   LIG d   1      13.025   8.951   8.972  0.00  0.00     0.210 HD
ENDBRANCH  69  81
BRANCH  71  83
ATOM     83  O   LIG d   1      10.629   7.576   8.348  0.00  0.00    -0.386 OA
ATOM     84  H   LIG d   1      11.067   7.501   9.207  0.00  0.00     0.210 HD
ENDBRANCH  71  83
BRANCH  73  85
ATOM     85  O   LIG d   1      11.256   9.491   6.403  0.00  0.00    -0.383 OA
ATOM     86  H   LIG d   1      10.501  10.042   6.156  0.00  0.00     0.210 HD
ENDBRANCH  73  85
ENDBRANCH  64  65
ENDBRANCH  58  64
ENDBRANCH  10  54
TORSDOF 21
ENDMDL
MODEL 3
REMARK VINA RESULT:      -6.0      1.392      2.105
REMARK  21 active torsions:
REMARK  status: ('A' for Active; 'I' for Inactive)
REMARK    1  A    between atoms: C_1  and  C_2 
REMARK    2  A    between atoms: C_2  and  O_4 
REMARK    3  A    between atoms: O_4  and  C_5 
REMARK    4  A    between atoms: C_9  and  C_23 
REMARK    5  A    between atoms: C_11  and  O_19 
REMARK    6  A    between atoms: C_13  and  O_15 
REMARK    7  A    between atoms: O_15  and  C_16 
REMARK    8  A    between atoms: C_16  and  C_18 
REMARK    9  A    between atoms: O_19  and  C_20 
REMARK   10  A    between atoms: C_20  and  C_22 
REMARK   11  A    between atoms: C_24  and  O_59 
REMARK   12  A    between atoms: C_28  and  O_29 
REMARK   13  A    between atoms: O_29  and  C_30 
REMARK   14  A    between atoms: C_34  and  C_36 
REMARK   15  A    between atoms: C_39  and  O_42 
REMARK   16  A    between atoms: O_42  and  C_43 
REMARK   17  A    between atoms: C_45  and  O_58 
REMARK   18  A    between atoms: C_47  and  O_57 
REMARK   19  A    between atoms: C_49  and  O_56 
REMARK   20  A    between atoms: C_51  and  C_54 
REMARK   21  A    between atoms: C_54  and  O_55 
ROOT
ATOM      1  C   LIG d   1       7.255  -0.241  -6.509  0.00  0.00     0.069 A 
ATOM      2  C   LIG d   1       7.002  -0.198  -5.143  0.00  0.00     0.130 A 
ATOM      3  C   LIG d   1       7.446   0.867  -4.374  0.00  0.00     0.024 A 
ATOM      4  C   LIG d   1       8.151   1.903  -4.966  0.00  0.00     0.146 A 
ATOM      5  C   LIG d   1       8.409   1.862  -6.348  0.00  0.00     0.106 A 
ATOM      6  C   LIG d   1       7.962   0.781  -7.116  0.00  0.00     0.144 A 
ATOM      7  C   LIG d   1       9.160   2.974  -6.955  0.00  0.00     0.197 A 
ATOM      8  O   LIG d   1       9.411   2.991  -8.150  0.00  0.00    -0.287 OA
ATOM      9  C   LIG d   1       9.577   4.022  -6.101  0.00  0.00     0.029 A 
ATOM     10  C   LIG d   1       9.275   3.967  -4.776  0.00  0.00     0.139 A 
ATOM     11  O   LIG d   1       8.590   2.948  -4.234  0.00  0.00    -0.454 OA
ATOM     12  H   LIG d   1       7.243   0.890  -3.313  0.00  0.00     0.069 H 
ATOM     13  H   LIG d   1      10.131   4.860  -6.498  0.00  0.00     0.069 H 
ENDROOT
BRANCH   1  14
ATOM     14  C   LIG d   1       6.765  -1.407  -7.328  0.00  0.00     0.131 C 
ATOM     15  O   LIG d   1       6.873  -2.607  -6.562  0.00  0.00    -0.364 OA
ATOM     16  C   LIG d   1       6.456  -3.784  -7.258  0.00  0.00     0.089 C 
ATOM     17  C   LIG d   1       4.979  -3.652  -7.641  0.00  0.00     0.166 C 
ATOM     18  H   LIG d   1       6.588  -4.653  -6.613  0.00  0.00     0.060 H 
ATOM     19  H   LIG d   1       7.056  -3.905  -8.159  0.00  0.00     0.060 H 
ATOM     20  H   LIG d   1       4.672  -4.530  -8.209  0.00  0.00     0.080 H 
ATOM     21  C   LIG d   1       4.791  -2.395  -8.497  0.00  0.00     0.181 C 
ATOM     22  C   LIG d   1       5.301  -1.180  -7.715  0.00  0.00     0.173 C 
ATOM     23  H   LIG d   1       5.357  -2.497  -9.423  0.00  0.00     0.081 H 
ATOM     24  H   LIG d   1       5.223  -0.288  -8.337  0.00  0.00     0.080 H 
ATOM     25  H   LIG d   1       7.369  -1.496  -8.231  0.00  0.00     0.069 H 
BRANCH  17  26
ATOM     26  O   LIG d   1       4.186  -3.547  -6.457  0.00  0.00    -0.455 OA
BRANCH  26  27
ATOM     27  C   LIG d   1       4.455  -4.409  -5.465  0.00  0.00     0.304 C 
ATOM     28  O   LIG d   1       4.704  -3.996  -4.357  0.00  0.00    -0.251 OA
BRANCH  27  29
ATOM     29  C   LIG d   1       4.447  -5.892  -5.732  0.00  0.00     0.033 C 
ATOM     30  H   LIG d   1       4.224  -6.071  -6.783  0.00  0.00     0.034 H 
ATOM     31  H   LIG d   1       5.424  -6.311  -5.491  0.00  0.00     0.034 H 
ATOM     32  H   LIG d   1       3.685  -6.368  -5.113  0.00  0.00     0.034 H 
ENDBRANCH  27  29
ENDBRANCH  26  27
ENDBRANCH  17  26
BRANCH  21  33
ATOM     33  O   LIG d   1       3.405  -2.226  -8.798  0.00  0.00    -0.454 OA
BRANCH  33  34
ATOM     34  C   LIG d   1       3.103  -1.574  -9.931  0.00  0.00     0.304 C 
ATOM     35  O   LIG d   1       3.822  -1.674 -10.896  0.00  0.00    -0.251 OA
BRANCH  34  36
ATOM     36  C   LIG d   1       1.865  -0.717  -9.999  0.00  0.00     0.033 C 
ATOM     37  H   LIG d   1       1.215  -1.078 -10.795  0.00  0.00     0.034 H 
ATOM     38  H   LIG d   1       1.336  -0.766  -9.047  0.00  0.00     0.034 H 
ATOM     39  H   LIG d   1       2.148   0.317 -10.202  0.00  0.00     0.034 H 
ENDBRANCH  34  36
ENDBRANCH  33  34
ENDBRANCH  21  33
BRANCH  22  40
ATOM     40  O   LIG d   1       4.517  -1.007  -6.534  0.00  0.00    -0.455 OA
BRANCH  40  41
ATOM     41  C   LIG d   1       3.686   0.047  -6.501  0.00  0.00     0.304 C 
ATOM     42  O   LIG d   1       3.701   0.856  -7.398  0.00  0.00    -0.251 OA
BRANCH  41  43
ATOM     43  C   LIG d   1       2.735   0.222  -5.345  0.00  0.00     0.033 C 
ATOM     44  H   LIG d   1       2.183  -0.704  -5.186  0.00  0.00     0.034 H 
ATOM     45  H   LIG d   1       3.298   0.470  -4.445  0.00  0.00     0.034 H 
ATOM     46  H   LIG d   1       2.035   1.028  -5.569  0.00  0.00     0.034 H 
ENDBRANCH  41  43
ENDBRANCH  40  41
ENDBRANCH  22  40
ENDBRANCH   1  14
BRANCH   6  47
ATOM     47  O   LIG d   1       8.216   0.738  -8.449  0.00  0.00    -0.494 OA
BRANCH  47  48
ATOM     48  C   LIG d   1       7.196   1.231  -9.320  0.00  0.00     0.079 C 
ATOM     49  H   LIG d   1       7.647   1.858 -10.089  0.00  0.00     0.066 H 
ATOM     50  H   LIG d   1       6.682   0.392  -9.790  0.00  0.00     0.066 H 
ATOM     51  H   LIG d   1       6.481   1.819  -8.745  0.00  0.00     0.066 H 
ENDBRANCH  47  48
ENDBRANCH   6  47
BRANCH   2  52
ATOM     52  O   LIG d   1       6.311  -1.209  -4.555  0.00  0.00    -0.506 OA
ATOM     53  H   LIG d   1       6.007  -1.888  -5.172  0.00  0.00     0.292 HD
ENDBRANCH   2  52
BRANCH  10  54
ATOM     54  C   LIG d   1       9.720   5.068  -3.901  0.00  0.00     0.018 A 
ATOM     55  C   LIG d   1       9.927   4.840  -2.538  0.00  0.00    -0.048 A 
ATOM     56  C   LIG d   1      10.346   5.870  -1.725  0.00  0.00    -0.019 A 
ATOM     57  H   LIG d   1       9.762   3.857  -2.122  0.00  0.00     0.063 H 
ATOM     58  C   LIG d   1      10.552   7.138  -2.257  0.00  0.00     0.124 A 
ATOM     59  H   LIG d   1      10.512   5.693  -0.672  0.00  0.00     0.065 H 
ATOM     60  C   LIG d   1      10.342   7.370  -3.611  0.00  0.00    -0.019 A 
ATOM     61  C   LIG d   1       9.928   6.345  -4.431  0.00  0.00    -0.048 A 
ATOM     62  H   LIG d   1      10.503   8.357  -4.020  0.00  0.00     0.065 H 
ATOM     63  H   LIG d   1       9.765   6.526  -5.484  0.00  0.00     0.063 H 
BRANCH  58  64
ATOM     64  O   LIG d   1      10.960   8.151  -1.451  0.00  0.00    -0.461 OA
BRANCH  64  65
ATOM     65  C   LIG d   1      11.120   9.437  -2.055  0.00  0.00     0.231 C 
ATOM     66  H   LIG d   1      11.711   9.339  -2.965  0.00  0.00     0.108 H 
ATOM     67  O   LIG d   1       9.836   9.975  -2.376  0.00  0.00    -0.331 OA
ATOM     68  C   LIG d   1       9.882  11.254  -3.011  0.00  0.00     0.114 C 
ATOM     69  C   LIG d   1      10.548  12.265  -2.074  0.00  0.00     0.112 C 
ATOM     70  H   LIG d   1      10.456  11.180  -3.935  0.00  0.00     0.065 H 
ATOM     71  C   LIG d   1      11.949  11.765  -1.710  0.00  0.00     0.115 C 
ATOM     72  H   LIG d   1      10.623  13.230  -2.574  0.00  0.00     0.065 H 
ATOM     73  C   LIG d   1      11.836  10.374  -1.079  0.00  0.00     0.145 C 
ATOM     74  H   LIG d   1      12.561  11.709  -2.610  0.00  0.00     0.065 H 
ATOM     75  H   LIG d   1      12.833   9.988  -0.868  0.00  0.00     0.068 H 
BRANCH  68  76
ATOM     76  C   LIG d   1       8.459  11.716  -3.331  0.00  0.00     0.073 C 
ATOM     77  H   LIG d   1       8.407  12.804  -3.269  0.00  0.00     0.058 H 
ATOM     78  H   LIG d   1       8.191  11.397  -4.338  0.00  0.00     0.058 H 
BRANCH  76  79
ATOM     79  O   LIG d   1       7.549  11.141  -2.392  0.00  0.00    -0.392 OA
ATOM     80  H   LIG d   1       7.175  10.294  -2.673  0.00  0.00     0.209 HD
ENDBRANCH  76  79
ENDBRANCH  68  76
BRANCH  69  81
ATOM     81  O   LIG d   1       9.767  12.402  -0.886  0.00  0.00    -0.387 OA
ATOM     82  H   LIG d   1       8.973  12.944  -0.997  0.00  0.00     0.210 HD
ENDBRANCH  69  81
BRANCH  71  83
ATOM     83  O   LIG d   1      12.553  12.665  -0.778  0.00  0.00    -0.386 OA
ATOM     84  H   LIG d   1      12.021  13.451  -0.590  0.00  0.00     0.210 HD
ENDBRANCH  71  83
BRANCH  73  85
ATOM     85  O   LIG d   1      11.089  10.459   0.137  0.00  0.00    -0.383 OA
ATOM     86  H   LIG d   1      10.528   9.691   0.307  0.00  0.00     0.210 HD
ENDBRANCH  73  85
ENDBRANCH  64  65
ENDBRANCH  58  64
ENDBRANCH  10  54
TORSDOF 21
ENDMDL
MODEL 4
REMARK VINA RESULT:      -5.9      2.434     12.831
REMARK  21 active torsions:
REMARK  status: ('A' for Active; 'I' for Inactive)
REMARK    1  A    between atoms: C_1  and  C_2 
REMARK    2  A    between atoms: C_2  and  O_4 
REMARK    3  A    between atoms: O_4  and  C_5 
REMARK    4  A    between atoms: C_9  and  C_23 
REMARK    5  A    between atoms: C_11  and  O_19 
REMARK    6  A    between atoms: C_13  and  O_15 
REMARK    7  A    between atoms: O_15  and  C_16 
REMARK    8  A    between atoms: C_16  and  C_18 
REMARK    9  A    between atoms: O_19  and  C_20 
REMARK   10  A    between atoms: C_20  and  C_22 
REMARK   11  A    between atoms: C_24  and  O_59 
REMARK   12  A    between atoms: C_28  and  O_29 
REMARK   13  A    between atoms: O_29  and  C_30 
REMARK   14  A    between atoms: C_34  and  C_36 
REMARK   15  A    between atoms: C_39  and  O_42 
REMARK   16  A    between atoms: O_42  and  C_43 
REMARK   17  A    between atoms: C_45  and  O_58 
REMARK   18  A    between atoms: C_47  and  O_57 
REMARK   19  A    between atoms: C_49  and  O_56 
REMARK   20  A    between atoms: C_51  and  C_54 
REMARK   21  A    between atoms: C_54  and  O_55 
ROOT
ATOM      1  C   LIG d   1      11.178   7.750  -3.796  0.00  0.00     0.069 A 
ATOM      2  C   LIG d   1       9.911   7.744  -4.369  0.00  0.00     0.130 A 
ATOM      3  C   LIG d   1       9.333   6.558  -4.795  0.00  0.00     0.024 A 
ATOM      4  C   LIG d   1      10.019   5.362  -4.652  0.00  0.00     0.146 A 
ATOM      5  C   LIG d   1      11.301   5.365  -4.074  0.00  0.00     0.106 A 
ATOM      6  C   LIG d   1      11.880   6.567  -3.652  0.00  0.00     0.144 A 
ATOM      7  C   LIG d   1      12.010   4.082  -3.933  0.00  0.00     0.197 A 
ATOM      8  O   LIG d   1      13.125   4.026  -3.437  0.00  0.00    -0.287 OA
ATOM      9  C   LIG d   1      11.350   2.919  -4.393  0.00  0.00     0.029 A 
ATOM     10  C   LIG d   1      10.109   3.022  -4.937  0.00  0.00     0.139 A 
ATOM     11  O   LIG d   1       9.472   4.198  -5.061  0.00  0.00    -0.454 OA
ATOM     12  H   LIG d   1       8.348   6.565  -5.238  0.00  0.00     0.069 H 
ATOM     13  H   LIG d   1      11.830   1.953  -4.311  0.00  0.00     0.069 H 
ENDROOT
BRANCH   1  14
ATOM     14  C   LIG d   1      11.790   9.049  -3.340  0.00  0.00     0.131 C 
ATOM     15  O   LIG d   1      11.225  10.130  -4.083  0.00  0.00    -0.364 OA
ATOM     16  C   LIG d   1      11.758  11.412  -3.745  0.00  0.00     0.089 C 
ATOM     17  C   LIG d   1      11.470  11.710  -2.271  0.00  0.00     0.166 C 
ATOM     18  H   LIG d   1      11.291  12.176  -4.368  0.00  0.00     0.060 H 
ATOM     19  H   LIG d   1      12.835  11.414  -3.913  0.00  0.00     0.060 H 
ATOM     20  H   LIG d   1      11.913  12.669  -2.000  0.00  0.00     0.080 H 
ATOM     21  C   LIG d   1      12.078  10.602  -1.405  0.00  0.00     0.181 C 
ATOM     22  C   LIG d   1      11.504   9.252  -1.849  0.00  0.00     0.173 C 
ATOM     23  H   LIG d   1      13.161  10.596  -1.528  0.00  0.00     0.081 H 
ATOM     24  H   LIG d   1      11.972   8.451  -1.276  0.00  0.00     0.080 H 
ATOM     25  H   LIG d   1      12.867   9.019  -3.501  0.00  0.00     0.069 H 
BRANCH  17  26
ATOM     26  O   LIG d   1      10.058  11.760  -2.060  0.00  0.00    -0.455 OA
BRANCH  26  27
ATOM     27  C   LIG d   1       9.398  12.799  -2.596  0.00  0.00     0.304 C 
ATOM     28  O   LIG d   1       8.506  12.605  -3.388  0.00  0.00    -0.251 OA
BRANCH  27  29
ATOM     29  C   LIG d   1       9.770  14.208  -2.209  0.00  0.00     0.033 C 
ATOM     30  H   LIG d   1       9.329  14.448  -1.242  0.00  0.00     0.034 H 
ATOM     31  H   LIG d   1      10.855  14.293  -2.146  0.00  0.00     0.034 H 
ATOM     32  H   LIG d   1       9.395  14.902  -2.962  0.00  0.00     0.034 H 
ENDBRANCH  27  29
ENDBRANCH  26  27
ENDBRANCH  17  26
BRANCH  21  33
ATOM     33  O   LIG d   1      11.751  10.835  -0.033  0.00  0.00    -0.454 OA
BRANCH  33  34
ATOM     34  C   LIG d   1      12.619  10.382   0.885  0.00  0.00     0.304 C 
ATOM     35  O   LIG d   1      13.807  10.460   0.683  0.00  0.00    -0.251 OA
BRANCH  34  36
ATOM     36  C   LIG d   1      12.109   9.777   2.168  0.00  0.00     0.033 C 
ATOM     37  H   LIG d   1      11.021   9.723   2.138  0.00  0.00     0.034 H 
ATOM     38  H   LIG d   1      12.520   8.774   2.285  0.00  0.00     0.034 H 
ATOM     39  H   LIG d   1      12.420  10.396   3.010  0.00  0.00     0.034 H 
ENDBRANCH  34  36
ENDBRANCH  33  34
ENDBRANCH  21  33
BRANCH  22  40
ATOM     40  O   LIG d   1      10.093   9.235  -1.627  0.00  0.00    -0.455 OA
BRANCH  40  41
ATOM     41  C   LIG d   1       9.605   8.234  -0.878  0.00  0.00     0.304 C 
ATOM     42  O   LIG d   1       8.412   8.064  -0.798  0.00  0.00    -0.251 OA
BRANCH  41  43
ATOM     43  C   LIG d   1      10.547   7.320  -0.136  0.00  0.00     0.033 C 
ATOM     44  H   LIG d   1      10.731   7.720   0.861  0.00  0.00     0.034 H 
ATOM     45  H   LIG d   1      10.101   6.328  -0.053  0.00  0.00     0.034 H 
ATOM     46  H   LIG d   1      11.490   7.251  -0.679  0.00  0.00     0.034 H 
ENDBRANCH  41  43
ENDBRANCH  40  41
ENDBRANCH  22  40
ENDBRANCH   1  14
BRANCH   6  47
ATOM     47  O   LIG d   1      13.120   6.572  -3.098  0.00  0.00    -0.494 OA
BRANCH  47  48
ATOM     48  C   LIG d   1      14.197   7.018  -3.922  0.00  0.00     0.079 C 
ATOM     49  H   LIG d   1      14.376   8.078  -3.743  0.00  0.00     0.066 H 
ATOM     50  H   LIG d   1      15.097   6.451  -3.684  0.00  0.00     0.066 H 
ATOM     51  H   LIG d   1      13.939   6.866  -4.971  0.00  0.00     0.066 H 
ENDBRANCH  47  48
ENDBRANCH   6  47
BRANCH   2  52
ATOM     52  O   LIG d   1       9.232   8.911  -4.512  0.00  0.00    -0.506 OA
ATOM     53  H   LIG d   1       9.798   9.694  -4.534  0.00  0.00     0.292 HD
ENDBRANCH   2  52
BRANCH  10  54
ATOM     54  C   LIG d   1       9.438   1.798  -5.412  0.00  0.00     0.018 A 
ATOM     55  C   LIG d   1       8.249   1.889  -6.142  0.00  0.00    -0.048 A 
ATOM     56  C   LIG d   1       7.628   0.743  -6.588  0.00  0.00    -0.019 A 
ATOM     57  H   LIG d   1       7.820   2.856  -6.361  0.00  0.00     0.063 H 
ATOM     58  C   LIG d   1       8.175  -0.502  -6.303  0.00  0.00     0.124 A 
ATOM     59  H   LIG d   1       6.712   0.813  -7.157  0.00  0.00     0.065 H 
ATOM     60  C   LIG d   1       9.354  -0.597  -5.572  0.00  0.00    -0.019 A 
ATOM     61  C   LIG d   1       9.984   0.543  -5.128  0.00  0.00    -0.048 A 
ATOM     62  H   LIG d   1       9.775  -1.567  -5.352  0.00  0.00     0.065 H 
ATOM     63  H   LIG d   1      10.900   0.469  -4.560  0.00  0.00     0.063 H 
BRANCH  58  64
ATOM     64  O   LIG d   1       7.557  -1.629  -6.739  0.00  0.00    -0.461 OA
BRANCH  64  65
ATOM     65  C   LIG d   1       6.872  -2.415  -5.760  0.00  0.00     0.231 C 
ATOM     66  H   LIG d   1       7.553  -3.163  -5.356  0.00  0.00     0.108 H 
ATOM     67  O   LIG d   1       6.413  -1.568  -4.706  0.00  0.00    -0.331 OA
ATOM     68  C   LIG d   1       5.733  -2.261  -3.656  0.00  0.00     0.114 C 
ATOM     69  C   LIG d   1       4.491  -2.952  -4.223  0.00  0.00     0.112 C 
ATOM     70  H   LIG d   1       6.400  -3.007  -3.223  0.00  0.00     0.065 H 
ATOM     71  C   LIG d   1       4.914  -3.904  -5.345  0.00  0.00     0.115 C 
ATOM     72  H   LIG d   1       3.996  -3.517  -3.433  0.00  0.00     0.065 H 
ATOM     73  C   LIG d   1       5.675  -3.113  -6.412  0.00  0.00     0.145 C 
ATOM     74  H   LIG d   1       5.559  -4.683  -4.939  0.00  0.00     0.065 H 
ATOM     75  H   LIG d   1       6.028  -3.793  -7.188  0.00  0.00     0.068 H 
BRANCH  68  76
ATOM     76  C   LIG d   1       5.313  -1.263  -2.575  0.00  0.00     0.073 C 
ATOM     77  H   LIG d   1       6.152  -1.082  -1.902  0.00  0.00     0.058 H 
ATOM     78  H   LIG d   1       5.015  -0.325  -3.043  0.00  0.00     0.058 H 
BRANCH  76  79
ATOM     79  O   LIG d   1       4.214  -1.797  -1.835  0.00  0.00    -0.392 OA
ATOM     80  H   LIG d   1       4.378  -1.871  -0.884  0.00  0.00     0.209 HD
ENDBRANCH  76  79
ENDBRANCH  68  76
BRANCH  69  81
ATOM     81  O   LIG d   1       3.592  -1.971  -4.743  0.00  0.00    -0.387 OA
ATOM     82  H   LIG d   1       3.253  -1.355  -4.077  0.00  0.00     0.210 HD
ENDBRANCH  69  81
BRANCH  71  83
ATOM     83  O   LIG d   1       3.754  -4.502  -5.930  0.00  0.00    -0.386 OA
ATOM     84  H   LIG d   1       3.706  -5.461  -5.816  0.00  0.00     0.210 HD
ENDBRANCH  71  83
BRANCH  73  85
ATOM     85  O   LIG d   1       4.810  -2.135  -6.992  0.00  0.00    -0.383 OA
ATOM     86  H   LIG d   1       3.913  -2.140  -6.630  0.00  0.00     0.210 HD
ENDBRANCH  73  85
ENDBRANCH  64  65
ENDBRANCH  58  64
ENDBRANCH  10  54
TORSDOF 21
ENDMDL
MODEL 5
REMARK VINA RESULT:      -5.9      2.551     13.041
REMARK  21 active torsions:
REMARK  status: ('A' for Active; 'I' for Inactive)
REMARK    1  A    between atoms: C_1  and  C_2 
REMARK    2  A    between atoms: C_2  and  O_4 
REMARK    3  A    between atoms: O_4  and  C_5 
REMARK    4  A    between atoms: C_9  and  C_23 
REMARK    5  A    between atoms: C_11  and  O_19 
REMARK    6  A    between atoms: C_13  and  O_15 
REMARK    7  A    between atoms: O_15  and  C_16 
REMARK    8  A    between atoms: C_16  and  C_18 
REMARK    9  A    between atoms: O_19  and  C_20 
REMARK   10  A    between atoms: C_20  and  C_22 
REMARK   11  A    between atoms: C_24  and  O_59 
REMARK   12  A    between atoms: C_28  and  O_29 
REMARK   13  A    between atoms: O_29  and  C_30 
REMARK   14  A    between atoms: C_34  and  C_36 
REMARK   15  A    between atoms: C_39  and  O_42 
REMARK   16  A    between atoms: O_42  and  C_43 
REMARK   17  A    between atoms: C_45  and  O_58 
REMARK   18  A    between atoms: C_47  and  O_57 
REMARK   19  A    between atoms: C_49  and  O_56 
REMARK   20  A    between atoms: C_51  and  C_54 
REMARK   21  A    between atoms: C_54  and  O_55 
ROOT
ATOM      1  C   LIG d   1      10.747   6.544  -4.319  0.00  0.00     0.069 A 
ATOM      2  C   LIG d   1       9.392   6.478  -4.623  0.00  0.00     0.130 A 
ATOM      3  C   LIG d   1       8.737   5.258  -4.676  0.00  0.00     0.024 A 
ATOM      4  C   LIG d   1       9.434   4.086  -4.425  0.00  0.00     0.146 A 
ATOM      5  C   LIG d   1      10.805   4.149  -4.118  0.00  0.00     0.106 A 
ATOM      6  C   LIG d   1      11.460   5.385  -4.073  0.00  0.00     0.144 A 
ATOM      7  C   LIG d   1      11.523   2.891  -3.856  0.00  0.00     0.197 A 
ATOM      8  O   LIG d   1      12.714   2.886  -3.584  0.00  0.00    -0.287 OA
ATOM      9  C   LIG d   1      10.781   1.689  -3.930  0.00  0.00     0.029 A 
ATOM     10  C   LIG d   1       9.457   1.735  -4.234  0.00  0.00     0.139 A 
ATOM     11  O   LIG d   1       8.812   2.889  -4.472  0.00  0.00    -0.454 OA
ATOM     12  H   LIG d   1       7.684   5.219  -4.912  0.00  0.00     0.069 H 
ATOM     13  H   LIG d   1      11.264   0.739  -3.746  0.00  0.00     0.069 H 
ENDROOT
BRANCH   1  14
ATOM     14  C   LIG d   1      11.443   7.880  -4.268  0.00  0.00     0.131 C 
ATOM     15  O   LIG d   1      10.822   8.777  -5.190  0.00  0.00    -0.364 OA
ATOM     16  C   LIG d   1      11.424  10.072  -5.239  0.00  0.00     0.089 C 
ATOM     17  C   LIG d   1      11.319  10.734  -3.863  0.00  0.00     0.166 C 
ATOM     18  H   LIG d   1      10.907  10.686  -5.977  0.00  0.00     0.060 H 
ATOM     19  H   LIG d   1      12.473   9.975  -5.517  0.00  0.00     0.060 H 
ATOM     20  H   LIG d   1      11.816  11.705  -3.887  0.00  0.00     0.080 H 
ATOM     21  C   LIG d   1      11.996   9.839  -2.820  0.00  0.00     0.181 C 
ATOM     22  C   LIG d   1      11.339   8.454  -2.852  0.00  0.00     0.173 C 
ATOM     23  H   LIG d   1      13.057   9.745  -3.054  0.00  0.00     0.081 H 
ATOM     24  H   LIG d   1      11.851   7.792  -2.152  0.00  0.00     0.080 H 
ATOM     25  H   LIG d   1      12.492   7.754  -4.532  0.00  0.00     0.069 H 
BRANCH  17  26
ATOM     26  O   LIG d   1       9.944  10.910  -3.520  0.00  0.00    -0.455 OA
BRANCH  26  27
ATOM     27  C   LIG d   1       9.490  12.171  -3.449  0.00  0.00     0.304 C 
ATOM     28  O   LIG d   1       8.311  12.380  -3.284  0.00  0.00    -0.251 OA
BRANCH  27  29
ATOM     29  C   LIG d   1      10.450  13.326  -3.575  0.00  0.00     0.033 C 
ATOM     30  H   LIG d   1      11.443  13.009  -3.261  0.00  0.00     0.034 H 
ATOM     31  H   LIG d   1      10.485  13.658  -4.613  0.00  0.00     0.034 H 
ATOM     32  H   LIG d   1      10.114  14.148  -2.943  0.00  0.00     0.034 H 
ENDBRANCH  27  29
ENDBRANCH  26  27
ENDBRANCH  17  26
BRANCH  21  33
ATOM     33  O   LIG d   1      11.840  10.415  -1.522  0.00  0.00    -0.454 OA
BRANCH  33  34
ATOM     34  C   LIG d   1      12.679   9.994  -0.563  0.00  0.00     0.304 C 
ATOM     35  O   LIG d   1      13.854   9.856  -0.808  0.00  0.00    -0.251 OA
BRANCH  34  36
ATOM     36  C   LIG d   1      12.156   9.697   0.818  0.00  0.00     0.033 C 
ATOM     37  H   LIG d   1      12.376   8.661   1.075  0.00  0.00     0.034 H 
ATOM     38  H   LIG d   1      12.634  10.360   1.539  0.00  0.00     0.034 H 
ATOM     39  H   LIG d   1      11.077   9.856   0.840  0.00  0.00     0.034 H 
ENDBRANCH  34  36
ENDBRANCH  33  34
ENDBRANCH  21  33
BRANCH  22  40
ATOM     40  O   LIG d   1       9.964   8.568  -2.482  0.00  0.00    -0.455 OA
BRANCH  40  41
ATOM     41  C   LIG d   1       9.589   7.972  -1.339  0.00  0.00     0.304 C 
ATOM     42  O   LIG d   1       8.595   8.343  -0.763  0.00  0.00    -0.251 OA
BRANCH  41  43
ATOM     43  C   LIG d   1      10.407   6.838  -0.776  0.00  0.00     0.033 C 
ATOM     44  H   LIG d   1      11.340   7.230  -0.370  0.00  0.00     0.034 H 
ATOM     45  H   LIG d   1       9.846   6.343   0.017  0.00  0.00     0.034 H 
ATOM     46  H   LIG d   1      10.629   6.121  -1.567  0.00  0.00     0.034 H 
ENDBRANCH  41  43
ENDBRANCH  40  41
ENDBRANCH  22  40
ENDBRANCH   1  14
BRANCH   6  47
ATOM     47  O   LIG d   1      12.785   5.446  -3.782  0.00  0.00    -0.494 OA
BRANCH  47  48
ATOM     48  C   LIG d   1      13.679   5.671  -4.873  0.00  0.00     0.079 C 
ATOM     49  H   LIG d   1      14.314   6.529  -4.652  0.00  0.00     0.066 H 
ATOM     50  H   LIG d   1      14.300   4.787  -5.023  0.00  0.00     0.066 H 
ATOM     51  H   LIG d   1      13.105   5.868  -5.779  0.00  0.00     0.066 H 
ENDBRANCH  47  48
ENDBRANCH   6  47
BRANCH   2  52
ATOM     52  O   LIG d   1       8.702   7.622  -4.870  0.00  0.00    -0.506 OA
ATOM     53  H   LIG d   1       8.381   7.699  -5.778  0.00  0.00     0.292 HD
ENDBRANCH   2  52
BRANCH  10  54
ATOM     54  C   LIG d   1       8.701   0.471  -4.308  0.00  0.00     0.018 A 
ATOM     55  C   LIG d   1       9.211  -0.609  -5.033  0.00  0.00    -0.048 A 
ATOM     56  C   LIG d   1       8.504  -1.789  -5.096  0.00  0.00    -0.019 A 
ATOM     57  H   LIG d   1      10.161  -0.520  -5.540  0.00  0.00     0.063 H 
ATOM     58  C   LIG d   1       7.279  -1.903  -4.449  0.00  0.00     0.124 A 
ATOM     59  H   LIG d   1       8.901  -2.627  -5.652  0.00  0.00     0.065 H 
ATOM     60  C   LIG d   1       6.765  -0.829  -3.732  0.00  0.00    -0.019 A 
ATOM     61  C   LIG d   1       7.468   0.353  -3.659  0.00  0.00    -0.048 A 
ATOM     62  H   LIG d   1       5.813  -0.922  -3.231  0.00  0.00     0.065 H 
ATOM     63  H   LIG d   1       7.068   1.187  -3.101  0.00  0.00     0.063 H 
BRANCH  58  64
ATOM     64  O   LIG d   1       6.583  -3.066  -4.518  0.00  0.00    -0.461 OA
BRANCH  64  65
ATOM     65  C   LIG d   1       6.184  -3.508  -5.818  0.00  0.00     0.231 C 
ATOM     66  H   LIG d   1       7.004  -3.358  -6.519  0.00  0.00     0.108 H 
ATOM     67  O   LIG d   1       5.848  -4.896  -5.767  0.00  0.00    -0.331 OA
ATOM     68  C   LIG d   1       5.458  -5.448  -7.026  0.00  0.00     0.114 C 
ATOM     69  C   LIG d   1       4.210  -4.723  -7.535  0.00  0.00     0.112 C 
ATOM     70  H   LIG d   1       6.269  -5.324  -7.743  0.00  0.00     0.065 H 
ATOM     71  C   LIG d   1       4.509  -3.225  -7.645  0.00  0.00     0.115 C 
ATOM     72  H   LIG d   1       3.937  -5.113  -8.516  0.00  0.00     0.065 H 
ATOM     73  C   LIG d   1       4.965  -2.705  -6.279  0.00  0.00     0.145 C 
ATOM     74  H   LIG d   1       5.297  -3.063  -8.379  0.00  0.00     0.065 H 
ATOM     75  H   LIG d   1       5.233  -1.651  -6.361  0.00  0.00     0.068 H 
BRANCH  68  76
ATOM     76  C   LIG d   1       5.149  -6.937  -6.856  0.00  0.00     0.073 C 
ATOM     77  H   LIG d   1       4.461  -7.258  -7.639  0.00  0.00     0.058 H 
ATOM     78  H   LIG d   1       6.073  -7.510  -6.928  0.00  0.00     0.058 H 
BRANCH  76  79
ATOM     79  O   LIG d   1       4.552  -7.157  -5.577  0.00  0.00    -0.392 OA
ATOM     80  H   LIG d   1       3.717  -7.645  -5.611  0.00  0.00     0.209 HD
ENDBRANCH  76  79
ENDBRANCH  68  76
BRANCH  69  81
ATOM     81  O   LIG d   1       3.130  -4.929  -6.622  0.00  0.00    -0.387 OA
ATOM     82  H   LIG d   1       2.316  -5.246  -7.040  0.00  0.00     0.210 HD
ENDBRANCH  69  81
BRANCH  71  83
ATOM     83  O   LIG d   1       3.328  -2.529  -8.052  0.00  0.00    -0.386 OA
ATOM     84  H   LIG d   1       3.381  -1.569  -7.945  0.00  0.00     0.210 HD
ENDBRANCH  71  83
BRANCH  73  85
ATOM     85  O   LIG d   1       3.907  -2.856  -5.331  0.00  0.00    -0.383 OA
ATOM     86  H   LIG d   1       4.009  -3.619  -4.746  0.00  0.00     0.210 HD
ENDBRANCH  73  85
ENDBRANCH  64  65
ENDBRANCH  58  64
ENDBRANCH  10  54
TORSDOF 21
ENDMDL
MODEL 6
REMARK VINA RESULT:      -5.8      2.788     13.569
REMARK  21 active torsions:
REMARK  status: ('A' for Active; 'I' for Inactive)
REMARK    1  A    between atoms: C_1  and  C_2 
REMARK    2  A    between atoms: C_2  and  O_4 
REMARK    3  A    between atoms: O_4  and  C_5 
REMARK    4  A    between atoms: C_9  and  C_23 
REMARK    5  A    between atoms: C_11  and  O_19 
REMARK    6  A    between atoms: C_13  and  O_15 
REMARK    7  A    between atoms: O_15  and  C_16 
REMARK    8  A    between atoms: C_16  and  C_18 
REMARK    9  A    between atoms: O_19  and  C_20 
REMARK   10  A    between atoms: C_20  and  C_22 
REMARK   11  A    between atoms: C_24  and  O_59 
REMARK   12  A    between atoms: C_28  and  O_29 
REMARK   13  A    between atoms: O_29  and  C_30 
REMARK   14  A    between atoms: C_34  and  C_36 
REMARK   15  A    between atoms: C_39  and  O_42 
REMARK   16  A    between atoms: O_42  and  C_43 
REMARK   17  A    between atoms: C_45  and  O_58 
REMARK   18  A    between atoms: C_47  and  O_57 
REMARK   19  A    between atoms: C_49  and  O_56 
REMARK   20  A    between atoms: C_51  and  C_54 
REMARK   21  A    between atoms: C_54  and  O_55 
ROOT
ATOM      1  C   LIG d   1      10.978   8.129  -1.252  0.00  0.00     0.069 A 
ATOM      2  C   LIG d   1      10.773   7.016  -0.446  0.00  0.00     0.130 A 
ATOM      3  C   LIG d   1      10.317   5.824  -0.988  0.00  0.00     0.024 A 
ATOM      4  C   LIG d   1      10.062   5.734  -2.348  0.00  0.00     0.146 A 
ATOM      5  C   LIG d   1      10.269   6.859  -3.166  0.00  0.00     0.106 A 
ATOM      6  C   LIG d   1      10.723   8.060  -2.609  0.00  0.00     0.144 A 
ATOM      7  C   LIG d   1       9.990   6.739  -4.607  0.00  0.00     0.197 A 
ATOM      8  O   LIG d   1      10.153   7.684  -5.364  0.00  0.00    -0.287 OA
ATOM      9  C   LIG d   1       9.528   5.489  -5.079  0.00  0.00     0.029 A 
ATOM     10  C   LIG d   1       9.362   4.461  -4.205  0.00  0.00     0.139 A 
ATOM     11  O   LIG d   1       9.619   4.582  -2.893  0.00  0.00    -0.454 OA
ATOM     12  H   LIG d   1      10.161   4.965  -0.352  0.00  0.00     0.069 H 
ATOM     13  H   LIG d   1       9.310   5.351  -6.129  0.00  0.00     0.069 H 
ENDROOT
BRANCH   1  14
ATOM     14  C   LIG d   1      11.473   9.417  -0.644  0.00  0.00     0.131 C 
ATOM     15  O   LIG d   1      10.940   9.558   0.673  0.00  0.00    -0.364 OA
ATOM     16  C   LIG d   1      11.328  10.764   1.334  0.00  0.00     0.089 C 
ATOM     17  C   LIG d   1      12.852  10.795   1.483  0.00  0.00     0.166 C 
ATOM     18  H   LIG d   1      10.866  10.804   2.321  0.00  0.00     0.060 H 
ATOM     19  H   LIG d   1      11.003  11.622   0.745  0.00  0.00     0.060 H 
ATOM     20  H   LIG d   1      13.153  11.734   1.948  0.00  0.00     0.080 H 
ATOM     21  C   LIG d   1      13.496  10.679   0.098  0.00  0.00     0.181 C 
ATOM     22  C   LIG d   1      13.002   9.394  -0.575  0.00  0.00     0.173 C 
ATOM     23  H   LIG d   1      13.213  11.540  -0.508  0.00  0.00     0.081 H 
ATOM     24  H   LIG d   1      13.412   9.330  -1.583  0.00  0.00     0.080 H 
ATOM     25  H   LIG d   1      11.150  10.257  -1.259  0.00  0.00     0.069 H 
BRANCH  17  26
ATOM     26  O   LIG d   1      13.274   9.701   2.299  0.00  0.00    -0.455 OA
BRANCH  26  27
ATOM     27  C   LIG d   1      12.777   9.642   3.544  0.00  0.00     0.304 C 
ATOM     28  O   LIG d   1      12.168   8.662   3.905  0.00  0.00    -0.251 OA
BRANCH  27  29
ATOM     29  C   LIG d   1      12.978  10.796   4.492  0.00  0.00     0.033 C 
ATOM     30  H   LIG d   1      13.910  10.659   5.039  0.00  0.00     0.034 H 
ATOM     31  H   LIG d   1      13.022  11.727   3.926  0.00  0.00     0.034 H 
ATOM     32  H   LIG d   1      12.146  10.837   5.195  0.00  0.00     0.034 H 
ENDBRANCH  27  29
ENDBRANCH  26  27
ENDBRANCH  17  26
BRANCH  21  33
ATOM     33  O   LIG d   1      14.918  10.635   0.235  0.00  0.00    -0.454 OA
BRANCH  33  34
ATOM     34  C   LIG d   1      15.644  10.999  -0.833  0.00  0.00     0.304 C 
ATOM     35  O   LIG d   1      15.347  11.990  -1.457  0.00  0.00    -0.251 OA
BRANCH  34  36
ATOM     36  C   LIG d   1      16.832  10.172  -1.252  0.00  0.00     0.033 C 
ATOM     37  H   LIG d   1      16.619   9.117  -1.085  0.00  0.00     0.034 H 
ATOM     38  H   LIG d   1      17.036  10.339  -2.310  0.00  0.00     0.034 H 
ATOM     39  H   LIG d   1      17.704  10.464  -0.665  0.00  0.00     0.034 H 
ENDBRANCH  34  36
ENDBRANCH  33  34
ENDBRANCH  21  33
BRANCH  22  40
ATOM     40  O   LIG d   1      13.429   8.262   0.184  0.00  0.00    -0.455 OA
BRANCH  40  41
ATOM     41  C   LIG d   1      14.407   7.508  -0.341  0.00  0.00     0.304 C 
ATOM     42  O   LIG d   1      15.334   7.155   0.347  0.00  0.00    -0.251 OA
BRANCH  41  43
ATOM     43  C   LIG d   1      14.348   7.101  -1.791  0.00  0.00     0.033 C 
ATOM     44  H   LIG d   1      13.585   6.333  -1.923  0.00  0.00     0.034 H 
ATOM     45  H   LIG d   1      14.100   7.968  -2.403  0.00  0.00     0.034 H 
ATOM     46  H   LIG d   1      15.317   6.705  -2.098  0.00  0.00     0.034 H 
ENDBRANCH  41  43
ENDBRANCH  40  41
ENDBRANCH  22  40
ENDBRANCH   1  14
BRANCH   6  47
ATOM     47  O   LIG d   1      10.917   9.149  -3.398  0.00  0.00    -0.494 OA
BRANCH  47  48
ATOM     48  C   LIG d   1       9.933  10.181  -3.333  0.00  0.00     0.079 C 
ATOM     49  H   LIG d   1       9.608  10.310  -2.301  0.00  0.00     0.066 H 
ATOM     50  H   LIG d   1      10.360  11.115  -3.700  0.00  0.00     0.066 H 
ATOM     51  H   LIG d   1       9.077   9.906  -3.952  0.00  0.00     0.066 H 
ENDBRANCH  47  48
ENDBRANCH   6  47
BRANCH   2  52
ATOM     52  O   LIG d   1      11.021   7.096   0.887  0.00  0.00    -0.506 OA
ATOM     53  H   LIG d   1      11.824   7.587   1.108  0.00  0.00     0.292 HD
ENDBRANCH   2  52
BRANCH  10  54
ATOM     54  C   LIG d   1       8.878   3.165  -4.717  0.00  0.00     0.018 A 
ATOM     55  C   LIG d   1       8.483   2.163  -3.826  0.00  0.00    -0.048 A 
ATOM     56  C   LIG d   1       8.028   0.956  -4.308  0.00  0.00    -0.019 A 
ATOM     57  H   LIG d   1       8.530   2.336  -2.761  0.00  0.00     0.063 H 
ATOM     58  C   LIG d   1       7.973   0.729  -5.678  0.00  0.00     0.124 A 
ATOM     59  H   LIG d   1       7.716   0.183  -3.620  0.00  0.00     0.065 H 
ATOM     60  C   LIG d   1       8.370   1.720  -6.568  0.00  0.00    -0.019 A 
ATOM     61  C   LIG d   1       8.821   2.932  -6.094  0.00  0.00    -0.048 A 
ATOM     62  H   LIG d   1       8.326   1.540  -7.631  0.00  0.00     0.065 H 
ATOM     63  H   LIG d   1       9.131   3.702  -6.786  0.00  0.00     0.063 H 
BRANCH  58  64
ATOM     64  O   LIG d   1       7.529  -0.464  -6.149  0.00  0.00    -0.461 OA
BRANCH  64  65
ATOM     65  C   LIG d   1       6.974  -1.373  -5.195  0.00  0.00     0.231 C 
ATOM     66  H   LIG d   1       7.581  -1.365  -4.291  0.00  0.00     0.108 H 
ATOM     67  O   LIG d   1       5.639  -0.974  -4.877  0.00  0.00    -0.331 OA
ATOM     68  C   LIG d   1       4.998  -1.805  -3.908  0.00  0.00     0.114 C 
ATOM     69  C   LIG d   1       4.901  -3.235  -4.446  0.00  0.00     0.112 C 
ATOM     70  H   LIG d   1       5.579  -1.802  -2.986  0.00  0.00     0.065 H 
ATOM     71  C   LIG d   1       6.307  -3.742  -4.782  0.00  0.00     0.115 C 
ATOM     72  H   LIG d   1       4.452  -3.879  -3.691  0.00  0.00     0.065 H 
ATOM     73  C   LIG d   1       6.957  -2.786  -5.786  0.00  0.00     0.145 C 
ATOM     74  H   LIG d   1       6.907  -3.780  -3.873  0.00  0.00     0.065 H 
ATOM     75  H   LIG d   1       7.978  -3.109  -5.988  0.00  0.00     0.068 H 
BRANCH  68  76
ATOM     76  C   LIG d   1       3.592  -1.270  -3.627  0.00  0.00     0.073 C 
ATOM     77  H   LIG d   1       2.951  -2.087  -3.297  0.00  0.00     0.058 H 
ATOM     78  H   LIG d   1       3.642  -0.510  -2.847  0.00  0.00     0.058 H 
BRANCH  76  79
ATOM     79  O   LIG d   1       3.056  -0.693  -4.819  0.00  0.00    -0.392 OA
ATOM     80  H   LIG d   1       3.684  -0.143  -5.307  0.00  0.00     0.209 HD
ENDBRANCH  76  79
ENDBRANCH  68  76
BRANCH  69  81
ATOM     81  O   LIG d   1       4.095  -3.248  -5.626  0.00  0.00    -0.387 OA
ATOM     82  H   LIG d   1       4.352  -2.589  -6.286  0.00  0.00     0.210 HD
ENDBRANCH  69  81
BRANCH  71  83
ATOM     83  O   LIG d   1       6.222  -5.050  -5.353  0.00  0.00    -0.386 OA
ATOM     84  H   LIG d   1       5.509  -5.592  -4.988  0.00  0.00     0.210 HD
ENDBRANCH  71  83
BRANCH  73  85
ATOM     85  O   LIG d   1       6.206  -2.786  -7.002  0.00  0.00    -0.383 OA
ATOM     86  H   LIG d   1       5.250  -2.720  -6.874  0.00  0.00     0.210 HD
ENDBRANCH  73  85
ENDBRANCH  64  65
ENDBRANCH  58  64
ENDBRANCH  10  54
TORSDOF 21
ENDMDL
MODEL 7
REMARK VINA RESULT:      -5.7      2.673     13.782
REMARK  21 active torsions:
REMARK  status: ('A' for Active; 'I' for Inactive)
REMARK    1  A    between atoms: C_1  and  C_2 
REMARK    2  A    between atoms: C_2  and  O_4 
REMARK    3  A    between atoms: O_4  and  C_5 
REMARK    4  A    between atoms: C_9  and  C_23 
REMARK    5  A    between atoms: C_11  and  O_19 
REMARK    6  A    between atoms: C_13  and  O_15 
REMARK    7  A    between atoms: O_15  and  C_16 
REMARK    8  A    between atoms: C_16  and  C_18 
REMARK    9  A    between atoms: O_19  and  C_20 
REMARK   10  A    between atoms: C_20  and  C_22 
REMARK   11  A    between atoms: C_24  and  O_59 
REMARK   12  A    between atoms: C_28  and  O_29 
REMARK   13  A    between atoms: O_29  and  C_30 
REMARK   14  A    between atoms: C_34  and  C_36 
REMARK   15  A    between atoms: C_39  and  O_42 
REMARK   16  A    between atoms: O_42  and  C_43 
REMARK   17  A    between atoms: C_45  and  O_58 
REMARK   18  A    between atoms: C_47  and  O_57 
REMARK   19  A    between atoms: C_49  and  O_56 
REMARK   20  A    between atoms: C_51  and  C_54 
REMARK   21  A    between atoms: C_54  and  O_55 
ROOT
ATOM      1  C   LIG d   1      11.391   8.211  -0.839  0.00  0.00     0.069 A 
ATOM      2  C   LIG d   1      11.174   7.092  -0.043  0.00  0.00     0.130 A 
ATOM      3  C   LIG d   1      10.668   5.922  -0.589  0.00  0.00     0.024 A 
ATOM      4  C   LIG d   1      10.373   5.860  -1.942  0.00  0.00     0.146 A 
ATOM      5  C   LIG d   1      10.591   6.990  -2.750  0.00  0.00     0.106 A 
ATOM      6  C   LIG d   1      11.096   8.169  -2.190  0.00  0.00     0.144 A 
ATOM      7  C   LIG d   1      10.270   6.900  -4.184  0.00  0.00     0.197 A 
ATOM      8  O   LIG d   1      10.441   7.850  -4.932  0.00  0.00    -0.287 OA
ATOM      9  C   LIG d   1       9.759   5.670  -4.661  0.00  0.00     0.029 A 
ATOM     10  C   LIG d   1       9.585   4.635  -3.797  0.00  0.00     0.139 A 
ATOM     11  O   LIG d   1       9.881   4.729  -2.491  0.00  0.00    -0.454 OA
ATOM     12  H   LIG d   1      10.504   5.059   0.039  0.00  0.00     0.069 H 
ATOM     13  H   LIG d   1       9.508   5.554  -5.706  0.00  0.00     0.069 H 
ENDROOT
BRANCH   1  14
ATOM     14  C   LIG d   1      11.940   9.474  -0.228  0.00  0.00     0.131 C 
ATOM     15  O   LIG d   1      11.537   9.556   1.140  0.00  0.00    -0.364 OA
ATOM     16  C   LIG d   1      11.986  10.735   1.811  0.00  0.00     0.089 C 
ATOM     17  C   LIG d   1      13.517  10.768   1.813  0.00  0.00     0.166 C 
ATOM     18  H   LIG d   1      11.622  10.730   2.839  0.00  0.00     0.060 H 
ATOM     19  H   LIG d   1      11.604  11.615   1.294  0.00  0.00     0.060 H 
ATOM     20  H   LIG d   1      13.860  11.688   2.287  0.00  0.00     0.080 H 
ATOM     21  C   LIG d   1      14.024  10.715   0.368  0.00  0.00     0.181 C 
ATOM     22  C   LIG d   1      13.469   9.456  -0.308  0.00  0.00     0.173 C 
ATOM     23  H   LIG d   1      13.683  11.599  -0.170  0.00  0.00     0.081 H 
ATOM     24  H   LIG d   1      13.779   9.438  -1.353  0.00  0.00     0.080 H 
ATOM     25  H   LIG d   1      11.558  10.337  -0.772  0.00  0.00     0.069 H 
BRANCH  17  26
ATOM     26  O   LIG d   1      14.018   9.643   2.537  0.00  0.00    -0.455 OA
BRANCH  26  27
ATOM     27  C   LIG d   1      14.656   9.895   3.691  0.00  0.00     0.304 C 
ATOM     28  O   LIG d   1      14.936   8.986   4.437  0.00  0.00    -0.251 OA
BRANCH  27  29
ATOM     29  C   LIG d   1      15.022  11.310   4.056  0.00  0.00     0.033 C 
ATOM     30  H   LIG d   1      15.899  11.617   3.488  0.00  0.00     0.034 H 
ATOM     31  H   LIG d   1      14.188  11.973   3.823  0.00  0.00     0.034 H 
ATOM     32  H   LIG d   1      15.242  11.364   5.122  0.00  0.00     0.034 H 
ENDBRANCH  27  29
ENDBRANCH  26  27
ENDBRANCH  17  26
BRANCH  21  33
ATOM     33  O   LIG d   1      15.452  10.672   0.365  0.00  0.00    -0.454 OA
BRANCH  33  34
ATOM     34  C   LIG d   1      16.097  11.848   0.421  0.00  0.00     0.304 C 
ATOM     35  O   LIG d   1      15.644  12.813  -0.149  0.00  0.00    -0.251 OA
BRANCH  34  36
ATOM     36  C   LIG d   1      17.384  11.965   1.196  0.00  0.00     0.033 C 
ATOM     37  H   LIG d   1      18.067  11.174   0.888  0.00  0.00     0.034 H 
ATOM     38  H   LIG d   1      17.840  12.936   1.000  0.00  0.00     0.034 H 
ATOM     39  H   LIG d   1      17.176  11.871   2.262  0.00  0.00     0.034 H 
ENDBRANCH  34  36
ENDBRANCH  33  34
ENDBRANCH  21  33
BRANCH  22  40
ATOM     40  O   LIG d   1      13.969   8.295   0.358  0.00  0.00    -0.455 OA
BRANCH  40  41
ATOM     41  C   LIG d   1      14.892   7.569  -0.292  0.00  0.00     0.304 C 
ATOM     42  O   LIG d   1      15.823   7.094   0.313  0.00  0.00    -0.251 OA
BRANCH  41  43
ATOM     43  C   LIG d   1      14.768   7.347  -1.778  0.00  0.00     0.033 C 
ATOM     44  H   LIG d   1      13.727   7.140  -2.028  0.00  0.00     0.034 H 
ATOM     45  H   LIG d   1      15.098   8.241  -2.308  0.00  0.00     0.034 H 
ATOM     46  H   LIG d   1      15.387   6.500  -2.072  0.00  0.00     0.034 H 
ENDBRANCH  41  43
ENDBRANCH  40  41
ENDBRANCH  22  40
ENDBRANCH   1  14
BRANCH   6  47
ATOM     47  O   LIG d   1      11.302   9.262  -2.968  0.00  0.00    -0.494 OA
BRANCH  47  48
ATOM     48  C   LIG d   1      10.339  10.314  -2.879  0.00  0.00     0.079 C 
ATOM     49  H   LIG d   1      10.689  11.068  -2.175  0.00  0.00     0.066 H 
ATOM     50  H   LIG d   1      10.202  10.767  -3.861  0.00  0.00     0.066 H 
ATOM     51  H   LIG d   1       9.388   9.906  -2.532  0.00  0.00     0.066 H 
ENDBRANCH  47  48
ENDBRANCH   6  47
BRANCH   2  52
ATOM     52  O   LIG d   1      11.461   7.145   1.284  0.00  0.00    -0.506 OA
ATOM     53  H   LIG d   1      11.975   7.921   1.543  0.00  0.00     0.292 HD
ENDBRANCH   2  52
BRANCH  10  54
ATOM     54  C   LIG d   1       9.049   3.362  -4.313  0.00  0.00     0.018 A 
ATOM     55  C   LIG d   1       8.793   3.212  -5.679  0.00  0.00    -0.048 A 
ATOM     56  C   LIG d   1       8.297   2.020  -6.158  0.00  0.00    -0.019 A 
ATOM     57  H   LIG d   1       8.988   4.028  -6.359  0.00  0.00     0.063 H 
ATOM     58  C   LIG d   1       8.039   0.971  -5.283  0.00  0.00     0.124 A 
ATOM     59  H   LIG d   1       8.104   1.901  -7.214  0.00  0.00     0.065 H 
ATOM     60  C   LIG d   1       8.287   1.117  -3.923  0.00  0.00    -0.019 A 
ATOM     61  C   LIG d   1       8.788   2.304  -3.437  0.00  0.00    -0.048 A 
ATOM     62  H   LIG d   1       8.085   0.300  -3.247  0.00  0.00     0.065 H 
ATOM     63  H   LIG d   1       8.980   2.418  -2.380  0.00  0.00     0.063 H 
BRANCH  58  64
ATOM     64  O   LIG d   1       7.545  -0.201  -5.758  0.00  0.00    -0.461 OA
BRANCH  64  65
ATOM     65  C   LIG d   1       6.618  -0.900  -4.925  0.00  0.00     0.231 C 
ATOM     66  H   LIG d   1       7.162  -1.444  -4.154  0.00  0.00     0.108 H 
ATOM     67  O   LIG d   1       5.728   0.035  -4.313  0.00  0.00    -0.331 OA
ATOM     68  C   LIG d   1       4.771  -0.560  -3.434  0.00  0.00     0.114 C 
ATOM     69  C   LIG d   1       3.892  -1.534  -4.223  0.00  0.00     0.112 C 
ATOM     70  H   LIG d   1       5.291  -1.099  -2.642  0.00  0.00     0.065 H 
ATOM     71  C   LIG d   1       4.782  -2.590  -4.886  0.00  0.00     0.115 C 
ATOM     72  H   LIG d   1       3.190  -2.021  -3.546  0.00  0.00     0.065 H 
ATOM     73  C   LIG d   1       5.813  -1.888  -5.774  0.00  0.00     0.145 C 
ATOM     74  H   LIG d   1       5.295  -3.168  -4.118  0.00  0.00     0.065 H 
ATOM     75  H   LIG d   1       6.485  -2.629  -6.207  0.00  0.00     0.068 H 
BRANCH  68  76
ATOM     76  C   LIG d   1       3.895   0.533  -2.818  0.00  0.00     0.073 C 
ATOM     77  H   LIG d   1       2.972   0.091  -2.443  0.00  0.00     0.058 H 
ATOM     78  H   LIG d   1       4.431   1.007  -1.996  0.00  0.00     0.058 H 
BRANCH  76  79
ATOM     79  O   LIG d   1       3.587   1.512  -3.811  0.00  0.00    -0.392 OA
ATOM     80  H   LIG d   1       2.993   2.212  -3.504  0.00  0.00     0.209 HD
ENDBRANCH  76  79
ENDBRANCH  68  76
BRANCH  69  81
ATOM     81  O   LIG d   1       3.169  -0.820  -5.227  0.00  0.00    -0.387 OA
ATOM     82  H   LIG d   1       2.212  -0.799  -5.083  0.00  0.00     0.210 HD
ENDBRANCH  69  81
BRANCH  71  83
ATOM     83  O   LIG d   1       3.977  -3.462  -5.684  0.00  0.00    -0.386 OA
ATOM     84  H   LIG d   1       4.483  -4.131  -6.166  0.00  0.00     0.210 HD
ENDBRANCH  71  83
BRANCH  73  85
ATOM     85  O   LIG d   1       5.143  -1.183  -6.821  0.00  0.00    -0.383 OA
ATOM     86  H   LIG d   1       5.365  -0.243  -6.866  0.00  0.00     0.210 HD
ENDBRANCH  73  85
ENDBRANCH  64  65
ENDBRANCH  58  64
ENDBRANCH  10  54
TORSDOF 21
ENDMDL
MODEL 8
REMARK VINA RESULT:      -5.7      2.049     13.007
REMARK  21 active torsions:
REMARK  status: ('A' for Active; 'I' for Inactive)
REMARK    1  A    between atoms: C_1  and  C_2 
REMARK    2  A    between atoms: C_2  and  O_4 
REMARK    3  A    between atoms: O_4  and  C_5 
REMARK    4  A    between atoms: C_9  and  C_23 
REMARK    5  A    between atoms: C_11  and  O_19 
REMARK    6  A    between atoms: C_13  and  O_15 
REMARK    7  A    between atoms: O_15  and  C_16 
REMARK    8  A    between atoms: C_16  and  C_18 
REMARK    9  A    between atoms: O_19  and  C_20 
REMARK   10  A    between atoms: C_20  and  C_22 
REMARK   11  A    between atoms: C_24  and  O_59 
REMARK   12  A    between atoms: C_28  and  O_29 
REMARK   13  A    between atoms: O_29  and  C_30 
REMARK   14  A    between atoms: C_34  and  C_36 
REMARK   15  A    between atoms: C_39  and  O_42 
REMARK   16  A    between atoms: O_42  and  C_43 
REMARK   17  A    between atoms: C_45  and  O_58 
REMARK   18  A    between atoms: C_47  and  O_57 
REMARK   19  A    between atoms: C_49  and  O_56 
REMARK   20  A    between atoms: C_51  and  C_54 
REMARK   21  A    between atoms: C_54  and  O_55 
ROOT
ATOM      1  C   LIG d   1      11.206   7.482  -3.622  0.00  0.00     0.069 A 
ATOM      2  C   LIG d   1       9.969   7.721  -4.210  0.00  0.00     0.130 A 
ATOM      3  C   LIG d   1       9.182   6.671  -4.656  0.00  0.00     0.024 A 
ATOM      4  C   LIG d   1       9.627   5.365  -4.517  0.00  0.00     0.146 A 
ATOM      5  C   LIG d   1      10.878   5.120  -3.923  0.00  0.00     0.106 A 
ATOM      6  C   LIG d   1      11.668   6.187  -3.482  0.00  0.00     0.144 A 
ATOM      7  C   LIG d   1      11.328   3.725  -3.787  0.00  0.00     0.197 A 
ATOM      8  O   LIG d   1      12.405   3.454  -3.278  0.00  0.00    -0.287 OA
ATOM      9  C   LIG d   1      10.466   2.711  -4.267  0.00  0.00     0.029 A 
ATOM     10  C   LIG d   1       9.274   3.053  -4.826  0.00  0.00     0.139 A 
ATOM     11  O   LIG d   1       8.874   4.329  -4.945  0.00  0.00    -0.454 OA
ATOM     12  H   LIG d   1       8.223   6.868  -5.111  0.00  0.00     0.069 H 
ATOM     13  H   LIG d   1      10.752   1.672  -4.190  0.00  0.00     0.069 H 
ENDROOT
BRANCH   1  14
ATOM     14  C   LIG d   1      12.047   8.638  -3.145  0.00  0.00     0.131 C 
ATOM     15  O   LIG d   1      11.674   9.823  -3.850  0.00  0.00    -0.364 OA
ATOM     16  C   LIG d   1      12.433  10.979  -3.489  0.00  0.00     0.089 C 
ATOM     17  C   LIG d   1      12.224  11.282  -2.003  0.00  0.00     0.166 C 
ATOM     18  H   LIG d   1      12.101  11.831  -4.083  0.00  0.00     0.060 H 
ATOM     19  H   LIG d   1      13.490  10.794  -3.678  0.00  0.00     0.060 H 
ATOM     20  H   LIG d   1      12.835  12.138  -1.717  0.00  0.00     0.080 H 
ATOM     21  C   LIG d   1      12.636  10.059  -1.177  0.00  0.00     0.181 C 
ATOM     22  C   LIG d   1      11.824   8.846  -1.644  0.00  0.00     0.173 C 
ATOM     23  H   LIG d   1      13.699   9.863  -1.321  0.00  0.00     0.081 H 
ATOM     24  H   LIG d   1      12.149   7.959  -1.101  0.00  0.00     0.080 H 
ATOM     25  H   LIG d   1      13.100   8.421  -3.328  0.00  0.00     0.069 H 
BRANCH  17  26
ATOM     26  O   LIG d   1      10.847  11.577  -1.764  0.00  0.00    -0.455 OA
BRANCH  26  27
ATOM     27  C   LIG d   1      10.520  12.869  -1.601  0.00  0.00     0.304 C 
ATOM     28  O   LIG d   1       9.569  13.330  -2.187  0.00  0.00    -0.251 OA
BRANCH  27  29
ATOM     29  C   LIG d   1      11.339  13.744  -0.687  0.00  0.00     0.033 C 
ATOM     30  H   LIG d   1      12.332  13.885  -1.112  0.00  0.00     0.034 H 
ATOM     31  H   LIG d   1      10.850  14.712  -0.576  0.00  0.00     0.034 H 
ATOM     32  H   LIG d   1      11.426  13.267   0.289  0.00  0.00     0.034 H 
ENDBRANCH  27  29
ENDBRANCH  26  27
ENDBRANCH  17  26
BRANCH  21  33
ATOM     33  O   LIG d   1      12.377  10.307   0.206  0.00  0.00    -0.454 OA
BRANCH  33  34
ATOM     34  C   LIG d   1      13.112   9.624   1.096  0.00  0.00     0.304 C 
ATOM     35  O   LIG d   1      12.569   8.999   1.976  0.00  0.00    -0.251 OA
BRANCH  34  36
ATOM     36  C   LIG d   1      14.616   9.634   0.996  0.00  0.00     0.033 C 
ATOM     37  H   LIG d   1      15.006  10.535   1.469  0.00  0.00     0.034 H 
ATOM     38  H   LIG d   1      15.020   8.755   1.500  0.00  0.00     0.034 H 
ATOM     39  H   LIG d   1      14.911   9.617  -0.054  0.00  0.00     0.034 H 
ENDBRANCH  34  36
ENDBRANCH  33  34
ENDBRANCH  21  33
BRANCH  22  40
ATOM     40  O   LIG d   1      10.436   9.075  -1.396  0.00  0.00    -0.455 OA
BRANCH  40  41
ATOM     41  C   LIG d   1       9.767   8.113  -0.740  0.00  0.00     0.304 C 
ATOM     42  O   LIG d   1       8.559   8.112  -0.737  0.00  0.00    -0.251 OA
BRANCH  41  43
ATOM     43  C   LIG d   1      10.523   7.035  -0.007  0.00  0.00     0.033 C 
ATOM     44  H   LIG d   1      10.023   6.077  -0.154  0.00  0.00     0.034 H 
ATOM     45  H   LIG d   1      11.541   6.977  -0.395  0.00  0.00     0.034 H 
ATOM     46  H   LIG d   1      10.552   7.270   1.057  0.00  0.00     0.034 H 
ENDBRANCH  41  43
ENDBRANCH  40  41
ENDBRANCH  22  40
ENDBRANCH   1  14
BRANCH   6  47
ATOM     47  O   LIG d   1      12.879   5.951  -2.913  0.00  0.00    -0.494 OA
BRANCH  47  48
ATOM     48  C   LIG d   1      14.033   6.181  -3.723  0.00  0.00     0.079 C 
ATOM     49  H   LIG d   1      14.485   7.134  -3.449  0.00  0.00     0.066 H 
ATOM     50  H   LIG d   1      14.753   5.378  -3.567  0.00  0.00     0.066 H 
ATOM     51  H   LIG d   1      13.739   6.206  -4.773  0.00  0.00     0.066 H 
ENDBRANCH  47  48
ENDBRANCH   6  47
BRANCH   2  52
ATOM     52  O   LIG d   1       9.526   8.998  -4.350  0.00  0.00    -0.506 OA
ATOM     53  H   LIG d   1       9.898   9.462  -5.112  0.00  0.00     0.292 HD
ENDBRANCH   2  52
BRANCH  10  54
ATOM     54  C   LIG d   1       8.390   1.982  -5.321  0.00  0.00     0.018 A 
ATOM     55  C   LIG d   1       8.348   1.684  -6.686  0.00  0.00    -0.048 A 
ATOM     56  C   LIG d   1       7.524   0.680  -7.145  0.00  0.00    -0.019 A 
ATOM     57  H   LIG d   1       8.964   2.236  -7.380  0.00  0.00     0.063 H 
ATOM     58  C   LIG d   1       6.726  -0.027  -6.254  0.00  0.00     0.124 A 
ATOM     59  H   LIG d   1       7.495   0.445  -8.199  0.00  0.00     0.065 H 
ATOM     60  C   LIG d   1       6.760   0.270  -4.896  0.00  0.00    -0.019 A 
ATOM     61  C   LIG d   1       7.585   1.268  -4.429  0.00  0.00    -0.048 A 
ATOM     62  H   LIG d   1       6.138  -0.282  -4.208  0.00  0.00     0.065 H 
ATOM     63  H   LIG d   1       7.611   1.499  -3.374  0.00  0.00     0.063 H 
BRANCH  58  64
ATOM     64  O   LIG d   1       5.911  -1.012  -6.710  0.00  0.00    -0.461 OA
BRANCH  64  65
ATOM     65  C   LIG d   1       4.616  -0.621  -7.174  0.00  0.00     0.231 C 
ATOM     66  H   LIG d   1       3.941  -0.524  -6.325  0.00  0.00     0.108 H 
ATOM     67  O   LIG d   1       4.712   0.632  -7.854  0.00  0.00    -0.331 OA
ATOM     68  C   LIG d   1       3.462   1.129  -8.338  0.00  0.00     0.114 C 
ATOM     69  C   LIG d   1       2.876   0.138  -9.347  0.00  0.00     0.112 C 
ATOM     70  H   LIG d   1       2.772   1.251  -7.504  0.00  0.00     0.065 H 
ATOM     71  C   LIG d   1       2.716  -1.228  -8.674  0.00  0.00     0.115 C 
ATOM     72  H   LIG d   1       1.903   0.495  -9.684  0.00  0.00     0.065 H 
ATOM     73  C   LIG d   1       4.076  -1.683  -8.136  0.00  0.00     0.145 C 
ATOM     74  H   LIG d   1       2.006  -1.149  -7.851  0.00  0.00     0.065 H 
ATOM     75  H   LIG d   1       3.961  -2.629  -7.607  0.00  0.00     0.068 H 
BRANCH  68  76
ATOM     76  C   LIG d   1       3.682   2.481  -9.020  0.00  0.00     0.073 C 
ATOM     77  H   LIG d   1       3.031   2.559  -9.892  0.00  0.00     0.058 H 
ATOM     78  H   LIG d   1       3.449   3.283  -8.321  0.00  0.00     0.058 H 
BRANCH  76  79
ATOM     79  O   LIG d   1       5.045   2.591  -9.432  0.00  0.00    -0.392 OA
ATOM     80  H   LIG d   1       5.595   3.121  -8.838  0.00  0.00     0.209 HD
ENDBRANCH  76  79
ENDBRANCH  68  76
BRANCH  69  81
ATOM     81  O   LIG d   1       3.755   0.018 -10.467  0.00  0.00    -0.387 OA
ATOM     82  H   LIG d   1       3.302  -0.124 -11.310  0.00  0.00     0.210 HD
ENDBRANCH  69  81
BRANCH  71  83
ATOM     83  O   LIG d   1       2.237  -2.180  -9.627  0.00  0.00    -0.386 OA
ATOM     84  H   LIG d   1       1.802  -1.782 -10.394  0.00  0.00     0.210 HD
ENDBRANCH  71  83
BRANCH  73  85
ATOM     85  O   LIG d   1       4.989  -1.852  -9.223  0.00  0.00    -0.383 OA
ATOM     86  H   LIG d   1       5.851  -1.440  -9.078  0.00  0.00     0.210 HD
ENDBRANCH  73  85
ENDBRANCH  64  65
ENDBRANCH  58  64
ENDBRANCH  10  54
TORSDOF 21
ENDMDL
MODEL 9
REMARK VINA RESULT:      -5.6      2.212     13.882
REMARK  21 active torsions:
REMARK  status: ('A' for Active; 'I' for Inactive)
REMARK    1  A    between atoms: C_1  and  C_2 
REMARK    2  A    between atoms: C_2  and  O_4 
REMARK    3  A    between atoms: O_4  and  C_5 
REMARK    4  A    between atoms: C_9  and  C_23 
REMARK    5  A    between atoms: C_11  and  O_19 
REMARK    6  A    between atoms: C_13  and  O_15 
REMARK    7  A    between atoms: O_15  and  C_16 
REMARK    8  A    between atoms: C_16  and  C_18 
REMARK    9  A    between atoms: O_19  and  C_20 
REMARK   10  A    between atoms: C_20  and  C_22 
REMARK   11  A    between atoms: C_24  and  O_59 
REMARK   12  A    between atoms: C_28  and  O_29 
REMARK   13  A    between atoms: O_29  and  C_30 
REMARK   14  A    between atoms: C_34  and  C_36 
REMARK   15  A    between atoms: C_39  and  O_42 
REMARK   16  A    between atoms: O_42  and  C_43 
REMARK   17  A    between atoms: C_45  and  O_58 
REMARK   18  A    between atoms: C_47  and  O_57 
REMARK   19  A    between atoms: C_49  and  O_56 
REMARK   20  A    between atoms: C_51  and  C_54 
REMARK   21  A    between atoms: C_54  and  O_55 
ROOT
ATOM      1  C   LIG d   1      10.970   8.109  -1.217  0.00  0.00     0.069 A 
ATOM      2  C   LIG d   1      10.746   7.004  -0.404  0.00  0.00     0.130 A 
ATOM      3  C   LIG d   1      10.301   5.808  -0.943  0.00  0.00     0.024 A 
ATOM      4  C   LIG d   1      10.075   5.704  -2.308  0.00  0.00     0.146 A 
ATOM      5  C   LIG d   1      10.301   6.820  -3.133  0.00  0.00     0.106 A 
ATOM      6  C   LIG d   1      10.744   8.026  -2.579  0.00  0.00     0.144 A 
ATOM      7  C   LIG d   1      10.053   6.686  -4.578  0.00  0.00     0.197 A 
ATOM      8  O   LIG d   1      10.233   7.622  -5.341  0.00  0.00    -0.287 OA
ATOM      9  C   LIG d   1       9.600   5.431  -5.048  0.00  0.00     0.029 A 
ATOM     10  C   LIG d   1       9.413   4.412  -4.166  0.00  0.00     0.139 A 
ATOM     11  O   LIG d   1       9.642   4.547  -2.850  0.00  0.00    -0.454 OA
ATOM     12  H   LIG d   1      10.130   4.956  -0.302  0.00  0.00     0.069 H 
ATOM     13  H   LIG d   1       9.404   5.282  -6.100  0.00  0.00     0.069 H 
ENDROOT
BRANCH   1  14
ATOM     14  C   LIG d   1      11.453   9.403  -0.612  0.00  0.00     0.131 C 
ATOM     15  O   LIG d   1      10.908   9.548   0.700  0.00  0.00    -0.364 OA
ATOM     16  C   LIG d   1      11.285  10.760   1.357  0.00  0.00     0.089 C 
ATOM     17  C   LIG d   1      12.807  10.799   1.519  0.00  0.00     0.166 C 
ATOM     18  H   LIG d   1      10.815  10.802   2.340  0.00  0.00     0.060 H 
ATOM     19  H   LIG d   1      10.961  11.613   0.761  0.00  0.00     0.060 H 
ATOM     20  H   LIG d   1      13.100  11.742   1.982  0.00  0.00     0.080 H 
ATOM     21  C   LIG d   1      13.464  10.679   0.140  0.00  0.00     0.181 C 
ATOM     22  C   LIG d   1      12.983   9.387  -0.530  0.00  0.00     0.173 C 
ATOM     23  H   LIG d   1      13.182  11.535  -0.473  0.00  0.00     0.081 H 
ATOM     24  H   LIG d   1      13.401   9.320  -1.534  0.00  0.00     0.080 H 
ATOM     25  H   LIG d   1      11.132  10.237  -1.235  0.00  0.00     0.069 H 
BRANCH  17  26
ATOM     26  O   LIG d   1      13.228   9.711   2.345  0.00  0.00    -0.455 OA
BRANCH  26  27
ATOM     27  C   LIG d   1      12.763   9.686   3.603  0.00  0.00     0.304 C 
ATOM     28  O   LIG d   1      12.156   8.720   4.003  0.00  0.00    -0.251 OA
BRANCH  27  29
ATOM     29  C   LIG d   1      12.997  10.861   4.518  0.00  0.00     0.033 C 
ATOM     30  H   LIG d   1      12.153  11.546   4.452  0.00  0.00     0.034 H 
ATOM     31  H   LIG d   1      13.101  10.508   5.543  0.00  0.00     0.034 H 
ATOM     32  H   LIG d   1      13.909  11.377   4.217  0.00  0.00     0.034 H 
ENDBRANCH  27  29
ENDBRANCH  26  27
ENDBRANCH  17  26
BRANCH  21  33
ATOM     33  O   LIG d   1      14.885  10.642   0.289  0.00  0.00    -0.454 OA
BRANCH  33  34
ATOM     34  C   LIG d   1      15.490  11.787   0.640  0.00  0.00     0.304 C 
ATOM     35  O   LIG d   1      15.354  12.776  -0.041  0.00  0.00    -0.251 OA
BRANCH  34  36
ATOM     36  C   LIG d   1      16.338  11.840   1.885  0.00  0.00     0.033 C 
ATOM     37  H   LIG d   1      15.782  12.328   2.684  0.00  0.00     0.034 H 
ATOM     38  H   LIG d   1      16.600  10.826   2.190  0.00  0.00     0.034 H 
ATOM     39  H   LIG d   1      17.250  12.402   1.680  0.00  0.00     0.034 H 
ENDBRANCH  34  36
ENDBRANCH  33  34
ENDBRANCH  21  33
BRANCH  22  40
ATOM     40  O   LIG d   1      13.408   8.261   0.239  0.00  0.00    -0.455 OA
BRANCH  40  41
ATOM     41  C   LIG d   1      14.417   7.529  -0.258  0.00  0.00     0.304 C 
ATOM     42  O   LIG d   1      15.424   7.370   0.390  0.00  0.00    -0.251 OA
BRANCH  41  43
ATOM     43  C   LIG d   1      14.294   6.905  -1.624  0.00  0.00     0.033 C 
ATOM     44  H   LIG d   1      14.703   7.585  -2.372  0.00  0.00     0.034 H 
ATOM     45  H   LIG d   1      14.846   5.966  -1.646  0.00  0.00     0.034 H 
ATOM     46  H   LIG d   1      13.243   6.715  -1.844  0.00  0.00     0.034 H 
ENDBRANCH  41  43
ENDBRANCH  40  41
ENDBRANCH  22  40
ENDBRANCH   1  14
BRANCH   6  47
ATOM     47  O   LIG d   1      10.957   9.106  -3.374  0.00  0.00    -0.494 OA
BRANCH  47  48
ATOM     48  C   LIG d   1       9.988  10.154  -3.320  0.00  0.00     0.079 C 
ATOM     49  H   LIG d   1      10.008  10.617  -2.334  0.00  0.00     0.066 H 
ATOM     50  H   LIG d   1      10.217  10.902  -4.079  0.00  0.00     0.066 H 
ATOM     51  H   LIG d   1       8.996   9.740  -3.506  0.00  0.00     0.066 H 
ENDBRANCH  47  48
ENDBRANCH   6  47
BRANCH   2  52
ATOM     52  O   LIG d   1      10.965   7.098   0.933  0.00  0.00    -0.506 OA
ATOM     53  H   LIG d   1      11.605   7.780   1.179  0.00  0.00     0.292 HD
ENDBRANCH   2  52
BRANCH  10  54
ATOM     54  C   LIG d   1       8.939   3.112  -4.675  0.00  0.00     0.018 A 
ATOM     55  C   LIG d   1       9.020   2.822  -6.040  0.00  0.00    -0.048 A 
ATOM     56  C   LIG d   1       8.581   1.604  -6.511  0.00  0.00    -0.019 A 
ATOM     57  H   LIG d   1       9.431   3.549  -6.725  0.00  0.00     0.063 H 
ATOM     58  C   LIG d   1       8.046   0.669  -5.632  0.00  0.00     0.124 A 
ATOM     59  H   LIG d   1       8.648   1.377  -7.565  0.00  0.00     0.065 H 
ATOM     60  C   LIG d   1       7.958   0.956  -4.275  0.00  0.00    -0.019 A 
ATOM     61  C   LIG d   1       8.400   2.168  -3.795  0.00  0.00    -0.048 A 
ATOM     62  H   LIG d   1       7.541   0.227  -3.596  0.00  0.00     0.065 H 
ATOM     63  H   LIG d   1       8.332   2.391  -2.740  0.00  0.00     0.063 H 
BRANCH  58  64
ATOM     64  O   LIG d   1       7.609  -0.527  -6.101  0.00  0.00    -0.461 OA
BRANCH  64  65
ATOM     65  C   LIG d   1       6.479  -0.508  -6.977  0.00  0.00     0.231 C 
ATOM     66  H   LIG d   1       6.563   0.337  -7.659  0.00  0.00     0.108 H 
ATOM     67  O   LIG d   1       6.436  -1.723  -7.726  0.00  0.00    -0.331 OA
ATOM     68  C   LIG d   1       5.353  -1.798  -8.656  0.00  0.00     0.114 C 
ATOM     69  C   LIG d   1       4.025  -1.713  -7.899  0.00  0.00     0.112 C 
ATOM     70  H   LIG d   1       5.423  -0.970  -9.361  0.00  0.00     0.065 H 
ATOM     71  C   LIG d   1       3.988  -0.412  -7.093  0.00  0.00     0.115 C 
ATOM     72  H   LIG d   1       3.199  -1.726  -8.610  0.00  0.00     0.065 H 
ATOM     73  C   LIG d   1       5.196  -0.371  -6.152  0.00  0.00     0.145 C 
ATOM     74  H   LIG d   1       4.026   0.439  -7.772  0.00  0.00     0.065 H 
ATOM     75  H   LIG d   1       5.208   0.577  -5.614  0.00  0.00     0.068 H 
BRANCH  68  76
ATOM     76  C   LIG d   1       5.424  -3.124  -9.416  0.00  0.00     0.073 C 
ATOM     77  H   LIG d   1       5.970  -2.980 -10.348  0.00  0.00     0.058 H 
ATOM     78  H   LIG d   1       5.937  -3.866  -8.805  0.00  0.00     0.058 H 
BRANCH  76  79
ATOM     79  O   LIG d   1       4.100  -3.579  -9.704  0.00  0.00    -0.392 OA
ATOM     80  H   LIG d   1       4.047  -4.518  -9.931  0.00  0.00     0.209 HD
ENDBRANCH  76  79
ENDBRANCH  68  76
BRANCH  69  81
ATOM     81  O   LIG d   1       3.908  -2.827  -7.012  0.00  0.00    -0.387 OA
ATOM     82  H   LIG d   1       3.077  -3.316  -7.102  0.00  0.00     0.210 HD
ENDBRANCH  69  81
BRANCH  71  83
ATOM     83  O   LIG d   1       2.783  -0.356  -6.326  0.00  0.00    -0.386 OA
ATOM     84  H   LIG d   1       2.916  -0.101  -5.402  0.00  0.00     0.210 HD
ENDBRANCH  71  83
BRANCH  73  85
ATOM     85  O   LIG d   1       5.112  -1.449  -5.218  0.00  0.00    -0.383 OA
ATOM     86  H   LIG d   1       5.608  -2.236  -5.480  0.00  0.00     0.210 HD
ENDBRANCH  73  85
ENDBRANCH  64  65
ENDBRANCH  58  64
ENDBRANCH  10  54
TORSDOF 21
ENDMDL
