MODEL 1
REMARK VINA RESULT:      -7.4      0.000      0.000
REMARK  4 active torsions:
REMARK  status: ('A' for Active; 'I' for Inactive)
REMARK    1  A    between atoms: C_7  and  N_8 
REMARK       I    between atoms: N_8  and  C_9 
REMARK    2  A    between atoms: C_9  and  C_11 
REMARK    3  A    between atoms: C_25  and  C_26 
REMARK    4  A    between atoms: C_25  and  N_67 
ROOT
ATOM      1  C   LIG d   1       4.493  -2.157  -6.682  0.00  0.00    -0.034 C 
ATOM      2  C   LIG d   1       4.968  -2.265  -5.370  0.00  0.00    -0.040 C 
ATOM      3  C   LIG d   1       4.641  -1.331  -4.439  0.00  0.00     0.030 C 
ATOM      4  N   LIG d   1       3.794  -0.317  -4.743  0.00  0.00    -0.310 N 
ATOM      5  C   LIG d   1       3.393  -0.135  -6.025  0.00  0.00     0.273 C 
ATOM      6  O   LIG d   1       2.746   0.857  -6.321  0.00  0.00    -0.266 OA
ATOM      7  C   LIG d   1       3.717  -1.080  -7.018  0.00  0.00     0.099 C 
ATOM      8  C   LIG d   1       3.231   0.582  -3.735  0.00  0.00     0.034 C 
ATOM      9  C   LIG d   1       4.061   0.609  -2.462  0.00  0.00     0.018 C 
ATOM     10  H   LIG d   1       3.470   1.079  -1.675  0.00  0.00     0.037 H 
ATOM     11  C   LIG d   1       4.373  -0.825  -2.024  0.00  0.00    -0.031 C 
ATOM     12  C   LIG d   1       5.297  -1.441  -3.080  0.00  0.00     0.040 C 
ATOM     13  H   LIG d   1       5.518  -2.482  -2.846  0.00  0.00     0.042 H 
ATOM     14  C   LIG d   1       6.592  -0.612  -3.123  0.00  0.00    -0.024 C 
ATOM     15  C   LIG d   1       5.343   1.409  -2.642  0.00  0.00    -0.027 C 
ATOM     16  H   LIG d   1       4.738  -2.907  -7.418  0.00  0.00     0.064 H 
ATOM     17  H   LIG d   1       5.596  -3.099  -5.095  0.00  0.00     0.064 H 
ATOM     18  H   LIG d   1       3.183   1.589  -4.147  0.00  0.00     0.050 H 
ATOM     19  H   LIG d   1       2.221   0.251  -3.491  0.00  0.00     0.050 H 
ATOM     20  H   LIG d   1       3.450  -1.400  -1.959  0.00  0.00     0.028 H 
ATOM     21  H   LIG d   1       4.873  -0.815  -1.056  0.00  0.00     0.028 H 
ATOM     22  H   LIG d   1       7.030  -0.563  -2.127  0.00  0.00     0.082 H 
ATOM     23  H   LIG d   1       7.298  -1.068  -3.816  0.00  0.00     0.082 H 
ATOM     24  H   LIG d   1       5.841   1.510  -1.678  0.00  0.00     0.082 H 
ATOM     25  H   LIG d   1       5.097   2.400  -3.024  0.00  0.00     0.082 H 
ATOM     26  N   LIG d   1       6.238   0.740  -3.610  0.00  0.00     0.236 N 
ATOM     27  H   LIG d   1       5.750   0.654  -4.509  0.00  0.00     0.203 HD
ENDROOT
BRANCH   7  28
ATOM     28  N   LIG d   1       3.247  -0.924  -8.328  0.00  0.00    -0.281 N 
ATOM     29  C   LIG d   1       4.005  -0.291  -9.245  0.00  0.00     0.220 C 
ATOM     30  O   LIG d   1       5.052   0.225  -8.915  0.00  0.00    -0.275 OA
ATOM     31  H   LIG d   1       2.375  -1.272  -8.576  0.00  0.00     0.155 HD
BRANCH  29  32
ATOM     32  C   LIG d   1       3.556  -0.232 -10.683  0.00  0.00     0.036 C 
ATOM     33  C   LIG d   1       4.759  -0.449 -11.602  0.00  0.00    -0.042 C 
ATOM     34  C   LIG d   1       4.303  -0.388 -13.062  0.00  0.00    -0.052 C 
ATOM     35  H   LIG d   1       5.501   0.329 -11.420  0.00  0.00     0.027 H 
ATOM     36  H   LIG d   1       5.199  -1.426 -11.400  0.00  0.00     0.027 H 
ATOM     37  C   LIG d   1       3.263  -1.479 -13.318  0.00  0.00    -0.053 C 
ATOM     38  H   LIG d   1       3.864   0.588 -13.265  0.00  0.00     0.026 H 
ATOM     39  H   LIG d   1       5.161  -0.543 -13.717  0.00  0.00     0.026 H 
ATOM     40  C   LIG d   1       2.059  -1.262 -12.397  0.00  0.00    -0.052 C 
ATOM     41  H   LIG d   1       2.938  -1.436 -14.357  0.00  0.00     0.026 H 
ATOM     42  H   LIG d   1       3.703  -2.456 -13.115  0.00  0.00     0.026 H 
ATOM     43  C   LIG d   1       2.515  -1.324 -10.939  0.00  0.00    -0.042 C 
ATOM     44  H   LIG d   1       1.619  -0.286 -12.600  0.00  0.00     0.026 H 
ATOM     45  H   LIG d   1       1.318  -2.040 -12.580  0.00  0.00     0.026 H 
ATOM     46  H   LIG d   1       2.955  -2.300 -10.736  0.00  0.00     0.027 H 
ATOM     47  H   LIG d   1       1.657  -1.168 -10.284  0.00  0.00     0.027 H 
ATOM     48  H   LIG d   1       3.116   0.745 -10.885  0.00  0.00     0.039 H 
ENDBRANCH  29  32
ENDBRANCH   7  28
BRANCH  26  49
ATOM     49  C   LIG d   1       7.461   1.545  -3.804  0.00  0.00    -0.029 C 
ATOM     50  H   LIG d   1       7.177   2.577  -4.005  0.00  0.00     0.082 H 
ATOM     51  H   LIG d   1       8.060   1.502  -2.895  0.00  0.00     0.082 H 
BRANCH  49  52
ATOM     52  C   LIG d   1       8.279   1.004  -4.979  0.00  0.00    -0.001 C 
ATOM     53  C   LIG d   1       7.343   0.683  -6.146  0.00  0.00    -0.045 C 
ATOM     54  C   LIG d   1       8.161   0.142  -7.321  0.00  0.00    -0.053 C 
ATOM     55  H   LIG d   1       6.616  -0.068  -5.834  0.00  0.00     0.027 H 
ATOM     56  H   LIG d   1       6.821   1.588  -6.453  0.00  0.00     0.027 H 
ATOM     57  C   LIG d   1       9.180   1.194  -7.760  0.00  0.00    -0.053 C 
ATOM     58  H   LIG d   1       8.683  -0.765  -7.014  0.00  0.00     0.026 H 
ATOM     59  H   LIG d   1       7.494  -0.088  -8.153  0.00  0.00     0.026 H 
ATOM     60  C   LIG d   1      10.117   1.516  -6.593  0.00  0.00    -0.053 C 
ATOM     61  H   LIG d   1       9.763   0.809  -8.597  0.00  0.00     0.026 H 
ATOM     62  H   LIG d   1       8.658   2.100  -8.068  0.00  0.00     0.026 H 
ATOM     63  C   LIG d   1       9.299   2.056  -5.418  0.00  0.00    -0.045 C 
ATOM     64  H   LIG d   1      10.638   0.610  -6.286  0.00  0.00     0.026 H 
ATOM     65  H   LIG d   1      10.843   2.265  -6.906  0.00  0.00     0.026 H 
ATOM     66  H   LIG d   1       8.776   2.962  -5.726  0.00  0.00     0.027 H 
ATOM     67  H   LIG d   1       9.965   2.285  -4.587  0.00  0.00     0.027 H 
ATOM     68  H   LIG d   1       8.801   0.097  -4.672  0.00  0.00     0.035 H 
ENDBRANCH  49  52
ENDBRANCH  26  49
TORSDOF 4
ENDMDL
MODEL 2
REMARK VINA RESULT:      -7.1      3.521      6.049
REMARK  4 active torsions:
REMARK  status: ('A' for Active; 'I' for Inactive)
REMARK    1  A    between atoms: C_7  and  N_8 
REMARK       I    between atoms: N_8  and  C_9 
REMARK    2  A    between atoms: C_9  and  C_11 
REMARK    3  A    between atoms: C_25  and  C_26 
REMARK    4  A    between atoms: C_25  and  N_67 
ROOT
ATOM      1  C   LIG d   1       1.150  -1.553 -10.358  0.00  0.00    -0.034 C 
ATOM      2  C   LIG d   1       1.785  -0.344 -10.054  0.00  0.00    -0.040 C 
ATOM      3  C   LIG d   1       2.972  -0.335  -9.394  0.00  0.00     0.030 C 
ATOM      4  N   LIG d   1       3.598  -1.495  -9.079  0.00  0.00    -0.310 N 
ATOM      5  C   LIG d   1       2.966  -2.678  -9.277  0.00  0.00     0.273 C 
ATOM      6  O   LIG d   1       3.470  -3.710  -8.865  0.00  0.00    -0.266 OA
ATOM      7  C   LIG d   1       1.731  -2.725  -9.954  0.00  0.00     0.099 C 
ATOM      8  C   LIG d   1       4.971  -1.551  -8.574  0.00  0.00     0.034 C 
ATOM      9  C   LIG d   1       5.411  -0.232  -7.961  0.00  0.00     0.018 C 
ATOM     10  H   LIG d   1       6.495  -0.252  -7.843  0.00  0.00     0.037 H 
ATOM     11  C   LIG d   1       5.061   0.916  -8.911  0.00  0.00    -0.031 C 
ATOM     12  C   LIG d   1       3.533   1.009  -8.983  0.00  0.00     0.040 C 
ATOM     13  H   LIG d   1       3.222   1.783  -9.685  0.00  0.00     0.042 H 
ATOM     14  C   LIG d   1       3.008   1.318  -7.571  0.00  0.00    -0.024 C 
ATOM     15  C   LIG d   1       4.783  -0.009  -6.592  0.00  0.00    -0.027 C 
ATOM     16  H   LIG d   1       0.215  -1.561 -10.897  0.00  0.00     0.064 H 
ATOM     17  H   LIG d   1       1.330   0.590 -10.350  0.00  0.00     0.064 H 
ATOM     18  H   LIG d   1       5.038  -2.333  -7.819  0.00  0.00     0.050 H 
ATOM     19  H   LIG d   1       5.640  -1.798  -9.399  0.00  0.00     0.050 H 
ATOM     20  H   LIG d   1       5.466   0.712  -9.902  0.00  0.00     0.028 H 
ATOM     21  H   LIG d   1       5.471   1.851  -8.529  0.00  0.00     0.028 H 
ATOM     22  H   LIG d   1       3.487   2.219  -7.189  0.00  0.00     0.082 H 
ATOM     23  H   LIG d   1       1.927   1.460  -7.603  0.00  0.00     0.082 H 
ATOM     24  H   LIG d   1       5.222   0.878  -6.137  0.00  0.00     0.082 H 
ATOM     25  H   LIG d   1       4.986  -0.874  -5.961  0.00  0.00     0.082 H 
ATOM     26  N   LIG d   1       3.319   0.151  -6.716  0.00  0.00     0.236 N 
ATOM     27  H   LIG d   1       2.926  -0.693  -7.147  0.00  0.00     0.203 HD
ENDROOT
BRANCH   7  28
ATOM     28  N   LIG d   1       1.111  -3.953 -10.216  0.00  0.00    -0.281 N 
ATOM     29  C   LIG d   1       1.332  -4.583 -11.387  0.00  0.00     0.220 C 
ATOM     30  O   LIG d   1       1.992  -4.045 -12.250  0.00  0.00    -0.275 OA
ATOM     31  H   LIG d   1       0.522  -4.350  -9.556  0.00  0.00     0.155 HD
BRANCH  29  32
ATOM     32  C   LIG d   1       0.765  -5.960 -11.621  0.00  0.00     0.036 C 
ATOM     33  C   LIG d   1       0.714  -6.722 -10.295  0.00  0.00    -0.042 C 
ATOM     34  C   LIG d   1       0.139  -8.120 -10.532  0.00  0.00    -0.052 C 
ATOM     35  H   LIG d   1       1.721  -6.807  -9.886  0.00  0.00     0.027 H 
ATOM     36  H   LIG d   1       0.080  -6.183  -9.591  0.00  0.00     0.027 H 
ATOM     37  C   LIG d   1      -1.273  -8.001 -11.106  0.00  0.00    -0.053 C 
ATOM     38  H   LIG d   1       0.773  -8.659 -11.236  0.00  0.00     0.026 H 
ATOM     39  H   LIG d   1       0.103  -8.663  -9.587  0.00  0.00     0.026 H 
ATOM     40  C   LIG d   1      -1.222  -7.238 -12.433  0.00  0.00    -0.052 C 
ATOM     41  H   LIG d   1      -1.683  -8.996 -11.276  0.00  0.00     0.026 H 
ATOM     42  H   LIG d   1      -1.908  -7.462 -10.403  0.00  0.00     0.026 H 
ATOM     43  C   LIG d   1      -0.648  -5.840 -12.195  0.00  0.00    -0.042 C 
ATOM     44  H   LIG d   1      -0.588  -7.777 -13.137  0.00  0.00     0.026 H 
ATOM     45  H   LIG d   1      -2.228  -7.153 -12.841  0.00  0.00     0.026 H 
ATOM     46  H   LIG d   1      -1.282  -5.302 -11.491  0.00  0.00     0.027 H 
ATOM     47  H   LIG d   1      -0.611  -5.298 -13.140  0.00  0.00     0.027 H 
ATOM     48  H   LIG d   1       1.400  -6.499 -12.325  0.00  0.00     0.039 H 
ENDBRANCH  29  32
ENDBRANCH   7  28
BRANCH  26  49
ATOM     49  C   LIG d   1       2.718   0.329  -5.378  0.00  0.00    -0.029 C 
ATOM     50  H   LIG d   1       2.356   1.353  -5.287  0.00  0.00     0.082 H 
ATOM     51  H   LIG d   1       1.882  -0.362  -5.272  0.00  0.00     0.082 H 
BRANCH  49  52
ATOM     52  C   LIG d   1       3.750   0.053  -4.284  0.00  0.00    -0.001 C 
ATOM     53  C   LIG d   1       3.657   1.137  -3.209  0.00  0.00    -0.045 C 
ATOM     54  C   LIG d   1       4.689   0.861  -2.114  0.00  0.00    -0.053 C 
ATOM     55  H   LIG d   1       3.855   2.111  -3.657  0.00  0.00     0.027 H 
ATOM     56  H   LIG d   1       2.657   1.134  -2.775  0.00  0.00     0.027 H 
ATOM     57  C   LIG d   1       4.412  -0.505  -1.485  0.00  0.00    -0.053 C 
ATOM     58  H   LIG d   1       5.689   0.864  -2.548  0.00  0.00     0.026 H 
ATOM     59  H   LIG d   1       4.623   1.634  -1.348  0.00  0.00     0.026 H 
ATOM     60  C   LIG d   1       4.505  -1.591  -2.559  0.00  0.00    -0.053 C 
ATOM     61  H   LIG d   1       5.146  -0.703  -0.704  0.00  0.00     0.026 H 
ATOM     62  H   LIG d   1       3.412  -0.508  -1.050  0.00  0.00     0.026 H 
ATOM     63  C   LIG d   1       3.472  -1.315  -3.654  0.00  0.00    -0.045 C 
ATOM     64  H   LIG d   1       5.504  -1.587  -2.993  0.00  0.00     0.026 H 
ATOM     65  H   LIG d   1       4.307  -2.564  -2.110  0.00  0.00     0.026 H 
ATOM     66  H   LIG d   1       2.473  -1.317  -3.220  0.00  0.00     0.027 H 
ATOM     67  H   LIG d   1       3.539  -2.086  -4.420  0.00  0.00     0.027 H 
ATOM     68  H   LIG d   1       4.750   0.056  -4.718  0.00  0.00     0.035 H 
ENDBRANCH  49  52
ENDBRANCH  26  49
TORSDOF 4
ENDMDL
MODEL 3
REMARK VINA RESULT:      -7.0      5.725      9.316
REMARK  4 active torsions:
REMARK  status: ('A' for Active; 'I' for Inactive)
REMARK    1  A    between atoms: C_7  and  N_8 
REMARK       I    between atoms: N_8  and  C_9 
REMARK    2  A    between atoms: C_9  and  C_11 
REMARK    3  A    between atoms: C_25  and  C_26 
REMARK    4  A    between atoms: C_25  and  N_67 
ROOT
ATOM      1  C   LIG d   1       6.610  -5.034  -5.769  0.00  0.00    -0.034 C 
ATOM      2  C   LIG d   1       7.063  -5.898  -6.773  0.00  0.00    -0.040 C 
ATOM      3  C   LIG d   1       6.184  -6.488  -7.624  0.00  0.00     0.030 C 
ATOM      4  N   LIG d   1       4.861  -6.198  -7.563  0.00  0.00    -0.310 N 
ATOM      5  C   LIG d   1       4.382  -5.440  -6.547  0.00  0.00     0.273 C 
ATOM      6  O   LIG d   1       3.178  -5.298  -6.414  0.00  0.00    -0.266 OA
ATOM      7  C   LIG d   1       5.264  -4.817  -5.643  0.00  0.00     0.099 C 
ATOM      8  C   LIG d   1       3.904  -6.623  -8.586  0.00  0.00     0.034 C 
ATOM      9  C   LIG d   1       4.410  -7.808  -9.391  0.00  0.00     0.018 C 
ATOM     10  H   LIG d   1       3.789  -7.911 -10.281  0.00  0.00     0.037 H 
ATOM     11  C   LIG d   1       5.847  -7.540  -9.847  0.00  0.00    -0.031 C 
ATOM     12  C   LIG d   1       6.732  -7.509  -8.596  0.00  0.00     0.040 C 
ATOM     13  H   LIG d   1       7.765  -7.275  -8.855  0.00  0.00     0.042 H 
ATOM     14  C   LIG d   1       6.646  -8.887  -7.918  0.00  0.00    -0.024 C 
ATOM     15  C   LIG d   1       4.330  -9.105  -8.597  0.00  0.00    -0.027 C 
ATOM     16  H   LIG d   1       7.309  -4.552  -5.103  0.00  0.00     0.064 H 
ATOM     17  H   LIG d   1       8.120  -6.093  -6.874  0.00  0.00     0.064 H 
ATOM     18  H   LIG d   1       2.968  -6.899  -8.100  0.00  0.00     0.050 H 
ATOM     19  H   LIG d   1       3.717  -5.790  -9.263  0.00  0.00     0.050 H 
ATOM     20  H   LIG d   1       5.899  -6.580 -10.360  0.00  0.00     0.028 H 
ATOM     21  H   LIG d   1       6.178  -8.335 -10.515  0.00  0.00     0.028 H 
ATOM     22  H   LIG d   1       6.915  -9.666  -8.631  0.00  0.00     0.082 H 
ATOM     23  H   LIG d   1       7.321  -8.919  -7.063  0.00  0.00     0.082 H 
ATOM     24  H   LIG d   1       4.580  -9.940  -9.250  0.00  0.00     0.082 H 
ATOM     25  H   LIG d   1       3.315  -9.233  -8.223  0.00  0.00     0.082 H 
ATOM     26  N   LIG d   1       5.255  -9.063  -7.445  0.00  0.00     0.236 N 
ATOM     27  H   LIG d   1       5.003  -8.269  -6.844  0.00  0.00     0.203 HD
ENDROOT
BRANCH   7  28
ATOM     28  N   LIG d   1       4.772  -3.980  -4.632  0.00  0.00    -0.281 N 
ATOM     29  C   LIG d   1       4.742  -2.646  -4.817  0.00  0.00     0.220 C 
ATOM     30  O   LIG d   1       5.226  -2.161  -5.818  0.00  0.00    -0.275 OA
ATOM     31  H   LIG d   1       4.452  -4.361  -3.799  0.00  0.00     0.155 HD
BRANCH  29  32
ATOM     32  C   LIG d   1       4.099  -1.756  -3.784  0.00  0.00     0.036 C 
ATOM     33  C   LIG d   1       5.104  -1.462  -2.669  0.00  0.00    -0.042 C 
ATOM     34  C   LIG d   1       4.452  -0.559  -1.619  0.00  0.00    -0.052 C 
ATOM     35  H   LIG d   1       5.413  -2.397  -2.202  0.00  0.00     0.027 H 
ATOM     36  H   LIG d   1       5.976  -0.960  -3.089  0.00  0.00     0.027 H 
ATOM     37  C   LIG d   1       4.018   0.753  -2.274  0.00  0.00    -0.053 C 
ATOM     38  H   LIG d   1       3.580  -1.061  -1.199  0.00  0.00     0.026 H 
ATOM     39  H   LIG d   1       5.168  -0.350  -0.824  0.00  0.00     0.026 H 
ATOM     40  C   LIG d   1       3.013   0.459  -3.390  0.00  0.00    -0.052 C 
ATOM     41  H   LIG d   1       3.553   1.397  -1.528  0.00  0.00     0.026 H 
ATOM     42  H   LIG d   1       4.890   1.255  -2.694  0.00  0.00     0.026 H 
ATOM     43  C   LIG d   1       3.666  -0.443  -4.439  0.00  0.00    -0.042 C 
ATOM     44  H   LIG d   1       2.141  -0.042  -2.971  0.00  0.00     0.026 H 
ATOM     45  H   LIG d   1       2.705   1.395  -3.857  0.00  0.00     0.026 H 
ATOM     46  H   LIG d   1       4.538   0.059  -4.859  0.00  0.00     0.027 H 
ATOM     47  H   LIG d   1       2.949  -0.652  -5.234  0.00  0.00     0.027 H 
ATOM     48  H   LIG d   1       3.227  -2.258  -3.365  0.00  0.00     0.039 H 
ENDBRANCH  29  32
ENDBRANCH   7  28
BRANCH  26  49
ATOM     49  C   LIG d   1       5.140 -10.310  -6.662  0.00  0.00    -0.029 C 
ATOM     50  H   LIG d   1       4.237 -10.838  -6.968  0.00  0.00     0.082 H 
ATOM     51  H   LIG d   1       6.011 -10.934  -6.862  0.00  0.00     0.082 H 
BRANCH  49  52
ATOM     52  C   LIG d   1       5.068 -10.000  -5.165  0.00  0.00    -0.001 C 
ATOM     53  C   LIG d   1       4.003 -10.884  -4.513  0.00  0.00    -0.045 C 
ATOM     54  C   LIG d   1       3.930 -10.574  -3.016  0.00  0.00    -0.053 C 
ATOM     55  H   LIG d   1       3.034 -10.684  -4.972  0.00  0.00     0.027 H 
ATOM     56  H   LIG d   1       4.263 -11.932  -4.654  0.00  0.00     0.027 H 
ATOM     57  C   LIG d   1       5.289 -10.852  -2.371  0.00  0.00    -0.053 C 
ATOM     58  H   LIG d   1       3.669  -9.524  -2.874  0.00  0.00     0.026 H 
ATOM     59  H   LIG d   1       3.171 -11.202  -2.551  0.00  0.00     0.026 H 
ATOM     60  C   LIG d   1       6.355  -9.969  -3.024  0.00  0.00    -0.053 C 
ATOM     61  H   LIG d   1       5.237 -10.632  -1.305  0.00  0.00     0.026 H 
ATOM     62  H   LIG d   1       5.549 -11.902  -2.512  0.00  0.00     0.026 H 
ATOM     63  C   LIG d   1       6.427 -10.279  -4.520  0.00  0.00    -0.045 C 
ATOM     64  H   LIG d   1       6.094  -8.921  -2.882  0.00  0.00     0.026 H 
ATOM     65  H   LIG d   1       7.322 -10.169  -2.564  0.00  0.00     0.026 H 
ATOM     66  H   LIG d   1       6.687 -11.328  -4.662  0.00  0.00     0.027 H 
ATOM     67  H   LIG d   1       7.185  -9.650  -4.985  0.00  0.00     0.027 H 
ATOM     68  H   LIG d   1       4.807  -8.951  -5.023  0.00  0.00     0.035 H 
ENDBRANCH  49  52
ENDBRANCH  26  49
TORSDOF 4
ENDMDL
MODEL 4
REMARK VINA RESULT:      -7.0      2.750      6.991
REMARK  4 active torsions:
REMARK  status: ('A' for Active; 'I' for Inactive)
REMARK    1  A    between atoms: C_7  and  N_8 
REMARK       I    between atoms: N_8  and  C_9 
REMARK    2  A    between atoms: C_9  and  C_11 
REMARK    3  A    between atoms: C_25  and  C_26 
REMARK    4  A    between atoms: C_25  and  N_67 
ROOT
ATOM      1  C   LIG d   1       6.321   1.378  -3.161  0.00  0.00    -0.034 C 
ATOM      2  C   LIG d   1       5.187   0.558  -3.144  0.00  0.00    -0.040 C 
ATOM      3  C   LIG d   1       5.253  -0.721  -3.597  0.00  0.00     0.030 C 
ATOM      4  N   LIG d   1       6.431  -1.249  -4.009  0.00  0.00    -0.310 N 
ATOM      5  C   LIG d   1       7.524  -0.455  -4.123  0.00  0.00     0.273 C 
ATOM      6  O   LIG d   1       8.544  -0.898  -4.625  0.00  0.00    -0.266 OA
ATOM      7  C   LIG d   1       7.491   0.877  -3.667  0.00  0.00     0.099 C 
ATOM      8  C   LIG d   1       6.611  -2.674  -4.293  0.00  0.00     0.034 C 
ATOM      9  C   LIG d   1       5.293  -3.372  -4.589  0.00  0.00     0.018 C 
ATOM     10  H   LIG d   1       5.455  -4.448  -4.536  0.00  0.00     0.037 H 
ATOM     11  C   LIG d   1       4.265  -2.996  -3.518  0.00  0.00    -0.031 C 
ATOM     12  C   LIG d   1       3.959  -1.502  -3.672  0.00  0.00     0.040 C 
ATOM     13  H   LIG d   1       3.264  -1.164  -2.904  0.00  0.00     0.042 H 
ATOM     14  C   LIG d   1       3.364  -1.279  -5.073  0.00  0.00    -0.024 C 
ATOM     15  C   LIG d   1       4.774  -3.030  -5.978  0.00  0.00    -0.027 C 
ATOM     16  H   LIG d   1       6.274   2.389  -2.785  0.00  0.00     0.064 H 
ATOM     17  H   LIG d   1       4.253   0.945  -2.764  0.00  0.00     0.064 H 
ATOM     18  H   LIG d   1       7.270  -2.782  -5.154  0.00  0.00     0.050 H 
ATOM     19  H   LIG d   1       7.077  -3.150  -3.430  0.00  0.00     0.050 H 
ATOM     20  H   LIG d   1       4.675  -3.189  -2.528  0.00  0.00     0.028 H 
ATOM     21  H   LIG d   1       3.353  -3.576  -3.661  0.00  0.00     0.028 H 
ATOM     22  H   LIG d   1       2.497  -1.924  -5.211  0.00  0.00     0.082 H 
ATOM     23  H   LIG d   1       3.071  -0.236  -5.187  0.00  0.00     0.082 H 
ATOM     24  H   LIG d   1       3.902  -3.647  -6.196  0.00  0.00     0.082 H 
ATOM     25  H   LIG d   1       5.553  -3.238  -6.712  0.00  0.00     0.082 H 
ATOM     26  N   LIG d   1       4.420  -1.598  -6.060  0.00  0.00     0.236 N 
ATOM     27  H   LIG d   1       5.253  -1.036  -5.851  0.00  0.00     0.203 HD
ENDROOT
BRANCH   7  28
ATOM     28  N   LIG d   1       8.639   1.677  -3.726  0.00  0.00    -0.281 N 
ATOM     29  C   LIG d   1       8.838   2.495  -4.778  0.00  0.00     0.220 C 
ATOM     30  O   LIG d   1       8.073   2.470  -5.719  0.00  0.00    -0.275 OA
ATOM     31  H   LIG d   1       9.292   1.643  -3.008  0.00  0.00     0.155 HD
BRANCH  29  32
ATOM     32  C   LIG d   1      10.008   3.446  -4.784  0.00  0.00     0.036 C 
ATOM     33  C   LIG d   1       9.784   4.523  -5.847  0.00  0.00    -0.042 C 
ATOM     34  C   LIG d   1      10.972   5.488  -5.852  0.00  0.00    -0.052 C 
ATOM     35  H   LIG d   1       9.692   4.054  -6.826  0.00  0.00     0.027 H 
ATOM     36  H   LIG d   1       8.871   5.073  -5.619  0.00  0.00     0.027 H 
ATOM     37  C   LIG d   1      11.102   6.146  -4.478  0.00  0.00    -0.053 C 
ATOM     38  H   LIG d   1      11.886   4.938  -6.080  0.00  0.00     0.026 H 
ATOM     39  H   LIG d   1      10.813   6.256  -6.610  0.00  0.00     0.026 H 
ATOM     40  C   LIG d   1      11.326   5.067  -3.415  0.00  0.00    -0.052 C 
ATOM     41  H   LIG d   1      11.948   6.833  -4.481  0.00  0.00     0.026 H 
ATOM     42  H   LIG d   1      10.189   6.696  -4.250  0.00  0.00     0.026 H 
ATOM     43  C   LIG d   1      10.138   4.104  -3.409  0.00  0.00    -0.042 C 
ATOM     44  H   LIG d   1      12.239   4.518  -3.642  0.00  0.00     0.026 H 
ATOM     45  H   LIG d   1      11.418   5.536  -2.436  0.00  0.00     0.026 H 
ATOM     46  H   LIG d   1       9.225   4.653  -3.182  0.00  0.00     0.027 H 
ATOM     47  H   LIG d   1      10.298   3.336  -2.652  0.00  0.00     0.027 H 
ATOM     48  H   LIG d   1      10.921   2.895  -5.011  0.00  0.00     0.039 H 
ENDBRANCH  29  32
ENDBRANCH   7  28
BRANCH  26  49
ATOM     49  C   LIG d   1       3.954  -1.272  -7.423  0.00  0.00    -0.029 C 
ATOM     50  H   LIG d   1       4.562  -1.816  -8.145  0.00  0.00     0.082 H 
ATOM     51  H   LIG d   1       2.912  -1.576  -7.522  0.00  0.00     0.082 H 
BRANCH  49  52
ATOM     52  C   LIG d   1       4.073   0.231  -7.686  0.00  0.00    -0.001 C 
ATOM     53  C   LIG d   1       5.155   0.479  -8.740  0.00  0.00    -0.045 C 
ATOM     54  C   LIG d   1       5.275   1.982  -9.003  0.00  0.00    -0.053 C 
ATOM     55  H   LIG d   1       6.110   0.097  -8.377  0.00  0.00     0.027 H 
ATOM     56  H   LIG d   1       4.886  -0.031  -9.664  0.00  0.00     0.027 H 
ATOM     57  C   LIG d   1       3.936   2.519  -9.511  0.00  0.00    -0.053 C 
ATOM     58  H   LIG d   1       5.543   2.493  -8.078  0.00  0.00     0.026 H 
ATOM     59  H   LIG d   1       6.046   2.159  -9.753  0.00  0.00     0.026 H 
ATOM     60  C   LIG d   1       2.853   2.270  -8.458  0.00  0.00    -0.053 C 
ATOM     61  H   LIG d   1       4.021   3.589  -9.700  0.00  0.00     0.026 H 
ATOM     62  H   LIG d   1       3.667   2.008 -10.436  0.00  0.00     0.026 H 
ATOM     63  C   LIG d   1       2.733   0.768  -8.195  0.00  0.00    -0.045 C 
ATOM     64  H   LIG d   1       3.122   2.781  -7.534  0.00  0.00     0.026 H 
ATOM     65  H   LIG d   1       1.900   2.653  -8.821  0.00  0.00     0.026 H 
ATOM     66  H   LIG d   1       2.466   0.257  -9.120  0.00  0.00     0.027 H 
ATOM     67  H   LIG d   1       1.964   0.591  -7.445  0.00  0.00     0.027 H 
ATOM     68  H   LIG d   1       4.342   0.742  -6.762  0.00  0.00     0.035 H 
ENDBRANCH  49  52
ENDBRANCH  26  49
TORSDOF 4
ENDMDL
MODEL 5
REMARK VINA RESULT:      -6.9      2.976      6.704
REMARK  4 active torsions:
REMARK  status: ('A' for Active; 'I' for Inactive)
REMARK    1  A    between atoms: C_7  and  N_8 
REMARK       I    between atoms: N_8  and  C_9 
REMARK    2  A    between atoms: C_9  and  C_11 
REMARK    3  A    between atoms: C_25  and  C_26 
REMARK    4  A    between atoms: C_25  and  N_67 
ROOT
ATOM      1  C   LIG d   1       7.849   0.574  -7.702  0.00  0.00    -0.034 C 
ATOM      2  C   LIG d   1       7.035  -0.565  -7.705  0.00  0.00    -0.040 C 
ATOM      3  C   LIG d   1       5.786  -0.520  -8.236  0.00  0.00     0.030 C 
ATOM      4  N   LIG d   1       5.328   0.607  -8.834  0.00  0.00    -0.310 N 
ATOM      5  C   LIG d   1       6.055   1.750  -8.766  0.00  0.00     0.273 C 
ATOM      6  O   LIG d   1       5.580   2.794  -9.181  0.00  0.00    -0.266 OA
ATOM      7  C   LIG d   1       7.352   1.741  -8.218  0.00  0.00     0.099 C 
ATOM      8  C   LIG d   1       4.091   0.650  -9.615  0.00  0.00     0.034 C 
ATOM      9  C   LIG d   1       3.147  -0.486  -9.259  0.00  0.00     0.018 C 
ATOM     10  H   LIG d   1       2.381  -0.552 -10.032  0.00  0.00     0.037 H 
ATOM     11  C   LIG d   1       3.920  -1.807  -9.245  0.00  0.00    -0.031 C 
ATOM     12  C   LIG d   1       4.918  -1.750  -8.084  0.00  0.00     0.040 C 
ATOM     13  H   LIG d   1       5.532  -2.649  -8.052  0.00  0.00     0.042 H 
ATOM     14  C   LIG d   1       4.120  -1.595  -6.778  0.00  0.00    -0.024 C 
ATOM     15  C   LIG d   1       2.460  -0.250  -7.920  0.00  0.00    -0.027 C 
ATOM     16  H   LIG d   1       8.848   0.534  -7.297  0.00  0.00     0.064 H 
ATOM     17  H   LIG d   1       7.406  -1.488  -7.285  0.00  0.00     0.064 H 
ATOM     18  H   LIG d   1       3.589   1.600  -9.429  0.00  0.00     0.050 H 
ATOM     19  H   LIG d   1       4.340   0.585 -10.674  0.00  0.00     0.050 H 
ATOM     20  H   LIG d   1       4.455  -1.932 -10.186  0.00  0.00     0.028 H 
ATOM     21  H   LIG d   1       3.229  -2.638  -9.099  0.00  0.00     0.028 H 
ATOM     22  H   LIG d   1       3.392  -2.401  -6.694  0.00  0.00     0.082 H 
ATOM     23  H   LIG d   1       4.800  -1.622  -5.926  0.00  0.00     0.082 H 
ATOM     24  H   LIG d   1       1.703  -1.018  -7.766  0.00  0.00     0.082 H 
ATOM     25  H   LIG d   1       1.981   0.729  -7.932  0.00  0.00     0.082 H 
ATOM     26  N   LIG d   1       3.447  -0.278  -6.821  0.00  0.00     0.236 N 
ATOM     27  H   LIG d   1       4.151   0.451  -6.986  0.00  0.00     0.203 HD
ENDROOT
BRANCH   7  28
ATOM     28  N   LIG d   1       8.127   2.908  -8.208  0.00  0.00    -0.281 N 
ATOM     29  C   LIG d   1       8.873   3.231  -9.283  0.00  0.00     0.220 C 
ATOM     30  O   LIG d   1       8.948   2.467 -10.222  0.00  0.00    -0.275 OA
ATOM     31  H   LIG d   1       8.127   3.484  -7.427  0.00  0.00     0.155 HD
BRANCH  29  32
ATOM     32  C   LIG d   1       9.609   4.547  -9.322  0.00  0.00     0.036 C 
ATOM     33  C   LIG d   1       8.744   5.594 -10.026  0.00  0.00    -0.042 C 
ATOM     34  C   LIG d   1       9.491   6.929 -10.066  0.00  0.00    -0.052 C 
ATOM     35  H   LIG d   1       8.531   5.265 -11.043  0.00  0.00     0.027 H 
ATOM     36  H   LIG d   1       7.808   5.717  -9.480  0.00  0.00     0.027 H 
ATOM     37  C   LIG d   1       9.790   7.390  -8.639  0.00  0.00    -0.053 C 
ATOM     38  H   LIG d   1      10.427   6.805 -10.611  0.00  0.00     0.026 H 
ATOM     39  H   LIG d   1       8.874   7.675 -10.568  0.00  0.00     0.026 H 
ATOM     40  C   LIG d   1      10.655   6.342  -7.935  0.00  0.00    -0.052 C 
ATOM     41  H   LIG d   1      10.322   8.340  -8.667  0.00  0.00     0.026 H 
ATOM     42  H   LIG d   1       8.854   7.513  -8.093  0.00  0.00     0.026 H 
ATOM     43  C   LIG d   1       9.907   5.008  -7.894  0.00  0.00    -0.042 C 
ATOM     44  H   LIG d   1      11.591   6.218  -8.479  0.00  0.00     0.026 H 
ATOM     45  H   LIG d   1      10.867   6.670  -6.918  0.00  0.00     0.026 H 
ATOM     46  H   LIG d   1       8.972   5.131  -7.349  0.00  0.00     0.027 H 
ATOM     47  H   LIG d   1      10.524   4.261  -7.393  0.00  0.00     0.027 H 
ATOM     48  H   LIG d   1      10.545   4.422  -9.867  0.00  0.00     0.039 H 
ENDBRANCH  29  32
ENDBRANCH   7  28
BRANCH  26  49
ATOM     49  C   LIG d   1       2.774  -0.010  -5.534  0.00  0.00    -0.029 C 
ATOM     50  H   LIG d   1       2.346   0.991  -5.560  0.00  0.00     0.082 H 
ATOM     51  H   LIG d   1       1.980  -0.742  -5.391  0.00  0.00     0.082 H 
BRANCH  49  52
ATOM     52  C   LIG d   1       3.771  -0.108  -4.377  0.00  0.00    -0.001 C 
ATOM     53  C   LIG d   1       3.868   1.246  -3.672  0.00  0.00    -0.045 C 
ATOM     54  C   LIG d   1       4.865   1.149  -2.515  0.00  0.00    -0.053 C 
ATOM     55  H   LIG d   1       4.209   2.001  -4.381  0.00  0.00     0.027 H 
ATOM     56  H   LIG d   1       2.889   1.526  -3.285  0.00  0.00     0.027 H 
ATOM     57  C   LIG d   1       4.388   0.089  -1.520  0.00  0.00    -0.053 C 
ATOM     58  H   LIG d   1       5.845   0.868  -2.901  0.00  0.00     0.026 H 
ATOM     59  H   LIG d   1       4.935   2.113  -2.013  0.00  0.00     0.026 H 
ATOM     60  C   LIG d   1       4.290  -1.266  -2.224  0.00  0.00    -0.053 C 
ATOM     61  H   LIG d   1       5.097   0.020  -0.695  0.00  0.00     0.026 H 
ATOM     62  H   LIG d   1       3.408   0.370  -1.132  0.00  0.00     0.026 H 
ATOM     63  C   LIG d   1       3.294  -1.168  -3.381  0.00  0.00    -0.045 C 
ATOM     64  H   LIG d   1       5.270  -1.545  -2.610  0.00  0.00     0.026 H 
ATOM     65  H   LIG d   1       3.950  -2.020  -1.514  0.00  0.00     0.026 H 
ATOM     66  H   LIG d   1       2.314  -0.887  -2.994  0.00  0.00     0.027 H 
ATOM     67  H   LIG d   1       3.224  -2.132  -3.883  0.00  0.00     0.027 H 
ATOM     68  H   LIG d   1       4.751  -0.388  -4.763  0.00  0.00     0.035 H 
ENDBRANCH  49  52
ENDBRANCH  26  49
TORSDOF 4
ENDMDL
MODEL 6
REMARK VINA RESULT:      -6.9      4.605      7.546
REMARK  4 active torsions:
REMARK  status: ('A' for Active; 'I' for Inactive)
REMARK    1  A    between atoms: C_7  and  N_8 
REMARK       I    between atoms: N_8  and  C_9 
REMARK    2  A    between atoms: C_9  and  C_11 
REMARK    3  A    between atoms: C_25  and  C_26 
REMARK    4  A    between atoms: C_25  and  N_67 
ROOT
ATOM      1  C   LIG d   1       3.712  -5.199  -7.222  0.00  0.00    -0.034 C 
ATOM      2  C   LIG d   1       3.775  -4.053  -8.023  0.00  0.00    -0.040 C 
ATOM      3  C   LIG d   1       4.683  -3.077  -7.761  0.00  0.00     0.030 C 
ATOM      4  N   LIG d   1       5.591  -3.226  -6.765  0.00  0.00    -0.310 N 
ATOM      5  C   LIG d   1       5.495  -4.279  -5.917  0.00  0.00     0.273 C 
ATOM      6  O   LIG d   1       6.223  -4.336  -4.939  0.00  0.00    -0.266 OA
ATOM      7  C   LIG d   1       4.562  -5.307  -6.154  0.00  0.00     0.099 C 
ATOM      8  C   LIG d   1       6.727  -2.322  -6.579  0.00  0.00     0.034 C 
ATOM      9  C   LIG d   1       6.500  -0.971  -7.237  0.00  0.00     0.018 C 
ATOM     10  H   LIG d   1       7.456  -0.448  -7.289  0.00  0.00     0.037 H 
ATOM     11  C   LIG d   1       5.998  -1.178  -8.669  0.00  0.00    -0.031 C 
ATOM     12  C   LIG d   1       4.605  -1.811  -8.585  0.00  0.00     0.040 C 
ATOM     13  H   LIG d   1       4.213  -2.026  -9.579  0.00  0.00     0.042 H 
ATOM     14  C   LIG d   1       3.681  -0.831  -7.841  0.00  0.00    -0.024 C 
ATOM     15  C   LIG d   1       5.525  -0.113  -6.443  0.00  0.00    -0.027 C 
ATOM     16  H   LIG d   1       3.002  -5.982  -7.440  0.00  0.00     0.064 H 
ATOM     17  H   LIG d   1       3.099  -3.945  -8.858  0.00  0.00     0.064 H 
ATOM     18  H   LIG d   1       6.889  -2.172  -5.512  0.00  0.00     0.050 H 
ATOM     19  H   LIG d   1       7.616  -2.780  -7.010  0.00  0.00     0.050 H 
ATOM     20  H   LIG d   1       6.674  -1.843  -9.205  0.00  0.00     0.028 H 
ATOM     21  H   LIG d   1       5.938  -0.218  -9.183  0.00  0.00     0.028 H 
ATOM     22  H   LIG d   1       3.696   0.138  -8.338  0.00  0.00     0.082 H 
ATOM     23  H   LIG d   1       2.664  -1.223  -7.828  0.00  0.00     0.082 H 
ATOM     24  H   LIG d   1       5.491   0.886  -6.878  0.00  0.00     0.082 H 
ATOM     25  H   LIG d   1       5.868  -0.043  -5.411  0.00  0.00     0.082 H 
ATOM     26  N   LIG d   1       4.178  -0.719  -6.452  0.00  0.00     0.236 N 
ATOM     27  H   LIG d   1       4.232  -1.658  -6.041  0.00  0.00     0.203 HD
ENDROOT
BRANCH   7  28
ATOM     28  N   LIG d   1       4.509  -6.427  -5.315  0.00  0.00    -0.281 N 
ATOM     29  C   LIG d   1       5.124  -7.570  -5.677  0.00  0.00     0.220 C 
ATOM     30  O   LIG d   1       5.644  -7.660  -6.770  0.00  0.00    -0.275 OA
ATOM     31  H   LIG d   1       4.030  -6.380  -4.472  0.00  0.00     0.155 HD
BRANCH  29  32
ATOM     32  C   LIG d   1       5.174  -8.735  -4.721  0.00  0.00     0.036 C 
ATOM     33  C   LIG d   1       4.626  -9.985  -5.413  0.00  0.00    -0.042 C 
ATOM     34  C   LIG d   1       4.676 -11.167  -4.442  0.00  0.00    -0.052 C 
ATOM     35  H   LIG d   1       3.595  -9.809  -5.718  0.00  0.00     0.027 H 
ATOM     36  H   LIG d   1       5.232 -10.210  -6.290  0.00  0.00     0.027 H 
ATOM     37  C   LIG d   1       6.122 -11.415  -4.013  0.00  0.00    -0.053 C 
ATOM     38  H   LIG d   1       4.069 -10.943  -3.564  0.00  0.00     0.026 H 
ATOM     39  H   LIG d   1       4.285 -12.058  -4.935  0.00  0.00     0.026 H 
ATOM     40  C   LIG d   1       6.670 -10.164  -3.322  0.00  0.00    -0.052 C 
ATOM     41  H   LIG d   1       6.158 -12.256  -3.321  0.00  0.00     0.026 H 
ATOM     42  H   LIG d   1       6.729 -11.639  -4.890  0.00  0.00     0.026 H 
ATOM     43  C   LIG d   1       6.622  -8.982  -4.292  0.00  0.00    -0.042 C 
ATOM     44  H   LIG d   1       6.065  -9.939  -2.444  0.00  0.00     0.026 H 
ATOM     45  H   LIG d   1       7.702 -10.340  -3.016  0.00  0.00     0.026 H 
ATOM     46  H   LIG d   1       7.227  -9.207  -5.170  0.00  0.00     0.027 H 
ATOM     47  H   LIG d   1       7.011  -8.091  -3.800  0.00  0.00     0.027 H 
ATOM     48  H   LIG d   1       4.568  -8.510  -3.844  0.00  0.00     0.039 H 
ENDBRANCH  29  32
ENDBRANCH   7  28
BRANCH  26  49
ATOM     49  C   LIG d   1       3.251   0.102  -5.647  0.00  0.00    -0.029 C 
ATOM     50  H   LIG d   1       3.559   1.145  -5.709  0.00  0.00     0.082 H 
ATOM     51  H   LIG d   1       2.244  -0.004  -6.051  0.00  0.00     0.082 H 
BRANCH  49  52
ATOM     52  C   LIG d   1       3.264  -0.348  -4.185  0.00  0.00    -0.001 C 
ATOM     53  C   LIG d   1       3.890  -1.741  -4.087  0.00  0.00    -0.045 C 
ATOM     54  C   LIG d   1       3.903  -2.192  -2.625  0.00  0.00    -0.053 C 
ATOM     55  H   LIG d   1       3.303  -2.445  -4.678  0.00  0.00     0.027 H 
ATOM     56  H   LIG d   1       4.910  -1.709  -4.466  0.00  0.00     0.027 H 
ATOM     57  C   LIG d   1       4.725  -1.204  -1.794  0.00  0.00    -0.053 C 
ATOM     58  H   LIG d   1       2.882  -2.224  -2.244  0.00  0.00     0.026 H 
ATOM     59  H   LIG d   1       4.348  -3.184  -2.554  0.00  0.00     0.026 H 
ATOM     60  C   LIG d   1       4.100   0.189  -1.893  0.00  0.00    -0.053 C 
ATOM     61  H   LIG d   1       4.736  -1.525  -0.753  0.00  0.00     0.026 H 
ATOM     62  H   LIG d   1       5.746  -1.173  -2.174  0.00  0.00     0.026 H 
ATOM     63  C   LIG d   1       4.087   0.640  -3.355  0.00  0.00    -0.045 C 
ATOM     64  H   LIG d   1       3.080   0.157  -1.513  0.00  0.00     0.026 H 
ATOM     65  H   LIG d   1       4.686   0.892  -1.301  0.00  0.00     0.026 H 
ATOM     66  H   LIG d   1       5.108   0.671  -3.735  0.00  0.00     0.027 H 
ATOM     67  H   LIG d   1       3.641   1.631  -3.425  0.00  0.00     0.027 H 
ATOM     68  H   LIG d   1       2.243  -0.381  -3.805  0.00  0.00     0.035 H 
ENDBRANCH  49  52
ENDBRANCH  26  49
TORSDOF 4
ENDMDL
MODEL 7
REMARK VINA RESULT:      -6.8      4.732      8.317
REMARK  4 active torsions:
REMARK  status: ('A' for Active; 'I' for Inactive)
REMARK    1  A    between atoms: C_7  and  N_8 
REMARK       I    between atoms: N_8  and  C_9 
REMARK    2  A    between atoms: C_9  and  C_11 
REMARK    3  A    between atoms: C_25  and  C_26 
REMARK    4  A    between atoms: C_25  and  N_67 
ROOT
ATOM      1  C   LIG d   1       8.425   2.427  -5.988  0.00  0.00    -0.034 C 
ATOM      2  C   LIG d   1       9.565   2.907  -6.641  0.00  0.00    -0.040 C 
ATOM      3  C   LIG d   1      10.699   3.177  -5.942  0.00  0.00     0.030 C 
ATOM      4  N   LIG d   1      10.769   2.921  -4.613  0.00  0.00    -0.310 N 
ATOM      5  C   LIG d   1       9.656   2.544  -3.938  0.00  0.00     0.273 C 
ATOM      6  O   LIG d   1       9.688   2.450  -2.722  0.00  0.00    -0.266 OA
ATOM      7  C   LIG d   1       8.462   2.260  -4.629  0.00  0.00     0.099 C 
ATOM      8  C   LIG d   1      12.020   2.977  -3.855  0.00  0.00     0.034 C 
ATOM      9  C   LIG d   1      13.074   3.828  -4.546  0.00  0.00     0.018 C 
ATOM     10  H   LIG d   1      14.039   3.625  -4.081  0.00  0.00     0.037 H 
ATOM     11  C   LIG d   1      13.166   3.427  -6.021  0.00  0.00    -0.031 C 
ATOM     12  C   LIG d   1      11.846   3.817  -6.692  0.00  0.00     0.040 C 
ATOM     13  H   LIG d   1      11.835   3.513  -7.739  0.00  0.00     0.042 H 
ATOM     14  C   LIG d   1      11.683   5.342  -6.573  0.00  0.00    -0.024 C 
ATOM     15  C   LIG d   1      12.776   5.314  -4.410  0.00  0.00    -0.027 C 
ATOM     16  H   LIG d   1       7.529   2.196  -6.545  0.00  0.00     0.064 H 
ATOM     17  H   LIG d   1       9.545   3.061  -7.709  0.00  0.00     0.064 H 
ATOM     18  H   LIG d   1      11.818   3.397  -2.870  0.00  0.00     0.050 H 
ATOM     19  H   LIG d   1      12.406   1.965  -3.735  0.00  0.00     0.050 H 
ATOM     20  H   LIG d   1      13.318   2.351  -6.102  0.00  0.00     0.028 H 
ATOM     21  H   LIG d   1      13.994   3.954  -6.496  0.00  0.00     0.028 H 
ATOM     22  H   LIG d   1      12.557   5.839  -6.993  0.00  0.00     0.082 H 
ATOM     23  H   LIG d   1      10.786   5.659  -7.103  0.00  0.00     0.082 H 
ATOM     24  H   LIG d   1      13.616   5.885  -4.805  0.00  0.00     0.082 H 
ATOM     25  H   LIG d   1      12.642   5.557  -3.356  0.00  0.00     0.082 H 
ATOM     26  N   LIG d   1      11.537   5.662  -5.135  0.00  0.00     0.236 N 
ATOM     27  H   LIG d   1      10.759   5.113  -4.749  0.00  0.00     0.203 HD
ENDROOT
BRANCH   7  28
ATOM     28  N   LIG d   1       7.331   1.807  -3.938  0.00  0.00    -0.281 N 
ATOM     29  C   LIG d   1       7.127   0.485  -3.773  0.00  0.00     0.220 C 
ATOM     30  O   LIG d   1       7.870  -0.314  -4.302  0.00  0.00    -0.275 OA
ATOM     31  H   LIG d   1       6.695   2.445  -3.578  0.00  0.00     0.155 HD
BRANCH  29  32
ATOM     32  C   LIG d   1       5.978  -0.000  -2.925  0.00  0.00     0.036 C 
ATOM     33  C   LIG d   1       4.820   0.995  -3.018  0.00  0.00    -0.042 C 
ATOM     34  C   LIG d   1       3.655   0.502  -2.156  0.00  0.00    -0.052 C 
ATOM     35  H   LIG d   1       5.149   1.970  -2.661  0.00  0.00     0.027 H 
ATOM     36  H   LIG d   1       4.495   1.078  -4.055  0.00  0.00     0.027 H 
ATOM     37  C   LIG d   1       3.193  -0.867  -2.657  0.00  0.00    -0.053 C 
ATOM     38  H   LIG d   1       3.980   0.420  -1.119  0.00  0.00     0.026 H 
ATOM     39  H   LIG d   1       2.829   1.212  -2.222  0.00  0.00     0.026 H 
ATOM     40  C   LIG d   1       4.353  -1.862  -2.564  0.00  0.00    -0.052 C 
ATOM     41  H   LIG d   1       2.364  -1.218  -2.043  0.00  0.00     0.026 H 
ATOM     42  H   LIG d   1       2.868  -0.784  -3.694  0.00  0.00     0.026 H 
ATOM     43  C   LIG d   1       5.516  -1.370  -3.426  0.00  0.00    -0.042 C 
ATOM     44  H   LIG d   1       4.677  -1.945  -1.527  0.00  0.00     0.026 H 
ATOM     45  H   LIG d   1       4.023  -2.837  -2.921  0.00  0.00     0.026 H 
ATOM     46  H   LIG d   1       5.192  -1.286  -4.463  0.00  0.00     0.027 H 
ATOM     47  H   LIG d   1       6.342  -2.078  -3.359  0.00  0.00     0.027 H 
ATOM     48  H   LIG d   1       6.304  -0.083  -1.888  0.00  0.00     0.039 H 
ENDBRANCH  29  32
ENDBRANCH   7  28
BRANCH  26  49
ATOM     49  C   LIG d   1      11.239   7.098  -4.964  0.00  0.00    -0.029 C 
ATOM     50  H   LIG d   1      12.070   7.681  -5.360  0.00  0.00     0.082 H 
ATOM     51  H   LIG d   1      10.330   7.339  -5.515  0.00  0.00     0.082 H 
BRANCH  49  52
ATOM     52  C   LIG d   1      11.041   7.434  -3.484  0.00  0.00    -0.001 C 
ATOM     53  C   LIG d   1      10.789   8.935  -3.330  0.00  0.00    -0.045 C 
ATOM     54  C   LIG d   1      10.591   9.270  -1.851  0.00  0.00    -0.053 C 
ATOM     55  H   LIG d   1      11.646   9.488  -3.717  0.00  0.00     0.027 H 
ATOM     56  H   LIG d   1       9.895   9.212  -3.888  0.00  0.00     0.027 H 
ATOM     57  C   LIG d   1       9.391   8.493  -1.308  0.00  0.00    -0.053 C 
ATOM     58  H   LIG d   1      11.486   8.993  -1.292  0.00  0.00     0.026 H 
ATOM     59  H   LIG d   1      10.412  10.340  -1.741  0.00  0.00     0.026 H 
ATOM     60  C   LIG d   1       9.642   6.992  -1.462  0.00  0.00    -0.053 C 
ATOM     61  H   LIG d   1       9.248   8.732  -0.254  0.00  0.00     0.026 H 
ATOM     62  H   LIG d   1       8.496   8.772  -1.866  0.00  0.00     0.026 H 
ATOM     63  C   LIG d   1       9.840   6.656  -2.941  0.00  0.00    -0.045 C 
ATOM     64  H   LIG d   1      10.536   6.715  -0.904  0.00  0.00     0.026 H 
ATOM     65  H   LIG d   1       8.786   6.439  -1.075  0.00  0.00     0.026 H 
ATOM     66  H   LIG d   1       8.946   6.935  -3.500  0.00  0.00     0.027 H 
ATOM     67  H   LIG d   1      10.019   5.588  -3.051  0.00  0.00     0.027 H 
ATOM     68  H   LIG d   1      11.935   7.156  -2.926  0.00  0.00     0.035 H 
ENDBRANCH  49  52
ENDBRANCH  26  49
TORSDOF 4
ENDMDL
MODEL 8
REMARK VINA RESULT:      -6.8      3.065      7.281
REMARK  4 active torsions:
REMARK  status: ('A' for Active; 'I' for Inactive)
REMARK    1  A    between atoms: C_7  and  N_8 
REMARK       I    between atoms: N_8  and  C_9 
REMARK    2  A    between atoms: C_9  and  C_11 
REMARK    3  A    between atoms: C_25  and  C_26 
REMARK    4  A    between atoms: C_25  and  N_67 
ROOT
ATOM      1  C   LIG d   1       9.271  -0.177  -5.264  0.00  0.00    -0.034 C 
ATOM      2  C   LIG d   1       8.999  -1.544  -5.394  0.00  0.00    -0.040 C 
ATOM      3  C   LIG d   1       7.886  -1.967  -6.047  0.00  0.00     0.030 C 
ATOM      4  N   LIG d   1       7.055  -1.079  -6.645  0.00  0.00    -0.310 N 
ATOM      5  C   LIG d   1       7.242   0.251  -6.460  0.00  0.00     0.273 C 
ATOM      6  O   LIG d   1       6.414   1.042  -6.881  0.00  0.00    -0.266 OA
ATOM      7  C   LIG d   1       8.382   0.726  -5.784  0.00  0.00     0.099 C 
ATOM      8  C   LIG d   1       5.973  -1.481  -7.546  0.00  0.00     0.034 C 
ATOM      9  C   LIG d   1       5.553  -2.925  -7.331  0.00  0.00     0.018 C 
ATOM     10  H   LIG d   1       4.944  -3.236  -8.181  0.00  0.00     0.037 H 
ATOM     11  C   LIG d   1       6.796  -3.818  -7.289  0.00  0.00    -0.031 C 
ATOM     12  C   LIG d   1       7.589  -3.451  -6.031  0.00  0.00     0.040 C 
ATOM     13  H   LIG d   1       8.514  -4.024  -5.971  0.00  0.00     0.042 H 
ATOM     14  C   LIG d   1       6.700  -3.732  -4.808  0.00  0.00    -0.024 C 
ATOM     15  C   LIG d   1       4.728  -3.090  -6.062  0.00  0.00    -0.027 C 
ATOM     16  H   LIG d   1      10.165   0.160  -4.761  0.00  0.00     0.064 H 
ATOM     17  H   LIG d   1       9.682  -2.267  -4.974  0.00  0.00     0.064 H 
ATOM     18  H   LIG d   1       5.113  -0.833  -7.376  0.00  0.00     0.050 H 
ATOM     19  H   LIG d   1       6.308  -1.359  -8.576  0.00  0.00     0.050 H 
ATOM     20  H   LIG d   1       7.406  -3.644  -8.175  0.00  0.00     0.028 H 
ATOM     21  H   LIG d   1       6.498  -4.866  -7.246  0.00  0.00     0.028 H 
ATOM     22  H   LIG d   1       6.361  -4.767  -4.830  0.00  0.00     0.082 H 
ATOM     23  H   LIG d   1       7.263  -3.546  -3.893  0.00  0.00     0.082 H 
ATOM     24  H   LIG d   1       4.343  -4.108  -6.016  0.00  0.00     0.082 H 
ATOM     25  H   LIG d   1       3.892  -2.391  -6.086  0.00  0.00     0.082 H 
ATOM     26  N   LIG d   1       5.551  -2.801  -4.870  0.00  0.00     0.236 N 
ATOM     27  H   LIG d   1       5.905  -1.839  -4.934  0.00  0.00     0.203 HD
ENDROOT
BRANCH   7  28
ATOM     28  N   LIG d   1       8.607   2.102  -5.650  0.00  0.00    -0.281 N 
ATOM     29  C   LIG d   1       8.637   2.663  -4.425  0.00  0.00     0.220 C 
ATOM     30  O   LIG d   1       8.376   1.997  -3.445  0.00  0.00    -0.275 OA
ATOM     31  H   LIG d   1       8.742   2.651  -6.438  0.00  0.00     0.155 HD
BRANCH  29  32
ATOM     32  C   LIG d   1       9.002   4.118  -4.271  0.00  0.00     0.036 C 
ATOM     33  C   LIG d   1       9.888   4.294  -3.037  0.00  0.00    -0.042 C 
ATOM     34  C   LIG d   1      10.257   5.771  -2.881  0.00  0.00    -0.052 C 
ATOM     35  H   LIG d   1       9.348   3.959  -2.151  0.00  0.00     0.027 H 
ATOM     36  H   LIG d   1      10.796   3.703  -3.155  0.00  0.00     0.027 H 
ATOM     37  C   LIG d   1      11.015   6.241  -4.123  0.00  0.00    -0.053 C 
ATOM     38  H   LIG d   1       9.349   6.362  -2.763  0.00  0.00     0.026 H 
ATOM     39  H   LIG d   1      10.889   5.896  -2.001  0.00  0.00     0.026 H 
ATOM     40  C   LIG d   1      10.128   6.065  -5.358  0.00  0.00    -0.052 C 
ATOM     41  H   LIG d   1      11.278   7.293  -4.013  0.00  0.00     0.026 H 
ATOM     42  H   LIG d   1      11.923   5.650  -4.241  0.00  0.00     0.026 H 
ATOM     43  C   LIG d   1       9.759   4.589  -5.515  0.00  0.00    -0.042 C 
ATOM     44  H   LIG d   1       9.220   6.656  -5.241  0.00  0.00     0.026 H 
ATOM     45  H   LIG d   1      10.668   6.400  -6.244  0.00  0.00     0.026 H 
ATOM     46  H   LIG d   1      10.667   3.997  -5.632  0.00  0.00     0.027 H 
ATOM     47  H   LIG d   1       9.127   4.464  -6.394  0.00  0.00     0.027 H 
ATOM     48  H   LIG d   1       8.093   4.709  -4.154  0.00  0.00     0.039 H 
ENDBRANCH  29  32
ENDBRANCH   7  28
BRANCH  26  49
ATOM     49  C   LIG d   1       4.731  -2.927  -3.648  0.00  0.00    -0.029 C 
ATOM     50  H   LIG d   1       3.734  -3.268  -3.926  0.00  0.00     0.082 H 
ATOM     51  H   LIG d   1       5.194  -3.658  -2.986  0.00  0.00     0.082 H 
BRANCH  49  52
ATOM     52  C   LIG d   1       4.627  -1.581  -2.929  0.00  0.00    -0.001 C 
ATOM     53  C   LIG d   1       5.732  -0.648  -3.430  0.00  0.00    -0.045 C 
ATOM     54  C   LIG d   1       5.628   0.698  -2.710  0.00  0.00    -0.053 C 
ATOM     55  H   LIG d   1       6.705  -1.096  -3.224  0.00  0.00     0.027 H 
ATOM     56  H   LIG d   1       5.621  -0.497  -4.503  0.00  0.00     0.027 H 
ATOM     57  C   LIG d   1       4.263   1.325  -2.997  0.00  0.00    -0.053 C 
ATOM     58  H   LIG d   1       5.740   0.546  -1.636  0.00  0.00     0.026 H 
ATOM     59  H   LIG d   1       6.416   1.362  -3.066  0.00  0.00     0.026 H 
ATOM     60  C   LIG d   1       3.157   0.393  -2.497  0.00  0.00    -0.053 C 
ATOM     61  H   LIG d   1       4.189   2.285  -2.486  0.00  0.00     0.026 H 
ATOM     62  H   LIG d   1       4.152   1.478  -4.071  0.00  0.00     0.026 H 
ATOM     63  C   LIG d   1       3.261  -0.953  -3.216  0.00  0.00    -0.045 C 
ATOM     64  H   LIG d   1       3.269   0.242  -1.424  0.00  0.00     0.026 H 
ATOM     65  H   LIG d   1       2.185   0.841  -2.702  0.00  0.00     0.026 H 
ATOM     66  H   LIG d   1       3.151  -0.801  -4.290  0.00  0.00     0.027 H 
ATOM     67  H   LIG d   1       2.475  -1.617  -2.860  0.00  0.00     0.027 H 
ATOM     68  H   LIG d   1       4.738  -1.733  -1.855  0.00  0.00     0.035 H 
ENDBRANCH  49  52
ENDBRANCH  26  49
TORSDOF 4
ENDMDL
MODEL 9
REMARK VINA RESULT:      -6.7      2.401      5.627
REMARK  4 active torsions:
REMARK  status: ('A' for Active; 'I' for Inactive)
REMARK    1  A    between atoms: C_7  and  N_8 
REMARK       I    between atoms: N_8  and  C_9 
REMARK    2  A    between atoms: C_9  and  C_11 
REMARK    3  A    between atoms: C_25  and  C_26 
REMARK    4  A    between atoms: C_25  and  N_67 
ROOT
ATOM      1  C   LIG d   1       7.937   1.215  -4.364  0.00  0.00    -0.034 C 
ATOM      2  C   LIG d   1       6.890   1.393  -3.453  0.00  0.00    -0.040 C 
ATOM      3  C   LIG d   1       6.030   0.377  -3.182  0.00  0.00     0.030 C 
ATOM      4  N   LIG d   1       6.209  -0.847  -3.736  0.00  0.00    -0.310 N 
ATOM      5  C   LIG d   1       7.156  -1.024  -4.690  0.00  0.00     0.273 C 
ATOM      6  O   LIG d   1       7.223  -2.087  -5.286  0.00  0.00    -0.266 OA
ATOM      7  C   LIG d   1       8.062   0.009  -4.999  0.00  0.00     0.099 C 
ATOM      8  C   LIG d   1       5.458  -2.031  -3.315  0.00  0.00     0.034 C 
ATOM      9  C   LIG d   1       4.156  -1.669  -2.620  0.00  0.00     0.018 C 
ATOM     10  H   LIG d   1       3.778  -2.556  -2.112  0.00  0.00     0.037 H 
ATOM     11  C   LIG d   1       4.424  -0.596  -1.560  0.00  0.00    -0.031 C 
ATOM     12  C   LIG d   1       4.847   0.683  -2.290  0.00  0.00     0.040 C 
ATOM     13  H   LIG d   1       5.097   1.472  -1.582  0.00  0.00     0.042 H 
ATOM     14  C   LIG d   1       3.684   1.120  -3.197  0.00  0.00    -0.024 C 
ATOM     15  C   LIG d   1       3.101  -1.195  -3.611  0.00  0.00    -0.027 C 
ATOM     16  H   LIG d   1       8.631   2.017  -4.566  0.00  0.00     0.064 H 
ATOM     17  H   LIG d   1       6.767   2.345  -2.957  0.00  0.00     0.064 H 
ATOM     18  H   LIG d   1       5.234  -2.638  -4.192  0.00  0.00     0.050 H 
ATOM     19  H   LIG d   1       6.074  -2.614  -2.631  0.00  0.00     0.050 H 
ATOM     20  H   LIG d   1       5.223  -0.925  -0.897  0.00  0.00     0.028 H 
ATOM     21  H   LIG d   1       3.517  -0.411  -0.984  0.00  0.00     0.028 H 
ATOM     22  H   LIG d   1       2.776   1.229  -2.604  0.00  0.00     0.082 H 
ATOM     23  H   LIG d   1       3.928   2.068  -3.677  0.00  0.00     0.082 H 
ATOM     24  H   LIG d   1       2.152  -1.070  -3.090  0.00  0.00     0.082 H 
ATOM     25  H   LIG d   1       2.984  -1.944  -4.394  0.00  0.00     0.082 H 
ATOM     26  N   LIG d   1       3.513   0.079  -4.235  0.00  0.00     0.236 N 
ATOM     27  H   LIG d   1       4.409  -0.060  -4.718  0.00  0.00     0.203 HD
ENDROOT
BRANCH   7  28
ATOM     28  N   LIG d   1       9.081  -0.197  -5.938  0.00  0.00    -0.281 N 
ATOM     29  C   LIG d   1       8.964   0.310  -7.181  0.00  0.00     0.220 C 
ATOM     30  O   LIG d   1       7.939   0.864  -7.517  0.00  0.00    -0.275 OA
ATOM     31  H   LIG d   1       9.871  -0.705  -5.694  0.00  0.00     0.155 HD
BRANCH  29  32
ATOM     32  C   LIG d   1      10.112   0.197  -8.153  0.00  0.00     0.036 C 
ATOM     33  C   LIG d   1      10.116   1.412  -9.081  0.00  0.00    -0.042 C 
ATOM     34  C   LIG d   1      11.280   1.296 -10.068  0.00  0.00    -0.052 C 
ATOM     35  H   LIG d   1       9.176   1.452  -9.632  0.00  0.00     0.027 H 
ATOM     36  H   LIG d   1      10.230   2.321  -8.489  0.00  0.00     0.027 H 
ATOM     37  C   LIG d   1      12.599   1.240  -9.296  0.00  0.00    -0.053 C 
ATOM     38  H   LIG d   1      11.166   0.388 -10.659  0.00  0.00     0.026 H 
ATOM     39  H   LIG d   1      11.283   2.163 -10.730  0.00  0.00     0.026 H 
ATOM     40  C   LIG d   1      12.595   0.024  -8.366  0.00  0.00    -0.052 C 
ATOM     41  H   LIG d   1      13.428   1.157  -9.997  0.00  0.00     0.026 H 
ATOM     42  H   LIG d   1      12.713   2.148  -8.704  0.00  0.00     0.026 H 
ATOM     43  C   LIG d   1      11.431   0.140  -7.380  0.00  0.00    -0.042 C 
ATOM     44  H   LIG d   1      12.481  -0.885  -8.958  0.00  0.00     0.026 H 
ATOM     45  H   LIG d   1      13.534  -0.016  -7.816  0.00  0.00     0.026 H 
ATOM     46  H   LIG d   1      11.545   1.048  -6.789  0.00  0.00     0.027 H 
ATOM     47  H   LIG d   1      11.428  -0.726  -6.719  0.00  0.00     0.027 H 
ATOM     48  H   LIG d   1       9.997  -0.712  -8.744  0.00  0.00     0.039 H 
ENDBRANCH  29  32
ENDBRANCH   7  28
BRANCH  26  49
ATOM     49  C   LIG d   1       2.500   0.508  -5.221  0.00  0.00    -0.029 C 
ATOM     50  H   LIG d   1       1.555   0.015  -4.993  0.00  0.00     0.082 H 
ATOM     51  H   LIG d   1       2.373   1.588  -5.150  0.00  0.00     0.082 H 
BRANCH  49  52
ATOM     52  C   LIG d   1       2.940   0.138  -6.639  0.00  0.00    -0.001 C 
ATOM     53  C   LIG d   1       2.781   1.353  -7.555  0.00  0.00    -0.045 C 
ATOM     54  C   LIG d   1       3.221   0.983  -8.973  0.00  0.00    -0.053 C 
ATOM     55  H   LIG d   1       1.736   1.663  -7.568  0.00  0.00     0.027 H 
ATOM     56  H   LIG d   1       3.398   2.170  -7.185  0.00  0.00     0.027 H 
ATOM     57  C   LIG d   1       4.686   0.547  -8.955  0.00  0.00    -0.053 C 
ATOM     58  H   LIG d   1       2.603   0.165  -9.344  0.00  0.00     0.026 H 
ATOM     59  H   LIG d   1       3.107   1.848  -9.626  0.00  0.00     0.026 H 
ATOM     60  C   LIG d   1       4.847  -0.668  -8.038  0.00  0.00    -0.053 C 
ATOM     61  H   LIG d   1       5.001   0.284  -9.965  0.00  0.00     0.026 H 
ATOM     62  H   LIG d   1       5.304   1.365  -8.585  0.00  0.00     0.026 H 
ATOM     63  C   LIG d   1       4.407  -0.299  -6.620  0.00  0.00    -0.045 C 
ATOM     64  H   LIG d   1       4.229  -1.486  -8.409  0.00  0.00     0.026 H 
ATOM     65  H   LIG d   1       5.891  -0.978  -8.026  0.00  0.00     0.026 H 
ATOM     66  H   LIG d   1       5.024   0.520  -6.250  0.00  0.00     0.027 H 
ATOM     67  H   LIG d   1       4.519  -1.163  -5.968  0.00  0.00     0.027 H 
ATOM     68  H   LIG d   1       2.322  -0.681  -7.009  0.00  0.00     0.035 H 
ENDBRANCH  49  52
ENDBRANCH  26  49
TORSDOF 4
ENDMDL
MODEL 10
REMARK VINA RESULT:      -6.7      3.718      7.517
REMARK  4 active torsions:
REMARK  status: ('A' for Active; 'I' for Inactive)
REMARK    1  A    between atoms: C_7  and  N_8 
REMARK       I    between atoms: N_8  and  C_9 
REMARK    2  A    between atoms: C_9  and  C_11 
REMARK    3  A    between atoms: C_25  and  C_26 
REMARK    4  A    between atoms: C_25  and  N_67 
ROOT
ATOM      1  C   LIG d   1       7.306   1.332  -7.485  0.00  0.00    -0.034 C 
ATOM      2  C   LIG d   1       7.880   2.230  -8.393  0.00  0.00    -0.040 C 
ATOM      3  C   LIG d   1       9.181   2.598  -8.270  0.00  0.00     0.030 C 
ATOM      4  N   LIG d   1       9.968   2.052  -7.311  0.00  0.00    -0.310 N 
ATOM      5  C   LIG d   1       9.419   1.253  -6.363  0.00  0.00     0.273 C 
ATOM      6  O   LIG d   1      10.099   0.878  -5.421  0.00  0.00    -0.266 OA
ATOM      7  C   LIG d   1       8.072   0.854  -6.455  0.00  0.00     0.099 C 
ATOM      8  C   LIG d   1      11.419   2.237  -7.268  0.00  0.00     0.034 C 
ATOM      9  C   LIG d   1      11.865   3.468  -8.040  0.00  0.00     0.018 C 
ATOM     10  H   LIG d   1      12.944   3.409  -8.188  0.00  0.00     0.037 H 
ATOM     11  C   LIG d   1      11.199   3.475  -9.419  0.00  0.00    -0.031 C 
ATOM     12  C   LIG d   1       9.694   3.671  -9.206  0.00  0.00     0.040 C 
ATOM     13  H   LIG d   1       9.158   3.638 -10.154  0.00  0.00     0.042 H 
ATOM     14  C   LIG d   1       9.483   5.028  -8.514  0.00  0.00    -0.024 C 
ATOM     15  C   LIG d   1      11.553   4.751  -7.284  0.00  0.00    -0.027 C 
ATOM     16  H   LIG d   1       6.277   1.026  -7.592  0.00  0.00     0.064 H 
ATOM     17  H   LIG d   1       7.283   2.629  -9.200  0.00  0.00     0.064 H 
ATOM     18  H   LIG d   1      11.732   2.338  -6.229  0.00  0.00     0.050 H 
ATOM     19  H   LIG d   1      11.899   1.357  -7.697  0.00  0.00     0.050 H 
ATOM     20  H   LIG d   1      11.381   2.526  -9.922  0.00  0.00     0.028 H 
ATOM     21  H   LIG d   1      11.598   4.294 -10.018  0.00  0.00     0.028 H 
ATOM     22  H   LIG d   1       9.953   5.817  -9.101  0.00  0.00     0.082 H 
ATOM     23  H   LIG d   1       8.417   5.228  -8.413  0.00  0.00     0.082 H 
ATOM     24  H   LIG d   1      12.001   5.594  -7.809  0.00  0.00     0.082 H 
ATOM     25  H   LIG d   1      11.975   4.688  -6.281  0.00  0.00     0.082 H 
ATOM     26  N   LIG d   1      10.092   4.940  -7.168  0.00  0.00     0.236 N 
ATOM     27  H   LIG d   1       9.690   4.136  -6.672  0.00  0.00     0.203 HD
ENDROOT
BRANCH   7  28
ATOM     28  N   LIG d   1       7.524  -0.024  -5.511  0.00  0.00    -0.281 N 
ATOM     29  C   LIG d   1       6.856   0.463  -4.446  0.00  0.00     0.220 C 
ATOM     30  O   LIG d   1       6.809   1.659  -4.254  0.00  0.00    -0.275 OA
ATOM     31  H   LIG d   1       7.625  -0.982  -5.624  0.00  0.00     0.155 HD
BRANCH  29  32
ATOM     32  C   LIG d   1       6.161  -0.481  -3.498  0.00  0.00     0.036 C 
ATOM     33  C   LIG d   1       5.172   0.304  -2.633  0.00  0.00    -0.042 C 
ATOM     34  C   LIG d   1       4.467  -0.654  -1.669  0.00  0.00    -0.052 C 
ATOM     35  H   LIG d   1       5.709   1.062  -2.063  0.00  0.00     0.027 H 
ATOM     36  H   LIG d   1       4.433   0.785  -3.273  0.00  0.00     0.027 H 
ATOM     37  C   LIG d   1       3.713  -1.718  -2.468  0.00  0.00    -0.053 C 
ATOM     38  H   LIG d   1       5.206  -1.135  -1.029  0.00  0.00     0.026 H 
ATOM     39  H   LIG d   1       3.762  -0.095  -1.053  0.00  0.00     0.026 H 
ATOM     40  C   LIG d   1       4.703  -2.502  -3.333  0.00  0.00    -0.052 C 
ATOM     41  H   LIG d   1       3.211  -2.400  -1.783  0.00  0.00     0.026 H 
ATOM     42  H   LIG d   1       2.974  -1.237  -3.108  0.00  0.00     0.026 H 
ATOM     43  C   LIG d   1       5.407  -1.545  -4.297  0.00  0.00    -0.042 C 
ATOM     44  H   LIG d   1       5.442  -2.984  -2.694  0.00  0.00     0.026 H 
ATOM     45  H   LIG d   1       4.166  -3.261  -3.903  0.00  0.00     0.026 H 
ATOM     46  H   LIG d   1       4.668  -1.064  -4.937  0.00  0.00     0.027 H 
ATOM     47  H   LIG d   1       6.112  -2.104  -4.913  0.00  0.00     0.027 H 
ATOM     48  H   LIG d   1       6.901  -0.962  -2.858  0.00  0.00     0.039 H 
ENDBRANCH  29  32
ENDBRANCH   7  28
BRANCH  26  49
ATOM     49  C   LIG d   1       9.802   6.168  -6.400  0.00  0.00    -0.029 C 
ATOM     50  H   LIG d   1      10.688   6.802  -6.400  0.00  0.00     0.082 H 
ATOM     51  H   LIG d   1       8.977   6.697  -6.877  0.00  0.00     0.082 H 
BRANCH  49  52
ATOM     52  C   LIG d   1       9.421   5.824  -4.959  0.00  0.00    -0.001 C 
ATOM     53  C   LIG d   1       9.994   4.453  -4.594  0.00  0.00    -0.045 C 
ATOM     54  C   LIG d   1       9.613   4.108  -3.153  0.00  0.00    -0.053 C 
ATOM     55  H   LIG d   1       9.587   3.698  -5.267  0.00  0.00     0.027 H 
ATOM     56  H   LIG d   1      11.079   4.477  -4.687  0.00  0.00     0.027 H 
ATOM     57  C   LIG d   1      10.182   5.168  -2.207  0.00  0.00    -0.053 C 
ATOM     58  H   LIG d   1       8.527   4.085  -3.059  0.00  0.00     0.026 H 
ATOM     59  H   LIG d   1      10.021   3.132  -2.892  0.00  0.00     0.026 H 
ATOM     60  C   LIG d   1       9.609   6.539  -2.572  0.00  0.00    -0.053 C 
ATOM     61  H   LIG d   1       9.912   4.922  -1.180  0.00  0.00     0.026 H 
ATOM     62  H   LIG d   1      11.269   5.190  -2.300  0.00  0.00     0.026 H 
ATOM     63  C   LIG d   1       9.991   6.884  -4.013  0.00  0.00    -0.045 C 
ATOM     64  H   LIG d   1       8.524   6.515  -2.479  0.00  0.00     0.026 H 
ATOM     65  H   LIG d   1      10.016   7.293  -1.898  0.00  0.00     0.026 H 
ATOM     66  H   LIG d   1      11.076   6.906  -4.107  0.00  0.00     0.027 H 
ATOM     67  H   LIG d   1       9.582   7.859  -4.274  0.00  0.00     0.027 H 
ATOM     68  H   LIG d   1       8.335   5.800  -4.866  0.00  0.00     0.035 H 
ENDBRANCH  49  52
ENDBRANCH  26  49
TORSDOF 4
ENDMDL
