MODEL 1
REMARK VINA RESULT:      -7.3      0.000      0.000
REMARK  5 active torsions:
REMARK  status: ('A' for Active; 'I' for Inactive)
REMARK    1  A    between atoms: C_1  and  N_48 
REMARK    2  A    between atoms: C_3  and  N_19 
REMARK    3  A    between atoms: C_6  and  C_8 
REMARK    4  A    between atoms: C_10  and  C_13 
REMARK       I    between atoms: N_19  and  C_20 
REMARK    5  A    between atoms: C_20  and  C_22 
ROOT
ATOM      1  C   LIG d   1      11.486   2.579  -3.131  0.00  0.00    -0.012 C 
ATOM      2  C   LIG d   1      10.105   2.843  -3.765  0.00  0.00     0.069 C 
ATOM      3  H   LIG d   1      10.202   3.040  -4.833  0.00  0.00     0.055 H 
ATOM      4  C   LIG d   1       9.612   4.108  -3.015  0.00  0.00     0.023 C 
ATOM      5  C   LIG d   1      10.935   4.891  -2.817  0.00  0.00     0.061 C 
ATOM      6  H   LIG d   1      11.186   5.443  -3.723  0.00  0.00     0.095 H 
ATOM      7  H   LIG d   1      11.396   1.825  -2.349  0.00  0.00     0.083 H 
ATOM      8  H   LIG d   1      12.186   2.239  -3.894  0.00  0.00     0.083 H 
ATOM      9  H   LIG d   1       8.910   4.677  -3.625  0.00  0.00     0.035 H 
ATOM     10  H   LIG d   1       9.168   3.845  -2.055  0.00  0.00     0.035 H 
ATOM     11  N   LIG d   1      11.940   3.849  -2.536  0.00  0.00     0.243 N 
ATOM     12  H   LIG d   1      12.033   3.734  -1.521  0.00  0.00     0.204 HD
ENDROOT
BRANCH   2  13
ATOM     13  N   LIG d   1       9.200   1.716  -3.528  0.00  0.00    -0.303 N 
ATOM     14  C   LIG d   1       8.142   1.519  -4.339  0.00  0.00     0.245 C 
ATOM     15  O   LIG d   1       7.937   2.279  -5.266  0.00  0.00    -0.270 OA
ATOM     16  H   LIG d   1       9.363   1.110  -2.788  0.00  0.00     0.149 HD
BRANCH  14  17
ATOM     17  C   LIG d   1       7.231   0.383  -4.101  0.00  0.00     0.040 A 
ATOM     18  C   LIG d   1       6.053   0.569  -3.373  0.00  0.00    -0.004 A 
ATOM     19  C   LIG d   1       5.205  -0.498  -3.147  0.00  0.00     0.167 A 
ATOM     20  H   LIG d   1       5.805   1.547  -2.987  0.00  0.00     0.066 H 
ATOM     21  C   LIG d   1       5.527  -1.761  -3.647  0.00  0.00     0.166 A 
ATOM     22  O   LIG d   1       4.017  -0.583  -2.482  0.00  0.00    -0.453 OA
ATOM     23  C   LIG d   1       6.699  -1.946  -4.370  0.00  0.00    -0.015 A 
ATOM     24  O   LIG d   1       4.540  -2.632  -3.293  0.00  0.00    -0.453 OA
ATOM     25  C   LIG d   1       7.547  -0.884  -4.598  0.00  0.00    -0.046 A 
ATOM     26  H   LIG d   1       6.944  -2.924  -4.755  0.00  0.00     0.066 H 
ATOM     27  H   LIG d   1       8.457  -1.032  -5.160  0.00  0.00     0.063 H 
ATOM     28  C   LIG d   1       3.819  -1.986  -2.227  0.00  0.00     0.233 C 
ATOM     29  H   LIG d   1       4.237  -2.264  -1.260  0.00  0.00     0.117 H 
ATOM     30  H   LIG d   1       2.760  -2.238  -2.272  0.00  0.00     0.117 H 
ENDBRANCH  14  17
ENDBRANCH   2  13
BRANCH  11  31
ATOM     31  C   LIG d   1      13.257   4.237  -3.104  0.00  0.00    -0.042 C 
ATOM     32  H   LIG d   1      13.458   3.653  -4.003  0.00  0.00     0.078 H 
ATOM     33  H   LIG d   1      13.241   5.297  -3.356  0.00  0.00     0.078 H 
ATOM     34  H   LIG d   1      14.038   4.049  -2.367  0.00  0.00     0.078 H 
ENDBRANCH  11  31
BRANCH   5  35
ATOM     35  C   LIG d   1      10.823   5.829  -1.645  0.00  0.00     0.276 A 
ATOM     36  O   LIG d   1      10.568   5.489  -0.377  0.00  0.00    -0.332 OA
ATOM     37  N   LIG d   1      10.545   6.480   0.322  0.00  0.00    -0.056 NA
ATOM     38  C   LIG d   1      10.776   7.546  -0.400  0.00  0.00     0.204 A 
ATOM     39  N   LIG d   1      10.962   7.132  -1.674  0.00  0.00    -0.186 NA
BRANCH  38  40
ATOM     40  C   LIG d   1      10.829   8.946   0.087  0.00  0.00     0.041 A 
ATOM     41  C   LIG d   1      10.088   9.943  -0.543  0.00  0.00     0.038 A 
ATOM     42  N   LIG d   1      10.131  11.187  -0.107  0.00  0.00    -0.263 NA
ATOM     43  H   LIG d   1       9.469   9.695  -1.392  0.00  0.00     0.084 H 
ATOM     44  C   LIG d   1      10.875  11.539   0.922  0.00  0.00     0.028 A 
ATOM     45  C   LIG d   1      11.645  10.608   1.598  0.00  0.00    -0.043 A 
ATOM     46  H   LIG d   1      10.886  12.569   1.244  0.00  0.00     0.083 H 
ATOM     47  C   LIG d   1      11.628   9.287   1.181  0.00  0.00    -0.048 A 
ATOM     48  H   LIG d   1      12.250  10.907   2.440  0.00  0.00     0.063 H 
ATOM     49  H   LIG d   1      12.218   8.539   1.691  0.00  0.00     0.063 H 
ENDBRANCH  38  40
ENDBRANCH   5  35
TORSDOF 5
ENDMDL
MODEL 2
REMARK VINA RESULT:      -7.1      2.391     10.109
REMARK  5 active torsions:
REMARK  status: ('A' for Active; 'I' for Inactive)
REMARK    1  A    between atoms: C_1  and  N_48 
REMARK    2  A    between atoms: C_3  and  N_19 
REMARK    3  A    between atoms: C_6  and  C_8 
REMARK    4  A    between atoms: C_10  and  C_13 
REMARK       I    between atoms: N_19  and  C_20 
REMARK    5  A    between atoms: C_20  and  C_22 
ROOT
ATOM      1  C   LIG d   1      10.249   4.503  -5.391  0.00  0.00    -0.012 C 
ATOM      2  C   LIG d   1      10.456   4.393  -3.866  0.00  0.00     0.069 C 
ATOM      3  H   LIG d   1      11.480   4.094  -3.637  0.00  0.00     0.055 H 
ATOM      4  C   LIG d   1       9.454   3.282  -3.457  0.00  0.00     0.023 C 
ATOM      5  C   LIG d   1       9.521   2.333  -4.680  0.00  0.00     0.061 C 
ATOM      6  H   LIG d   1      10.386   1.675  -4.600  0.00  0.00     0.095 H 
ATOM      7  H   LIG d   1       9.570   5.326  -5.614  0.00  0.00     0.083 H 
ATOM      8  H   LIG d   1      11.207   4.670  -5.884  0.00  0.00     0.083 H 
ATOM      9  H   LIG d   1       9.781   2.774  -2.550  0.00  0.00     0.035 H 
ATOM     10  H   LIG d   1       8.450   3.689  -3.334  0.00  0.00     0.035 H 
ATOM     11  N   LIG d   1       9.646   3.235  -5.839  0.00  0.00     0.243 N 
ATOM     12  H   LIG d   1       8.714   3.421  -6.226  0.00  0.00     0.204 HD
ENDROOT
BRANCH   2  13
ATOM     13  N   LIG d   1      10.127   5.657  -3.204  0.00  0.00    -0.303 N 
ATOM     14  C   LIG d   1      10.874   6.091  -2.170  0.00  0.00     0.245 C 
ATOM     15  O   LIG d   1      11.820   5.431  -1.785  0.00  0.00    -0.270 OA
ATOM     16  H   LIG d   1       9.372   6.184  -3.511  0.00  0.00     0.149 HD
BRANCH  14  17
ATOM     17  C   LIG d   1      10.543   7.365  -1.503  0.00  0.00     0.040 A 
ATOM     18  C   LIG d   1      11.562   8.176  -0.995  0.00  0.00    -0.004 A 
ATOM     19  C   LIG d   1      11.248   9.365  -0.368  0.00  0.00     0.167 A 
ATOM     20  H   LIG d   1      12.594   7.873  -1.095  0.00  0.00     0.066 H 
ATOM     21  C   LIG d   1       9.914   9.755  -0.241  0.00  0.00     0.166 A 
ATOM     22  O   LIG d   1      12.037  10.322   0.203  0.00  0.00    -0.453 OA
ATOM     23  C   LIG d   1       8.902   8.948  -0.745  0.00  0.00    -0.015 A 
ATOM     24  O   LIG d   1       9.871  10.953   0.409  0.00  0.00    -0.453 OA
ATOM     25  C   LIG d   1       9.210   7.761  -1.372  0.00  0.00    -0.046 A 
ATOM     26  H   LIG d   1       7.870   9.253  -0.644  0.00  0.00     0.066 H 
ATOM     27  H   LIG d   1       8.420   7.136  -1.762  0.00  0.00     0.063 H 
ATOM     28  C   LIG d   1      11.158  11.095   1.040  0.00  0.00     0.233 C 
ATOM     29  H   LIG d   1      11.134  10.690   2.052  0.00  0.00     0.117 H 
ATOM     30  H   LIG d   1      11.465  12.140   1.056  0.00  0.00     0.117 H 
ENDBRANCH  14  17
ENDBRANCH   2  13
BRANCH  11  31
ATOM     31  C   LIG d   1      10.492   2.610  -6.889  0.00  0.00    -0.042 C 
ATOM     32  H   LIG d   1      10.772   1.601  -6.585  0.00  0.00     0.078 H 
ATOM     33  H   LIG d   1       9.931   2.566  -7.822  0.00  0.00     0.078 H 
ATOM     34  H   LIG d   1      11.392   3.210  -7.032  0.00  0.00     0.078 H 
ENDBRANCH  11  31
BRANCH   5  35
ATOM     35  C   LIG d   1       8.255   1.524  -4.790  0.00  0.00     0.276 A 
ATOM     36  O   LIG d   1       7.498   1.379  -5.882  0.00  0.00    -0.332 OA
ATOM     37  N   LIG d   1       6.549   0.664  -5.638  0.00  0.00    -0.056 NA
ATOM     38  C   LIG d   1       6.586   0.278  -4.390  0.00  0.00     0.204 A 
ATOM     39  N   LIG d   1       7.691   0.827  -3.835  0.00  0.00    -0.186 NA
BRANCH  38  40
ATOM     40  C   LIG d   1       5.604  -0.601  -3.709  0.00  0.00     0.041 A 
ATOM     41  C   LIG d   1       5.108  -1.736  -4.348  0.00  0.00     0.038 A 
ATOM     42  N   LIG d   1       4.239  -2.520  -3.742  0.00  0.00    -0.263 NA
ATOM     43  H   LIG d   1       5.442  -1.977  -5.346  0.00  0.00     0.084 H 
ATOM     44  C   LIG d   1       3.798  -2.263  -2.527  0.00  0.00     0.028 A 
ATOM     45  C   LIG d   1       4.238  -1.152  -1.828  0.00  0.00    -0.043 A 
ATOM     46  H   LIG d   1       3.082  -2.928  -2.068  0.00  0.00     0.083 H 
ATOM     47  C   LIG d   1       5.156  -0.302  -2.420  0.00  0.00    -0.048 A 
ATOM     48  H   LIG d   1       3.871  -0.951  -0.833  0.00  0.00     0.063 H 
ATOM     49  H   LIG d   1       5.517   0.573  -1.898  0.00  0.00     0.063 H 
ENDBRANCH  38  40
ENDBRANCH   5  35
TORSDOF 5
ENDMDL
MODEL 3
REMARK VINA RESULT:      -7.1      4.378     10.298
REMARK  5 active torsions:
REMARK  status: ('A' for Active; 'I' for Inactive)
REMARK    1  A    between atoms: C_1  and  N_48 
REMARK    2  A    between atoms: C_3  and  N_19 
REMARK    3  A    between atoms: C_6  and  C_8 
REMARK    4  A    between atoms: C_10  and  C_13 
REMARK       I    between atoms: N_19  and  C_20 
REMARK    5  A    between atoms: C_20  and  C_22 
ROOT
ATOM      1  C   LIG d   1      11.361   4.981  -5.855  0.00  0.00    -0.012 C 
ATOM      2  C   LIG d   1      10.845   5.892  -4.722  0.00  0.00     0.069 C 
ATOM      3  H   LIG d   1      11.601   6.007  -3.945  0.00  0.00     0.055 H 
ATOM      4  C   LIG d   1       9.615   5.115  -4.183  0.00  0.00     0.023 C 
ATOM      5  C   LIG d   1      10.084   3.645  -4.329  0.00  0.00     0.061 C 
ATOM      6  H   LIG d   1      10.715   3.364  -3.486  0.00  0.00     0.095 H 
ATOM      7  H   LIG d   1      10.982   5.333  -6.815  0.00  0.00     0.083 H 
ATOM      8  H   LIG d   1      12.451   4.983  -5.865  0.00  0.00     0.083 H 
ATOM      9  H   LIG d   1       9.423   5.361  -3.139  0.00  0.00     0.035 H 
ATOM     10  H   LIG d   1       8.734   5.306  -4.796  0.00  0.00     0.035 H 
ATOM     11  N   LIG d   1      10.845   3.626  -5.591  0.00  0.00     0.243 N 
ATOM     12  H   LIG d   1      10.223   3.345  -6.358  0.00  0.00     0.204 HD
ENDROOT
BRANCH   2  13
ATOM     13  N   LIG d   1      10.442   7.198  -5.248  0.00  0.00    -0.303 N 
ATOM     14  C   LIG d   1      10.650   8.312  -4.517  0.00  0.00     0.245 C 
ATOM     15  O   LIG d   1      11.169   8.231  -3.421  0.00  0.00    -0.270 OA
ATOM     16  H   LIG d   1      10.028   7.262  -6.123  0.00  0.00     0.149 HD
BRANCH  14  17
ATOM     17  C   LIG d   1      10.245   9.628  -5.047  0.00  0.00     0.040 A 
ATOM     18  C   LIG d   1      10.486   9.950  -6.386  0.00  0.00    -0.004 A 
ATOM     19  C   LIG d   1      10.111  11.184  -6.876  0.00  0.00     0.167 A 
ATOM     20  H   LIG d   1      10.965   9.232  -7.036  0.00  0.00     0.066 H 
ATOM     21  C   LIG d   1       9.492  12.110  -6.035  0.00  0.00     0.166 A 
ATOM     22  O   LIG d   1      10.228  11.737  -8.119  0.00  0.00    -0.453 OA
ATOM     23  C   LIG d   1       9.253  11.790  -4.704  0.00  0.00    -0.015 A 
ATOM     24  O   LIG d   1       9.224  13.238  -6.752  0.00  0.00    -0.453 OA
ATOM     25  C   LIG d   1       9.626  10.559  -4.210  0.00  0.00    -0.046 A 
ATOM     26  H   LIG d   1       8.774  12.509  -4.056  0.00  0.00     0.066 H 
ATOM     27  H   LIG d   1       9.439  10.315  -3.174  0.00  0.00     0.063 H 
ATOM     28  C   LIG d   1      10.050  13.153  -7.928  0.00  0.00     0.233 C 
ATOM     29  H   LIG d   1      11.010  13.641  -7.758  0.00  0.00     0.117 H 
ATOM     30  H   LIG d   1       9.544  13.594  -8.786  0.00  0.00     0.117 H 
ENDBRANCH  14  17
ENDBRANCH   2  13
BRANCH  11  31
ATOM     31  C   LIG d   1      11.970   2.660  -5.500  0.00  0.00    -0.042 C 
ATOM     32  H   LIG d   1      12.278   2.356  -6.501  0.00  0.00     0.078 H 
ATOM     33  H   LIG d   1      12.809   3.133  -4.990  0.00  0.00     0.078 H 
ATOM     34  H   LIG d   1      11.649   1.783  -4.936  0.00  0.00     0.078 H 
ENDBRANCH  11  31
BRANCH   5  35
ATOM     35  C   LIG d   1       8.899   2.721  -4.428  0.00  0.00     0.276 A 
ATOM     36  O   LIG d   1       8.317   2.293  -5.553  0.00  0.00    -0.332 OA
ATOM     37  N   LIG d   1       7.388   1.559  -5.287  0.00  0.00    -0.056 NA
ATOM     38  C   LIG d   1       7.269   1.436  -3.991  0.00  0.00     0.204 A 
ATOM     39  N   LIG d   1       8.247   2.181  -3.427  0.00  0.00    -0.186 NA
BRANCH  38  40
ATOM     40  C   LIG d   1       6.255   0.626  -3.272  0.00  0.00     0.041 A 
ATOM     41  C   LIG d   1       6.300  -0.766  -3.315  0.00  0.00     0.038 A 
ATOM     42  N   LIG d   1       5.402  -1.486  -2.673  0.00  0.00    -0.263 NA
ATOM     43  H   LIG d   1       7.080  -1.259  -3.875  0.00  0.00     0.084 H 
ATOM     44  C   LIG d   1       4.428  -0.929  -1.980  0.00  0.00     0.028 A 
ATOM     45  C   LIG d   1       4.312   0.447  -1.893  0.00  0.00    -0.043 A 
ATOM     46  H   LIG d   1       3.710  -1.555  -1.472  0.00  0.00     0.083 H 
ATOM     47  C   LIG d   1       5.235   1.246  -2.546  0.00  0.00    -0.048 A 
ATOM     48  H   LIG d   1       3.511   0.893  -1.322  0.00  0.00     0.063 H 
ATOM     49  H   LIG d   1       5.168   2.324  -2.495  0.00  0.00     0.063 H 
ENDBRANCH  38  40
ENDBRANCH   5  35
TORSDOF 5
ENDMDL
MODEL 4
REMARK VINA RESULT:      -6.9      7.097     10.765
REMARK  5 active torsions:
REMARK  status: ('A' for Active; 'I' for Inactive)
REMARK    1  A    between atoms: C_1  and  N_48 
REMARK    2  A    between atoms: C_3  and  N_19 
REMARK    3  A    between atoms: C_6  and  C_8 
REMARK    4  A    between atoms: C_10  and  C_13 
REMARK       I    between atoms: N_19  and  C_20 
REMARK    5  A    between atoms: C_20  and  C_22 
ROOT
ATOM      1  C   LIG d   1      11.350  -4.340  -3.904  0.00  0.00    -0.012 C 
ATOM      2  C   LIG d   1      10.790  -5.740  -3.577  0.00  0.00     0.069 C 
ATOM      3  H   LIG d   1      11.053  -6.453  -4.360  0.00  0.00     0.055 H 
ATOM      4  C   LIG d   1       9.257  -5.504  -3.541  0.00  0.00     0.023 C 
ATOM      5  C   LIG d   1       9.077  -4.445  -4.658  0.00  0.00     0.061 C 
ATOM      6  H   LIG d   1       9.047  -4.928  -5.635  0.00  0.00     0.095 H 
ATOM      7  H   LIG d   1      11.660  -3.842  -2.986  0.00  0.00     0.083 H 
ATOM      8  H   LIG d   1      12.199  -4.429  -4.581  0.00  0.00     0.083 H 
ATOM      9  H   LIG d   1       8.714  -6.418  -3.778  0.00  0.00     0.035 H 
ATOM     10  H   LIG d   1       8.947  -5.107  -2.574  0.00  0.00     0.035 H 
ATOM     11  N   LIG d   1      10.259  -3.574  -4.533  0.00  0.00     0.243 N 
ATOM     12  H   LIG d   1      10.026  -2.768  -3.942  0.00  0.00     0.204 HD
ENDROOT
BRANCH   2  13
ATOM     13  N   LIG d   1      11.274  -6.202  -2.274  0.00  0.00    -0.303 N 
ATOM     14  C   LIG d   1      11.558  -7.506  -2.084  0.00  0.00     0.245 C 
ATOM     15  O   LIG d   1      11.410  -8.299  -2.994  0.00  0.00    -0.270 OA
ATOM     16  H   LIG d   1      11.392  -5.569  -1.548  0.00  0.00     0.149 HD
BRANCH  14  17
ATOM     17  C   LIG d   1      12.046  -7.971  -0.772  0.00  0.00     0.040 A 
ATOM     18  C   LIG d   1      11.227  -7.874   0.356  0.00  0.00    -0.004 A 
ATOM     19  C   LIG d   1      11.690  -8.305   1.583  0.00  0.00     0.167 A 
ATOM     20  H   LIG d   1      10.233  -7.461   0.268  0.00  0.00     0.066 H 
ATOM     21  C   LIG d   1      12.975  -8.839   1.696  0.00  0.00     0.166 A 
ATOM     22  O   LIG d   1      11.103  -8.322   2.816  0.00  0.00    -0.453 OA
ATOM     23  C   LIG d   1      13.789  -8.934   0.574  0.00  0.00    -0.015 A 
ATOM     24  O   LIG d   1      13.189  -9.187   2.996  0.00  0.00    -0.453 OA
ATOM     25  C   LIG d   1      13.332  -8.505  -0.653  0.00  0.00    -0.046 A 
ATOM     26  H   LIG d   1      14.783  -9.347   0.665  0.00  0.00     0.066 H 
ATOM     27  H   LIG d   1      13.968  -8.581  -1.522  0.00  0.00     0.063 H 
ATOM     28  C   LIG d   1      12.183  -8.487   3.753  0.00  0.00     0.233 C 
ATOM     29  H   LIG d   1      12.557  -7.518   4.083  0.00  0.00     0.117 H 
ATOM     30  H   LIG d   1      11.861  -9.083   4.607  0.00  0.00     0.117 H 
ENDBRANCH  14  17
ENDBRANCH   2  13
BRANCH  11  31
ATOM     31  C   LIG d   1      10.683  -3.087  -5.871  0.00  0.00    -0.042 C 
ATOM     32  H   LIG d   1       9.834  -2.639  -6.388  0.00  0.00     0.078 H 
ATOM     33  H   LIG d   1      11.469  -2.341  -5.750  0.00  0.00     0.078 H 
ATOM     34  H   LIG d   1      11.064  -3.924  -6.457  0.00  0.00     0.078 H 
ENDBRANCH  11  31
BRANCH   5  35
ATOM     35  C   LIG d   1       7.821  -3.646  -4.429  0.00  0.00     0.276 A 
ATOM     36  O   LIG d   1       6.592  -3.957  -4.856  0.00  0.00    -0.332 OA
ATOM     37  N   LIG d   1       5.802  -3.107  -4.504  0.00  0.00    -0.056 NA
ATOM     38  C   LIG d   1       6.419  -2.172  -3.828  0.00  0.00     0.204 A 
ATOM     39  N   LIG d   1       7.726  -2.517  -3.771  0.00  0.00    -0.186 NA
BRANCH  38  40
ATOM     40  C   LIG d   1       5.801  -0.963  -3.230  0.00  0.00     0.041 A 
ATOM     41  C   LIG d   1       6.330   0.300  -3.482  0.00  0.00     0.038 A 
ATOM     42  N   LIG d   1       5.779   1.375  -2.955  0.00  0.00    -0.263 NA
ATOM     43  H   LIG d   1       7.197   0.401  -4.119  0.00  0.00     0.084 H 
ATOM     44  C   LIG d   1       4.723   1.302  -2.169  0.00  0.00     0.028 A 
ATOM     45  C   LIG d   1       4.143   0.084  -1.866  0.00  0.00    -0.043 A 
ATOM     46  H   LIG d   1       4.305   2.207  -1.754  0.00  0.00     0.083 H 
ATOM     47  C   LIG d   1       4.683  -1.074  -2.400  0.00  0.00    -0.048 A 
ATOM     48  H   LIG d   1       3.278   0.035  -1.221  0.00  0.00     0.063 H 
ATOM     49  H   LIG d   1       4.249  -2.039  -2.181  0.00  0.00     0.063 H 
ENDBRANCH  38  40
ENDBRANCH   5  35
TORSDOF 5
ENDMDL
MODEL 5
REMARK VINA RESULT:      -6.8      3.030     10.051
REMARK  5 active torsions:
REMARK  status: ('A' for Active; 'I' for Inactive)
REMARK    1  A    between atoms: C_1  and  N_48 
REMARK    2  A    between atoms: C_3  and  N_19 
REMARK    3  A    between atoms: C_6  and  C_8 
REMARK    4  A    between atoms: C_10  and  C_13 
REMARK       I    between atoms: N_19  and  C_20 
REMARK    5  A    between atoms: C_20  and  C_22 
ROOT
ATOM      1  C   LIG d   1      11.081   5.185  -5.488  0.00  0.00    -0.012 C 
ATOM      2  C   LIG d   1      11.014   5.526  -3.985  0.00  0.00     0.069 C 
ATOM      3  H   LIG d   1      11.974   5.336  -3.503  0.00  0.00     0.055 H 
ATOM      4  C   LIG d   1       9.929   4.553  -3.453  0.00  0.00     0.023 C 
ATOM      5  C   LIG d   1      10.188   3.293  -4.317  0.00  0.00     0.061 C 
ATOM      6  H   LIG d   1      11.010   2.711  -3.900  0.00  0.00     0.095 H 
ATOM      7  H   LIG d   1      10.471   5.888  -6.055  0.00  0.00     0.083 H 
ATOM      8  H   LIG d   1      12.114   5.229  -5.833  0.00  0.00     0.083 H 
ATOM      9  H   LIG d   1      10.080   4.339  -2.396  0.00  0.00     0.035 H 
ATOM     10  H   LIG d   1       8.929   4.950  -3.631  0.00  0.00     0.035 H 
ATOM     11  N   LIG d   1      10.536   3.824  -5.648  0.00  0.00     0.243 N 
ATOM     12  H   LIG d   1       9.691   3.863  -6.229  0.00  0.00     0.204 HD
ENDROOT
BRANCH   2  13
ATOM     13  N   LIG d   1      10.604   6.918  -3.786  0.00  0.00    -0.303 N 
ATOM     14  C   LIG d   1      11.230   7.681  -2.869  0.00  0.00     0.245 C 
ATOM     15  O   LIG d   1      12.135   7.213  -2.204  0.00  0.00    -0.270 OA
ATOM     16  H   LIG d   1       9.882   7.292  -4.316  0.00  0.00     0.149 HD
BRANCH  14  17
ATOM     17  C   LIG d   1      10.818   9.084  -2.669  0.00  0.00     0.040 A 
ATOM     18  C   LIG d   1       9.818   9.642  -3.470  0.00  0.00    -0.004 A 
ATOM     19  C   LIG d   1       9.439  10.956  -3.284  0.00  0.00     0.167 A 
ATOM     20  H   LIG d   1       9.343   9.045  -4.235  0.00  0.00     0.066 H 
ATOM     21  C   LIG d   1      10.054  11.726  -2.295  0.00  0.00     0.166 A 
ATOM     22  O   LIG d   1       8.507  11.727  -3.918  0.00  0.00    -0.453 OA
ATOM     23  C   LIG d   1      11.048  11.171  -1.499  0.00  0.00    -0.015 A 
ATOM     24  O   LIG d   1       9.507  12.974  -2.313  0.00  0.00    -0.453 OA
ATOM     25  C   LIG d   1      11.430   9.860  -1.681  0.00  0.00    -0.046 A 
ATOM     26  H   LIG d   1      11.522  11.769  -0.736  0.00  0.00     0.066 H 
ATOM     27  H   LIG d   1      12.204   9.432  -1.061  0.00  0.00     0.063 H 
ATOM     28  C   LIG d   1       8.844  13.087  -3.587  0.00  0.00     0.233 C 
ATOM     29  H   LIG d   1       9.517  13.508  -4.333  0.00  0.00     0.117 H 
ATOM     30  H   LIG d   1       7.944  13.694  -3.499  0.00  0.00     0.117 H 
ENDBRANCH  14  17
ENDBRANCH   2  13
BRANCH  11  31
ATOM     31  C   LIG d   1      11.538   2.947  -6.306  0.00  0.00    -0.042 C 
ATOM     32  H   LIG d   1      11.670   3.252  -7.345  0.00  0.00     0.078 H 
ATOM     33  H   LIG d   1      12.488   3.030  -5.780  0.00  0.00     0.078 H 
ATOM     34  H   LIG d   1      11.191   1.914  -6.273  0.00  0.00     0.078 H 
ENDBRANCH  11  31
BRANCH   5  35
ATOM     35  C   LIG d   1       8.942   2.451  -4.408  0.00  0.00     0.276 A 
ATOM     36  O   LIG d   1       8.302   2.098  -5.528  0.00  0.00    -0.332 OA
ATOM     37  N   LIG d   1       7.335   1.418  -5.257  0.00  0.00    -0.056 NA
ATOM     38  C   LIG d   1       7.244   1.261  -3.962  0.00  0.00     0.204 A 
ATOM     39  N   LIG d   1       8.285   1.923  -3.405  0.00  0.00    -0.186 NA
BRANCH  38  40
ATOM     40  C   LIG d   1       6.199   0.496  -3.237  0.00  0.00     0.041 A 
ATOM     41  C   LIG d   1       6.162  -0.894  -3.310  0.00  0.00     0.038 A 
ATOM     42  N   LIG d   1       5.236  -1.575  -2.663  0.00  0.00    -0.263 NA
ATOM     43  H   LIG d   1       6.900  -1.420  -3.897  0.00  0.00     0.084 H 
ATOM     44  C   LIG d   1       4.312  -0.977  -1.938  0.00  0.00     0.028 A 
ATOM     45  C   LIG d   1       4.278   0.401  -1.821  0.00  0.00    -0.043 A 
ATOM     46  H   LIG d   1       3.569  -1.571  -1.428  0.00  0.00     0.083 H 
ATOM     47  C   LIG d   1       5.233   1.159  -2.477  0.00  0.00    -0.048 A 
ATOM     48  H   LIG d   1       3.517   0.881  -1.224  0.00  0.00     0.063 H 
ATOM     49  H   LIG d   1       5.230   2.237  -2.403  0.00  0.00     0.063 H 
ENDBRANCH  38  40
ENDBRANCH   5  35
TORSDOF 5
ENDMDL
MODEL 6
REMARK VINA RESULT:      -6.7      3.977     10.616
REMARK  5 active torsions:
REMARK  status: ('A' for Active; 'I' for Inactive)
REMARK    1  A    between atoms: C_1  and  N_48 
REMARK    2  A    between atoms: C_3  and  N_19 
REMARK    3  A    between atoms: C_6  and  C_8 
REMARK    4  A    between atoms: C_10  and  C_13 
REMARK       I    between atoms: N_19  and  C_20 
REMARK    5  A    between atoms: C_20  and  C_22 
ROOT
ATOM      1  C   LIG d   1       9.366   1.378  -5.202  0.00  0.00    -0.012 C 
ATOM      2  C   LIG d   1       8.883   1.821  -3.805  0.00  0.00     0.069 C 
ATOM      3  H   LIG d   1       9.456   1.323  -3.023  0.00  0.00     0.055 H 
ATOM      4  C   LIG d   1       7.403   1.357  -3.784  0.00  0.00     0.023 C 
ATOM      5  C   LIG d   1       7.477   0.034  -4.589  0.00  0.00     0.061 C 
ATOM      6  H   LIG d   1       7.813  -0.781  -3.947  0.00  0.00     0.095 H 
ATOM      7  H   LIG d   1       9.311   2.217  -5.896  0.00  0.00     0.083 H 
ATOM      8  H   LIG d   1      10.391   1.014  -5.141  0.00  0.00     0.083 H 
ATOM      9  H   LIG d   1       7.064   1.174  -2.764  0.00  0.00     0.035 H 
ATOM     10  H   LIG d   1       6.759   2.081  -4.283  0.00  0.00     0.035 H 
ATOM     11  N   LIG d   1       8.458   0.308  -5.655  0.00  0.00     0.243 N 
ATOM     12  H   LIG d   1       7.964   0.617  -6.499  0.00  0.00     0.204 HD
ENDROOT
BRANCH   2  13
ATOM     13  N   LIG d   1       8.971   3.276  -3.663  0.00  0.00    -0.303 N 
ATOM     14  C   LIG d   1       9.950   3.822  -2.914  0.00  0.00     0.245 C 
ATOM     15  O   LIG d   1      10.758   3.106  -2.356  0.00  0.00    -0.270 OA
ATOM     16  H   LIG d   1       8.326   3.847  -4.108  0.00  0.00     0.149 HD
BRANCH  14  17
ATOM     17  C   LIG d   1      10.040   5.288  -2.771  0.00  0.00     0.040 A 
ATOM     18  C   LIG d   1       9.858   6.114  -3.884  0.00  0.00    -0.004 A 
ATOM     19  C   LIG d   1       9.948   7.484  -3.747  0.00  0.00     0.167 A 
ATOM     20  H   LIG d   1       9.647   5.679  -4.850  0.00  0.00     0.066 H 
ATOM     21  C   LIG d   1      10.221   8.044  -2.497  0.00  0.00     0.166 A 
ATOM     22  O   LIG d   1       9.814   8.494  -4.655  0.00  0.00    -0.453 OA
ATOM     23  C   LIG d   1      10.402   7.222  -1.392  0.00  0.00    -0.015 A 
ATOM     24  O   LIG d   1      10.257   9.400  -2.627  0.00  0.00    -0.453 OA
ATOM     25  C   LIG d   1      10.313   5.854  -1.523  0.00  0.00    -0.046 A 
ATOM     26  H   LIG d   1      10.613   7.659  -0.427  0.00  0.00     0.066 H 
ATOM     27  H   LIG d   1      10.455   5.219  -0.661  0.00  0.00     0.063 H 
ATOM     28  C   LIG d   1      10.412   9.649  -4.037  0.00  0.00     0.233 C 
ATOM     29  H   LIG d   1      11.467   9.722  -4.300  0.00  0.00     0.117 H 
ATOM     30  H   LIG d   1       9.883  10.556  -4.328  0.00  0.00     0.117 H 
ENDBRANCH  14  17
ENDBRANCH   2  13
BRANCH  11  31
ATOM     31  C   LIG d   1       9.234  -0.920  -5.968  0.00  0.00    -0.042 C 
ATOM     32  H   LIG d   1       9.429  -0.970  -7.040  0.00  0.00     0.078 H 
ATOM     33  H   LIG d   1      10.180  -0.895  -5.428  0.00  0.00     0.078 H 
ATOM     34  H   LIG d   1       8.662  -1.797  -5.662  0.00  0.00     0.078 H 
ENDBRANCH  11  31
BRANCH   5  35
ATOM     35  C   LIG d   1       6.137  -0.292  -5.193  0.00  0.00     0.276 A 
ATOM     36  O   LIG d   1       5.121  -0.912  -4.585  0.00  0.00    -0.332 OA
ATOM     37  N   LIG d   1       4.183  -1.021  -5.347  0.00  0.00    -0.056 NA
ATOM     38  C   LIG d   1       4.484  -0.495  -6.506  0.00  0.00     0.204 A 
ATOM     39  N   LIG d   1       5.745  -0.016  -6.413  0.00  0.00    -0.186 NA
BRANCH  38  40
ATOM     40  C   LIG d   1       3.604  -0.431  -7.699  0.00  0.00     0.041 A 
ATOM     41  C   LIG d   1       3.276  -1.589  -8.400  0.00  0.00     0.038 A 
ATOM     42  N   LIG d   1       2.491  -1.533  -9.457  0.00  0.00    -0.263 NA
ATOM     43  H   LIG d   1       3.665  -2.541  -8.072  0.00  0.00     0.084 H 
ATOM     44  C   LIG d   1       1.997  -0.393  -9.898  0.00  0.00     0.028 A 
ATOM     45  C   LIG d   1       2.280   0.802  -9.260  0.00  0.00    -0.043 A 
ATOM     46  H   LIG d   1       1.361  -0.390 -10.771  0.00  0.00     0.083 H 
ATOM     47  C   LIG d   1       3.096   0.793  -8.141  0.00  0.00    -0.048 A 
ATOM     48  H   LIG d   1       1.869   1.730  -9.629  0.00  0.00     0.063 H 
ATOM     49  H   LIG d   1       3.333   1.711  -7.623  0.00  0.00     0.063 H 
ENDBRANCH  38  40
ENDBRANCH   5  35
TORSDOF 5
ENDMDL
MODEL 7
REMARK VINA RESULT:      -6.7      8.618     15.083
REMARK  5 active torsions:
REMARK  status: ('A' for Active; 'I' for Inactive)
REMARK    1  A    between atoms: C_1  and  N_48 
REMARK    2  A    between atoms: C_3  and  N_19 
REMARK    3  A    between atoms: C_6  and  C_8 
REMARK    4  A    between atoms: C_10  and  C_13 
REMARK       I    between atoms: N_19  and  C_20 
REMARK    5  A    between atoms: C_20  and  C_22 
ROOT
ATOM      1  C   LIG d   1       4.492  -3.571  -9.341  0.00  0.00    -0.012 C 
ATOM      2  C   LIG d   1       4.650  -4.174  -7.929  0.00  0.00     0.069 C 
ATOM      3  H   LIG d   1       5.662  -4.552  -7.783  0.00  0.00     0.055 H 
ATOM      4  C   LIG d   1       3.623  -5.336  -7.928  0.00  0.00     0.023 C 
ATOM      5  C   LIG d   1       3.717  -5.839  -9.391  0.00  0.00     0.061 C 
ATOM      6  H   LIG d   1       4.572  -6.505  -9.508  0.00  0.00     0.095 H 
ATOM      7  H   LIG d   1       3.829  -2.707  -9.302  0.00  0.00     0.083 H 
ATOM      8  H   LIG d   1       5.466  -3.273  -9.728  0.00  0.00     0.083 H 
ATOM      9  H   LIG d   1       3.916  -6.117  -7.228  0.00  0.00     0.035 H 
ATOM     10  H   LIG d   1       2.620  -4.970  -7.706  0.00  0.00     0.035 H 
ATOM     11  N   LIG d   1       3.889  -4.613 -10.191  0.00  0.00     0.243 N 
ATOM     12  H   LIG d   1       2.971  -4.292 -10.521  0.00  0.00     0.204 HD
ENDROOT
BRANCH   2  13
ATOM     13  N   LIG d   1       4.315  -3.185  -6.902  0.00  0.00    -0.303 N 
ATOM     14  C   LIG d   1       4.765  -3.345  -5.641  0.00  0.00     0.245 C 
ATOM     15  O   LIG d   1       5.448  -4.310  -5.357  0.00  0.00    -0.270 OA
ATOM     16  H   LIG d   1       3.770  -2.415  -7.128  0.00  0.00     0.149 HD
BRANCH  14  17
ATOM     17  C   LIG d   1       4.429  -2.349  -4.606  0.00  0.00     0.040 A 
ATOM     18  C   LIG d   1       4.117  -1.036  -4.970  0.00  0.00    -0.004 A 
ATOM     19  C   LIG d   1       3.808  -0.105  -3.998  0.00  0.00     0.167 A 
ATOM     20  H   LIG d   1       4.118  -0.750  -6.012  0.00  0.00     0.066 H 
ATOM     21  C   LIG d   1       3.807  -0.477  -2.653  0.00  0.00     0.166 A 
ATOM     22  O   LIG d   1       3.474   1.215  -4.085  0.00  0.00    -0.453 OA
ATOM     23  C   LIG d   1       4.117  -1.782  -2.291  0.00  0.00    -0.015 A 
ATOM     24  O   LIG d   1       3.473   0.611  -1.902  0.00  0.00    -0.453 OA
ATOM     25  C   LIG d   1       4.426  -2.714  -3.257  0.00  0.00    -0.046 A 
ATOM     26  H   LIG d   1       4.116  -2.066  -1.249  0.00  0.00     0.066 H 
ATOM     27  H   LIG d   1       4.668  -3.727  -2.972  0.00  0.00     0.063 H 
ATOM     28  C   LIG d   1       3.670   1.748  -2.762  0.00  0.00     0.233 C 
ATOM     29  H   LIG d   1       4.681   2.141  -2.652  0.00  0.00     0.117 H 
ATOM     30  H   LIG d   1       2.934   2.523  -2.548  0.00  0.00     0.117 H 
ENDBRANCH  14  17
ENDBRANCH   2  13
BRANCH  11  31
ATOM     31  C   LIG d   1       4.760  -4.881 -11.365  0.00  0.00    -0.042 C 
ATOM     32  H   LIG d   1       5.737  -4.423 -11.212  0.00  0.00     0.078 H 
ATOM     33  H   LIG d   1       4.878  -5.957 -11.485  0.00  0.00     0.078 H 
ATOM     34  H   LIG d   1       4.298  -4.463 -12.260  0.00  0.00     0.078 H 
ENDBRANCH  11  31
BRANCH   5  35
ATOM     35  C   LIG d   1       2.446  -6.542  -9.791  0.00  0.00     0.276 A 
ATOM     36  O   LIG d   1       2.347  -7.770 -10.308  0.00  0.00    -0.332 OA
ATOM     37  N   LIG d   1       1.183  -8.040 -10.519  0.00  0.00    -0.056 NA
ATOM     38  C   LIG d   1       0.419  -7.038 -10.169  0.00  0.00     0.204 A 
ATOM     39  N   LIG d   1       1.229  -6.065  -9.692  0.00  0.00    -0.186 NA
BRANCH  38  40
ATOM     40  C   LIG d   1      -1.060  -6.979 -10.271  0.00  0.00     0.041 A 
ATOM     41  C   LIG d   1      -1.706  -7.396 -11.433  0.00  0.00     0.038 A 
ATOM     42  N   LIG d   1      -3.020  -7.349 -11.522  0.00  0.00    -0.263 NA
ATOM     43  H   LIG d   1      -1.126  -7.766 -12.265  0.00  0.00     0.084 H 
ATOM     44  C   LIG d   1      -3.770  -6.900 -10.535  0.00  0.00     0.028 A 
ATOM     45  C   LIG d   1      -3.203  -6.462  -9.351  0.00  0.00    -0.043 A 
ATOM     46  H   LIG d   1      -4.843  -6.874 -10.651  0.00  0.00     0.083 H 
ATOM     47  C   LIG d   1      -1.827  -6.498  -9.207  0.00  0.00    -0.048 A 
ATOM     48  H   LIG d   1      -3.827  -6.098  -8.548  0.00  0.00     0.063 H 
ATOM     49  H   LIG d   1      -1.357  -6.163  -8.293  0.00  0.00     0.063 H 
ENDBRANCH  38  40
ENDBRANCH   5  35
TORSDOF 5
ENDMDL
MODEL 8
REMARK VINA RESULT:      -6.7      3.783     10.767
REMARK  5 active torsions:
REMARK  status: ('A' for Active; 'I' for Inactive)
REMARK    1  A    between atoms: C_1  and  N_48 
REMARK    2  A    between atoms: C_3  and  N_19 
REMARK    3  A    between atoms: C_6  and  C_8 
REMARK    4  A    between atoms: C_10  and  C_13 
REMARK       I    between atoms: N_19  and  C_20 
REMARK    5  A    between atoms: C_20  and  C_22 
ROOT
ATOM      1  C   LIG d   1       9.365   1.758  -5.564  0.00  0.00    -0.012 C 
ATOM      2  C   LIG d   1       9.118   1.671  -4.043  0.00  0.00     0.069 C 
ATOM      3  H   LIG d   1       9.823   0.983  -3.577  0.00  0.00     0.055 H 
ATOM      4  C   LIG d   1       7.671   1.119  -3.956  0.00  0.00     0.023 C 
ATOM      5  C   LIG d   1       7.630   0.152  -5.167  0.00  0.00     0.061 C 
ATOM      6  H   LIG d   1       8.083  -0.804  -4.903  0.00  0.00     0.095 H 
ATOM      7  H   LIG d   1       9.180   2.775  -5.911  0.00  0.00     0.083 H 
ATOM      8  H   LIG d   1      10.392   1.472  -5.789  0.00  0.00     0.083 H 
ATOM      9  H   LIG d   1       7.513   0.581  -3.022  0.00  0.00     0.035 H 
ATOM     10  H   LIG d   1       6.940   1.920  -4.072  0.00  0.00     0.035 H 
ATOM     11  N   LIG d   1       8.413   0.839  -6.211  0.00  0.00     0.243 N 
ATOM     12  H   LIG d   1       7.777   1.376  -6.812  0.00  0.00     0.204 HD
ENDROOT
BRANCH   2  13
ATOM     13  N   LIG d   1       9.204   2.996  -3.426  0.00  0.00    -0.303 N 
ATOM     14  C   LIG d   1      10.337   3.376  -2.802  0.00  0.00     0.245 C 
ATOM     15  O   LIG d   1      11.286   2.618  -2.749  0.00  0.00    -0.270 OA
ATOM     16  H   LIG d   1       8.447   3.602  -3.468  0.00  0.00     0.149 HD
BRANCH  14  17
ATOM     17  C   LIG d   1      10.425   4.712  -2.180  0.00  0.00     0.040 A 
ATOM     18  C   LIG d   1      11.248   4.916  -1.069  0.00  0.00    -0.004 A 
ATOM     19  C   LIG d   1      11.323   6.166  -0.488  0.00  0.00     0.167 A 
ATOM     20  H   LIG d   1      11.825   4.096  -0.667  0.00  0.00     0.066 H 
ATOM     21  C   LIG d   1      10.577   7.224  -1.010  0.00  0.00     0.166 A 
ATOM     22  O   LIG d   1      12.036   6.623   0.583  0.00  0.00    -0.453 OA
ATOM     23  C   LIG d   1       9.758   7.020  -2.113  0.00  0.00    -0.015 A 
ATOM     24  O   LIG d   1      10.825   8.339  -0.265  0.00  0.00    -0.453 OA
ATOM     25  C   LIG d   1       9.680   5.775  -2.697  0.00  0.00    -0.046 A 
ATOM     26  H   LIG d   1       9.182   7.841  -2.514  0.00  0.00     0.066 H 
ATOM     27  H   LIG d   1       9.042   5.621  -3.555  0.00  0.00     0.063 H 
ATOM     28  C   LIG d   1      11.408   7.862   0.962  0.00  0.00     0.233 C 
ATOM     29  H   LIG d   1      10.636   7.688   1.711  0.00  0.00     0.117 H 
ATOM     30  H   LIG d   1      12.149   8.568   1.335  0.00  0.00     0.117 H 
ENDBRANCH  14  17
ENDBRANCH   2  13
BRANCH  11  31
ATOM     31  C   LIG d   1       9.144  -0.153  -7.041  0.00  0.00    -0.042 C 
ATOM     32  H   LIG d   1       8.573  -1.080  -7.099  0.00  0.00     0.078 H 
ATOM     33  H   LIG d   1       9.284   0.251  -8.043  0.00  0.00     0.078 H 
ATOM     34  H   LIG d   1      10.117  -0.354  -6.591  0.00  0.00     0.078 H 
ENDBRANCH  11  31
BRANCH   5  35
ATOM     35  C   LIG d   1       6.212  -0.050  -5.633  0.00  0.00     0.276 A 
ATOM     36  O   LIG d   1       5.102   0.235  -4.946  0.00  0.00    -0.332 OA
ATOM     37  N   LIG d   1       4.122  -0.045  -5.604  0.00  0.00    -0.056 NA
ATOM     38  C   LIG d   1       4.483  -0.532  -6.763  0.00  0.00     0.204 A 
ATOM     39  N   LIG d   1       5.836  -0.534  -6.791  0.00  0.00    -0.186 NA
BRANCH  38  40
ATOM     40  C   LIG d   1       3.580  -0.992  -7.846  0.00  0.00     0.041 A 
ATOM     41  C   LIG d   1       2.573  -0.160  -8.330  0.00  0.00     0.038 A 
ATOM     42  N   LIG d   1       1.773  -0.566  -9.295  0.00  0.00    -0.263 NA
ATOM     43  H   LIG d   1       2.451   0.830  -7.914  0.00  0.00     0.084 H 
ATOM     44  C   LIG d   1       1.881  -1.766  -9.830  0.00  0.00     0.028 A 
ATOM     45  C   LIG d   1       2.851  -2.654  -9.400  0.00  0.00    -0.043 A 
ATOM     46  H   LIG d   1       1.202  -2.061 -10.616  0.00  0.00     0.083 H 
ATOM     47  C   LIG d   1       3.720  -2.270  -8.392  0.00  0.00    -0.048 A 
ATOM     48  H   LIG d   1       2.932  -3.634  -9.846  0.00  0.00     0.063 H 
ATOM     49  H   LIG d   1       4.487  -2.943  -8.037  0.00  0.00     0.063 H 
ENDBRANCH  38  40
ENDBRANCH   5  35
TORSDOF 5
ENDMDL
MODEL 9
REMARK VINA RESULT:      -6.6      8.709     12.426
REMARK  5 active torsions:
REMARK  status: ('A' for Active; 'I' for Inactive)
REMARK    1  A    between atoms: C_1  and  N_48 
REMARK    2  A    between atoms: C_3  and  N_19 
REMARK    3  A    between atoms: C_6  and  C_8 
REMARK    4  A    between atoms: C_10  and  C_13 
REMARK       I    between atoms: N_19  and  C_20 
REMARK    5  A    between atoms: C_20  and  C_22 
ROOT
ATOM      1  C   LIG d   1       2.866  -3.294  -9.860  0.00  0.00    -0.012 C 
ATOM      2  C   LIG d   1       1.823  -2.379 -10.533  0.00  0.00     0.069 C 
ATOM      3  H   LIG d   1       2.179  -2.038 -11.506  0.00  0.00     0.055 H 
ATOM      4  C   LIG d   1       1.709  -1.191  -9.542  0.00  0.00     0.023 C 
ATOM      5  C   LIG d   1       3.169  -1.063  -9.037  0.00  0.00     0.061 C 
ATOM      6  H   LIG d   1       3.768  -0.498  -9.751  0.00  0.00     0.095 H 
ATOM      7  H   LIG d   1       2.362  -4.082  -9.300  0.00  0.00     0.083 H 
ATOM      8  H   LIG d   1       3.515  -3.736 -10.616  0.00  0.00     0.083 H 
ATOM      9  H   LIG d   1       1.393  -0.282 -10.054  0.00  0.00     0.035 H 
ATOM     10  H   LIG d   1       1.032  -1.431  -8.722  0.00  0.00     0.035 H 
ATOM     11  N   LIG d   1       3.644  -2.455  -8.931  0.00  0.00     0.243 N 
ATOM     12  H   LIG d   1       3.502  -2.789  -7.971  0.00  0.00     0.204 HD
ENDROOT
BRANCH   2  13
ATOM     13  N   LIG d   1       0.537  -3.067 -10.666  0.00  0.00    -0.303 N 
ATOM     14  C   LIG d   1       0.161  -3.569 -11.859  0.00  0.00     0.245 C 
ATOM     15  O   LIG d   1       0.889  -3.448 -12.826  0.00  0.00    -0.270 OA
ATOM     16  H   LIG d   1      -0.044  -3.163  -9.895  0.00  0.00     0.149 HD
BRANCH  14  17
ATOM     17  C   LIG d   1      -1.134  -4.263 -11.993  0.00  0.00     0.040 A 
ATOM     18  C   LIG d   1      -1.661  -4.979 -10.915  0.00  0.00    -0.004 A 
ATOM     19  C   LIG d   1      -2.870  -5.632 -11.046  0.00  0.00     0.167 A 
ATOM     20  H   LIG d   1      -1.123  -5.021  -9.979  0.00  0.00     0.066 H 
ATOM     21  C   LIG d   1      -3.565  -5.576 -12.255  0.00  0.00     0.166 A 
ATOM     22  O   LIG d   1      -3.592  -6.384 -10.164  0.00  0.00    -0.453 OA
ATOM     23  C   LIG d   1      -3.041  -4.865 -13.327  0.00  0.00    -0.015 A 
ATOM     24  O   LIG d   1      -4.718  -6.293 -12.128  0.00  0.00    -0.453 OA
ATOM     25  C   LIG d   1      -1.834  -4.212 -13.201  0.00  0.00    -0.046 A 
ATOM     26  H   LIG d   1      -3.581  -4.825 -14.262  0.00  0.00     0.066 H 
ATOM     27  H   LIG d   1      -1.429  -3.661 -14.037  0.00  0.00     0.063 H 
ATOM     28  C   LIG d   1      -4.527  -7.126 -10.969  0.00  0.00     0.233 C 
ATOM     29  H   LIG d   1      -4.108  -8.091 -11.255  0.00  0.00     0.117 H 
ATOM     30  H   LIG d   1      -5.467  -7.262 -10.435  0.00  0.00     0.117 H 
ENDBRANCH  14  17
ENDBRANCH   2  13
BRANCH  11  31
ATOM     31  C   LIG d   1       5.090  -2.531  -9.262  0.00  0.00    -0.042 C 
ATOM     32  H   LIG d   1       5.219  -2.596 -10.343  0.00  0.00     0.078 H 
ATOM     33  H   LIG d   1       5.592  -1.639  -8.890  0.00  0.00     0.078 H 
ATOM     34  H   LIG d   1       5.523  -3.415  -8.792  0.00  0.00     0.078 H 
ENDBRANCH  11  31
BRANCH   5  35
ATOM     35  C   LIG d   1       3.203  -0.402  -7.684  0.00  0.00     0.276 A 
ATOM     36  O   LIG d   1       2.799   0.840  -7.396  0.00  0.00    -0.332 OA
ATOM     37  N   LIG d   1       2.960   1.066  -6.215  0.00  0.00    -0.056 NA
ATOM     38  C   LIG d   1       3.473   0.019  -5.623  0.00  0.00     0.204 A 
ATOM     39  N   LIG d   1       3.629  -0.938  -6.567  0.00  0.00    -0.186 NA
BRANCH  38  40
ATOM     40  C   LIG d   1       3.817  -0.100  -4.184  0.00  0.00     0.041 A 
ATOM     41  C   LIG d   1       4.152  -1.336  -3.636  0.00  0.00     0.038 A 
ATOM     42  N   LIG d   1       4.461  -1.441  -2.359  0.00  0.00    -0.263 NA
ATOM     43  H   LIG d   1       4.163  -2.214  -4.264  0.00  0.00     0.084 H 
ATOM     44  C   LIG d   1       4.456  -0.398  -1.553  0.00  0.00     0.028 A 
ATOM     45  C   LIG d   1       4.129   0.863  -2.020  0.00  0.00    -0.043 A 
ATOM     46  H   LIG d   1       4.712  -0.528  -0.513  0.00  0.00     0.083 H 
ATOM     47  C   LIG d   1       3.803   1.025  -3.356  0.00  0.00    -0.048 A 
ATOM     48  H   LIG d   1       4.129   1.711  -1.352  0.00  0.00     0.063 H 
ATOM     49  H   LIG d   1       3.543   1.998  -3.748  0.00  0.00     0.063 H 
ENDBRANCH  38  40
ENDBRANCH   5  35
TORSDOF 5
ENDMDL
