MODEL 1
REMARK VINA RESULT:      -7.8      0.000      0.000
REMARK  11 active torsions:
REMARK  status: ('A' for Active; 'I' for Inactive)
REMARK    1  A    between atoms: C_1  and  C_2 
REMARK    2  A    between atoms: C_13  and  O_15 
REMARK    3  A    between atoms: N_21  and  O_22 
REMARK    4  A    between atoms: O_22  and  C_23 
REMARK    5  A    between atoms: C_23  and  C_24 
REMARK       I    between atoms: C_24  and  N_26 
REMARK    6  A    between atoms: N_26  and  C_27 
REMARK    7  A    between atoms: C_27  and  C_29 
REMARK    8  A    between atoms: C_27  and  C_35 
REMARK    9  A    between atoms: C_35  and  O_37 
REMARK   10  A    between atoms: O_37  and  C_38 
REMARK   11  A    between atoms: C_41  and  C_42 
ROOT
ATOM      1  C   LIG d   1      10.534   7.674  -2.713  0.00  0.00    -0.003 C 
ATOM      2  C   LIG d   1       9.639   6.732  -1.930  0.00  0.00    -0.045 C 
ATOM      3  C   LIG d   1       9.825   5.329  -2.529  0.00  0.00    -0.049 C 
ATOM      4  C   LIG d   1       9.501   5.304  -4.020  0.00  0.00    -0.029 C 
ATOM      5  H   LIG d   1       8.439   5.505  -4.155  0.00  0.00     0.031 H 
ATOM      6  C   LIG d   1      10.310   6.353  -4.797  0.00  0.00    -0.034 C 
ATOM      7  H   LIG d   1      11.374   6.130  -4.727  0.00  0.00     0.031 H 
ATOM      8  C   LIG d   1       9.996   7.712  -4.168  0.00  0.00    -0.030 C 
ATOM      9  H   LIG d   1       8.923   7.903  -4.172  0.00  0.00     0.031 H 
ATOM     10  C   LIG d   1      10.766   8.902  -4.754  0.00  0.00    -0.047 C 
ATOM     11  C   LIG d   1      10.724   9.943  -3.602  0.00  0.00    -0.026 C 
ATOM     12  C   LIG d   1      10.516   9.140  -2.294  0.00  0.00     0.061 C 
ATOM     13  H   LIG d   1      11.327   9.343  -1.594  0.00  0.00     0.060 H 
ATOM     14  C   LIG d   1       9.867   6.339  -6.263  0.00  0.00    -0.046 C 
ATOM     15  C   LIG d   1      10.233   4.991  -6.887  0.00  0.00    -0.031 C 
ATOM     16  C   LIG d   1       9.616   3.884  -6.051  0.00  0.00    -0.062 C 
ATOM     17  C   LIG d   1       8.932   2.939  -6.686  0.00  0.00    -0.037 C 
ATOM     18  C   LIG d   1       8.327   1.831  -5.926  0.00  0.00     0.080 C 
ATOM     19  N   LIG d   1       7.342   1.136  -6.399  0.00  0.00    -0.089 NA
ATOM     20  C   LIG d   1       8.922   1.548  -4.559  0.00  0.00    -0.006 C 
ATOM     21  C   LIG d   1       8.996   2.878  -3.812  0.00  0.00    -0.038 C 
ATOM     22  C   LIG d   1       9.820   3.913  -4.581  0.00  0.00    -0.007 C 
ATOM     23  H   LIG d   1       9.932   6.729  -0.880  0.00  0.00     0.027 H 
ATOM     24  H   LIG d   1       8.599   7.043  -2.026  0.00  0.00     0.027 H 
ATOM     25  H   LIG d   1      10.859   5.014  -2.385  0.00  0.00     0.027 H 
ATOM     26  H   LIG d   1       9.167   4.632  -2.011  0.00  0.00     0.027 H 
ATOM     27  H   LIG d   1      11.794   8.620  -4.981  0.00  0.00     0.027 H 
ATOM     28  H   LIG d   1      10.265   9.287  -5.641  0.00  0.00     0.027 H 
ATOM     29  H   LIG d   1      11.665  10.492  -3.559  0.00  0.00     0.029 H 
ATOM     30  H   LIG d   1       9.894  10.633  -3.753  0.00  0.00     0.029 H 
ATOM     31  H   LIG d   1       8.788   6.486  -6.318  0.00  0.00     0.027 H 
ATOM     32  H   LIG d   1      10.373   7.139  -6.803  0.00  0.00     0.027 H 
ATOM     33  H   LIG d   1       9.843   4.941  -7.904  0.00  0.00     0.031 H 
ATOM     34  H   LIG d   1      11.317   4.876  -6.903  0.00  0.00     0.031 H 
ATOM     35  H   LIG d   1       8.819   2.983  -7.759  0.00  0.00     0.064 H 
ATOM     36  H   LIG d   1       8.285   0.852  -4.016  0.00  0.00     0.033 H 
ATOM     37  H   LIG d   1       9.922   1.129  -4.670  0.00  0.00     0.033 H 
ATOM     38  H   LIG d   1       7.986   3.264  -3.672  0.00  0.00     0.028 H 
ATOM     39  H   LIG d   1       9.448   2.711  -2.834  0.00  0.00     0.028 H 
ENDROOT
BRANCH  19  40
ATOM     40  O   LIG d   1       6.816   1.432  -7.680  0.00  0.00    -0.384 OA
BRANCH  40  41
ATOM     41  C   LIG d   1       6.022   0.384  -8.240  0.00  0.00     0.193 C 
ATOM     42  H   LIG d   1       5.468   0.767  -9.097  0.00  0.00     0.082 H 
ATOM     43  H   LIG d   1       6.670  -0.431  -8.559  0.00  0.00     0.082 H 
BRANCH  41  44
ATOM     44  C   LIG d   1       5.054  -0.121  -7.201  0.00  0.00     0.254 C 
ATOM     45  O   LIG d   1       3.925   0.319  -7.157  0.00  0.00    -0.272 OA
ATOM     46  N   LIG d   1       5.445  -1.062  -6.318  0.00  0.00    -0.296 N 
ATOM     47  H   LIG d   1       6.348  -1.414  -6.352  0.00  0.00     0.150 HD
BRANCH  46  48
ATOM     48  C   LIG d   1       4.505  -1.553  -5.307  0.00  0.00     0.146 C 
ATOM     49  H   LIG d   1       3.504  -1.599  -5.733  0.00  0.00     0.067 H 
BRANCH  48  50
ATOM     50  C   LIG d   1       4.505  -0.619  -4.125  0.00  0.00    -0.017 A 
ATOM     51  C   LIG d   1       5.702  -0.181  -3.589  0.00  0.00    -0.056 A 
ATOM     52  C   LIG d   1       5.701   0.679  -2.507  0.00  0.00    -0.061 A 
ATOM     53  H   LIG d   1       6.636  -0.510  -4.019  0.00  0.00     0.062 H 
ATOM     54  C   LIG d   1       4.505   1.095  -1.955  0.00  0.00    -0.062 A 
ATOM     55  H   LIG d   1       6.637   1.024  -2.092  0.00  0.00     0.062 H 
ATOM     56  C   LIG d   1       3.308   0.654  -2.488  0.00  0.00    -0.061 A 
ATOM     57  H   LIG d   1       4.505   1.765  -1.108  0.00  0.00     0.062 H 
ATOM     58  C   LIG d   1       3.308  -0.203  -3.572  0.00  0.00    -0.056 A 
ATOM     59  H   LIG d   1       2.372   0.979  -2.057  0.00  0.00     0.062 H 
ATOM     60  H   LIG d   1       2.372  -0.548  -3.988  0.00  0.00     0.062 H 
ENDBRANCH  48  50
BRANCH  48  61
ATOM     61  C   LIG d   1       4.924  -2.930  -4.859  0.00  0.00     0.332 C 
ATOM     62  O   LIG d   1       4.301  -3.500  -3.995  0.00  0.00    -0.248 OA
BRANCH  61  63
ATOM     63  O   LIG d   1       5.990  -3.523  -5.421  0.00  0.00    -0.466 OA
BRANCH  63  64
ATOM     64  C   LIG d   1       7.179  -3.603  -4.631  0.00  0.00     0.082 C 
ATOM     65  H   LIG d   1       7.025  -4.305  -3.811  0.00  0.00     0.066 H 
ATOM     66  H   LIG d   1       8.005  -3.946  -5.253  0.00  0.00     0.066 H 
ATOM     67  H   LIG d   1       7.412  -2.618  -4.226  0.00  0.00     0.066 H 
ENDBRANCH  63  64
ENDBRANCH  61  63
ENDBRANCH  48  61
ENDBRANCH  46  48
ENDBRANCH  41  44
ENDBRANCH  40  41
ENDBRANCH  19  40
BRANCH  22  68
ATOM     68  C   LIG d   1      11.299   3.624  -4.313  0.00  0.00    -0.056 C 
ATOM     69  H   LIG d   1      11.887   3.888  -5.192  0.00  0.00     0.024 H 
ATOM     70  H   LIG d   1      11.635   4.214  -3.461  0.00  0.00     0.024 H 
ATOM     71  H   LIG d   1      11.429   2.565  -4.094  0.00  0.00     0.024 H 
ENDBRANCH  22  68
BRANCH   1  72
ATOM     72  C   LIG d   1      11.972   7.150  -2.704  0.00  0.00    -0.057 C 
ATOM     73  H   LIG d   1      12.017   6.205  -3.245  0.00  0.00     0.024 H 
ATOM     74  H   LIG d   1      12.626   7.877  -3.186  0.00  0.00     0.024 H 
ATOM     75  H   LIG d   1      12.295   6.995  -1.675  0.00  0.00     0.024 H 
ENDBRANCH   1  72
BRANCH  12  76
ATOM     76  O   LIG d   1       9.257   9.471  -1.704  0.00  0.00    -0.391 OA
ATOM     77  H   LIG d   1       8.514   8.957  -2.048  0.00  0.00     0.210 HD
ENDBRANCH  12  76
TORSDOF 11
ENDMDL
MODEL 2
REMARK VINA RESULT:      -6.9      1.933      3.619
REMARK  11 active torsions:
REMARK  status: ('A' for Active; 'I' for Inactive)
REMARK    1  A    between atoms: C_1  and  C_2 
REMARK    2  A    between atoms: C_13  and  O_15 
REMARK    3  A    between atoms: N_21  and  O_22 
REMARK    4  A    between atoms: O_22  and  C_23 
REMARK    5  A    between atoms: C_23  and  C_24 
REMARK       I    between atoms: C_24  and  N_26 
REMARK    6  A    between atoms: N_26  and  C_27 
REMARK    7  A    between atoms: C_27  and  C_29 
REMARK    8  A    between atoms: C_27  and  C_35 
REMARK    9  A    between atoms: C_35  and  O_37 
REMARK   10  A    between atoms: O_37  and  C_38 
REMARK   11  A    between atoms: C_41  and  C_42 
ROOT
ATOM      1  C   LIG d   1      10.302  10.020  -3.294  0.00  0.00    -0.003 C 
ATOM      2  C   LIG d   1       9.960   9.253  -2.031  0.00  0.00    -0.045 C 
ATOM      3  C   LIG d   1      10.425   7.803  -2.242  0.00  0.00    -0.049 C 
ATOM      4  C   LIG d   1       9.779   7.176  -3.474  0.00  0.00    -0.029 C 
ATOM      5  H   LIG d   1       8.707   7.082  -3.303  0.00  0.00     0.031 H 
ATOM      6  C   LIG d   1      10.010   8.024  -4.733  0.00  0.00    -0.034 C 
ATOM      7  H   LIG d   1      11.075   8.076  -4.958  0.00  0.00     0.031 H 
ATOM      8  C   LIG d   1       9.448   9.417  -4.441  0.00  0.00    -0.030 C 
ATOM      9  H   LIG d   1       8.400   9.358  -4.145  0.00  0.00     0.031 H 
ATOM     10  C   LIG d   1       9.645  10.454  -5.554  0.00  0.00    -0.047 C 
ATOM     11  C   LIG d   1       9.556  11.803  -4.790  0.00  0.00    -0.026 C 
ATOM     12  C   LIG d   1       9.928  11.499  -3.318  0.00  0.00     0.061 C 
ATOM     13  H   LIG d   1      10.777  12.108  -3.009  0.00  0.00     0.060 H 
ATOM     14  C   LIG d   1       9.256   7.391  -5.907  0.00  0.00    -0.046 C 
ATOM     15  C   LIG d   1       9.865   6.021  -6.215  0.00  0.00    -0.031 C 
ATOM     16  C   LIG d   1       9.843   5.183  -4.949  0.00  0.00    -0.062 C 
ATOM     17  C   LIG d   1       9.357   3.949  -5.035  0.00  0.00    -0.037 C 
ATOM     18  C   LIG d   1       9.327   3.085  -3.841  0.00  0.00     0.080 C 
ATOM     19  N   LIG d   1       8.526   2.072  -3.752  0.00  0.00    -0.089 NA
ATOM     20  C   LIG d   1      10.289   3.447  -2.725  0.00  0.00    -0.006 C 
ATOM     21  C   LIG d   1      10.121   4.939  -2.445  0.00  0.00    -0.038 C 
ATOM     22  C   LIG d   1      10.373   5.780  -3.699  0.00  0.00    -0.007 C 
ATOM     23  H   LIG d   1      10.481   9.689  -1.179  0.00  0.00     0.027 H 
ATOM     24  H   LIG d   1       8.883   9.277  -1.862  0.00  0.00     0.027 H 
ATOM     25  H   LIG d   1      11.509   7.791  -2.364  0.00  0.00     0.027 H 
ATOM     26  H   LIG d   1      10.162   7.214  -1.364  0.00  0.00     0.027 H 
ATOM     27  H   LIG d   1      10.624  10.338  -6.018  0.00  0.00     0.027 H 
ATOM     28  H   LIG d   1       8.851  10.377  -6.297  0.00  0.00     0.027 H 
ATOM     29  H   LIG d   1      10.260  12.520  -5.214  0.00  0.00     0.029 H 
ATOM     30  H   LIG d   1       8.541  12.198  -4.846  0.00  0.00     0.029 H 
ATOM     31  H   LIG d   1       8.206   7.273  -5.643  0.00  0.00     0.027 H 
ATOM     32  H   LIG d   1       9.343   8.034  -6.784  0.00  0.00     0.027 H 
ATOM     33  H   LIG d   1       9.279   5.528  -6.991  0.00  0.00     0.031 H 
ATOM     34  H   LIG d   1      10.893   6.145  -6.554  0.00  0.00     0.031 H 
ATOM     35  H   LIG d   1       8.983   3.581  -5.979  0.00  0.00     0.064 H 
ATOM     36  H   LIG d   1      10.051   2.872  -1.832  0.00  0.00     0.033 H 
ATOM     37  H   LIG d   1      11.313   3.241  -3.038  0.00  0.00     0.033 H 
ATOM     38  H   LIG d   1       9.106   5.122  -2.094  0.00  0.00     0.028 H 
ATOM     39  H   LIG d   1      10.823   5.234  -1.665  0.00  0.00     0.028 H 
ENDROOT
BRANCH  19  40
ATOM     40  O   LIG d   1       7.644   1.769  -4.817  0.00  0.00    -0.384 OA
BRANCH  40  41
ATOM     41  C   LIG d   1       7.891   0.505  -5.435  0.00  0.00     0.193 C 
ATOM     42  H   LIG d   1       8.338   0.661  -6.417  0.00  0.00     0.082 H 
ATOM     43  H   LIG d   1       8.572  -0.076  -4.813  0.00  0.00     0.082 H 
BRANCH  41  44
ATOM     44  C   LIG d   1       6.590  -0.241  -5.588  0.00  0.00     0.254 C 
ATOM     45  O   LIG d   1       6.467  -1.351  -5.113  0.00  0.00    -0.272 OA
ATOM     46  N   LIG d   1       5.563   0.325  -6.253  0.00  0.00    -0.296 N 
ATOM     47  H   LIG d   1       5.662   1.212  -6.632  0.00  0.00     0.150 HD
BRANCH  46  48
ATOM     48  C   LIG d   1       4.299  -0.400  -6.401  0.00  0.00     0.146 C 
ATOM     49  H   LIG d   1       4.486  -1.471  -6.353  0.00  0.00     0.067 H 
BRANCH  48  50
ATOM     50  C   LIG d   1       3.677  -0.058  -7.731  0.00  0.00    -0.017 A 
ATOM     51  C   LIG d   1       4.126   1.040  -8.442  0.00  0.00    -0.056 A 
ATOM     52  C   LIG d   1       3.558   1.351  -9.664  0.00  0.00    -0.061 A 
ATOM     53  H   LIG d   1       4.921   1.652  -8.044  0.00  0.00     0.062 H 
ATOM     54  C   LIG d   1       2.537   0.570 -10.170  0.00  0.00    -0.062 A 
ATOM     55  H   LIG d   1       3.912   2.205 -10.221  0.00  0.00     0.062 H 
ATOM     56  C   LIG d   1       2.085  -0.525  -9.457  0.00  0.00    -0.061 A 
ATOM     57  H   LIG d   1       2.092   0.815 -11.123  0.00  0.00     0.062 H 
ATOM     58  C   LIG d   1       2.655  -0.838  -8.238  0.00  0.00    -0.056 A 
ATOM     59  H   LIG d   1       1.287  -1.135  -9.853  0.00  0.00     0.062 H 
ATOM     60  H   LIG d   1       2.301  -1.694  -7.680  0.00  0.00     0.062 H 
ENDBRANCH  48  50
BRANCH  48  61
ATOM     61  C   LIG d   1       3.359  -0.003  -5.292  0.00  0.00     0.332 C 
ATOM     62  O   LIG d   1       2.775   1.053  -5.343  0.00  0.00    -0.248 OA
BRANCH  61  63
ATOM     63  O   LIG d   1       3.173  -0.823  -4.245  0.00  0.00    -0.466 OA
BRANCH  63  64
ATOM     64  C   LIG d   1       3.034  -0.214  -2.959  0.00  0.00     0.082 C 
ATOM     65  H   LIG d   1       2.243  -0.717  -2.402  0.00  0.00     0.066 H 
ATOM     66  H   LIG d   1       3.973  -0.299  -2.414  0.00  0.00     0.066 H 
ATOM     67  H   LIG d   1       2.778   0.839  -3.083  0.00  0.00     0.066 H 
ENDBRANCH  63  64
ENDBRANCH  61  63
ENDBRANCH  48  61
ENDBRANCH  46  48
ENDBRANCH  41  44
ENDBRANCH  40  41
ENDBRANCH  19  40
BRANCH  22  68
ATOM     68  C   LIG d   1      11.887   5.932  -3.862  0.00  0.00    -0.056 C 
ATOM     69  H   LIG d   1      12.215   5.377  -4.741  0.00  0.00     0.024 H 
ATOM     70  H   LIG d   1      12.134   6.986  -3.985  0.00  0.00     0.024 H 
ATOM     71  H   LIG d   1      12.389   5.542  -2.978  0.00  0.00     0.024 H 
ENDBRANCH  22  68
BRANCH   1  72
ATOM     72  C   LIG d   1      11.789   9.857  -3.613  0.00  0.00    -0.057 C 
ATOM     73  H   LIG d   1      12.035  10.436  -4.504  0.00  0.00     0.024 H 
ATOM     74  H   LIG d   1      12.383  10.213  -2.772  0.00  0.00     0.024 H 
ATOM     75  H   LIG d   1      12.008   8.804  -3.793  0.00  0.00     0.024 H 
ENDBRANCH   1  72
BRANCH  12  76
ATOM     76  O   LIG d   1       8.807  11.740  -2.463  0.00  0.00    -0.391 OA
ATOM     77  H   LIG d   1       7.970  11.849  -2.934  0.00  0.00     0.210 HD
ENDBRANCH  12  76
TORSDOF 11
ENDMDL
MODEL 3
REMARK VINA RESULT:      -6.8      4.467      8.073
REMARK  11 active torsions:
REMARK  status: ('A' for Active; 'I' for Inactive)
REMARK    1  A    between atoms: C_1  and  C_2 
REMARK    2  A    between atoms: C_13  and  O_15 
REMARK    3  A    between atoms: N_21  and  O_22 
REMARK    4  A    between atoms: O_22  and  C_23 
REMARK    5  A    between atoms: C_23  and  C_24 
REMARK       I    between atoms: C_24  and  N_26 
REMARK    6  A    between atoms: N_26  and  C_27 
REMARK    7  A    between atoms: C_27  and  C_29 
REMARK    8  A    between atoms: C_27  and  C_35 
REMARK    9  A    between atoms: C_35  and  O_37 
REMARK   10  A    between atoms: O_37  and  C_38 
REMARK   11  A    between atoms: C_41  and  C_42 
ROOT
ATOM      1  C   LIG d   1      10.636  11.036  -6.208  0.00  0.00    -0.003 C 
ATOM      2  C   LIG d   1       9.395  10.993  -5.337  0.00  0.00    -0.045 C 
ATOM      3  C   LIG d   1       9.858  11.147  -3.879  0.00  0.00    -0.049 C 
ATOM      4  C   LIG d   1      10.859  10.063  -3.488  0.00  0.00    -0.029 C 
ATOM      5  H   LIG d   1      10.357   9.096  -3.500  0.00  0.00     0.031 H 
ATOM      6  C   LIG d   1      12.054  10.015  -4.451  0.00  0.00    -0.034 C 
ATOM      7  H   LIG d   1      12.608  10.953  -4.405  0.00  0.00     0.031 H 
ATOM      8  C   LIG d   1      11.487   9.787  -5.853  0.00  0.00    -0.030 C 
ATOM      9  H   LIG d   1      10.872   8.888  -5.881  0.00  0.00     0.031 H 
ATOM     10  C   LIG d   1      12.518   9.782  -6.988  0.00  0.00    -0.047 C 
ATOM     11  C   LIG d   1      11.664  10.138  -8.235  0.00  0.00    -0.026 C 
ATOM     12  C   LIG d   1      10.421  10.899  -7.711  0.00  0.00     0.061 C 
ATOM     13  H   LIG d   1      10.358  11.884  -8.175  0.00  0.00     0.060 H 
ATOM     14  C   LIG d   1      12.966   8.849  -4.058  0.00  0.00    -0.046 C 
ATOM     15  C   LIG d   1      13.561   9.118  -2.675  0.00  0.00    -0.031 C 
ATOM     16  C   LIG d   1      12.426   9.365  -1.696  0.00  0.00    -0.062 C 
ATOM     17  C   LIG d   1      12.446   8.698  -0.548  0.00  0.00    -0.037 C 
ATOM     18  C   LIG d   1      11.379   8.912   0.446  0.00  0.00     0.080 C 
ATOM     19  N   LIG d   1      11.114   8.035   1.362  0.00  0.00    -0.089 NA
ATOM     20  C   LIG d   1      10.611  10.215   0.339  0.00  0.00    -0.006 C 
ATOM     21  C   LIG d   1      10.175  10.368  -1.117  0.00  0.00    -0.038 C 
ATOM     22  C   LIG d   1      11.373  10.341  -2.070  0.00  0.00    -0.007 C 
ATOM     23  H   LIG d   1       8.727  11.811  -5.602  0.00  0.00     0.027 H 
ATOM     24  H   LIG d   1       8.884  10.038  -5.466  0.00  0.00     0.027 H 
ATOM     25  H   LIG d   1      10.326  12.123  -3.756  0.00  0.00     0.027 H 
ATOM     26  H   LIG d   1       8.991  11.084  -3.222  0.00  0.00     0.027 H 
ATOM     27  H   LIG d   1      13.283  10.539  -6.816  0.00  0.00     0.027 H 
ATOM     28  H   LIG d   1      12.967   8.795  -7.097  0.00  0.00     0.027 H 
ATOM     29  H   LIG d   1      12.236  10.775  -8.911  0.00  0.00     0.029 H 
ATOM     30  H   LIG d   1      11.356   9.228  -8.749  0.00  0.00     0.029 H 
ATOM     31  H   LIG d   1      12.385   7.927  -4.033  0.00  0.00     0.027 H 
ATOM     32  H   LIG d   1      13.770   8.754  -4.788  0.00  0.00     0.027 H 
ATOM     33  H   LIG d   1      14.140   8.254  -2.352  0.00  0.00     0.031 H 
ATOM     34  H   LIG d   1      14.205   9.997  -2.718  0.00  0.00     0.031 H 
ATOM     35  H   LIG d   1      13.243   7.998  -0.343  0.00  0.00     0.064 H 
ATOM     36  H   LIG d   1       9.736  10.183   0.987  0.00  0.00     0.033 H 
ATOM     37  H   LIG d   1      11.254  11.048   0.623  0.00  0.00     0.033 H 
ATOM     38  H   LIG d   1       9.501   9.552  -1.373  0.00  0.00     0.028 H 
ATOM     39  H   LIG d   1       9.645  11.314  -1.231  0.00  0.00     0.028 H 
ENDROOT
BRANCH  19  40
ATOM     40  O   LIG d   1      11.855   6.831   1.427  0.00  0.00    -0.384 OA
BRANCH  40  41
ATOM     41  C   LIG d   1      11.127   5.675   1.009  0.00  0.00     0.193 C 
ATOM     42  H   LIG d   1      11.299   4.862   1.714  0.00  0.00     0.082 H 
ATOM     43  H   LIG d   1      10.063   5.910   0.976  0.00  0.00     0.082 H 
BRANCH  41  44
ATOM     44  C   LIG d   1      11.592   5.258  -0.362  0.00  0.00     0.254 C 
ATOM     45  O   LIG d   1      12.775   5.258  -0.629  0.00  0.00    -0.272 OA
ATOM     46  N   LIG d   1      10.692   4.886  -1.295  0.00  0.00    -0.296 N 
ATOM     47  H   LIG d   1       9.746   4.886  -1.082  0.00  0.00     0.150 HD
BRANCH  46  48
ATOM     48  C   LIG d   1      11.144   4.481  -2.628  0.00  0.00     0.146 C 
ATOM     49  H   LIG d   1      12.231   4.523  -2.672  0.00  0.00     0.067 H 
BRANCH  48  50
ATOM     50  C   LIG d   1      10.563   5.413  -3.660  0.00  0.00    -0.017 A 
ATOM     51  C   LIG d   1       9.630   6.362  -3.287  0.00  0.00    -0.056 A 
ATOM     52  C   LIG d   1       9.100   7.220  -4.233  0.00  0.00    -0.061 A 
ATOM     53  H   LIG d   1       9.318   6.435  -2.256  0.00  0.00     0.062 H 
ATOM     54  C   LIG d   1       9.496   7.122  -5.553  0.00  0.00    -0.062 A 
ATOM     55  H   LIG d   1       8.375   7.964  -3.940  0.00  0.00     0.062 H 
ATOM     56  C   LIG d   1      10.425   6.170  -5.927  0.00  0.00    -0.061 A 
ATOM     57  H   LIG d   1       9.080   7.791  -6.293  0.00  0.00     0.062 H 
ATOM     58  C   LIG d   1      10.959   5.315  -4.981  0.00  0.00    -0.056 A 
ATOM     59  H   LIG d   1      10.735   6.093  -6.959  0.00  0.00     0.062 H 
ATOM     60  H   LIG d   1      11.685   4.570  -5.273  0.00  0.00     0.062 H 
ENDBRANCH  48  50
BRANCH  48  61
ATOM     61  C   LIG d   1      10.683   3.073  -2.907  0.00  0.00     0.332 C 
ATOM     62  O   LIG d   1      11.495   2.200  -3.103  0.00  0.00    -0.248 OA
BRANCH  61  63
ATOM     63  O   LIG d   1       9.371   2.790  -2.938  0.00  0.00    -0.466 OA
BRANCH  63  64
ATOM     64  C   LIG d   1       8.904   2.000  -4.035  0.00  0.00     0.082 C 
ATOM     65  H   LIG d   1       8.219   1.236  -3.666  0.00  0.00     0.066 H 
ATOM     66  H   LIG d   1       8.384   2.640  -4.746  0.00  0.00     0.066 H 
ATOM     67  H   LIG d   1       9.752   1.523  -4.525  0.00  0.00     0.066 H 
ENDBRANCH  63  64
ENDBRANCH  61  63
ENDBRANCH  48  61
ENDBRANCH  46  48
ENDBRANCH  41  44
ENDBRANCH  40  41
ENDBRANCH  19  40
BRANCH  22  68
ATOM     68  C   LIG d   1      12.007  11.734  -2.062  0.00  0.00    -0.056 C 
ATOM     69  H   LIG d   1      12.068  12.100  -1.038  0.00  0.00     0.024 H 
ATOM     70  H   LIG d   1      13.008  11.679  -2.489  0.00  0.00     0.024 H 
ATOM     71  H   LIG d   1      11.396  12.414  -2.656  0.00  0.00     0.024 H 
ENDBRANCH  22  68
BRANCH   1  72
ATOM     72  C   LIG d   1      11.433  12.308  -5.912  0.00  0.00    -0.057 C 
ATOM     73  H   LIG d   1      10.750  13.156  -5.840  0.00  0.00     0.024 H 
ATOM     74  H   LIG d   1      11.968  12.191  -4.969  0.00  0.00     0.024 H 
ATOM     75  H   LIG d   1      12.147  12.485  -6.716  0.00  0.00     0.024 H 
ENDBRANCH   1  72
BRANCH  12  76
ATOM     76  O   LIG d   1       9.233  10.149  -7.976  0.00  0.00    -0.391 OA
ATOM     77  H   LIG d   1       9.022   9.495  -7.296  0.00  0.00     0.210 HD
ENDBRANCH  12  76
TORSDOF 11
ENDMDL
MODEL 4
REMARK VINA RESULT:      -6.6      2.872      5.191
REMARK  11 active torsions:
REMARK  status: ('A' for Active; 'I' for Inactive)
REMARK    1  A    between atoms: C_1  and  C_2 
REMARK    2  A    between atoms: C_13  and  O_15 
REMARK    3  A    between atoms: N_21  and  O_22 
REMARK    4  A    between atoms: O_22  and  C_23 
REMARK    5  A    between atoms: C_23  and  C_24 
REMARK       I    between atoms: C_24  and  N_26 
REMARK    6  A    between atoms: N_26  and  C_27 
REMARK    7  A    between atoms: C_27  and  C_29 
REMARK    8  A    between atoms: C_27  and  C_35 
REMARK    9  A    between atoms: C_35  and  O_37 
REMARK   10  A    between atoms: O_37  and  C_38 
REMARK   11  A    between atoms: C_41  and  C_42 
ROOT
ATOM      1  C   LIG d   1      10.307   6.845  -8.382  0.00  0.00    -0.003 C 
ATOM      2  C   LIG d   1       9.754   7.131  -6.999  0.00  0.00    -0.045 C 
ATOM      3  C   LIG d   1       9.905   5.842  -6.175  0.00  0.00    -0.049 C 
ATOM      4  C   LIG d   1       9.192   4.664  -6.834  0.00  0.00    -0.029 C 
ATOM      5  H   LIG d   1       8.118   4.852  -6.829  0.00  0.00     0.031 H 
ATOM      6  C   LIG d   1       9.654   4.457  -8.284  0.00  0.00    -0.034 C 
ATOM      7  H   LIG d   1      10.714   4.204  -8.305  0.00  0.00     0.031 H 
ATOM      8  C   LIG d   1       9.393   5.768  -9.027  0.00  0.00    -0.030 C 
ATOM      9  H   LIG d   1       8.346   6.060  -8.944  0.00  0.00     0.031 H 
ATOM     10  C   LIG d   1       9.857   5.802 -10.488  0.00  0.00    -0.047 C 
ATOM     11  C   LIG d   1      10.028   7.321 -10.763  0.00  0.00    -0.026 C 
ATOM     12  C   LIG d   1      10.262   7.991  -9.387  0.00  0.00     0.061 C 
ATOM     13  H   LIG d   1      11.208   8.532  -9.386  0.00  0.00     0.060 H 
ATOM     14  C   LIG d   1       8.833   3.327  -8.913  0.00  0.00    -0.046 C 
ATOM     15  C   LIG d   1       9.145   2.015  -8.188  0.00  0.00    -0.031 C 
ATOM     16  C   LIG d   1       8.888   2.206  -6.704  0.00  0.00    -0.062 C 
ATOM     17  C   LIG d   1       8.152   1.291  -6.083  0.00  0.00    -0.037 C 
ATOM     18  C   LIG d   1       7.886   1.417  -4.639  0.00  0.00     0.080 C 
ATOM     19  N   LIG d   1       6.881   0.824  -4.076  0.00  0.00    -0.089 NA
ATOM     20  C   LIG d   1       8.853   2.276  -3.849  0.00  0.00    -0.006 C 
ATOM     21  C   LIG d   1       8.999   3.601  -4.595  0.00  0.00    -0.038 C 
ATOM     22  C   LIG d   1       9.480   3.389  -6.033  0.00  0.00    -0.007 C 
ATOM     23  H   LIG d   1      10.319   7.937  -6.533  0.00  0.00     0.027 H 
ATOM     24  H   LIG d   1       8.701   7.406  -7.070  0.00  0.00     0.027 H 
ATOM     25  H   LIG d   1      10.964   5.605  -6.075  0.00  0.00     0.027 H 
ATOM     26  H   LIG d   1       9.483   6.003  -5.184  0.00  0.00     0.027 H 
ATOM     27  H   LIG d   1      10.807   5.280 -10.602  0.00  0.00     0.027 H 
ATOM     28  H   LIG d   1       9.098   5.373 -11.143  0.00  0.00     0.027 H 
ATOM     29  H   LIG d   1      10.887   7.488 -11.412  0.00  0.00     0.029 H 
ATOM     30  H   LIG d   1       9.125   7.720 -11.226  0.00  0.00     0.029 H 
ATOM     31  H   LIG d   1       7.771   3.553  -8.818  0.00  0.00     0.027 H 
ATOM     32  H   LIG d   1       9.094   3.231  -9.967  0.00  0.00     0.027 H 
ATOM     33  H   LIG d   1       8.501   1.224  -8.572  0.00  0.00     0.031 H 
ATOM     34  H   LIG d   1      10.189   1.748  -8.348  0.00  0.00     0.031 H 
ATOM     35  H   LIG d   1       7.748   0.456  -6.636  0.00  0.00     0.064 H 
ATOM     36  H   LIG d   1       8.459   2.455  -2.849  0.00  0.00     0.033 H 
ATOM     37  H   LIG d   1       9.822   1.780  -3.783  0.00  0.00     0.033 H 
ATOM     38  H   LIG d   1       8.033   4.105  -4.616  0.00  0.00     0.028 H 
ATOM     39  H   LIG d   1       9.714   4.231  -4.064  0.00  0.00     0.028 H 
ENDROOT
BRANCH  19  40
ATOM     40  O   LIG d   1       6.002   0.029  -4.850  0.00  0.00    -0.384 OA
BRANCH  40  41
ATOM     41  C   LIG d   1       4.719  -0.169  -4.253  0.00  0.00     0.193 C 
ATOM     42  H   LIG d   1       4.623  -1.207  -3.934  0.00  0.00     0.082 H 
ATOM     43  H   LIG d   1       4.614   0.490  -3.391  0.00  0.00     0.082 H 
BRANCH  41  44
ATOM     44  C   LIG d   1       3.643   0.148  -5.260  0.00  0.00     0.254 C 
ATOM     45  O   LIG d   1       2.567   0.567  -4.888  0.00  0.00    -0.272 OA
ATOM     46  N   LIG d   1       3.876  -0.034  -6.575  0.00  0.00    -0.296 N 
ATOM     47  H   LIG d   1       4.737  -0.369  -6.873  0.00  0.00     0.150 HD
BRANCH  46  48
ATOM     48  C   LIG d   1       2.831   0.273  -7.554  0.00  0.00     0.146 C 
ATOM     49  H   LIG d   1       1.889   0.449  -7.037  0.00  0.00     0.067 H 
BRANCH  48  50
ATOM     50  C   LIG d   1       2.674  -0.887  -8.503  0.00  0.00    -0.017 A 
ATOM     51  C   LIG d   1       1.706  -0.849  -9.488  0.00  0.00    -0.056 A 
ATOM     52  C   LIG d   1       1.565  -1.911 -10.361  0.00  0.00    -0.061 A 
ATOM     53  H   LIG d   1       1.062   0.014  -9.577  0.00  0.00     0.062 H 
ATOM     54  C   LIG d   1       2.385  -3.016 -10.243  0.00  0.00    -0.062 A 
ATOM     55  H   LIG d   1       0.811  -1.878 -11.133  0.00  0.00     0.062 H 
ATOM     56  C   LIG d   1       3.351  -3.057  -9.254  0.00  0.00    -0.061 A 
ATOM     57  H   LIG d   1       2.274  -3.848 -10.923  0.00  0.00     0.062 H 
ATOM     58  C   LIG d   1       3.496  -1.993  -8.384  0.00  0.00    -0.056 A 
ATOM     59  H   LIG d   1       3.993  -3.921  -9.162  0.00  0.00     0.062 H 
ATOM     60  H   LIG d   1       4.250  -2.025  -7.611  0.00  0.00     0.062 H 
ENDBRANCH  48  50
BRANCH  48  61
ATOM     61  C   LIG d   1       3.217   1.507  -8.329  0.00  0.00     0.332 C 
ATOM     62  O   LIG d   1       2.746   2.579  -8.033  0.00  0.00    -0.248 OA
BRANCH  61  63
ATOM     63  O   LIG d   1       4.085   1.414  -9.350  0.00  0.00    -0.466 OA
BRANCH  63  64
ATOM     64  C   LIG d   1       5.376   1.997  -9.160  0.00  0.00     0.082 C 
ATOM     65  H   LIG d   1       5.683   1.870  -8.122  0.00  0.00     0.066 H 
ATOM     66  H   LIG d   1       6.095   1.507  -9.815  0.00  0.00     0.066 H 
ATOM     67  H   LIG d   1       5.332   3.060  -9.398  0.00  0.00     0.066 H 
ENDBRANCH  63  64
ENDBRANCH  61  63
ENDBRANCH  48  61
ENDBRANCH  46  48
ENDBRANCH  41  44
ENDBRANCH  40  41
ENDBRANCH  19  40
BRANCH  22  68
ATOM     68  C   LIG d   1      10.997   3.190  -5.992  0.00  0.00    -0.056 C 
ATOM     69  H   LIG d   1      11.296   2.883  -4.990  0.00  0.00     0.024 H 
ATOM     70  H   LIG d   1      11.280   2.419  -6.708  0.00  0.00     0.024 H 
ATOM     71  H   LIG d   1      11.493   4.124  -6.250  0.00  0.00     0.024 H 
ENDBRANCH  22  68
BRANCH   1  72
ATOM     72  C   LIG d   1      11.737   6.311  -8.268  0.00  0.00    -0.057 C 
ATOM     73  H   LIG d   1      12.250   6.819  -7.451  0.00  0.00     0.024 H 
ATOM     74  H   LIG d   1      11.710   5.240  -8.072  0.00  0.00     0.024 H 
ATOM     75  H   LIG d   1      12.269   6.498  -9.201  0.00  0.00     0.024 H 
ENDBRANCH   1  72
BRANCH  12  76
ATOM     76  O   LIG d   1       9.184   8.878  -9.078  0.00  0.00    -0.391 OA
ATOM     77  H   LIG d   1       8.335   8.435  -8.948  0.00  0.00     0.210 HD
ENDBRANCH  12  76
TORSDOF 11
ENDMDL
MODEL 5
REMARK VINA RESULT:      -6.6      6.518      9.773
REMARK  11 active torsions:
REMARK  status: ('A' for Active; 'I' for Inactive)
REMARK    1  A    between atoms: C_1  and  C_2 
REMARK    2  A    between atoms: C_13  and  O_15 
REMARK    3  A    between atoms: N_21  and  O_22 
REMARK    4  A    between atoms: O_22  and  C_23 
REMARK    5  A    between atoms: C_23  and  C_24 
REMARK       I    between atoms: C_24  and  N_26 
REMARK    6  A    between atoms: N_26  and  C_27 
REMARK    7  A    between atoms: C_27  and  C_29 
REMARK    8  A    between atoms: C_27  and  C_35 
REMARK    9  A    between atoms: C_35  and  O_37 
REMARK   10  A    between atoms: O_37  and  C_38 
REMARK   11  A    between atoms: C_41  and  C_42 
ROOT
ATOM      1  C   LIG d   1      10.931   7.521 -12.064  0.00  0.00    -0.003 C 
ATOM      2  C   LIG d   1      11.353   8.977 -12.003  0.00  0.00    -0.045 C 
ATOM      3  C   LIG d   1      11.780   9.265 -10.555  0.00  0.00    -0.049 C 
ATOM      4  C   LIG d   1      10.659   8.961  -9.565  0.00  0.00    -0.029 C 
ATOM      5  H   LIG d   1       9.837   9.656  -9.736  0.00  0.00     0.031 H 
ATOM      6  C   LIG d   1      10.136   7.525  -9.718  0.00  0.00    -0.034 C 
ATOM      7  H   LIG d   1      10.929   6.814  -9.487  0.00  0.00     0.031 H 
ATOM      8  C   LIG d   1       9.673   7.372 -11.168  0.00  0.00    -0.030 C 
ATOM      9  H   LIG d   1       8.933   8.131 -11.421  0.00  0.00     0.031 H 
ATOM     10  C   LIG d   1       9.179   5.973 -11.557  0.00  0.00    -0.047 C 
ATOM     11  C   LIG d   1       9.365   5.956 -13.099  0.00  0.00    -0.026 C 
ATOM     12  C   LIG d   1      10.460   7.003 -13.419  0.00  0.00     0.061 C 
ATOM     13  H   LIG d   1      11.287   6.533 -13.951  0.00  0.00     0.060 H 
ATOM     14  C   LIG d   1       8.954   7.320  -8.766  0.00  0.00    -0.046 C 
ATOM     15  C   LIG d   1       9.446   7.429  -7.321  0.00  0.00    -0.031 C 
ATOM     16  C   LIG d   1      10.149   8.763  -7.145  0.00  0.00    -0.062 C 
ATOM     17  C   LIG d   1       9.805   9.509  -6.101  0.00  0.00    -0.037 C 
ATOM     18  C   LIG d   1      10.468  10.805  -5.872  0.00  0.00     0.080 C 
ATOM     19  N   LIG d   1       9.923  11.733  -5.152  0.00  0.00    -0.089 NA
ATOM     20  C   LIG d   1      11.825  10.991  -6.524  0.00  0.00    -0.006 C 
ATOM     21  C   LIG d   1      11.684  10.590  -7.991  0.00  0.00    -0.038 C 
ATOM     22  C   LIG d   1      11.183   9.151  -8.136  0.00  0.00    -0.007 C 
ATOM     23  H   LIG d   1      12.191   9.150 -12.678  0.00  0.00     0.027 H 
ATOM     24  H   LIG d   1      10.515   9.618 -12.278  0.00  0.00     0.027 H 
ATOM     25  H   LIG d   1      12.646   8.649 -10.310  0.00  0.00     0.027 H 
ATOM     26  H   LIG d   1      12.056  10.315 -10.468  0.00  0.00     0.027 H 
ATOM     27  H   LIG d   1       9.791   5.204 -11.086  0.00  0.00     0.027 H 
ATOM     28  H   LIG d   1       8.129   5.848 -11.293  0.00  0.00     0.027 H 
ATOM     29  H   LIG d   1       9.685   4.967 -13.425  0.00  0.00     0.029 H 
ATOM     30  H   LIG d   1       8.431   6.229 -13.590  0.00  0.00     0.029 H 
ATOM     31  H   LIG d   1       8.199   8.084  -8.953  0.00  0.00     0.027 H 
ATOM     32  H   LIG d   1       8.522   6.332  -8.930  0.00  0.00     0.027 H 
ATOM     33  H   LIG d   1       8.596   7.371  -6.641  0.00  0.00     0.031 H 
ATOM     34  H   LIG d   1      10.142   6.617  -7.109  0.00  0.00     0.031 H 
ATOM     35  H   LIG d   1       9.040   9.165  -5.421  0.00  0.00     0.064 H 
ATOM     36  H   LIG d   1      12.130  12.034  -6.452  0.00  0.00     0.033 H 
ATOM     37  H   LIG d   1      12.562  10.354  -6.035  0.00  0.00     0.033 H 
ATOM     38  H   LIG d   1      10.976  11.261  -8.476  0.00  0.00     0.028 H 
ATOM     39  H   LIG d   1      12.654  10.686  -8.480  0.00  0.00     0.028 H 
ENDROOT
BRANCH  19  40
ATOM     40  O   LIG d   1       8.654  11.518  -4.561  0.00  0.00    -0.384 OA
BRANCH  40  41
ATOM     41  C   LIG d   1       8.634  11.704  -3.144  0.00  0.00     0.193 C 
ATOM     42  H   LIG d   1       8.998  12.703  -2.904  0.00  0.00     0.082 H 
ATOM     43  H   LIG d   1       7.613  11.590  -2.778  0.00  0.00     0.082 H 
BRANCH  41  44
ATOM     44  C   LIG d   1       9.520  10.676  -2.490  0.00  0.00     0.254 C 
ATOM     45  O   LIG d   1      10.393  11.025  -1.724  0.00  0.00    -0.272 OA
ATOM     46  N   LIG d   1       9.343   9.366  -2.757  0.00  0.00    -0.296 N 
ATOM     47  H   LIG d   1       8.645   9.087  -3.370  0.00  0.00     0.150 HD
BRANCH  46  48
ATOM     48  C   LIG d   1      10.204   8.366  -2.122  0.00  0.00     0.146 C 
ATOM     49  H   LIG d   1      11.100   8.850  -1.737  0.00  0.00     0.067 H 
BRANCH  48  50
ATOM     50  C   LIG d   1      10.593   7.322  -3.136  0.00  0.00    -0.017 A 
ATOM     51  C   LIG d   1       9.710   6.309  -3.461  0.00  0.00    -0.056 A 
ATOM     52  C   LIG d   1      10.066   5.354  -4.395  0.00  0.00    -0.061 A 
ATOM     53  H   LIG d   1       8.740   6.268  -2.987  0.00  0.00     0.062 H 
ATOM     54  C   LIG d   1      11.308   5.405  -4.996  0.00  0.00    -0.062 A 
ATOM     55  H   LIG d   1       9.373   4.566  -4.651  0.00  0.00     0.062 H 
ATOM     56  C   LIG d   1      12.194   6.414  -4.669  0.00  0.00    -0.061 A 
ATOM     57  H   LIG d   1      11.588   4.657  -5.724  0.00  0.00     0.062 H 
ATOM     58  C   LIG d   1      11.837   7.373  -3.739  0.00  0.00    -0.056 A 
ATOM     59  H   LIG d   1      13.166   6.455  -5.139  0.00  0.00     0.062 H 
ATOM     60  H   LIG d   1      12.530   8.161  -3.482  0.00  0.00     0.062 H 
ENDBRANCH  48  50
BRANCH  48  61
ATOM     61  C   LIG d   1       9.459   7.711  -0.988  0.00  0.00     0.332 C 
ATOM     62  O   LIG d   1       8.269   7.881  -0.867  0.00  0.00    -0.248 OA
BRANCH  61  63
ATOM     63  O   LIG d   1      10.119   6.937  -0.110  0.00  0.00    -0.466 OA
BRANCH  63  64
ATOM     64  C   LIG d   1      11.168   7.555   0.638  0.00  0.00     0.082 C 
ATOM     65  H   LIG d   1      10.853   7.677   1.675  0.00  0.00     0.066 H 
ATOM     66  H   LIG d   1      12.058   6.927   0.601  0.00  0.00     0.066 H 
ATOM     67  H   LIG d   1      11.393   8.531   0.210  0.00  0.00     0.066 H 
ENDBRANCH  63  64
ENDBRANCH  61  63
ENDBRANCH  48  61
ENDBRANCH  46  48
ENDBRANCH  41  44
ENDBRANCH  40  41
ENDBRANCH  19  40
BRANCH  22  68
ATOM     68  C   LIG d   1      12.382   8.218  -7.946  0.00  0.00    -0.056 C 
ATOM     69  H   LIG d   1      13.297   8.744  -8.218  0.00  0.00     0.024 H 
ATOM     70  H   LIG d   1      12.437   7.907  -6.904  0.00  0.00     0.024 H 
ATOM     71  H   LIG d   1      12.264   7.341  -8.581  0.00  0.00     0.024 H 
ENDBRANCH  22  68
BRANCH   1  72
ATOM     72  C   LIG d   1      12.057   6.633 -11.532  0.00  0.00    -0.057 C 
ATOM     73  H   LIG d   1      11.677   6.015 -10.718  0.00  0.00     0.024 H 
ATOM     74  H   LIG d   1      12.425   5.993 -12.333  0.00  0.00     0.024 H 
ATOM     75  H   LIG d   1      12.870   7.259 -11.163  0.00  0.00     0.024 H 
ENDBRANCH   1  72
BRANCH  12  76
ATOM     76  O   LIG d   1       9.913   8.071 -14.196  0.00  0.00    -0.391 OA
ATOM     77  H   LIG d   1       9.126   8.475 -13.808  0.00  0.00     0.210 HD
ENDBRANCH  12  76
TORSDOF 11
ENDMDL
MODEL 6
REMARK VINA RESULT:      -6.5      5.723     11.163
REMARK  11 active torsions:
REMARK  status: ('A' for Active; 'I' for Inactive)
REMARK    1  A    between atoms: C_1  and  C_2 
REMARK    2  A    between atoms: C_13  and  O_15 
REMARK    3  A    between atoms: N_21  and  O_22 
REMARK    4  A    between atoms: O_22  and  C_23 
REMARK    5  A    between atoms: C_23  and  C_24 
REMARK       I    between atoms: C_24  and  N_26 
REMARK    6  A    between atoms: N_26  and  C_27 
REMARK    7  A    between atoms: C_27  and  C_29 
REMARK    8  A    between atoms: C_27  and  C_35 
REMARK    9  A    between atoms: C_35  and  O_37 
REMARK   10  A    between atoms: O_37  and  C_38 
REMARK   11  A    between atoms: C_41  and  C_42 
ROOT
ATOM      1  C   LIG d   1      10.218  -9.386  -1.427  0.00  0.00    -0.003 C 
ATOM      2  C   LIG d   1       8.864 -10.064  -1.329  0.00  0.00    -0.045 C 
ATOM      3  C   LIG d   1       8.180  -9.906  -2.697  0.00  0.00    -0.049 C 
ATOM      4  C   LIG d   1       8.048  -8.440  -3.096  0.00  0.00    -0.029 C 
ATOM      5  H   LIG d   1       7.365  -7.944  -2.406  0.00  0.00     0.031 H 
ATOM      6  C   LIG d   1       9.401  -7.715  -3.064  0.00  0.00    -0.034 C 
ATOM      7  H   LIG d   1      10.078  -8.157  -3.796  0.00  0.00     0.031 H 
ATOM      8  C   LIG d   1       9.957  -7.872  -1.647  0.00  0.00    -0.030 C 
ATOM      9  H   LIG d   1       9.248  -7.497  -0.909  0.00  0.00     0.031 H 
ATOM     10  C   LIG d   1      11.352  -7.279  -1.417  0.00  0.00    -0.047 C 
ATOM     11  C   LIG d   1      11.870  -8.077  -0.189  0.00  0.00    -0.026 C 
ATOM     12  C   LIG d   1      11.088  -9.414  -0.174  0.00  0.00     0.061 C 
ATOM     13  H   LIG d   1      11.778 -10.256  -0.213  0.00  0.00     0.060 H 
ATOM     14  C   LIG d   1       9.183  -6.232  -3.380  0.00  0.00    -0.046 C 
ATOM     15  C   LIG d   1       8.674  -6.094  -4.816  0.00  0.00    -0.031 C 
ATOM     16  C   LIG d   1       7.426  -6.944  -4.976  0.00  0.00    -0.062 C 
ATOM     17  C   LIG d   1       6.361  -6.379  -5.533  0.00  0.00    -0.037 C 
ATOM     18  C   LIG d   1       5.129  -7.163  -5.728  0.00  0.00     0.080 C 
ATOM     19  N   LIG d   1       3.974  -6.595  -5.872  0.00  0.00    -0.089 NA
ATOM     20  C   LIG d   1       5.288  -8.671  -5.754  0.00  0.00    -0.006 C 
ATOM     21  C   LIG d   1       6.114  -9.063  -4.530  0.00  0.00    -0.038 C 
ATOM     22  C   LIG d   1       7.471  -8.354  -4.515  0.00  0.00    -0.007 C 
ATOM     23  H   LIG d   1       8.994 -11.121  -1.099  0.00  0.00     0.027 H 
ATOM     24  H   LIG d   1       8.264  -9.584  -0.555  0.00  0.00     0.027 H 
ATOM     25  H   LIG d   1       8.767 -10.428  -3.452  0.00  0.00     0.027 H 
ATOM     26  H   LIG d   1       7.187 -10.352  -2.650  0.00  0.00     0.027 H 
ATOM     27  H   LIG d   1      11.990  -7.450  -2.284  0.00  0.00     0.027 H 
ATOM     28  H   LIG d   1      11.286  -6.216  -1.187  0.00  0.00     0.027 H 
ATOM     29  H   LIG d   1      12.938  -8.269  -0.292  0.00  0.00     0.029 H 
ATOM     30  H   LIG d   1      11.676  -7.519   0.727  0.00  0.00     0.029 H 
ATOM     31  H   LIG d   1       8.447  -5.819  -2.690  0.00  0.00     0.027 H 
ATOM     32  H   LIG d   1      10.125  -5.695  -3.274  0.00  0.00     0.027 H 
ATOM     33  H   LIG d   1       8.433  -5.050  -5.019  0.00  0.00     0.031 H 
ATOM     34  H   LIG d   1       9.441  -6.435  -5.511  0.00  0.00     0.031 H 
ATOM     35  H   LIG d   1       6.398  -5.344  -5.842  0.00  0.00     0.064 H 
ATOM     36  H   LIG d   1       4.310  -9.147  -5.709  0.00  0.00     0.033 H 
ATOM     37  H   LIG d   1       5.808  -8.974  -6.663  0.00  0.00     0.033 H 
ATOM     38  H   LIG d   1       5.564  -8.792  -3.629  0.00  0.00     0.028 H 
ATOM     39  H   LIG d   1       6.271 -10.142  -4.538  0.00  0.00     0.028 H 
ENDROOT
BRANCH  19  40
ATOM     40  O   LIG d   1       3.869  -5.184  -5.842  0.00  0.00    -0.384 OA
BRANCH  40  41
ATOM     41  C   LIG d   1       4.074  -4.558  -7.110  0.00  0.00     0.193 C 
ATOM     42  H   LIG d   1       4.652  -5.222  -7.753  0.00  0.00     0.082 H 
ATOM     43  H   LIG d   1       3.109  -4.352  -7.573  0.00  0.00     0.082 H 
BRANCH  41  44
ATOM     44  C   LIG d   1       4.824  -3.266  -6.917  0.00  0.00     0.254 C 
ATOM     45  O   LIG d   1       5.894  -3.097  -7.462  0.00  0.00    -0.272 OA
ATOM     46  N   LIG d   1       4.306  -2.297  -6.135  0.00  0.00    -0.296 N 
ATOM     47  H   LIG d   1       3.451  -2.432  -5.699  0.00  0.00     0.150 HD
BRANCH  46  48
ATOM     48  C   LIG d   1       5.036  -1.040  -5.947  0.00  0.00     0.146 C 
ATOM     49  H   LIG d   1       6.105  -1.224  -6.035  0.00  0.00     0.067 H 
BRANCH  48  50
ATOM     50  C   LIG d   1       4.733  -0.484  -4.579  0.00  0.00    -0.017 A 
ATOM     51  C   LIG d   1       3.518  -0.753  -3.977  0.00  0.00    -0.056 A 
ATOM     52  C   LIG d   1       3.242  -0.246  -2.721  0.00  0.00    -0.061 A 
ATOM     53  H   LIG d   1       2.786  -1.361  -4.488  0.00  0.00     0.062 H 
ATOM     54  C   LIG d   1       4.177   0.536  -2.071  0.00  0.00    -0.062 A 
ATOM     55  H   LIG d   1       2.294  -0.460  -2.249  0.00  0.00     0.062 H 
ATOM     56  C   LIG d   1       5.390   0.809  -2.674  0.00  0.00    -0.061 A 
ATOM     57  H   LIG d   1       3.960   0.935  -1.090  0.00  0.00     0.062 H 
ATOM     58  C   LIG d   1       5.668   0.299  -3.929  0.00  0.00    -0.056 A 
ATOM     59  H   LIG d   1       6.121   1.420  -2.166  0.00  0.00     0.062 H 
ATOM     60  H   LIG d   1       6.616   0.512  -4.401  0.00  0.00     0.062 H 
ENDBRANCH  48  50
BRANCH  48  61
ATOM     61  C   LIG d   1       4.607  -0.049  -6.998  0.00  0.00     0.332 C 
ATOM     62  O   LIG d   1       5.299   0.138  -7.970  0.00  0.00    -0.248 OA
BRANCH  61  63
ATOM     63  O   LIG d   1       3.456   0.628  -6.853  0.00  0.00    -0.466 OA
BRANCH  63  64
ATOM     64  C   LIG d   1       2.969   1.333  -7.997  0.00  0.00     0.082 C 
ATOM     65  H   LIG d   1       1.913   1.106  -8.142  0.00  0.00     0.066 H 
ATOM     66  H   LIG d   1       3.093   2.404  -7.842  0.00  0.00     0.066 H 
ATOM     67  H   LIG d   1       3.532   1.025  -8.879  0.00  0.00     0.066 H 
ENDBRANCH  63  64
ENDBRANCH  61  63
ENDBRANCH  48  61
ENDBRANCH  46  48
ENDBRANCH  41  44
ENDBRANCH  40  41
ENDBRANCH  19  40
BRANCH  22  68
ATOM     68  C   LIG d   1       8.408  -9.120  -5.452  0.00  0.00    -0.056 C 
ATOM     69  H   LIG d   1       8.936  -9.888  -4.888  0.00  0.00     0.024 H 
ATOM     70  H   LIG d   1       7.825  -9.587  -6.244  0.00  0.00     0.024 H 
ATOM     71  H   LIG d   1       9.127  -8.429  -5.890  0.00  0.00     0.024 H 
ENDBRANCH  22  68
BRANCH   1  72
ATOM     72  C   LIG d   1      10.999  -9.956  -2.613  0.00  0.00    -0.057 C 
ATOM     73  H   LIG d   1      12.001 -10.237  -2.286  0.00  0.00     0.024 H 
ATOM     74  H   LIG d   1      10.483 -10.835  -2.999  0.00  0.00     0.024 H 
ATOM     75  H   LIG d   1      11.070  -9.202  -3.396  0.00  0.00     0.024 H 
ENDBRANCH   1  72
BRANCH  12  76
ATOM     76  O   LIG d   1      10.269  -9.495   0.995  0.00  0.00    -0.391 OA
ATOM     77  H   LIG d   1       9.602  -8.799   1.058  0.00  0.00     0.210 HD
ENDBRANCH  12  76
TORSDOF 11
ENDMDL
MODEL 7
REMARK VINA RESULT:      -6.5      6.209      8.585
REMARK  11 active torsions:
REMARK  status: ('A' for Active; 'I' for Inactive)
REMARK    1  A    between atoms: C_1  and  C_2 
REMARK    2  A    between atoms: C_13  and  O_15 
REMARK    3  A    between atoms: N_21  and  O_22 
REMARK    4  A    between atoms: O_22  and  C_23 
REMARK    5  A    between atoms: C_23  and  C_24 
REMARK       I    between atoms: C_24  and  N_26 
REMARK    6  A    between atoms: N_26  and  C_27 
REMARK    7  A    between atoms: C_27  and  C_29 
REMARK    8  A    between atoms: C_27  and  C_35 
REMARK    9  A    between atoms: C_35  and  O_37 
REMARK   10  A    between atoms: O_37  and  C_38 
REMARK   11  A    between atoms: C_41  and  C_42 
ROOT
ATOM      1  C   LIG d   1       4.801  -1.249  -4.250  0.00  0.00    -0.003 C 
ATOM      2  C   LIG d   1       5.479  -2.351  -5.042  0.00  0.00    -0.045 C 
ATOM      3  C   LIG d   1       5.938  -1.736  -6.373  0.00  0.00    -0.049 C 
ATOM      4  C   LIG d   1       4.773  -1.124  -7.145  0.00  0.00    -0.029 C 
ATOM      5  H   LIG d   1       4.092  -1.920  -7.447  0.00  0.00     0.031 H 
ATOM      6  C   LIG d   1       4.000  -0.104  -6.296  0.00  0.00    -0.034 C 
ATOM      7  H   LIG d   1       4.648   0.733  -6.038  0.00  0.00     0.031 H 
ATOM      8  C   LIG d   1       3.529  -0.836  -5.038  0.00  0.00    -0.030 C 
ATOM      9  H   LIG d   1       2.941  -1.716  -5.299  0.00  0.00     0.031 H 
ATOM     10  C   LIG d   1       2.793   0.030  -4.009  0.00  0.00    -0.047 C 
ATOM     11  C   LIG d   1       2.986  -0.763  -2.687  0.00  0.00    -0.026 C 
ATOM     12  C   LIG d   1       4.256  -1.629  -2.878  0.00  0.00     0.061 C 
ATOM     13  H   LIG d   1       4.988  -1.400  -2.104  0.00  0.00     0.060 H 
ATOM     14  C   LIG d   1       2.791   0.396  -7.094  0.00  0.00    -0.046 C 
ATOM     15  C   LIG d   1       3.283   1.167  -8.321  0.00  0.00    -0.031 C 
ATOM     16  C   LIG d   1       4.215   0.272  -9.118  0.00  0.00    -0.062 C 
ATOM     17  C   LIG d   1       4.003   0.169 -10.425  0.00  0.00    -0.037 C 
ATOM     18  C   LIG d   1       4.888  -0.673 -11.250  0.00  0.00     0.080 C 
ATOM     19  N   LIG d   1       4.513  -1.134 -12.401  0.00  0.00    -0.089 NA
ATOM     20  C   LIG d   1       6.261  -0.968 -10.679  0.00  0.00    -0.006 C 
ATOM     21  C   LIG d   1       6.063  -1.454  -9.244  0.00  0.00    -0.038 C 
ATOM     22  C   LIG d   1       5.310  -0.424  -8.399  0.00  0.00    -0.007 C 
ATOM     23  H   LIG d   1       6.340  -2.728  -4.490  0.00  0.00     0.027 H 
ATOM     24  H   LIG d   1       4.773  -3.160  -5.230  0.00  0.00     0.027 H 
ATOM     25  H   LIG d   1       6.676  -0.959  -6.171  0.00  0.00     0.027 H 
ATOM     26  H   LIG d   1       6.399  -2.512  -6.983  0.00  0.00     0.027 H 
ATOM     27  H   LIG d   1       3.252   1.016  -3.937  0.00  0.00     0.027 H 
ATOM     28  H   LIG d   1       1.735   0.112  -4.259  0.00  0.00     0.027 H 
ATOM     29  H   LIG d   1       3.124  -0.073  -1.854  0.00  0.00     0.029 H 
ATOM     30  H   LIG d   1       2.121  -1.401  -2.505  0.00  0.00     0.029 H 
ATOM     31  H   LIG d   1       2.190  -0.454  -7.414  0.00  0.00     0.027 H 
ATOM     32  H   LIG d   1       2.190   1.055  -6.468  0.00  0.00     0.027 H 
ATOM     33  H   LIG d   1       2.431   1.451  -8.939  0.00  0.00     0.031 H 
ATOM     34  H   LIG d   1       3.819   2.061  -8.002  0.00  0.00     0.031 H 
ATOM     35  H   LIG d   1       3.182   0.701 -10.883  0.00  0.00     0.064 H 
ATOM     36  H   LIG d   1       6.749  -1.742 -11.269  0.00  0.00     0.033 H 
ATOM     37  H   LIG d   1       6.866  -0.061 -10.682  0.00  0.00     0.033 H 
ATOM     38  H   LIG d   1       5.492  -2.383  -9.260  0.00  0.00     0.028 H 
ATOM     39  H   LIG d   1       7.038  -1.646  -8.796  0.00  0.00     0.028 H 
ENDROOT
BRANCH  19  40
ATOM     40  O   LIG d   1       3.222  -0.835 -12.899  0.00  0.00    -0.384 OA
BRANCH  40  41
ATOM     41  C   LIG d   1       2.440  -1.987 -13.219  0.00  0.00     0.193 C 
ATOM     42  H   LIG d   1       1.548  -1.681 -13.766  0.00  0.00     0.082 H 
ATOM     43  H   LIG d   1       3.030  -2.666 -13.836  0.00  0.00     0.082 H 
BRANCH  41  44
ATOM     44  C   LIG d   1       2.035  -2.688 -11.949  0.00  0.00     0.254 C 
ATOM     45  O   LIG d   1       1.014  -2.368 -11.377  0.00  0.00    -0.272 OA
ATOM     46  N   LIG d   1       2.808  -3.672 -11.445  0.00  0.00    -0.296 N 
ATOM     47  H   LIG d   1       3.624  -3.928 -11.902  0.00  0.00     0.150 HD
BRANCH  46  48
ATOM     48  C   LIG d   1       2.414  -4.353 -10.210  0.00  0.00     0.146 C 
ATOM     49  H   LIG d   1       1.739  -3.714  -9.642  0.00  0.00     0.067 H 
BRANCH  48  50
ATOM     50  C   LIG d   1       3.641  -4.646  -9.385  0.00  0.00    -0.017 A 
ATOM     51  C   LIG d   1       4.864  -4.826 -10.005  0.00  0.00    -0.056 A 
ATOM     52  C   LIG d   1       5.989  -5.091  -9.248  0.00  0.00    -0.061 A 
ATOM     53  H   LIG d   1       4.938  -4.756 -11.080  0.00  0.00     0.062 H 
ATOM     54  C   LIG d   1       5.892  -5.186  -7.873  0.00  0.00    -0.062 A 
ATOM     55  H   LIG d   1       6.945  -5.227  -9.732  0.00  0.00     0.062 H 
ATOM     56  C   LIG d   1       4.668  -5.011  -7.253  0.00  0.00    -0.061 A 
ATOM     57  H   LIG d   1       6.771  -5.395  -7.282  0.00  0.00     0.062 H 
ATOM     58  C   LIG d   1       3.543  -4.741  -8.009  0.00  0.00    -0.056 A 
ATOM     59  H   LIG d   1       4.591  -5.084  -6.179  0.00  0.00     0.062 H 
ATOM     60  H   LIG d   1       2.586  -4.605  -7.525  0.00  0.00     0.062 H 
ENDBRANCH  48  50
BRANCH  48  61
ATOM     61  C   LIG d   1       1.717  -5.645 -10.549  0.00  0.00     0.332 C 
ATOM     62  O   LIG d   1       0.867  -6.085  -9.812  0.00  0.00    -0.248 OA
BRANCH  61  63
ATOM     63  O   LIG d   1       2.040  -6.307 -11.672  0.00  0.00    -0.466 OA
BRANCH  63  64
ATOM     64  C   LIG d   1       2.655  -7.588 -11.515  0.00  0.00     0.082 C 
ATOM     65  H   LIG d   1       1.984  -8.249 -10.967  0.00  0.00     0.066 H 
ATOM     66  H   LIG d   1       2.862  -8.013 -12.497  0.00  0.00     0.066 H 
ATOM     67  H   LIG d   1       3.588  -7.477 -10.963  0.00  0.00     0.066 H 
ENDBRANCH  63  64
ENDBRANCH  61  63
ENDBRANCH  48  61
ENDBRANCH  46  48
ENDBRANCH  41  44
ENDBRANCH  40  41
ENDBRANCH  19  40
BRANCH  22  68
ATOM     68  C   LIG d   1       6.318   0.637  -7.950  0.00  0.00    -0.056 C 
ATOM     69  H   LIG d   1       6.378   1.422  -8.704  0.00  0.00     0.024 H 
ATOM     70  H   LIG d   1       5.995   1.067  -7.003  0.00  0.00     0.024 H 
ATOM     71  H   LIG d   1       7.298   0.177  -7.825  0.00  0.00     0.024 H 
ENDBRANCH  22  68
BRANCH   1  72
ATOM     72  C   LIG d   1       5.743  -0.050  -4.120  0.00  0.00    -0.057 C 
ATOM     73  H   LIG d   1       5.186   0.810  -3.745  0.00  0.00     0.024 H 
ATOM     74  H   LIG d   1       6.547  -0.293  -3.426  0.00  0.00     0.024 H 
ATOM     75  H   LIG d   1       6.164   0.189  -5.097  0.00  0.00     0.024 H 
ENDBRANCH   1  72
BRANCH  12  76
ATOM     76  O   LIG d   1       3.918  -3.017  -2.846  0.00  0.00    -0.391 OA
ATOM     77  H   LIG d   1       3.287  -3.253  -2.153  0.00  0.00     0.210 HD
ENDBRANCH  12  76
TORSDOF 11
ENDMDL
MODEL 8
REMARK VINA RESULT:      -6.5      5.793     12.457
REMARK  11 active torsions:
REMARK  status: ('A' for Active; 'I' for Inactive)
REMARK    1  A    between atoms: C_1  and  C_2 
REMARK    2  A    between atoms: C_13  and  O_15 
REMARK    3  A    between atoms: N_21  and  O_22 
REMARK    4  A    between atoms: O_22  and  C_23 
REMARK    5  A    between atoms: C_23  and  C_24 
REMARK       I    between atoms: C_24  and  N_26 
REMARK    6  A    between atoms: N_26  and  C_27 
REMARK    7  A    between atoms: C_27  and  C_29 
REMARK    8  A    between atoms: C_27  and  C_35 
REMARK    9  A    between atoms: C_35  and  O_37 
REMARK   10  A    between atoms: O_37  and  C_38 
REMARK   11  A    between atoms: C_41  and  C_42 
ROOT
ATOM      1  C   LIG d   1       6.682 -11.300  -2.325  0.00  0.00    -0.003 C 
ATOM      2  C   LIG d   1       5.238 -11.424  -2.775  0.00  0.00    -0.045 C 
ATOM      3  C   LIG d   1       5.198 -11.069  -4.270  0.00  0.00    -0.049 C 
ATOM      4  C   LIG d   1       5.752  -9.672  -4.533  0.00  0.00    -0.029 C 
ATOM      5  H   LIG d   1       5.092  -8.936  -4.074  0.00  0.00     0.031 H 
ATOM      6  C   LIG d   1       7.165  -9.501  -3.958  0.00  0.00    -0.034 C 
ATOM      7  H   LIG d   1       7.855 -10.185  -4.452  0.00  0.00     0.031 H 
ATOM      8  C   LIG d   1       7.077  -9.805  -2.461  0.00  0.00    -0.030 C 
ATOM      9  H   LIG d   1       6.333  -9.171  -1.979  0.00  0.00     0.031 H 
ATOM     10  C   LIG d   1       8.408  -9.765  -1.701  0.00  0.00    -0.047 C 
ATOM     11  C   LIG d   1       8.126 -10.657  -0.461  0.00  0.00    -0.026 C 
ATOM     12  C   LIG d   1       6.970 -11.607  -0.859  0.00  0.00     0.061 C 
ATOM     13  H   LIG d   1       7.278 -12.646  -0.744  0.00  0.00     0.060 H 
ATOM     14  C   LIG d   1       7.620  -8.053  -4.171  0.00  0.00    -0.046 C 
ATOM     15  C   LIG d   1       7.749  -7.783  -5.672  0.00  0.00    -0.031 C 
ATOM     16  C   LIG d   1       6.428  -8.115  -6.343  0.00  0.00    -0.062 C 
ATOM     17  C   LIG d   1       5.913  -7.214  -7.171  0.00  0.00    -0.037 C 
ATOM     18  C   LIG d   1       4.642  -7.492  -7.863  0.00  0.00     0.080 C 
ATOM     19  N   LIG d   1       3.901  -6.541  -8.337  0.00  0.00    -0.089 NA
ATOM     20  C   LIG d   1       4.250  -8.951  -7.991  0.00  0.00    -0.006 C 
ATOM     21  C   LIG d   1       4.381  -9.581  -6.605  0.00  0.00    -0.038 C 
ATOM     22  C   LIG d   1       5.797  -9.425  -6.046  0.00  0.00    -0.007 C 
ATOM     23  H   LIG d   1       4.890 -12.446  -2.627  0.00  0.00     0.027 H 
ATOM     24  H   LIG d   1       4.614 -10.732  -2.211  0.00  0.00     0.027 H 
ATOM     25  H   LIG d   1       5.791 -11.796  -4.825  0.00  0.00     0.027 H 
ATOM     26  H   LIG d   1       4.166 -11.114  -4.617  0.00  0.00     0.027 H 
ATOM     27  H   LIG d   1       9.209 -10.188  -2.306  0.00  0.00     0.027 H 
ATOM     28  H   LIG d   1       8.647  -8.746  -1.397  0.00  0.00     0.027 H 
ATOM     29  H   LIG d   1       9.015 -11.235  -0.207  0.00  0.00     0.029 H 
ATOM     30  H   LIG d   1       7.828 -10.038   0.385  0.00  0.00     0.029 H 
ATOM     31  H   LIG d   1       6.885  -7.374  -3.740  0.00  0.00     0.027 H 
ATOM     32  H   LIG d   1       8.586  -7.901  -3.689  0.00  0.00     0.027 H 
ATOM     33  H   LIG d   1       7.987  -6.732  -5.834  0.00  0.00     0.031 H 
ATOM     34  H   LIG d   1       8.539  -8.407  -6.090  0.00  0.00     0.031 H 
ATOM     35  H   LIG d   1       6.426  -6.278  -7.337  0.00  0.00     0.064 H 
ATOM     36  H   LIG d   1       3.221  -9.029  -8.339  0.00  0.00     0.033 H 
ATOM     37  H   LIG d   1       4.918  -9.454  -8.690  0.00  0.00     0.033 H 
ATOM     38  H   LIG d   1       3.678  -9.096  -5.928  0.00  0.00     0.028 H 
ATOM     39  H   LIG d   1       4.133 -10.641  -6.672  0.00  0.00     0.028 H 
ENDROOT
BRANCH  19  40
ATOM     40  O   LIG d   1       4.304  -5.191  -8.197  0.00  0.00    -0.384 OA
BRANCH  40  41
ATOM     41  C   LIG d   1       3.969  -4.612  -6.934  0.00  0.00     0.193 C 
ATOM     42  H   LIG d   1       2.889  -4.471  -6.874  0.00  0.00     0.082 H 
ATOM     43  H   LIG d   1       4.295  -5.276  -6.133  0.00  0.00     0.082 H 
BRANCH  41  44
ATOM     44  C   LIG d   1       4.658  -3.280  -6.795  0.00  0.00     0.254 C 
ATOM     45  O   LIG d   1       5.718  -3.083  -7.351  0.00  0.00    -0.272 OA
ATOM     46  N   LIG d   1       4.097  -2.305  -6.052  0.00  0.00    -0.296 N 
ATOM     47  H   LIG d   1       3.249  -2.462  -5.607  0.00  0.00     0.150 HD
BRANCH  46  48
ATOM     48  C   LIG d   1       4.767  -1.009  -5.916  0.00  0.00     0.146 C 
ATOM     49  H   LIG d   1       5.832  -1.129  -6.109  0.00  0.00     0.067 H 
BRANCH  48  50
ATOM     50  C   LIG d   1       4.565  -0.483  -4.519  0.00  0.00    -0.017 A 
ATOM     51  C   LIG d   1       5.570   0.234  -3.898  0.00  0.00    -0.056 A 
ATOM     52  C   LIG d   1       5.383   0.720  -2.617  0.00  0.00    -0.061 A 
ATOM     53  H   LIG d   1       6.500   0.417  -4.415  0.00  0.00     0.062 H 
ATOM     54  C   LIG d   1       4.195   0.481  -1.954  0.00  0.00    -0.062 A 
ATOM     55  H   LIG d   1       6.167   1.285  -2.135  0.00  0.00     0.062 H 
ATOM     56  C   LIG d   1       3.191  -0.241  -2.572  0.00  0.00    -0.061 A 
ATOM     57  H   LIG d   1       4.050   0.858  -0.952  0.00  0.00     0.062 H 
ATOM     58  C   LIG d   1       3.376  -0.723  -3.855  0.00  0.00    -0.056 A 
ATOM     59  H   LIG d   1       2.262  -0.428  -2.055  0.00  0.00     0.062 H 
ATOM     60  H   LIG d   1       2.592  -1.288  -4.338  0.00  0.00     0.062 H 
ENDBRANCH  48  50
BRANCH  48  61
ATOM     61  C   LIG d   1       4.183  -0.036  -6.908  0.00  0.00     0.332 C 
ATOM     62  O   LIG d   1       4.908   0.708  -7.524  0.00  0.00    -0.248 OA
BRANCH  61  63
ATOM     63  O   LIG d   1       2.855   0.004  -7.107  0.00  0.00    -0.466 OA
BRANCH  63  64
ATOM     64  C   LIG d   1       2.394  -0.168  -8.449  0.00  0.00     0.082 C 
ATOM     65  H   LIG d   1       1.316  -0.325  -8.446  0.00  0.00     0.066 H 
ATOM     66  H   LIG d   1       2.630   0.722  -9.030  0.00  0.00     0.066 H 
ATOM     67  H   LIG d   1       2.886  -1.034  -8.893  0.00  0.00     0.066 H 
ENDBRANCH  63  64
ENDBRANCH  61  63
ENDBRANCH  48  61
ENDBRANCH  46  48
ENDBRANCH  41  44
ENDBRANCH  40  41
ENDBRANCH  19  40
BRANCH  22  68
ATOM     68  C   LIG d   1       6.669 -10.514  -6.676  0.00  0.00    -0.056 C 
ATOM     69  H   LIG d   1       7.720 -10.243  -6.571  0.00  0.00     0.024 H 
ATOM     70  H   LIG d   1       6.486 -11.462  -6.171  0.00  0.00     0.024 H 
ATOM     71  H   LIG d   1       6.422 -10.612  -7.732  0.00  0.00     0.024 H 
ENDBRANCH  22  68
BRANCH   1  72
ATOM     72  C   LIG d   1       7.579 -12.158  -3.220  0.00  0.00    -0.057 C 
ATOM     73  H   LIG d   1       7.427 -11.877  -4.262  0.00  0.00     0.024 H 
ATOM     74  H   LIG d   1       8.623 -11.998  -2.949  0.00  0.00     0.024 H 
ATOM     75  H   LIG d   1       7.326 -13.210  -3.087  0.00  0.00     0.024 H 
ENDBRANCH   1  72
BRANCH  12  76
ATOM     76  O   LIG d   1       5.814 -11.342  -0.061  0.00  0.00    -0.391 OA
ATOM     77  H   LIG d   1       5.210 -10.692  -0.447  0.00  0.00     0.210 HD
ENDBRANCH  12  76
TORSDOF 11
ENDMDL
MODEL 9
REMARK VINA RESULT:      -6.3      1.709      2.293
REMARK  11 active torsions:
REMARK  status: ('A' for Active; 'I' for Inactive)
REMARK    1  A    between atoms: C_1  and  C_2 
REMARK    2  A    between atoms: C_13  and  O_15 
REMARK    3  A    between atoms: N_21  and  O_22 
REMARK    4  A    between atoms: O_22  and  C_23 
REMARK    5  A    between atoms: C_23  and  C_24 
REMARK       I    between atoms: C_24  and  N_26 
REMARK    6  A    between atoms: N_26  and  C_27 
REMARK    7  A    between atoms: C_27  and  C_29 
REMARK    8  A    between atoms: C_27  and  C_35 
REMARK    9  A    between atoms: C_35  and  O_37 
REMARK   10  A    between atoms: O_37  and  C_38 
REMARK   11  A    between atoms: C_41  and  C_42 
ROOT
ATOM      1  C   LIG d   1      12.120   7.362  -0.455  0.00  0.00    -0.003 C 
ATOM      2  C   LIG d   1      11.533   6.096   0.139  0.00  0.00    -0.045 C 
ATOM      3  C   LIG d   1      11.724   4.979  -0.899  0.00  0.00    -0.049 C 
ATOM      4  C   LIG d   1      11.073   5.330  -2.233  0.00  0.00    -0.029 C 
ATOM      5  H   LIG d   1       9.992   5.377  -2.099  0.00  0.00     0.031 H 
ATOM      6  C   LIG d   1      11.566   6.681  -2.771  0.00  0.00    -0.034 C 
ATOM      7  H   LIG d   1      12.636   6.633  -2.974  0.00  0.00     0.031 H 
ATOM      8  C   LIG d   1      11.263   7.726  -1.696  0.00  0.00    -0.030 C 
ATOM      9  H   LIG d   1      10.203   7.723  -1.441  0.00  0.00     0.031 H 
ATOM     10  C   LIG d   1      11.748   9.148  -2.004  0.00  0.00    -0.047 C 
ATOM     11  C   LIG d   1      11.860   9.789  -0.594  0.00  0.00    -0.026 C 
ATOM     12  C   LIG d   1      12.043   8.620   0.405  0.00  0.00     0.061 C 
ATOM     13  H   LIG d   1      12.966   8.747   0.971  0.00  0.00     0.060 H 
ATOM     14  C   LIG d   1      10.804   7.016  -4.057  0.00  0.00    -0.046 C 
ATOM     15  C   LIG d   1      11.158   5.988  -5.134  0.00  0.00    -0.031 C 
ATOM     16  C   LIG d   1      10.869   4.598  -4.595  0.00  0.00    -0.062 C 
ATOM     17  C   LIG d   1      10.162   3.774  -5.361  0.00  0.00    -0.037 C 
ATOM     18  C   LIG d   1       9.867   2.407  -4.894  0.00  0.00     0.080 C 
ATOM     19  N   LIG d   1       8.880   1.721  -5.374  0.00  0.00    -0.089 NA
ATOM     20  C   LIG d   1      10.785   1.849  -3.824  0.00  0.00    -0.006 C 
ATOM     21  C   LIG d   1      10.888   2.898  -2.719  0.00  0.00    -0.038 C 
ATOM     22  C   LIG d   1      11.400   4.236  -3.258  0.00  0.00    -0.007 C 
ATOM     23  H   LIG d   1      12.056   5.840   1.059  0.00  0.00     0.027 H 
ATOM     24  H   LIG d   1      10.471   6.239   0.340  0.00  0.00     0.027 H 
ATOM     25  H   LIG d   1      12.791   4.817  -1.057  0.00  0.00     0.027 H 
ATOM     26  H   LIG d   1      11.280   4.060  -0.518  0.00  0.00     0.027 H 
ATOM     27  H   LIG d   1      12.721   9.124  -2.495  0.00  0.00     0.027 H 
ATOM     28  H   LIG d   1      11.019   9.681  -2.614  0.00  0.00     0.027 H 
ATOM     29  H   LIG d   1      12.722  10.455  -0.553  0.00  0.00     0.029 H 
ATOM     30  H   LIG d   1      10.950  10.341  -0.361  0.00  0.00     0.029 H 
ATOM     31  H   LIG d   1       9.732   6.986  -3.862  0.00  0.00     0.027 H 
ATOM     32  H   LIG d   1      11.086   8.012  -4.398  0.00  0.00     0.027 H 
ATOM     33  H   LIG d   1      10.554   6.168  -6.023  0.00  0.00     0.031 H 
ATOM     34  H   LIG d   1      12.215   6.070  -5.386  0.00  0.00     0.031 H 
ATOM     35  H   LIG d   1       9.803   4.106  -6.323  0.00  0.00     0.064 H 
ATOM     36  H   LIG d   1      10.367   0.927  -3.423  0.00  0.00     0.033 H 
ATOM     37  H   LIG d   1      11.772   1.657  -4.245  0.00  0.00     0.033 H 
ATOM     38  H   LIG d   1       9.902   3.049  -2.280  0.00  0.00     0.028 H 
ATOM     39  H   LIG d   1      11.567   2.536  -1.947  0.00  0.00     0.028 H 
ENDROOT
BRANCH  19  40
ATOM     40  O   LIG d   1       8.047   2.279  -6.373  0.00  0.00    -0.384 OA
BRANCH  40  41
ATOM     41  C   LIG d   1       7.628   1.346  -7.371  0.00  0.00     0.193 C 
ATOM     42  H   LIG d   1       7.246   1.887  -8.237  0.00  0.00     0.082 H 
ATOM     43  H   LIG d   1       8.476   0.730  -7.670  0.00  0.00     0.082 H 
BRANCH  41  44
ATOM     44  C   LIG d   1       6.541   0.466  -6.809  0.00  0.00     0.254 C 
ATOM     45  O   LIG d   1       5.444   0.449  -7.327  0.00  0.00    -0.272 OA
ATOM     46  N   LIG d   1       6.787  -0.302  -5.728  0.00  0.00    -0.296 N 
ATOM     47  H   LIG d   1       7.664  -0.288  -5.314  0.00  0.00     0.150 HD
BRANCH  46  48
ATOM     48  C   LIG d   1       5.731  -1.157  -5.182  0.00  0.00     0.146 C 
ATOM     49  H   LIG d   1       5.019  -1.404  -5.968  0.00  0.00     0.067 H 
BRANCH  48  50
ATOM     50  C   LIG d   1       5.019  -0.428  -4.071  0.00  0.00    -0.017 A 
ATOM     51  C   LIG d   1       3.669  -0.637  -3.861  0.00  0.00    -0.056 A 
ATOM     52  C   LIG d   1       3.017   0.029  -2.840  0.00  0.00    -0.061 A 
ATOM     53  H   LIG d   1       3.125  -1.322  -4.494  0.00  0.00     0.062 H 
ATOM     54  C   LIG d   1       3.713   0.910  -2.035  0.00  0.00    -0.062 A 
ATOM     55  H   LIG d   1       1.963  -0.138  -2.674  0.00  0.00     0.062 H 
ATOM     56  C   LIG d   1       5.062   1.123  -2.247  0.00  0.00    -0.061 A 
ATOM     57  H   LIG d   1       3.203   1.432  -1.238  0.00  0.00     0.062 H 
ATOM     58  C   LIG d   1       5.715   0.454  -3.266  0.00  0.00    -0.056 A 
ATOM     59  H   LIG d   1       5.607   1.811  -1.618  0.00  0.00     0.062 H 
ATOM     60  H   LIG d   1       6.770   0.620  -3.432  0.00  0.00     0.062 H 
ENDBRANCH  48  50
BRANCH  48  61
ATOM     61  C   LIG d   1       6.341  -2.424  -4.640  0.00  0.00     0.332 C 
ATOM     62  O   LIG d   1       7.489  -2.430  -4.264  0.00  0.00    -0.248 OA
BRANCH  61  63
ATOM     63  O   LIG d   1       5.608  -3.548  -4.577  0.00  0.00    -0.466 OA
BRANCH  63  64
ATOM     64  C   LIG d   1       4.825  -3.878  -5.726  0.00  0.00     0.082 C 
ATOM     65  H   LIG d   1       5.458  -3.866  -6.613  0.00  0.00     0.066 H 
ATOM     66  H   LIG d   1       4.396  -4.871  -5.599  0.00  0.00     0.066 H 
ATOM     67  H   LIG d   1       4.024  -3.148  -5.841  0.00  0.00     0.066 H 
ENDBRANCH  63  64
ENDBRANCH  61  63
ENDBRANCH  48  61
ENDBRANCH  46  48
ENDBRANCH  41  44
ENDBRANCH  40  41
ENDBRANCH  19  40
BRANCH  22  68
ATOM     68  C   LIG d   1      12.923   4.140  -3.373  0.00  0.00    -0.056 C 
ATOM     69  H   LIG d   1      13.385   4.657  -2.532  0.00  0.00     0.024 H 
ATOM     70  H   LIG d   1      13.222   3.092  -3.363  0.00  0.00     0.024 H 
ATOM     71  H   LIG d   1      13.247   4.600  -4.306  0.00  0.00     0.024 H 
ENDBRANCH  22  68
BRANCH   1  72
ATOM     72  C   LIG d   1      13.569   7.113  -0.879  0.00  0.00    -0.057 C 
ATOM     73  H   LIG d   1      13.665   6.097  -1.264  0.00  0.00     0.024 H 
ATOM     74  H   LIG d   1      13.848   7.824  -1.657  0.00  0.00     0.024 H 
ATOM     75  H   LIG d   1      14.226   7.239  -0.019  0.00  0.00     0.024 H 
ENDBRANCH   1  72
BRANCH  12  76
ATOM     76  O   LIG d   1      10.924   8.546   1.292  0.00  0.00    -0.391 OA
ATOM     77  H   LIG d   1      10.725   7.651   1.600  0.00  0.00     0.210 HD
ENDBRANCH  12  76
TORSDOF 11
ENDMDL
MODEL 10
REMARK VINA RESULT:      -6.3      2.559      9.701
REMARK  11 active torsions:
REMARK  status: ('A' for Active; 'I' for Inactive)
REMARK    1  A    between atoms: C_1  and  C_2 
REMARK    2  A    between atoms: C_13  and  O_15 
REMARK    3  A    between atoms: N_21  and  O_22 
REMARK    4  A    between atoms: O_22  and  C_23 
REMARK    5  A    between atoms: C_23  and  C_24 
REMARK       I    between atoms: C_24  and  N_26 
REMARK    6  A    between atoms: N_26  and  C_27 
REMARK    7  A    between atoms: C_27  and  C_29 
REMARK    8  A    between atoms: C_27  and  C_35 
REMARK    9  A    between atoms: C_35  and  O_37 
REMARK   10  A    between atoms: O_37  and  C_38 
REMARK   11  A    between atoms: C_41  and  C_42 
ROOT
ATOM      1  C   LIG d   1       6.608  -1.260  -5.762  0.00  0.00    -0.003 C 
ATOM      2  C   LIG d   1       6.438  -0.515  -7.072  0.00  0.00    -0.045 C 
ATOM      3  C   LIG d   1       7.653   0.415  -7.224  0.00  0.00    -0.049 C 
ATOM      4  C   LIG d   1       7.782   1.373  -6.044  0.00  0.00    -0.029 C 
ATOM      5  H   LIG d   1       6.932   2.055  -6.046  0.00  0.00     0.031 H 
ATOM      6  C   LIG d   1       7.817   0.625  -4.703  0.00  0.00    -0.034 C 
ATOM      7  H   LIG d   1       8.698  -0.015  -4.656  0.00  0.00     0.031 H 
ATOM      8  C   LIG d   1       6.536  -0.207  -4.624  0.00  0.00    -0.030 C 
ATOM      9  H   LIG d   1       5.656   0.424  -4.744  0.00  0.00     0.031 H 
ATOM     10  C   LIG d   1       6.405  -1.099  -3.383  0.00  0.00    -0.047 C 
ATOM     11  C   LIG d   1       5.410  -2.197  -3.848  0.00  0.00    -0.026 C 
ATOM     12  C   LIG d   1       5.508  -2.251  -5.392  0.00  0.00     0.061 C 
ATOM     13  H   LIG d   1       5.781  -3.255  -5.718  0.00  0.00     0.060 H 
ATOM     14  C   LIG d   1       7.850   1.646  -3.562  0.00  0.00    -0.046 C 
ATOM     15  C   LIG d   1       9.159   2.435  -3.629  0.00  0.00    -0.031 C 
ATOM     16  C   LIG d   1       9.284   3.055  -5.009  0.00  0.00    -0.062 C 
ATOM     17  C   LIG d   1       9.588   4.346  -5.081  0.00  0.00    -0.037 C 
ATOM     18  C   LIG d   1       9.739   4.995  -6.395  0.00  0.00     0.080 C 
ATOM     19  N   LIG d   1       9.626   6.277  -6.540  0.00  0.00    -0.089 NA
ATOM     20  C   LIG d   1      10.036   4.080  -7.568  0.00  0.00    -0.006 C 
ATOM     21  C   LIG d   1       9.019   2.941  -7.525  0.00  0.00    -0.038 C 
ATOM     22  C   LIG d   1       9.074   2.186  -6.194  0.00  0.00    -0.007 C 
ATOM     23  H   LIG d   1       6.407  -1.222  -7.900  0.00  0.00     0.027 H 
ATOM     24  H   LIG d   1       5.521   0.073  -7.048  0.00  0.00     0.027 H 
ATOM     25  H   LIG d   1       8.558  -0.190  -7.291  0.00  0.00     0.027 H 
ATOM     26  H   LIG d   1       7.545   0.993  -8.141  0.00  0.00     0.027 H 
ATOM     27  H   LIG d   1       7.368  -1.538  -3.122  0.00  0.00     0.027 H 
ATOM     28  H   LIG d   1       5.995  -0.535  -2.545  0.00  0.00     0.027 H 
ATOM     29  H   LIG d   1       5.689  -3.159  -3.420  0.00  0.00     0.029 H 
ATOM     30  H   LIG d   1       4.396  -1.933  -3.547  0.00  0.00     0.029 H 
ATOM     31  H   LIG d   1       7.007   2.330  -3.662  0.00  0.00     0.027 H 
ATOM     32  H   LIG d   1       7.787   1.126  -2.606  0.00  0.00     0.027 H 
ATOM     33  H   LIG d   1       9.151   3.221  -2.875  0.00  0.00     0.031 H 
ATOM     34  H   LIG d   1      10.000   1.764  -3.451  0.00  0.00     0.031 H 
ATOM     35  H   LIG d   1       9.723   4.920  -4.176  0.00  0.00     0.064 H 
ATOM     36  H   LIG d   1       9.937   4.631  -8.502  0.00  0.00     0.033 H 
ATOM     37  H   LIG d   1      11.046   3.679  -7.478  0.00  0.00     0.033 H 
ATOM     38  H   LIG d   1       8.019   3.352  -7.657  0.00  0.00     0.028 H 
ATOM     39  H   LIG d   1       9.227   2.248  -8.341  0.00  0.00     0.028 H 
ENDROOT
BRANCH  19  40
ATOM     40  O   LIG d   1       9.349   7.096  -5.419  0.00  0.00    -0.384 OA
BRANCH  40  41
ATOM     41  C   LIG d   1       9.746   8.459  -5.582  0.00  0.00     0.193 C 
ATOM     42  H   LIG d   1      10.464   8.533  -6.398  0.00  0.00     0.082 H 
ATOM     43  H   LIG d   1       8.871   9.067  -5.809  0.00  0.00     0.082 H 
BRANCH  41  44
ATOM     44  C   LIG d   1      10.382   8.951  -4.307  0.00  0.00     0.254 C 
ATOM     45  O   LIG d   1      11.404   9.603  -4.350  0.00  0.00    -0.272 OA
ATOM     46  N   LIG d   1       9.815   8.666  -3.117  0.00  0.00    -0.296 N 
ATOM     47  H   LIG d   1       8.998   8.144  -3.083  0.00  0.00     0.150 HD
BRANCH  46  48
ATOM     48  C   LIG d   1      10.433   9.144  -1.878  0.00  0.00     0.146 C 
ATOM     49  H   LIG d   1      11.383   9.624  -2.107  0.00  0.00     0.067 H 
BRANCH  48  50
ATOM     50  C   LIG d   1      10.670   7.978  -0.953  0.00  0.00    -0.017 A 
ATOM     51  C   LIG d   1      10.469   6.686  -1.403  0.00  0.00    -0.056 A 
ATOM     52  C   LIG d   1      10.690   5.617  -0.555  0.00  0.00    -0.061 A 
ATOM     53  H   LIG d   1      10.143   6.514  -2.417  0.00  0.00     0.062 H 
ATOM     54  C   LIG d   1      11.103   5.840   0.745  0.00  0.00    -0.062 A 
ATOM     55  H   LIG d   1      10.538   4.608  -0.908  0.00  0.00     0.062 H 
ATOM     56  C   LIG d   1      11.299   7.131   1.197  0.00  0.00    -0.061 A 
ATOM     57  H   LIG d   1      11.273   5.004   1.408  0.00  0.00     0.062 H 
ATOM     58  C   LIG d   1      11.082   8.201   0.348  0.00  0.00    -0.056 A 
ATOM     59  H   LIG d   1      11.621   7.306   2.212  0.00  0.00     0.062 H 
ATOM     60  H   LIG d   1      11.235   9.211   0.701  0.00  0.00     0.062 H 
ENDBRANCH  48  50
BRANCH  48  61
ATOM     61  C   LIG d   1       9.516  10.136  -1.211  0.00  0.00     0.332 C 
ATOM     62  O   LIG d   1       8.426   9.787  -0.824  0.00  0.00    -0.248 OA
BRANCH  61  63
ATOM     63  O   LIG d   1       9.910  11.410  -1.047  0.00  0.00    -0.466 OA
BRANCH  63  64
ATOM     64  C   LIG d   1      10.360  11.787   0.256  0.00  0.00     0.082 C 
ATOM     65  H   LIG d   1       9.582  11.568   0.987  0.00  0.00     0.066 H 
ATOM     66  H   LIG d   1      11.260  11.227   0.505  0.00  0.00     0.066 H 
ATOM     67  H   LIG d   1      10.580  12.854   0.269  0.00  0.00     0.066 H 
ENDBRANCH  63  64
ENDBRANCH  61  63
ENDBRANCH  48  61
ENDBRANCH  46  48
ENDBRANCH  41  44
ENDBRANCH  40  41
ENDBRANCH  19  40
BRANCH  22  68
ATOM     68  C   LIG d   1      10.245   1.203  -6.263  0.00  0.00    -0.056 C 
ATOM     69  H   LIG d   1      10.058   0.471  -7.048  0.00  0.00     0.024 H 
ATOM     70  H   LIG d   1      11.162   1.747  -6.485  0.00  0.00     0.024 H 
ATOM     71  H   LIG d   1      10.348   0.693  -5.306  0.00  0.00     0.024 H 
ENDBRANCH  22  68
BRANCH   1  72
ATOM     72  C   LIG d   1       7.968  -1.961  -5.736  0.00  0.00    -0.057 C 
ATOM     73  H   LIG d   1       8.337  -2.075  -6.755  0.00  0.00     0.024 H 
ATOM     74  H   LIG d   1       8.673  -1.364  -5.158  0.00  0.00     0.024 H 
ATOM     75  H   LIG d   1       7.861  -2.944  -5.276  0.00  0.00     0.024 H 
ENDBRANCH   1  72
BRANCH  12  76
ATOM     76  O   LIG d   1       4.268  -1.858  -5.983  0.00  0.00    -0.391 OA
ATOM     77  H   LIG d   1       3.498  -2.006  -5.417  0.00  0.00     0.210 HD
ENDBRANCH  12  76
TORSDOF 11
ENDMDL
