MODEL 1
REMARK VINA RESULT:      -4.5      0.000      0.000
REMARK  6 active torsions:
REMARK  status: ('A' for Active; 'I' for Inactive)
REMARK    1  A    between atoms: C_1  and  O_2 
REMARK    2  A    between atoms: O_2  and  P_3 
REMARK    3  A    between atoms: P_3  and  O_5 
REMARK    4  A    between atoms: P_3  and  O_7 
REMARK    5  A    between atoms: O_5  and  C_6 
REMARK    6  A    between atoms: O_7  and  C_8 
ROOT
ATOM      1  P   LIG d   1       4.625   0.308  -8.256  0.00  0.00     0.362 P 
ATOM      2  S   LIG d   1       5.403  -0.083  -9.903  0.00  0.00     0.036 SA
ENDROOT
BRANCH   1   3
ATOM      3  O   LIG d   1       3.403  -0.705  -7.985  0.00  0.00    -0.305 OA
BRANCH   3   4
ATOM      4  C   LIG d   1       2.388  -0.976  -8.954  0.00  0.00     0.046 C 
ATOM      5  H   LIG d   1       2.199  -0.079  -9.543  0.00  0.00     0.053 H 
ATOM      6  H   LIG d   1       2.718  -1.779  -9.612  0.00  0.00     0.053 H 
ATOM      7  H   LIG d   1       1.472  -1.276  -8.445  0.00  0.00     0.053 H 
ENDBRANCH   3   4
ENDBRANCH   1   3
BRANCH   1   8
ATOM      8  O   LIG d   1       4.075   1.821  -8.267  0.00  0.00    -0.305 OA
BRANCH   8   9
ATOM      9  C   LIG d   1       3.829   2.551  -9.471  0.00  0.00     0.046 C 
ATOM     10  H   LIG d   1       2.887   2.224  -9.908  0.00  0.00     0.053 H 
ATOM     11  H   LIG d   1       3.776   3.616  -9.246  0.00  0.00     0.053 H 
ATOM     12  H   LIG d   1       4.640   2.369 -10.178  0.00  0.00     0.053 H 
ENDBRANCH   8   9
ENDBRANCH   1   8
BRANCH   1  13
ATOM     13  O   LIG d   1       5.724   0.146  -7.090  0.00  0.00    -0.406 OA
BRANCH  13  14
ATOM     14  C   LIG d   1       5.259  -0.468  -5.973  0.00  0.00     0.242 A 
ATOM     15  N   LIG d   1       4.584   0.231  -5.075  0.00  0.00    -0.198 NA
ATOM     16  C   LIG d   1       4.109  -0.327  -3.977  0.00  0.00     0.151 A 
ATOM     17  C   LIG d   1       4.312  -1.671  -3.720  0.00  0.00     0.079 A 
ATOM     18 CL   LIG d   1       3.224   0.639  -2.839  0.00  0.00    -0.060 Cl
ATOM     19  C   LIG d   1       5.021  -2.437  -4.636  0.00  0.00    -0.017 A 
ATOM     20 CL   LIG d   1       3.688  -2.391  -2.270  0.00  0.00    -0.080 Cl
ATOM     21  C   LIG d   1       5.501  -1.823  -5.780  0.00  0.00     0.104 A 
ATOM     22  H   LIG d   1       5.194  -3.488  -4.460  0.00  0.00     0.065 H 
ATOM     23 CL   LIG d   1       6.393  -2.732  -6.959  0.00  0.00    -0.078 Cl
ENDBRANCH  13  14
ENDBRANCH   1  13
TORSDOF 6
ENDMDL
MODEL 2
REMARK VINA RESULT:      -4.5      2.965      3.575
REMARK  6 active torsions:
REMARK  status: ('A' for Active; 'I' for Inactive)
REMARK    1  A    between atoms: C_1  and  O_2 
REMARK    2  A    between atoms: O_2  and  P_3 
REMARK    3  A    between atoms: P_3  and  O_5 
REMARK    4  A    between atoms: P_3  and  O_7 
REMARK    5  A    between atoms: O_5  and  C_6 
REMARK    6  A    between atoms: O_7  and  C_8 
ROOT
ATOM      1  P   LIG d   1       8.110   1.087  -5.861  0.00  0.00     0.362 P 
ATOM      2  S   LIG d   1       9.447   1.020  -7.156  0.00  0.00     0.036 SA
ENDROOT
BRANCH   1   3
ATOM      3  O   LIG d   1       6.688   0.758  -6.541  0.00  0.00    -0.305 OA
BRANCH   3   4
ATOM      4  C   LIG d   1       6.494   0.712  -7.957  0.00  0.00     0.046 C 
ATOM      5  H   LIG d   1       6.590  -0.317  -8.303  0.00  0.00     0.053 H 
ATOM      6  H   LIG d   1       5.500   1.086  -8.200  0.00  0.00     0.053 H 
ATOM      7  H   LIG d   1       7.246   1.331  -8.446  0.00  0.00     0.053 H 
ENDBRANCH   3   4
ENDBRANCH   1   3
BRANCH   1   8
ATOM      8  O   LIG d   1       8.066   2.558  -5.210  0.00  0.00    -0.305 OA
BRANCH   8   9
ATOM      9  C   LIG d   1       8.980   2.990  -4.200  0.00  0.00     0.046 C 
ATOM     10  H   LIG d   1       9.787   3.558  -4.661  0.00  0.00     0.053 H 
ATOM     11  H   LIG d   1       8.456   3.620  -3.482  0.00  0.00     0.053 H 
ATOM     12  H   LIG d   1       9.393   2.120  -3.688  0.00  0.00     0.053 H 
ENDBRANCH   8   9
ENDBRANCH   1   8
BRANCH   1  13
ATOM     13  O   LIG d   1       8.419   0.001  -4.713  0.00  0.00    -0.406 OA
BRANCH  13  14
ATOM     14  C   LIG d   1       7.309  -0.537  -4.148  0.00  0.00     0.242 A 
ATOM     15  N   LIG d   1       6.587   0.185  -3.308  0.00  0.00    -0.198 NA
ATOM     16  C   LIG d   1       5.498  -0.297  -2.739  0.00  0.00     0.151 A 
ATOM     17  C   LIG d   1       5.076  -1.589  -2.996  0.00  0.00     0.079 A 
ATOM     18 CL   LIG d   1       4.585   0.702  -1.651  0.00  0.00    -0.060 Cl
ATOM     19  C   LIG d   1       5.811  -2.381  -3.868  0.00  0.00    -0.017 A 
ATOM     20 CL   LIG d   1       3.645  -2.213  -2.237  0.00  0.00    -0.080 Cl
ATOM     21  C   LIG d   1       6.946  -1.844  -4.452  0.00  0.00     0.104 A 
ATOM     22  H   LIG d   1       5.504  -3.393  -4.086  0.00  0.00     0.065 H 
ATOM     23 CL   LIG d   1       7.902  -2.789  -5.549  0.00  0.00    -0.078 Cl
ENDBRANCH  13  14
ENDBRANCH   1  13
TORSDOF 6
ENDMDL
MODEL 3
REMARK VINA RESULT:      -4.3      1.244      2.145
REMARK  6 active torsions:
REMARK  status: ('A' for Active; 'I' for Inactive)
REMARK    1  A    between atoms: C_1  and  O_2 
REMARK    2  A    between atoms: O_2  and  P_3 
REMARK    3  A    between atoms: P_3  and  O_5 
REMARK    4  A    between atoms: P_3  and  O_7 
REMARK    5  A    between atoms: O_5  and  C_6 
REMARK    6  A    between atoms: O_7  and  C_8 
ROOT
ATOM      1  P   LIG d   1       5.530   0.092  -8.103  0.00  0.00     0.362 P 
ATOM      2  S   LIG d   1       5.961  -0.589  -9.783  0.00  0.00     0.036 SA
ENDROOT
BRANCH   1   3
ATOM      3  O   LIG d   1       5.196   1.662  -8.230  0.00  0.00    -0.305 OA
BRANCH   3   4
ATOM      4  C   LIG d   1       4.553   2.231  -9.372  0.00  0.00     0.046 C 
ATOM      5  H   LIG d   1       5.154   3.055  -9.755  0.00  0.00     0.053 H 
ATOM      6  H   LIG d   1       4.446   1.470 -10.145  0.00  0.00     0.053 H 
ATOM      7  H   LIG d   1       3.568   2.601  -9.087  0.00  0.00     0.053 H 
ENDBRANCH   3   4
ENDBRANCH   1   3
BRANCH   1   8
ATOM      8  O   LIG d   1       6.775  -0.113  -7.105  0.00  0.00    -0.305 OA
BRANCH   8   9
ATOM      9  C   LIG d   1       7.628   0.958  -6.693  0.00  0.00     0.046 C 
ATOM     10  H   LIG d   1       7.359   1.864  -7.235  0.00  0.00     0.053 H 
ATOM     11  H   LIG d   1       7.509   1.126  -5.623  0.00  0.00     0.053 H 
ATOM     12  H   LIG d   1       8.665   0.699  -6.908  0.00  0.00     0.053 H 
ENDBRANCH   8   9
ENDBRANCH   1   8
BRANCH   1  13
ATOM     13  O   LIG d   1       4.243  -0.685  -7.523  0.00  0.00    -0.406 OA
BRANCH  13  14
ATOM     14  C   LIG d   1       4.275  -0.880  -6.181  0.00  0.00     0.242 A 
ATOM     15  N   LIG d   1       3.995   0.124  -5.366  0.00  0.00    -0.198 NA
ATOM     16  C   LIG d   1       4.009  -0.023  -4.054  0.00  0.00     0.151 A 
ATOM     17  C   LIG d   1       4.332  -1.240  -3.481  0.00  0.00     0.079 A 
ATOM     18 CL   LIG d   1       3.624   1.328  -3.036  0.00  0.00    -0.060 Cl
ATOM     19  C   LIG d   1       4.639  -2.317  -4.302  0.00  0.00    -0.017 A 
ATOM     20 CL   LIG d   1       4.353  -1.419  -1.755  0.00  0.00    -0.080 Cl
ATOM     21  C   LIG d   1       4.610  -2.131  -5.675  0.00  0.00     0.104 A 
ATOM     22  H   LIG d   1       4.894  -3.278  -3.881  0.00  0.00     0.065 H 
ATOM     23 CL   LIG d   1       4.984  -3.442  -6.748  0.00  0.00    -0.078 Cl
ENDBRANCH  13  14
ENDBRANCH   1  13
TORSDOF 6
ENDMDL
MODEL 4
REMARK VINA RESULT:      -4.2      2.048      2.425
REMARK  6 active torsions:
REMARK  status: ('A' for Active; 'I' for Inactive)
REMARK    1  A    between atoms: C_1  and  O_2 
REMARK    2  A    between atoms: O_2  and  P_3 
REMARK    3  A    between atoms: P_3  and  O_5 
REMARK    4  A    between atoms: P_3  and  O_7 
REMARK    5  A    between atoms: O_5  and  C_6 
REMARK    6  A    between atoms: O_7  and  C_8 
ROOT
ATOM      1  P   LIG d   1       5.101  -0.802  -7.885  0.00  0.00     0.362 P 
ATOM      2  S   LIG d   1       3.783  -1.981  -8.470  0.00  0.00     0.036 SA
ENDROOT
BRANCH   1   3
ATOM      3  O   LIG d   1       4.419   0.584  -7.431  0.00  0.00    -0.305 OA
BRANCH   3   4
ATOM      4  C   LIG d   1       3.057   0.911  -7.717  0.00  0.00     0.046 C 
ATOM      5  H   LIG d   1       2.865   1.946  -7.437  0.00  0.00     0.053 H 
ATOM      6  H   LIG d   1       2.869   0.782  -8.783  0.00  0.00     0.053 H 
ATOM      7  H   LIG d   1       2.399   0.252  -7.149  0.00  0.00     0.053 H 
ENDBRANCH   3   4
ENDBRANCH   1   3
BRANCH   1   8
ATOM      8  O   LIG d   1       6.140  -0.521  -9.082  0.00  0.00    -0.305 OA
BRANCH   8   9
ATOM      9  C   LIG d   1       6.184   0.713  -9.802  0.00  0.00     0.046 C 
ATOM     10  H   LIG d   1       5.363   1.351  -9.478  0.00  0.00     0.053 H 
ATOM     11  H   LIG d   1       7.132   1.213  -9.608  0.00  0.00     0.053 H 
ATOM     12  H   LIG d   1       6.089   0.514 -10.870  0.00  0.00     0.053 H 
ENDBRANCH   8   9
ENDBRANCH   1   8
BRANCH   1  13
ATOM     13  O   LIG d   1       5.885  -1.449  -6.635  0.00  0.00    -0.406 OA
BRANCH  13  14
ATOM     14  C   LIG d   1       5.599  -0.867  -5.444  0.00  0.00     0.242 A 
ATOM     15  N   LIG d   1       4.439  -1.112  -4.857  0.00  0.00    -0.198 NA
ATOM     16  C   LIG d   1       4.122  -0.571  -3.696  0.00  0.00     0.151 A 
ATOM     17  C   LIG d   1       4.995   0.287  -3.051  0.00  0.00     0.079 A 
ATOM     18 CL   LIG d   1       2.588  -0.936  -2.970  0.00  0.00    -0.060 Cl
ATOM     19  C   LIG d   1       6.220   0.574  -3.637  0.00  0.00    -0.017 A 
ATOM     20 CL   LIG d   1       4.564   0.996  -1.527  0.00  0.00    -0.080 Cl
ATOM     21  C   LIG d   1       6.525  -0.014  -4.854  0.00  0.00     0.104 A 
ATOM     22  H   LIG d   1       6.921   1.240  -3.156  0.00  0.00     0.065 H 
ATOM     23 CL   LIG d   1       8.042   0.309  -5.632  0.00  0.00    -0.078 Cl
ENDBRANCH  13  14
ENDBRANCH   1  13
TORSDOF 6
ENDMDL
MODEL 5
REMARK VINA RESULT:      -4.2      3.656      5.070
REMARK  6 active torsions:
REMARK  status: ('A' for Active; 'I' for Inactive)
REMARK    1  A    between atoms: C_1  and  O_2 
REMARK    2  A    between atoms: O_2  and  P_3 
REMARK    3  A    between atoms: P_3  and  O_5 
REMARK    4  A    between atoms: P_3  and  O_7 
REMARK    5  A    between atoms: O_5  and  C_6 
REMARK    6  A    between atoms: O_7  and  C_8 
ROOT
ATOM      1  P   LIG d   1       4.389   0.008  -3.699  0.00  0.00     0.362 P 
ATOM      2  S   LIG d   1       3.684   1.448  -2.751  0.00  0.00     0.036 SA
ENDROOT
BRANCH   1   3
ATOM      3  O   LIG d   1       4.788  -1.167  -2.673  0.00  0.00    -0.305 OA
BRANCH   3   4
ATOM      4  C   LIG d   1       3.909  -2.245  -2.345  0.00  0.00     0.046 C 
ATOM      5  H   LIG d   1       4.093  -3.081  -3.018  0.00  0.00     0.053 H 
ATOM      6  H   LIG d   1       4.089  -2.560  -1.317  0.00  0.00     0.053 H 
ATOM      7  H   LIG d   1       2.876  -1.915  -2.448  0.00  0.00     0.053 H 
ENDBRANCH   3   4
ENDBRANCH   1   3
BRANCH   1   8
ATOM      8  O   LIG d   1       5.698   0.485  -4.505  0.00  0.00    -0.305 OA
BRANCH   8   9
ATOM      9  C   LIG d   1       6.986  -0.104  -4.315  0.00  0.00     0.046 C 
ATOM     10  H   LIG d   1       7.753   0.575  -4.685  0.00  0.00     0.053 H 
ATOM     11  H   LIG d   1       7.148  -0.290  -3.253  0.00  0.00     0.053 H 
ATOM     12  H   LIG d   1       7.040  -1.046  -4.861  0.00  0.00     0.053 H 
ENDBRANCH   8   9
ENDBRANCH   1   8
BRANCH   1  13
ATOM     13  O   LIG d   1       3.288  -0.540  -4.740  0.00  0.00    -0.406 OA
BRANCH  13  14
ATOM     14  C   LIG d   1       3.631  -0.378  -6.042  0.00  0.00     0.242 A 
ATOM     15  N   LIG d   1       3.277   0.726  -6.680  0.00  0.00    -0.198 NA
ATOM     16  C   LIG d   1       3.593   0.926  -7.946  0.00  0.00     0.151 A 
ATOM     17  C   LIG d   1       4.303  -0.023  -8.659  0.00  0.00     0.079 A 
ATOM     18 CL   LIG d   1       3.109   2.398  -8.727  0.00  0.00    -0.060 Cl
ATOM     19  C   LIG d   1       4.687  -1.198  -8.026  0.00  0.00    -0.017 A 
ATOM     20 CL   LIG d   1       4.707   0.250 -10.324  0.00  0.00    -0.080 Cl
ATOM     21  C   LIG d   1       4.344  -1.376  -6.696  0.00  0.00     0.104 A 
ATOM     22  H   LIG d   1       5.242  -1.956  -8.559  0.00  0.00     0.065 H 
ATOM     23 CL   LIG d   1       4.800  -2.825  -5.856  0.00  0.00    -0.078 Cl
ENDBRANCH  13  14
ENDBRANCH   1  13
TORSDOF 6
ENDMDL
MODEL 6
REMARK VINA RESULT:      -4.1      3.457      5.112
REMARK  6 active torsions:
REMARK  status: ('A' for Active; 'I' for Inactive)
REMARK    1  A    between atoms: C_1  and  O_2 
REMARK    2  A    between atoms: O_2  and  P_3 
REMARK    3  A    between atoms: P_3  and  O_5 
REMARK    4  A    between atoms: P_3  and  O_7 
REMARK    5  A    between atoms: O_5  and  C_6 
REMARK    6  A    between atoms: O_7  and  C_8 
ROOT
ATOM      1  P   LIG d   1       4.803  -0.505  -4.526  0.00  0.00     0.362 P 
ATOM      2  S   LIG d   1       5.895   0.201  -3.192  0.00  0.00     0.036 SA
ENDROOT
BRANCH   1   3
ATOM      3  O   LIG d   1       3.700   0.588  -4.952  0.00  0.00    -0.305 OA
BRANCH   3   4
ATOM      4  C   LIG d   1       2.296   0.388  -4.772  0.00  0.00     0.046 C 
ATOM      5  H   LIG d   1       1.832   0.188  -5.737  0.00  0.00     0.053 H 
ATOM      6  H   LIG d   1       2.132  -0.460  -4.108  0.00  0.00     0.053 H 
ATOM      7  H   LIG d   1       1.855   1.284  -4.335  0.00  0.00     0.053 H 
ENDBRANCH   3   4
ENDBRANCH   1   3
BRANCH   1   8
ATOM      8  O   LIG d   1       4.065  -1.824  -3.973  0.00  0.00    -0.305 OA
BRANCH   8   9
ATOM      9  C   LIG d   1       3.939  -2.120  -2.581  0.00  0.00     0.046 C 
ATOM     10  H   LIG d   1       2.885  -2.218  -2.325  0.00  0.00     0.053 H 
ATOM     11  H   LIG d   1       4.455  -3.054  -2.360  0.00  0.00     0.053 H 
ATOM     12  H   LIG d   1       4.382  -1.313  -1.996  0.00  0.00     0.053 H 
ENDBRANCH   8   9
ENDBRANCH   1   8
BRANCH   1  13
ATOM     13  O   LIG d   1       5.700  -0.889  -5.807  0.00  0.00    -0.406 OA
BRANCH  13  14
ATOM     14  C   LIG d   1       5.105  -0.624  -6.998  0.00  0.00     0.242 A 
ATOM     15  N   LIG d   1       5.134   0.606  -7.484  0.00  0.00    -0.198 NA
ATOM     16  C   LIG d   1       4.572   0.908  -8.640  0.00  0.00     0.151 A 
ATOM     17  C   LIG d   1       3.919  -0.058  -9.384  0.00  0.00     0.079 A 
ATOM     18 CL   LIG d   1       4.649   2.538  -9.231  0.00  0.00    -0.060 Cl
ATOM     19  C   LIG d   1       3.861  -1.360  -8.904  0.00  0.00    -0.017 A 
ATOM     20 CL   LIG d   1       3.179   0.352 -10.899  0.00  0.00    -0.080 Cl
ATOM     21  C   LIG d   1       4.465  -1.645  -7.691  0.00  0.00     0.104 A 
ATOM     22  H   LIG d   1       3.358  -2.134  -9.465  0.00  0.00     0.065 H 
ATOM     23 CL   LIG d   1       4.425  -3.255  -7.044  0.00  0.00    -0.078 Cl
ENDBRANCH  13  14
ENDBRANCH   1  13
TORSDOF 6
ENDMDL
MODEL 7
REMARK VINA RESULT:      -4.0      9.947     11.021
REMARK  6 active torsions:
REMARK  status: ('A' for Active; 'I' for Inactive)
REMARK    1  A    between atoms: C_1  and  O_2 
REMARK    2  A    between atoms: O_2  and  P_3 
REMARK    3  A    between atoms: P_3  and  O_5 
REMARK    4  A    between atoms: P_3  and  O_7 
REMARK    5  A    between atoms: O_5  and  C_6 
REMARK    6  A    between atoms: O_7  and  C_8 
ROOT
ATOM      1  P   LIG d   1      10.463   7.572  -0.427  0.00  0.00     0.362 P 
ATOM      2  S   LIG d   1      11.341   8.787   0.679  0.00  0.00     0.036 SA
ENDROOT
BRANCH   1   3
ATOM      3  O   LIG d   1       8.995   8.131  -0.780  0.00  0.00    -0.305 OA
BRANCH   3   4
ATOM      4  C   LIG d   1       8.674   9.524  -0.785  0.00  0.00     0.046 C 
ATOM      5  H   LIG d   1       8.344   9.817  -1.781  0.00  0.00     0.053 H 
ATOM      6  H   LIG d   1       7.877   9.715  -0.067  0.00  0.00     0.053 H 
ATOM      7  H   LIG d   1       9.557  10.101  -0.511  0.00  0.00     0.053 H 
ENDBRANCH   3   4
ENDBRANCH   1   3
BRANCH   1   8
ATOM      8  O   LIG d   1      10.331   6.156   0.328  0.00  0.00    -0.305 OA
BRANCH   8   9
ATOM      9  C   LIG d   1      11.071   5.830   1.506  0.00  0.00     0.046 C 
ATOM     10  H   LIG d   1      10.893   4.788   1.770  0.00  0.00     0.053 H 
ATOM     11  H   LIG d   1      12.134   5.982   1.321  0.00  0.00     0.053 H 
ATOM     12  H   LIG d   1      10.749   6.473   2.327  0.00  0.00     0.053 H 
ENDBRANCH   8   9
ENDBRANCH   1   8
BRANCH   1  13
ATOM     13  O   LIG d   1      11.305   7.378  -1.786  0.00  0.00    -0.406 OA
BRANCH  13  14
ATOM     14  C   LIG d   1      10.762   6.484  -2.650  0.00  0.00     0.242 A 
ATOM     15  N   LIG d   1      10.862   5.188  -2.399  0.00  0.00    -0.198 NA
ATOM     16  C   LIG d   1      10.344   4.284  -3.210  0.00  0.00     0.151 A 
ATOM     17  C   LIG d   1       9.682   4.662  -4.364  0.00  0.00     0.079 A 
ATOM     18 CL   LIG d   1      10.500   2.599  -2.825  0.00  0.00    -0.060 Cl
ATOM     19  C   LIG d   1       9.562   6.012  -4.665  0.00  0.00    -0.017 A 
ATOM     20 CL   LIG d   1       9.011   3.463  -5.424  0.00  0.00    -0.080 Cl
ATOM     21  C   LIG d   1      10.111   6.936  -3.792  0.00  0.00     0.104 A 
ATOM     22  H   LIG d   1       9.050   6.335  -5.560  0.00  0.00     0.065 H 
ATOM     23 CL   LIG d   1       9.990   8.636  -4.118  0.00  0.00    -0.078 Cl
ENDBRANCH  13  14
ENDBRANCH   1  13
TORSDOF 6
ENDMDL
MODEL 8
REMARK VINA RESULT:      -4.0     10.635     11.790
REMARK  6 active torsions:
REMARK  status: ('A' for Active; 'I' for Inactive)
REMARK    1  A    between atoms: C_1  and  O_2 
REMARK    2  A    between atoms: O_2  and  P_3 
REMARK    3  A    between atoms: P_3  and  O_5 
REMARK    4  A    between atoms: P_3  and  O_7 
REMARK    5  A    between atoms: O_5  and  C_6 
REMARK    6  A    between atoms: O_7  and  C_8 
ROOT
ATOM      1  P   LIG d   1      10.510   7.377  -0.479  0.00  0.00     0.362 P 
ATOM      2  S   LIG d   1      11.419   8.691   0.479  0.00  0.00     0.036 SA
ENDROOT
BRANCH   1   3
ATOM      3  O   LIG d   1       9.090   7.956  -0.969  0.00  0.00    -0.305 OA
BRANCH   3   4
ATOM      4  C   LIG d   1       8.679   9.306  -0.739  0.00  0.00     0.046 C 
ATOM      5  H   LIG d   1       8.439   9.779  -1.691  0.00  0.00     0.053 H 
ATOM      6  H   LIG d   1       7.797   9.312  -0.098  0.00  0.00     0.053 H 
ATOM      7  H   LIG d   1       9.486   9.853  -0.254  0.00  0.00     0.053 H 
ENDBRANCH   3   4
ENDBRANCH   1   3
BRANCH   1   8
ATOM      8  O   LIG d   1      10.271   6.094   0.463  0.00  0.00    -0.305 OA
BRANCH   8   9
ATOM      9  C   LIG d   1      11.055   5.826   1.627  0.00  0.00     0.046 C 
ATOM     10  H   LIG d   1      11.853   6.563   1.704  0.00  0.00     0.053 H 
ATOM     11  H   LIG d   1      10.421   5.881   2.512  0.00  0.00     0.053 H 
ATOM     12  H   LIG d   1      11.488   4.828   1.551  0.00  0.00     0.053 H 
ENDBRANCH   8   9
ENDBRANCH   1   8
BRANCH   1  13
ATOM     13  O   LIG d   1      11.385   6.946  -1.761  0.00  0.00    -0.406 OA
BRANCH  13  14
ATOM     14  C   LIG d   1      10.817   7.268  -2.951  0.00  0.00     0.242 A 
ATOM     15  N   LIG d   1      10.999   8.477  -3.457  0.00  0.00    -0.198 NA
ATOM     16  C   LIG d   1      10.469   8.831  -4.613  0.00  0.00     0.151 A 
ATOM     17  C   LIG d   1       9.689   7.947  -5.336  0.00  0.00     0.079 A 
ATOM     18 CL   LIG d   1      10.750  10.428  -5.231  0.00  0.00    -0.060 Cl
ATOM     19  C   LIG d   1       9.469   6.670  -4.835  0.00  0.00    -0.017 A 
ATOM     20 CL   LIG d   1       8.993   8.426  -6.852  0.00  0.00    -0.080 Cl
ATOM     21  C   LIG d   1      10.044   6.328  -3.622  0.00  0.00     0.104 A 
ATOM     22  H   LIG d   1       8.865   5.960  -5.379  0.00  0.00     0.065 H 
ATOM     23 CL   LIG d   1       9.803   4.747  -2.949  0.00  0.00    -0.078 Cl
ENDBRANCH  13  14
ENDBRANCH   1  13
TORSDOF 6
ENDMDL
MODEL 9
REMARK VINA RESULT:      -3.9     10.759     11.703
REMARK  6 active torsions:
REMARK  status: ('A' for Active; 'I' for Inactive)
REMARK    1  A    between atoms: C_1  and  O_2 
REMARK    2  A    between atoms: O_2  and  P_3 
REMARK    3  A    between atoms: P_3  and  O_5 
REMARK    4  A    between atoms: P_3  and  O_7 
REMARK    5  A    between atoms: O_5  and  C_6 
REMARK    6  A    between atoms: O_7  and  C_8 
ROOT
ATOM      1  P   LIG d   1      10.384   9.144  -0.637  0.00  0.00     0.362 P 
ATOM      2  S   LIG d   1       9.421  10.381  -1.643  0.00  0.00     0.036 SA
ENDROOT
BRANCH   1   3
ATOM      3  O   LIG d   1      10.708   9.767   0.813  0.00  0.00    -0.305 OA
BRANCH   3   4
ATOM      4  C   LIG d   1      11.777   9.300   1.639  0.00  0.00     0.046 C 
ATOM      5  H   LIG d   1      12.467  10.119   1.837  0.00  0.00     0.053 H 
ATOM      6  H   LIG d   1      11.372   8.930   2.581  0.00  0.00     0.053 H 
ATOM      7  H   LIG d   1      12.305   8.495   1.128  0.00  0.00     0.053 H 
ENDBRANCH   3   4
ENDBRANCH   1   3
BRANCH   1   8
ATOM      8  O   LIG d   1      11.762   8.794  -1.391  0.00  0.00    -0.305 OA
BRANCH   8   9
ATOM      9  C   LIG d   1      12.171   9.435  -2.601  0.00  0.00     0.046 C 
ATOM     10  H   LIG d   1      12.691  10.362  -2.363  0.00  0.00     0.053 H 
ATOM     11  H   LIG d   1      12.840   8.775  -3.153  0.00  0.00     0.053 H 
ATOM     12  H   LIG d   1      11.294   9.656  -3.210  0.00  0.00     0.053 H 
ENDBRANCH   8   9
ENDBRANCH   1   8
BRANCH   1  13
ATOM     13  O   LIG d   1       9.513   7.801  -0.460  0.00  0.00    -0.406 OA
BRANCH  13  14
ATOM     14  C   LIG d   1       9.886   6.789  -1.283  0.00  0.00     0.242 A 
ATOM     15  N   LIG d   1       9.481   6.786  -2.543  0.00  0.00    -0.198 NA
ATOM     16  C   LIG d   1       9.825   5.824  -3.378  0.00  0.00     0.151 A 
ATOM     17  C   LIG d   1      10.617   4.770  -2.960  0.00  0.00     0.079 A 
ATOM     18 CL   LIG d   1       9.271   5.878  -5.022  0.00  0.00    -0.060 Cl
ATOM     19  C   LIG d   1      11.056   4.733  -1.643  0.00  0.00    -0.017 A 
ATOM     20 CL   LIG d   1      11.056   3.508  -4.066  0.00  0.00    -0.080 Cl
ATOM     21  C   LIG d   1      10.683   5.761  -0.792  0.00  0.00     0.104 A 
ATOM     22  H   LIG d   1      11.676   3.922  -1.289  0.00  0.00     0.065 H 
ATOM     23 CL   LIG d   1      11.204   5.766   0.863  0.00  0.00    -0.078 Cl
ENDBRANCH  13  14
ENDBRANCH   1  13
TORSDOF 6
ENDMDL
MODEL 10
REMARK VINA RESULT:      -3.9     11.204     12.111
REMARK  6 active torsions:
REMARK  status: ('A' for Active; 'I' for Inactive)
REMARK    1  A    between atoms: C_1  and  O_2 
REMARK    2  A    between atoms: O_2  and  P_3 
REMARK    3  A    between atoms: P_3  and  O_5 
REMARK    4  A    between atoms: P_3  and  O_7 
REMARK    5  A    between atoms: O_5  and  C_6 
REMARK    6  A    between atoms: O_7  and  C_8 
ROOT
ATOM      1  P   LIG d   1      10.326   6.274  -2.423  0.00  0.00     0.362 P 
ATOM      2  S   LIG d   1      10.277   4.432  -2.700  0.00  0.00     0.036 SA
ENDROOT
BRANCH   1   3
ATOM      3  O   LIG d   1       9.576   7.020  -3.637  0.00  0.00    -0.305 OA
BRANCH   3   4
ATOM      4  C   LIG d   1       9.268   6.375  -4.874  0.00  0.00     0.046 C 
ATOM      5  H   LIG d   1       9.570   7.014  -5.703  0.00  0.00     0.053 H 
ATOM      6  H   LIG d   1       9.803   5.427  -4.933  0.00  0.00     0.053 H 
ATOM      7  H   LIG d   1       8.195   6.191  -4.930  0.00  0.00     0.053 H 
ENDBRANCH   3   4
ENDBRANCH   1   3
BRANCH   1   8
ATOM      8  O   LIG d   1      11.857   6.766  -2.354  0.00  0.00    -0.305 OA
BRANCH   8   9
ATOM      9  C   LIG d   1      12.425   7.675  -3.298  0.00  0.00     0.046 C 
ATOM     10  H   LIG d   1      11.886   8.621  -3.261  0.00  0.00     0.053 H 
ATOM     11  H   LIG d   1      13.474   7.845  -3.054  0.00  0.00     0.053 H 
ATOM     12  H   LIG d   1      12.349   7.253  -4.301  0.00  0.00     0.053 H 
ENDBRANCH   8   9
ENDBRANCH   1   8
BRANCH   1  13
ATOM     13  O   LIG d   1       9.585   6.628  -1.037  0.00  0.00    -0.406 OA
BRANCH  13  14
ATOM     14  C   LIG d   1      10.156   7.650  -0.351  0.00  0.00     0.242 A 
ATOM     15  N   LIG d   1       9.965   8.896  -0.754  0.00  0.00    -0.198 NA
ATOM     16  C   LIG d   1      10.497   9.920  -0.114  0.00  0.00     0.151 A 
ATOM     17  C   LIG d   1      11.289   9.725   1.003  0.00  0.00     0.079 A 
ATOM     18 CL   LIG d   1      10.204  11.533  -0.685  0.00  0.00    -0.060 Cl
ATOM     19  C   LIG d   1      11.518   8.432   1.454  0.00  0.00    -0.017 A 
ATOM     20 CL   LIG d   1      11.987  11.080   1.832  0.00  0.00    -0.080 Cl
ATOM     21  C   LIG d   1      10.941   7.379   0.763  0.00  0.00     0.104 A 
ATOM     22  H   LIG d   1      12.132   8.251   2.323  0.00  0.00     0.065 H 
ATOM     23 CL   LIG d   1      11.194   5.742   1.283  0.00  0.00    -0.078 Cl
ENDBRANCH  13  14
ENDBRANCH   1  13
TORSDOF 6
ENDMDL
