MODEL 1
REMARK VINA RESULT:      -6.2      0.000      0.000
REMARK  5 active torsions:
REMARK  status: ('A' for Active; 'I' for Inactive)
REMARK    1  A    between atoms: C_1  and  O_2 
REMARK    2  A    between atoms: O_2  and  C_3 
REMARK    3  A    between atoms: C_7  and  C_14 
REMARK    4  A    between atoms: C_12  and  O_13 
REMARK    5  A    between atoms: C_14  and  C_15 
ROOT
ATOM      1  C   LIG d   1       4.278  -6.105  -6.528  0.00  0.00     0.162 A 
ATOM      2  C   LIG d   1       5.159  -5.838  -5.479  0.00  0.00    -0.016 A 
ATOM      3  C   LIG d   1       5.614  -4.575  -5.247  0.00  0.00    -0.050 A 
ATOM      4  C   LIG d   1       5.194  -3.521  -6.069  0.00  0.00    -0.008 A 
ATOM      5  C   LIG d   1       5.633  -2.198  -5.873  0.00  0.00    -0.017 A 
ATOM      6  C   LIG d   1       5.181  -1.228  -6.715  0.00  0.00     0.032 A 
ATOM      7  N   LIG d   1       4.343  -1.496  -7.707  0.00  0.00    -0.262 NA
ATOM      8  C   LIG d   1       3.892  -2.705  -7.949  0.00  0.00     0.039 A 
ATOM      9  C   LIG d   1       4.297  -3.778  -7.140  0.00  0.00     0.046 A 
ATOM     10  C   LIG d   1       3.846  -5.092  -7.363  0.00  0.00     0.168 A 
ATOM     11  H   LIG d   1       5.487  -6.646  -4.842  0.00  0.00     0.066 H 
ATOM     12  H   LIG d   1       6.295  -4.386  -4.430  0.00  0.00     0.062 H 
ATOM     13  H   LIG d   1       5.514  -0.211  -6.569  0.00  0.00     0.083 H 
ATOM     14  H   LIG d   1       3.210  -2.874  -8.769  0.00  0.00     0.084 H 
ENDROOT
BRANCH   5  15
ATOM     15  C   LIG d   1       6.584  -1.862  -4.754  0.00  0.00     0.001 C 
ATOM     16  H   LIG d   1       6.982  -2.783  -4.326  0.00  0.00     0.036 H 
ATOM     17  H   LIG d   1       7.405  -1.260  -5.144  0.00  0.00     0.036 H 
BRANCH  15  18
ATOM     18  C   LIG d   1       5.855  -1.086  -3.689  0.00  0.00    -0.025 A 
ATOM     19  C   LIG d   1       6.133   0.256  -3.498  0.00  0.00     0.044 A 
ATOM     20  C   LIG d   1       5.459   0.969  -2.521  0.00  0.00    -0.043 A 
ATOM     21 CL   LIG d   1       7.321   1.045  -4.486  0.00  0.00    -0.083 Cl
ATOM     22  C   LIG d   1       4.517   0.339  -1.731  0.00  0.00    -0.060 A 
ATOM     23  H   LIG d   1       5.672   2.018  -2.375  0.00  0.00     0.063 H 
ATOM     24  C   LIG d   1       4.244  -1.004  -1.919  0.00  0.00    -0.061 A 
ATOM     25  H   LIG d   1       3.994   0.894  -0.967  0.00  0.00     0.062 H 
ATOM     26  C   LIG d   1       4.913  -1.716  -2.897  0.00  0.00    -0.057 A 
ATOM     27  H   LIG d   1       3.508  -1.496  -1.301  0.00  0.00     0.062 H 
ATOM     28  H   LIG d   1       4.698  -2.764  -3.044  0.00  0.00     0.062 H 
ENDBRANCH  15  18
ENDBRANCH   5  15
BRANCH  10  29
ATOM     29  O   LIG d   1       2.992  -5.361  -8.384  0.00  0.00    -0.503 OA
ATOM     30  H   LIG d   1       2.121  -4.951  -8.287  0.00  0.00     0.292 HD
ENDBRANCH  10  29
BRANCH   1  31
ATOM     31  O   LIG d   1       3.843  -7.377  -6.733  0.00  0.00    -0.491 OA
BRANCH  31  32
ATOM     32  C   LIG d   1       4.793  -8.311  -7.251  0.00  0.00     0.079 C 
ATOM     33  H   LIG d   1       4.386  -8.787  -8.142  0.00  0.00     0.066 H 
ATOM     34  H   LIG d   1       5.714  -7.788  -7.507  0.00  0.00     0.066 H 
ATOM     35  H   LIG d   1       5.003  -9.070  -6.497  0.00  0.00     0.066 H 
ENDBRANCH  31  32
ENDBRANCH   1  31
TORSDOF 5
ENDMDL
MODEL 2
REMARK VINA RESULT:      -5.9      5.236      7.506
REMARK  5 active torsions:
REMARK  status: ('A' for Active; 'I' for Inactive)
REMARK    1  A    between atoms: C_1  and  O_2 
REMARK    2  A    between atoms: O_2  and  C_3 
REMARK    3  A    between atoms: C_7  and  C_14 
REMARK    4  A    between atoms: C_12  and  O_13 
REMARK    5  A    between atoms: C_14  and  C_15 
ROOT
ATOM      1  C   LIG d   1       9.825   3.831  -4.811  0.00  0.00     0.162 A 
ATOM      2  C   LIG d   1       9.580   3.139  -3.624  0.00  0.00    -0.016 A 
ATOM      3  C   LIG d   1       8.820   2.008  -3.613  0.00  0.00    -0.050 A 
ATOM      4  C   LIG d   1       8.272   1.525  -4.809  0.00  0.00    -0.008 A 
ATOM      5  C   LIG d   1       7.481   0.362  -4.853  0.00  0.00    -0.017 A 
ATOM      6  C   LIG d   1       6.983  -0.043  -6.054  0.00  0.00     0.032 A 
ATOM      7  N   LIG d   1       7.224   0.624  -7.174  0.00  0.00    -0.262 NA
ATOM      8  C   LIG d   1       7.953   1.715  -7.208  0.00  0.00     0.039 A 
ATOM      9  C   LIG d   1       8.514   2.219  -6.024  0.00  0.00     0.046 A 
ATOM     10  C   LIG d   1       9.297   3.388  -6.008  0.00  0.00     0.168 A 
ATOM     11  H   LIG d   1      10.000   3.506  -2.699  0.00  0.00     0.066 H 
ATOM     12  H   LIG d   1       8.642   1.484  -2.685  0.00  0.00     0.062 H 
ATOM     13  H   LIG d   1       6.375  -0.936  -6.095  0.00  0.00     0.083 H 
ATOM     14  H   LIG d   1       8.121   2.224  -8.145  0.00  0.00     0.084 H 
ENDROOT
BRANCH   5  15
ATOM     15  C   LIG d   1       7.190  -0.418  -3.598  0.00  0.00     0.001 C 
ATOM     16  H   LIG d   1       7.368  -1.478  -3.779  0.00  0.00     0.036 H 
ATOM     17  H   LIG d   1       7.842  -0.072  -2.795  0.00  0.00     0.036 H 
BRANCH  15  18
ATOM     18  C   LIG d   1       5.752  -0.211  -3.199  0.00  0.00    -0.025 A 
ATOM     19  C   LIG d   1       4.841  -1.243  -3.338  0.00  0.00     0.044 A 
ATOM     20  C   LIG d   1       3.520  -1.054  -2.967  0.00  0.00    -0.043 A 
ATOM     21 CL   LIG d   1       5.354  -2.775  -3.970  0.00  0.00    -0.083 Cl
ATOM     22  C   LIG d   1       3.111   0.168  -2.469  0.00  0.00    -0.060 A 
ATOM     23  H   LIG d   1       2.809  -1.860  -3.071  0.00  0.00     0.063 H 
ATOM     24  C   LIG d   1       4.021   1.201  -2.336  0.00  0.00    -0.061 A 
ATOM     25  H   LIG d   1       2.081   0.317  -2.183  0.00  0.00     0.062 H 
ATOM     26  C   LIG d   1       5.341   1.011  -2.701  0.00  0.00    -0.057 A 
ATOM     27  H   LIG d   1       3.701   2.156  -1.946  0.00  0.00     0.062 H 
ATOM     28  H   LIG d   1       6.051   1.817  -2.595  0.00  0.00     0.062 H 
ENDBRANCH  15  18
ENDBRANCH   5  15
BRANCH  10  29
ATOM     29  O   LIG d   1       9.535   4.070  -7.159  0.00  0.00    -0.503 OA
ATOM     30  H   LIG d   1      10.060   3.579  -7.806  0.00  0.00     0.292 HD
ENDBRANCH  10  29
BRANCH   1  31
ATOM     31  O   LIG d   1      10.587   4.957  -4.788  0.00  0.00    -0.491 OA
BRANCH  31  32
ATOM     32  C   LIG d   1      10.374   5.862  -3.702  0.00  0.00     0.079 C 
ATOM     33  H   LIG d   1       9.724   5.396  -2.963  0.00  0.00     0.066 H 
ATOM     34  H   LIG d   1      11.330   6.107  -3.241  0.00  0.00     0.066 H 
ATOM     35  H   LIG d   1       9.906   6.773  -4.076  0.00  0.00     0.066 H 
ENDBRANCH  31  32
ENDBRANCH   1  31
TORSDOF 5
ENDMDL
MODEL 3
REMARK VINA RESULT:      -5.8      4.440      5.744
REMARK  5 active torsions:
REMARK  status: ('A' for Active; 'I' for Inactive)
REMARK    1  A    between atoms: C_1  and  O_2 
REMARK    2  A    between atoms: O_2  and  C_3 
REMARK    3  A    between atoms: C_7  and  C_14 
REMARK    4  A    between atoms: C_12  and  O_13 
REMARK    5  A    between atoms: C_14  and  C_15 
ROOT
ATOM      1  C   LIG d   1       5.858   1.080  -8.903  0.00  0.00     0.162 A 
ATOM      2  C   LIG d   1       5.320   0.047  -8.134  0.00  0.00    -0.016 A 
ATOM      3  C   LIG d   1       5.889  -0.319  -6.951  0.00  0.00    -0.050 A 
ATOM      4  C   LIG d   1       7.031   0.350  -6.492  0.00  0.00    -0.008 A 
ATOM      5  C   LIG d   1       7.657   0.013  -5.277  0.00  0.00    -0.017 A 
ATOM      6  C   LIG d   1       8.765   0.708  -4.898  0.00  0.00     0.032 A 
ATOM      7  N   LIG d   1       9.264   1.688  -5.638  0.00  0.00    -0.262 NA
ATOM      8  C   LIG d   1       8.733   2.057  -6.780  0.00  0.00     0.039 A 
ATOM      9  C   LIG d   1       7.588   1.404  -7.263  0.00  0.00     0.046 A 
ATOM     10  C   LIG d   1       6.986   1.758  -8.484  0.00  0.00     0.168 A 
ATOM     11  H   LIG d   1       4.440  -0.472  -8.482  0.00  0.00     0.066 H 
ATOM     12  H   LIG d   1       5.459  -1.120  -6.368  0.00  0.00     0.062 H 
ATOM     13  H   LIG d   1       9.250   0.454  -3.966  0.00  0.00     0.083 H 
ATOM     14  H   LIG d   1       9.176   2.861  -7.349  0.00  0.00     0.084 H 
ENDROOT
BRANCH   5  15
ATOM     15  C   LIG d   1       7.113  -1.095  -4.414  0.00  0.00     0.001 C 
ATOM     16  H   LIG d   1       6.757  -1.909  -5.047  0.00  0.00     0.036 H 
ATOM     17  H   LIG d   1       7.901  -1.465  -3.758  0.00  0.00     0.036 H 
BRANCH  15  18
ATOM     18  C   LIG d   1       5.972  -0.571  -3.581  0.00  0.00    -0.025 A 
ATOM     19  C   LIG d   1       4.871  -1.372  -3.334  0.00  0.00     0.044 A 
ATOM     20  C   LIG d   1       3.826  -0.891  -2.565  0.00  0.00    -0.043 A 
ATOM     21 CL   LIG d   1       4.806  -2.981  -3.981  0.00  0.00    -0.083 Cl
ATOM     22  C   LIG d   1       3.876   0.392  -2.054  0.00  0.00    -0.060 A 
ATOM     23  H   LIG d   1       2.968  -1.518  -2.366  0.00  0.00     0.063 H 
ATOM     24  C   LIG d   1       4.974   1.194  -2.307  0.00  0.00    -0.061 A 
ATOM     25  H   LIG d   1       3.059   0.768  -1.458  0.00  0.00     0.062 H 
ATOM     26  C   LIG d   1       6.022   0.712  -3.070  0.00  0.00    -0.057 A 
ATOM     27  H   LIG d   1       5.014   2.196  -1.908  0.00  0.00     0.062 H 
ATOM     28  H   LIG d   1       6.879   1.339  -3.266  0.00  0.00     0.062 H 
ENDBRANCH  15  18
ENDBRANCH   5  15
BRANCH  10  29
ATOM     29  O   LIG d   1       7.506   2.760  -9.241  0.00  0.00    -0.503 OA
ATOM     30  H   LIG d   1       8.443   2.646  -9.455  0.00  0.00     0.292 HD
ENDBRANCH  10  29
BRANCH   1  31
ATOM     31  O   LIG d   1       5.267   1.420 -10.080  0.00  0.00    -0.491 OA
BRANCH  31  32
ATOM     32  C   LIG d   1       3.981   2.040 -10.005  0.00  0.00     0.079 C 
ATOM     33  H   LIG d   1       3.259   1.447 -10.566  0.00  0.00     0.066 H 
ATOM     34  H   LIG d   1       3.668   2.102  -8.963  0.00  0.00     0.066 H 
ATOM     35  H   LIG d   1       4.036   3.042 -10.428  0.00  0.00     0.066 H 
ENDBRANCH  31  32
ENDBRANCH   1  31
TORSDOF 5
ENDMDL
MODEL 4
REMARK VINA RESULT:      -5.8      1.886      3.608
REMARK  5 active torsions:
REMARK  status: ('A' for Active; 'I' for Inactive)
REMARK    1  A    between atoms: C_1  and  O_2 
REMARK    2  A    between atoms: O_2  and  C_3 
REMARK    3  A    between atoms: C_7  and  C_14 
REMARK    4  A    between atoms: C_12  and  O_13 
REMARK    5  A    between atoms: C_14  and  C_15 
ROOT
ATOM      1  C   LIG d   1       4.216  -1.096  -8.624  0.00  0.00     0.162 A 
ATOM      2  C   LIG d   1       5.088  -0.401  -7.784  0.00  0.00    -0.016 A 
ATOM      3  C   LIG d   1       5.585  -0.977  -6.654  0.00  0.00    -0.050 A 
ATOM      4  C   LIG d   1       5.220  -2.289  -6.323  0.00  0.00    -0.008 A 
ATOM      5  C   LIG d   1       5.704  -2.932  -5.168  0.00  0.00    -0.017 A 
ATOM      6  C   LIG d   1       5.303  -4.207  -4.913  0.00  0.00     0.032 A 
ATOM      7  N   LIG d   1       4.475  -4.856  -5.721  0.00  0.00    -0.262 NA
ATOM      8  C   LIG d   1       3.984  -4.321  -6.814  0.00  0.00     0.039 A 
ATOM      9  C   LIG d   1       4.334  -3.008  -7.168  0.00  0.00     0.046 A 
ATOM     10  C   LIG d   1       3.830  -2.389  -8.327  0.00  0.00     0.168 A 
ATOM     11  H   LIG d   1       5.373   0.610  -8.034  0.00  0.00     0.066 H 
ATOM     12  H   LIG d   1       6.259  -0.425  -6.016  0.00  0.00     0.062 H 
ATOM     13  H   LIG d   1       5.672  -4.706  -4.029  0.00  0.00     0.083 H 
ATOM     14  H   LIG d   1       3.312  -4.888  -7.440  0.00  0.00     0.084 H 
ENDROOT
BRANCH   5  15
ATOM     15  C   LIG d   1       6.647  -2.221  -4.232  0.00  0.00     0.001 C 
ATOM     16  H   LIG d   1       7.140  -2.951  -3.589  0.00  0.00     0.036 H 
ATOM     17  H   LIG d   1       7.397  -1.683  -4.811  0.00  0.00     0.036 H 
BRANCH  15  18
ATOM     18  C   LIG d   1       5.874  -1.246  -3.383  0.00  0.00    -0.025 A 
ATOM     19  C   LIG d   1       6.266   0.080  -3.321  0.00  0.00     0.044 A 
ATOM     20  C   LIG d   1       5.552   0.976  -2.545  0.00  0.00    -0.043 A 
ATOM     21 CL   LIG d   1       7.646   0.620  -4.224  0.00  0.00    -0.083 Cl
ATOM     22  C   LIG d   1       4.456   0.544  -1.822  0.00  0.00    -0.060 A 
ATOM     23  H   LIG d   1       5.854   2.012  -2.500  0.00  0.00     0.063 H 
ATOM     24  C   LIG d   1       4.069  -0.782  -1.880  0.00  0.00    -0.061 A 
ATOM     25  H   LIG d   1       3.901   1.242  -1.213  0.00  0.00     0.062 H 
ATOM     26  C   LIG d   1       4.777  -1.677  -2.660  0.00  0.00    -0.057 A 
ATOM     27  H   LIG d   1       3.212  -1.119  -1.315  0.00  0.00     0.062 H 
ATOM     28  H   LIG d   1       4.474  -2.712  -2.705  0.00  0.00     0.062 H 
ENDBRANCH  15  18
ENDBRANCH   5  15
BRANCH  10  29
ATOM     29  O   LIG d   1       2.977  -3.056  -9.147  0.00  0.00    -0.503 OA
ATOM     30  H   LIG d   1       3.288  -3.132 -10.060  0.00  0.00     0.292 HD
ENDBRANCH  10  29
BRANCH   1  31
ATOM     31  O   LIG d   1       3.737  -0.492  -9.744  0.00  0.00    -0.491 OA
BRANCH  31  32
ATOM     32  C   LIG d   1       2.765   0.540  -9.560  0.00  0.00     0.079 C 
ATOM     33  H   LIG d   1       3.248   1.513  -9.642  0.00  0.00     0.066 H 
ATOM     34  H   LIG d   1       1.993   0.452 -10.324  0.00  0.00     0.066 H 
ATOM     35  H   LIG d   1       2.313   0.440  -8.573  0.00  0.00     0.066 H 
ENDBRANCH  31  32
ENDBRANCH   1  31
TORSDOF 5
ENDMDL
MODEL 5
REMARK VINA RESULT:      -5.7      3.520      4.680
REMARK  5 active torsions:
REMARK  status: ('A' for Active; 'I' for Inactive)
REMARK    1  A    between atoms: C_1  and  O_2 
REMARK    2  A    between atoms: O_2  and  C_3 
REMARK    3  A    between atoms: C_7  and  C_14 
REMARK    4  A    between atoms: C_12  and  O_13 
REMARK    5  A    between atoms: C_14  and  C_15 
ROOT
ATOM      1  C   LIG d   1       3.217  -0.489 -10.278  0.00  0.00     0.162 A 
ATOM      2  C   LIG d   1       2.917  -1.427  -9.290  0.00  0.00    -0.016 A 
ATOM      3  C   LIG d   1       3.643  -1.492  -8.138  0.00  0.00    -0.050 A 
ATOM      4  C   LIG d   1       4.710  -0.606  -7.937  0.00  0.00    -0.008 A 
ATOM      5  C   LIG d   1       5.492  -0.631  -6.767  0.00  0.00    -0.017 A 
ATOM      6  C   LIG d   1       6.512   0.262  -6.644  0.00  0.00     0.032 A 
ATOM      7  N   LIG d   1       6.786   1.148  -7.592  0.00  0.00    -0.262 NA
ATOM      8  C   LIG d   1       6.100   1.229  -8.708  0.00  0.00     0.039 A 
ATOM      9  C   LIG d   1       5.026   0.354  -8.934  0.00  0.00     0.046 A 
ATOM     10  C   LIG d   1       4.265   0.397 -10.117  0.00  0.00     0.168 A 
ATOM     11  H   LIG d   1       2.096  -2.113  -9.438  0.00  0.00     0.066 H 
ATOM     12  H   LIG d   1       3.397  -2.224  -7.383  0.00  0.00     0.062 H 
ATOM     13  H   LIG d   1       7.116   0.249  -5.748  0.00  0.00     0.083 H 
ATOM     14  H   LIG d   1       6.360   1.968  -9.452  0.00  0.00     0.084 H 
ENDROOT
BRANCH   5  15
ATOM     15  C   LIG d   1       5.205  -1.625  -5.672  0.00  0.00     0.001 C 
ATOM     16  H   LIG d   1       4.466  -2.347  -6.020  0.00  0.00     0.036 H 
ATOM     17  H   LIG d   1       6.125  -2.147  -5.406  0.00  0.00     0.036 H 
BRANCH  15  18
ATOM     18  C   LIG d   1       4.671  -0.902  -4.463  0.00  0.00    -0.025 A 
ATOM     19  C   LIG d   1       5.389  -0.908  -3.280  0.00  0.00     0.044 A 
ATOM     20  C   LIG d   1       4.899  -0.240  -2.171  0.00  0.00    -0.043 A 
ATOM     21 CL   LIG d   1       6.906  -1.745  -3.190  0.00  0.00    -0.083 Cl
ATOM     22  C   LIG d   1       3.688   0.422  -2.242  0.00  0.00    -0.060 A 
ATOM     23  H   LIG d   1       5.462  -0.239  -1.249  0.00  0.00     0.063 H 
ATOM     24  C   LIG d   1       2.968   0.422  -3.423  0.00  0.00    -0.061 A 
ATOM     25  H   LIG d   1       3.304   0.940  -1.376  0.00  0.00     0.062 H 
ATOM     26  C   LIG d   1       3.459  -0.240  -4.533  0.00  0.00    -0.057 A 
ATOM     27  H   LIG d   1       2.022   0.940  -3.478  0.00  0.00     0.062 H 
ATOM     28  H   LIG d   1       2.897  -0.239  -5.454  0.00  0.00     0.062 H 
ENDBRANCH  15  18
ENDBRANCH   5  15
BRANCH  10  29
ATOM     29  O   LIG d   1       4.553   1.303 -11.087  0.00  0.00    -0.503 OA
ATOM     30  H   LIG d   1       5.063   2.064 -10.775  0.00  0.00     0.292 HD
ENDBRANCH  10  29
BRANCH   1  31
ATOM     31  O   LIG d   1       2.473  -0.451 -11.416  0.00  0.00    -0.491 OA
BRANCH  31  32
ATOM     32  C   LIG d   1       1.190  -1.079 -11.374  0.00  0.00     0.079 C 
ATOM     33  H   LIG d   1       1.285  -2.068 -10.927  0.00  0.00     0.066 H 
ATOM     34  H   LIG d   1       0.509  -0.474 -10.776  0.00  0.00     0.066 H 
ATOM     35  H   LIG d   1       0.799  -1.174 -12.387  0.00  0.00     0.066 H 
ENDBRANCH  31  32
ENDBRANCH   1  31
TORSDOF 5
ENDMDL
MODEL 6
REMARK VINA RESULT:      -5.6      2.574      3.332
REMARK  5 active torsions:
REMARK  status: ('A' for Active; 'I' for Inactive)
REMARK    1  A    between atoms: C_1  and  O_2 
REMARK    2  A    between atoms: O_2  and  C_3 
REMARK    3  A    between atoms: C_7  and  C_14 
REMARK    4  A    between atoms: C_12  and  O_13 
REMARK    5  A    between atoms: C_14  and  C_15 
ROOT
ATOM      1  C   LIG d   1       2.772  -3.910  -9.544  0.00  0.00     0.162 A 
ATOM      2  C   LIG d   1       3.743  -4.007  -8.545  0.00  0.00    -0.016 A 
ATOM      3  C   LIG d   1       4.161  -2.906  -7.860  0.00  0.00    -0.050 A 
ATOM      4  C   LIG d   1       3.612  -1.651  -8.158  0.00  0.00    -0.008 A 
ATOM      5  C   LIG d   1       4.007  -0.482  -7.481  0.00  0.00    -0.017 A 
ATOM      6  C   LIG d   1       3.429   0.700  -7.827  0.00  0.00     0.032 A 
ATOM      7  N   LIG d   1       2.507   0.778  -8.777  0.00  0.00    -0.262 NA
ATOM      8  C   LIG d   1       2.089  -0.269  -9.449  0.00  0.00     0.039 A 
ATOM      9  C   LIG d   1       2.623  -1.537  -9.171  0.00  0.00     0.046 A 
ATOM     10  C   LIG d   1       2.213  -2.688  -9.867  0.00  0.00     0.168 A 
ATOM     11  H   LIG d   1       4.170  -4.971  -8.311  0.00  0.00     0.066 H 
ATOM     12  H   LIG d   1       4.912  -2.999  -7.090  0.00  0.00     0.062 H 
ATOM     13  H   LIG d   1       3.728   1.602  -7.311  0.00  0.00     0.083 H 
ATOM     14  H   LIG d   1       1.337  -0.156 -10.215  0.00  0.00     0.084 H 
ENDROOT
BRANCH   5  15
ATOM     15  C   LIG d   1       5.051  -0.538  -6.396  0.00  0.00     0.001 C 
ATOM     16  H   LIG d   1       5.791  -1.301  -6.642  0.00  0.00     0.036 H 
ATOM     17  H   LIG d   1       5.544   0.431  -6.315  0.00  0.00     0.036 H 
BRANCH  15  18
ATOM     18  C   LIG d   1       4.395  -0.879  -5.083  0.00  0.00    -0.025 A 
ATOM     19  C   LIG d   1       4.873  -1.934  -4.325  0.00  0.00     0.044 A 
ATOM     20  C   LIG d   1       4.272  -2.243  -3.117  0.00  0.00    -0.043 A 
ATOM     21 CL   LIG d   1       6.228  -2.862  -4.884  0.00  0.00    -0.083 Cl
ATOM     22  C   LIG d   1       3.190  -1.507  -2.674  0.00  0.00    -0.060 A 
ATOM     23  H   LIG d   1       4.647  -3.062  -2.521  0.00  0.00     0.063 H 
ATOM     24  C   LIG d   1       2.709  -0.457  -3.436  0.00  0.00    -0.061 A 
ATOM     25  H   LIG d   1       2.719  -1.751  -1.734  0.00  0.00     0.062 H 
ATOM     26  C   LIG d   1       3.312  -0.144  -4.640  0.00  0.00    -0.057 A 
ATOM     27  H   LIG d   1       1.863   0.118  -3.090  0.00  0.00     0.062 H 
ATOM     28  H   LIG d   1       2.937   0.676  -5.234  0.00  0.00     0.062 H 
ENDBRANCH  15  18
ENDBRANCH   5  15
BRANCH  10  29
ATOM     29  O   LIG d   1       1.272  -2.602 -10.844  0.00  0.00    -0.503 OA
ATOM     30  H   LIG d   1       0.521  -3.199 -10.721  0.00  0.00     0.292 HD
ENDBRANCH  10  29
BRANCH   1  31
ATOM     31  O   LIG d   1       2.378  -5.028 -10.209  0.00  0.00    -0.491 OA
BRANCH  31  32
ATOM     32  C   LIG d   1       2.828  -6.282  -9.693  0.00  0.00     0.079 C 
ATOM     33  H   LIG d   1       3.849  -6.179  -9.327  0.00  0.00     0.066 H 
ATOM     34  H   LIG d   1       2.178  -6.593  -8.875  0.00  0.00     0.066 H 
ATOM     35  H   LIG d   1       2.799  -7.031 -10.484  0.00  0.00     0.066 H 
ENDBRANCH  31  32
ENDBRANCH   1  31
TORSDOF 5
ENDMDL
MODEL 7
REMARK VINA RESULT:      -5.5      3.932      6.298
REMARK  5 active torsions:
REMARK  status: ('A' for Active; 'I' for Inactive)
REMARK    1  A    between atoms: C_1  and  O_2 
REMARK    2  A    between atoms: O_2  and  C_3 
REMARK    3  A    between atoms: C_7  and  C_14 
REMARK    4  A    between atoms: C_12  and  O_13 
REMARK    5  A    between atoms: C_14  and  C_15 
ROOT
ATOM      1  C   LIG d   1       4.871  -0.641  -3.252  0.00  0.00     0.162 A 
ATOM      2  C   LIG d   1       3.694  -0.532  -3.994  0.00  0.00    -0.016 A 
ATOM      3  C   LIG d   1       3.673  -0.821  -5.326  0.00  0.00    -0.050 A 
ATOM      4  C   LIG d   1       4.848  -1.235  -5.967  0.00  0.00    -0.008 A 
ATOM      5  C   LIG d   1       4.882  -1.545  -7.339  0.00  0.00    -0.017 A 
ATOM      6  C   LIG d   1       6.062  -1.940  -7.891  0.00  0.00     0.032 A 
ATOM      7  N   LIG d   1       7.173  -2.039  -7.174  0.00  0.00    -0.262 NA
ATOM      8  C   LIG d   1       7.216  -1.767  -5.891  0.00  0.00     0.039 A 
ATOM      9  C   LIG d   1       6.053  -1.350  -5.224  0.00  0.00     0.046 A 
ATOM     10  C   LIG d   1       6.050  -1.041  -3.852  0.00  0.00     0.168 A 
ATOM     11  H   LIG d   1       2.785  -0.214  -3.506  0.00  0.00     0.066 H 
ATOM     12  H   LIG d   1       2.753  -0.733  -5.885  0.00  0.00     0.062 H 
ATOM     13  H   LIG d   1       6.094  -2.180  -8.944  0.00  0.00     0.083 H 
ATOM     14  H   LIG d   1       8.145  -1.862  -5.348  0.00  0.00     0.084 H 
ENDROOT
BRANCH   5  15
ATOM     15  C   LIG d   1       3.637  -1.443  -8.181  0.00  0.00     0.001 C 
ATOM     16  H   LIG d   1       3.641  -2.231  -8.935  0.00  0.00     0.036 H 
ATOM     17  H   LIG d   1       2.758  -1.554  -7.546  0.00  0.00     0.036 H 
BRANCH  15  18
ATOM     18  C   LIG d   1       3.597  -0.098  -8.861  0.00  0.00    -0.025 A 
ATOM     19  C   LIG d   1       3.970   0.017 -10.188  0.00  0.00     0.044 A 
ATOM     20  C   LIG d   1       3.929   1.252 -10.812  0.00  0.00    -0.043 A 
ATOM     21 CL   LIG d   1       4.480  -1.387 -11.072  0.00  0.00    -0.083 Cl
ATOM     22  C   LIG d   1       3.528   2.370 -10.107  0.00  0.00    -0.060 A 
ATOM     23  H   LIG d   1       4.215   1.342 -11.851  0.00  0.00     0.063 H 
ATOM     24  C   LIG d   1       3.162   2.255  -8.779  0.00  0.00    -0.061 A 
ATOM     25  H   LIG d   1       3.500   3.334 -10.593  0.00  0.00     0.062 H 
ATOM     26  C   LIG d   1       3.197   1.021  -8.156  0.00  0.00    -0.057 A 
ATOM     27  H   LIG d   1       2.848   3.129  -8.228  0.00  0.00     0.062 H 
ATOM     28  H   LIG d   1       2.910   0.932  -7.119  0.00  0.00     0.062 H 
ENDBRANCH  15  18
ENDBRANCH   5  15
BRANCH  10  29
ATOM     29  O   LIG d   1       7.192  -1.139  -3.123  0.00  0.00    -0.503 OA
ATOM     30  H   LIG d   1       7.885  -0.519  -3.392  0.00  0.00     0.292 HD
ENDBRANCH  10  29
BRANCH   1  31
ATOM     31  O   LIG d   1       4.858  -0.344  -1.925  0.00  0.00    -0.491 OA
BRANCH  31  32
ATOM     32  C   LIG d   1       4.564   1.007  -1.565  0.00  0.00     0.079 C 
ATOM     33  H   LIG d   1       4.079   1.025  -0.590  0.00  0.00     0.066 H 
ATOM     34  H   LIG d   1       5.489   1.581  -1.521  0.00  0.00     0.066 H 
ATOM     35  H   LIG d   1       3.899   1.444  -2.310  0.00  0.00     0.066 H 
ENDBRANCH  31  32
ENDBRANCH   1  31
TORSDOF 5
ENDMDL
MODEL 8
REMARK VINA RESULT:      -5.5      2.230      3.103
REMARK  5 active torsions:
REMARK  status: ('A' for Active; 'I' for Inactive)
REMARK    1  A    between atoms: C_1  and  O_2 
REMARK    2  A    between atoms: O_2  and  C_3 
REMARK    3  A    between atoms: C_7  and  C_14 
REMARK    4  A    between atoms: C_12  and  O_13 
REMARK    5  A    between atoms: C_14  and  C_15 
ROOT
ATOM      1  C   LIG d   1       5.642  -7.498  -5.671  0.00  0.00     0.162 A 
ATOM      2  C   LIG d   1       4.691  -6.504  -5.906  0.00  0.00    -0.016 A 
ATOM      3  C   LIG d   1       5.007  -5.184  -5.788  0.00  0.00    -0.050 A 
ATOM      4  C   LIG d   1       6.308  -4.810  -5.425  0.00  0.00    -0.008 A 
ATOM      5  C   LIG d   1       6.689  -3.462  -5.289  0.00  0.00    -0.017 A 
ATOM      6  C   LIG d   1       7.971  -3.178  -4.932  0.00  0.00     0.032 A 
ATOM      7  N   LIG d   1       8.865  -4.132  -4.713  0.00  0.00    -0.262 NA
ATOM      8  C   LIG d   1       8.583  -5.409  -4.821  0.00  0.00     0.039 A 
ATOM      9  C   LIG d   1       7.287  -5.810  -5.183  0.00  0.00     0.046 A 
ATOM     10  C   LIG d   1       6.933  -7.167  -5.307  0.00  0.00     0.168 A 
ATOM     11  H   LIG d   1       3.686  -6.786  -6.186  0.00  0.00     0.066 H 
ATOM     12  H   LIG d   1       4.259  -4.429  -5.975  0.00  0.00     0.062 H 
ATOM     13  H   LIG d   1       8.270  -2.145  -4.827  0.00  0.00     0.083 H 
ATOM     14  H   LIG d   1       9.344  -6.151  -4.632  0.00  0.00     0.084 H 
ENDROOT
BRANCH   5  15
ATOM     15  C   LIG d   1       5.696  -2.356  -5.532  0.00  0.00     0.001 C 
ATOM     16  H   LIG d   1       6.167  -1.567  -6.121  0.00  0.00     0.036 H 
ATOM     17  H   LIG d   1       4.837  -2.750  -6.076  0.00  0.00     0.036 H 
BRANCH  15  18
ATOM     18  C   LIG d   1       5.237  -1.791  -4.212  0.00  0.00    -0.025 A 
ATOM     19  C   LIG d   1       5.716  -0.567  -3.780  0.00  0.00     0.044 A 
ATOM     20  C   LIG d   1       5.291  -0.048  -2.569  0.00  0.00    -0.043 A 
ATOM     21 CL   LIG d   1       6.843   0.319  -4.758  0.00  0.00    -0.083 Cl
ATOM     22  C   LIG d   1       4.398  -0.756  -1.789  0.00  0.00    -0.060 A 
ATOM     23  H   LIG d   1       5.660   0.910  -2.233  0.00  0.00     0.063 H 
ATOM     24  C   LIG d   1       3.925  -1.983  -2.219  0.00  0.00    -0.061 A 
ATOM     25  H   LIG d   1       4.069  -0.353  -0.843  0.00  0.00     0.062 H 
ATOM     26  C   LIG d   1       4.344  -2.500  -3.431  0.00  0.00    -0.057 A 
ATOM     27  H   LIG d   1       3.226  -2.536  -1.609  0.00  0.00     0.062 H 
ATOM     28  H   LIG d   1       3.974  -3.457  -3.766  0.00  0.00     0.062 H 
ENDBRANCH  15  18
ENDBRANCH   5  15
BRANCH  10  29
ATOM     29  O   LIG d   1       7.852  -8.140  -5.075  0.00  0.00    -0.503 OA
ATOM     30  H   LIG d   1       8.071  -8.668  -5.855  0.00  0.00     0.292 HD
ENDBRANCH  10  29
BRANCH   1  31
ATOM     31  O   LIG d   1       5.293  -8.806  -5.797  0.00  0.00    -0.491 OA
BRANCH  31  32
ATOM     32  C   LIG d   1       4.599  -9.401  -4.699  0.00  0.00     0.079 C 
ATOM     33  H   LIG d   1       5.278  -9.502  -3.852  0.00  0.00     0.066 H 
ATOM     34  H   LIG d   1       3.758  -8.769  -4.416  0.00  0.00     0.066 H 
ATOM     35  H   LIG d   1       4.233 -10.385  -4.991  0.00  0.00     0.066 H 
ENDBRANCH  31  32
ENDBRANCH   1  31
TORSDOF 5
ENDMDL
MODEL 9
REMARK VINA RESULT:      -5.3      3.895      6.808
REMARK  5 active torsions:
REMARK  status: ('A' for Active; 'I' for Inactive)
REMARK    1  A    between atoms: C_1  and  O_2 
REMARK    2  A    between atoms: O_2  and  C_3 
REMARK    3  A    between atoms: C_7  and  C_14 
REMARK    4  A    between atoms: C_12  and  O_13 
REMARK    5  A    between atoms: C_14  and  C_15 
ROOT
ATOM      1  C   LIG d   1       7.136   0.931  -3.658  0.00  0.00     0.162 A 
ATOM      2  C   LIG d   1       7.720  -0.006  -4.511  0.00  0.00    -0.016 A 
ATOM      3  C   LIG d   1       7.160  -1.234  -4.697  0.00  0.00    -0.050 A 
ATOM      4  C   LIG d   1       5.977  -1.568  -4.024  0.00  0.00    -0.008 A 
ATOM      5  C   LIG d   1       5.357  -2.822  -4.180  0.00  0.00    -0.017 A 
ATOM      6  C   LIG d   1       4.210  -3.073  -3.491  0.00  0.00     0.032 A 
ATOM      7  N   LIG d   1       3.665  -2.173  -2.684  0.00  0.00    -0.262 NA
ATOM      8  C   LIG d   1       4.187  -0.985  -2.490  0.00  0.00     0.039 A 
ATOM      9  C   LIG d   1       5.371  -0.624  -3.153  0.00  0.00     0.046 A 
ATOM     10  C   LIG d   1       5.973   0.635  -2.973  0.00  0.00     0.168 A 
ATOM     11  H   LIG d   1       8.632   0.246  -5.033  0.00  0.00     0.066 H 
ATOM     12  H   LIG d   1       7.625  -1.946  -5.362  0.00  0.00     0.062 H 
ATOM     13  H   LIG d   1       3.728  -4.034  -3.607  0.00  0.00     0.083 H 
ATOM     14  H   LIG d   1       3.708  -0.284  -1.823  0.00  0.00     0.084 H 
ENDROOT
BRANCH   5  15
ATOM     15  C   LIG d   1       5.951  -3.865  -5.090  0.00  0.00     0.001 C 
ATOM     16  H   LIG d   1       6.953  -3.558  -5.390  0.00  0.00     0.036 H 
ATOM     17  H   LIG d   1       6.006  -4.818  -4.563  0.00  0.00     0.036 H 
BRANCH  15  18
ATOM     18  C   LIG d   1       5.084  -4.018  -6.313  0.00  0.00    -0.025 A 
ATOM     19  C   LIG d   1       4.500  -5.239  -6.599  0.00  0.00     0.044 A 
ATOM     20  C   LIG d   1       3.701  -5.377  -7.721  0.00  0.00    -0.043 A 
ATOM     21 CL   LIG d   1       4.763  -6.594  -5.548  0.00  0.00    -0.083 Cl
ATOM     22  C   LIG d   1       3.496  -4.299  -8.561  0.00  0.00    -0.060 A 
ATOM     23  H   LIG d   1       3.240  -6.329  -7.942  0.00  0.00     0.063 H 
ATOM     24  C   LIG d   1       4.086  -3.080  -8.278  0.00  0.00    -0.061 A 
ATOM     25  H   LIG d   1       2.876  -4.408  -9.438  0.00  0.00     0.062 H 
ATOM     26  C   LIG d   1       4.880  -2.940  -7.154  0.00  0.00    -0.057 A 
ATOM     27  H   LIG d   1       3.925  -2.238  -8.934  0.00  0.00     0.062 H 
ATOM     28  H   LIG d   1       5.339  -1.988  -6.933  0.00  0.00     0.062 H 
ENDBRANCH  15  18
ENDBRANCH   5  15
BRANCH  10  29
ATOM     29  O   LIG d   1       5.413   1.551  -2.141  0.00  0.00    -0.503 OA
ATOM     30  H   LIG d   1       4.464   1.428  -2.001  0.00  0.00     0.292 HD
ENDBRANCH  10  29
BRANCH   1  31
ATOM     31  O   LIG d   1       7.721   2.148  -3.494  0.00  0.00    -0.491 OA
BRANCH  31  32
ATOM     32  C   LIG d   1       8.470   2.661  -4.597  0.00  0.00     0.079 C 
ATOM     33  H   LIG d   1       8.605   3.736  -4.476  0.00  0.00     0.066 H 
ATOM     34  H   LIG d   1       9.445   2.175  -4.632  0.00  0.00     0.066 H 
ATOM     35  H   LIG d   1       7.932   2.464  -5.524  0.00  0.00     0.066 H 
ENDBRANCH  31  32
ENDBRANCH   1  31
TORSDOF 5
ENDMDL
MODEL 10
REMARK VINA RESULT:      -5.3      2.134      3.594
REMARK  5 active torsions:
REMARK  status: ('A' for Active; 'I' for Inactive)
REMARK    1  A    between atoms: C_1  and  O_2 
REMARK    2  A    between atoms: O_2  and  C_3 
REMARK    3  A    between atoms: C_7  and  C_14 
REMARK    4  A    between atoms: C_12  and  O_13 
REMARK    5  A    between atoms: C_14  and  C_15 
ROOT
ATOM      1  C   LIG d   1       3.080  -2.748  -9.960  0.00  0.00     0.162 A 
ATOM      2  C   LIG d   1       3.718  -1.584  -9.526  0.00  0.00    -0.016 A 
ATOM      3  C   LIG d   1       4.338  -1.531  -8.314  0.00  0.00    -0.050 A 
ATOM      4  C   LIG d   1       4.339  -2.660  -7.483  0.00  0.00    -0.008 A 
ATOM      5  C   LIG d   1       4.965  -2.659  -6.223  0.00  0.00    -0.017 A 
ATOM      6  C   LIG d   1       4.923  -3.794  -5.472  0.00  0.00     0.032 A 
ATOM      7  N   LIG d   1       4.314  -4.893  -5.897  0.00  0.00    -0.262 NA
ATOM      8  C   LIG d   1       3.711  -4.967  -7.060  0.00  0.00     0.039 A 
ATOM      9  C   LIG d   1       3.695  -3.851  -7.911  0.00  0.00     0.046 A 
ATOM     10  C   LIG d   1       3.057  -3.878  -9.165  0.00  0.00     0.168 A 
ATOM     11  H   LIG d   1       3.720  -0.711 -10.162  0.00  0.00     0.066 H 
ATOM     12  H   LIG d   1       4.827  -0.623  -7.995  0.00  0.00     0.062 H 
ATOM     13  H   LIG d   1       5.402  -3.801  -4.503  0.00  0.00     0.083 H 
ATOM     14  H   LIG d   1       3.228  -5.884  -7.363  0.00  0.00     0.084 H 
ENDROOT
BRANCH   5  15
ATOM     15  C   LIG d   1       5.665  -1.427  -5.713  0.00  0.00     0.001 C 
ATOM     16  H   LIG d   1       6.664  -1.693  -5.366  0.00  0.00     0.036 H 
ATOM     17  H   LIG d   1       5.744  -0.695  -6.517  0.00  0.00     0.036 H 
BRANCH  15  18
ATOM     18  C   LIG d   1       4.878  -0.836  -4.572  0.00  0.00    -0.025 A 
ATOM     19  C   LIG d   1       5.361  -0.929  -3.278  0.00  0.00     0.044 A 
ATOM     20  C   LIG d   1       4.639  -0.381  -2.231  0.00  0.00    -0.043 A 
ATOM     21 CL   LIG d   1       6.872  -1.723  -2.970  0.00  0.00    -0.083 Cl
ATOM     22  C   LIG d   1       3.433   0.246  -2.476  0.00  0.00    -0.060 A 
ATOM     23  H   LIG d   1       5.017  -0.448  -1.221  0.00  0.00     0.063 H 
ATOM     24  C   LIG d   1       2.949   0.333  -3.769  0.00  0.00    -0.061 A 
ATOM     25  H   LIG d   1       2.868   0.669  -1.659  0.00  0.00     0.062 H 
ATOM     26  C   LIG d   1       3.671  -0.208  -4.816  0.00  0.00    -0.057 A 
ATOM     27  H   LIG d   1       2.006   0.823  -3.960  0.00  0.00     0.062 H 
ATOM     28  H   LIG d   1       3.293  -0.140  -5.825  0.00  0.00     0.062 H 
ENDBRANCH  15  18
ENDBRANCH   5  15
BRANCH  10  29
ATOM     29  O   LIG d   1       2.429  -5.005  -9.592  0.00  0.00    -0.503 OA
ATOM     30  H   LIG d   1       1.572  -5.161  -9.172  0.00  0.00     0.292 HD
ENDBRANCH  10  29
BRANCH   1  31
ATOM     31  O   LIG d   1       2.470  -2.767 -11.175  0.00  0.00    -0.491 OA
BRANCH  31  32
ATOM     32  C   LIG d   1       1.452  -1.791 -11.405  0.00  0.00     0.079 C 
ATOM     33  H   LIG d   1       0.822  -1.707 -10.520  0.00  0.00     0.066 H 
ATOM     34  H   LIG d   1       1.914  -0.827 -11.615  0.00  0.00     0.066 H 
ATOM     35  H   LIG d   1       0.843  -2.096 -12.256  0.00  0.00     0.066 H 
ENDBRANCH  31  32
ENDBRANCH   1  31
TORSDOF 5
ENDMDL
