MODEL 1
REMARK VINA RESULT:      -7.7      0.000      0.000
REMARK  9 active torsions:
REMARK  status: ('A' for Active; 'I' for Inactive)
REMARK    1  A    between atoms: C_4  and  C_7 
REMARK    2  A    between atoms: C_7  and  C_8 
REMARK    3  A    between atoms: C_8  and  C_10 
REMARK    4  A    between atoms: C_8  and  N_29 
REMARK       I    between atoms: C_10  and  N_12 
REMARK    5  A    between atoms: C_15  and  C_18 
REMARK       I    between atoms: C_18  and  N_20 
REMARK    6  A    between atoms: N_20  and  C_21 
REMARK    7  A    between atoms: C_21  and  C_22 
REMARK       I    between atoms: C_22  and  N_24 
REMARK    8  A    between atoms: N_24  and  C_25 
REMARK    9  A    between atoms: C_25  and  C_26 
ROOT
ATOM      1  C   LIG d   1       3.243   0.434  -7.714  0.00  0.00     0.264 C 
ATOM      2  O   LIG d   1       2.965   1.613  -7.736  0.00  0.00    -0.269 OA
ATOM      3  N   LIG d   1       3.210  -0.288  -8.852  0.00  0.00    -0.297 N 
ATOM      4  C   LIG d   1       3.539  -1.719  -8.840  0.00  0.00     0.015 C 
ATOM      5  C   LIG d   1       2.388  -2.495  -9.490  0.00  0.00    -0.026 C 
ATOM      6  C   LIG d   1       2.115  -1.924 -10.884  0.00  0.00     0.038 C 
ATOM      7  C   LIG d   1       1.701  -0.455 -10.763  0.00  0.00    -0.026 C 
ATOM      8  C   LIG d   1       2.838   0.342 -10.126  0.00  0.00     0.015 C 
ATOM      9  H   LIG d   1       4.456  -1.888  -9.404  0.00  0.00     0.046 H 
ATOM     10  H   LIG d   1       3.671  -2.056  -7.813  0.00  0.00     0.046 H 
ATOM     11  H   LIG d   1       2.661  -3.546  -9.575  0.00  0.00     0.029 H 
ATOM     12  H   LIG d   1       1.493  -2.399  -8.876  0.00  0.00     0.029 H 
ATOM     13  H   LIG d   1       3.019  -1.997 -11.490  0.00  0.00     0.040 H 
ATOM     14  H   LIG d   1       1.485  -0.055 -11.753  0.00  0.00     0.029 H 
ATOM     15  H   LIG d   1       0.812  -0.379 -10.136  0.00  0.00     0.029 H 
ATOM     16  H   LIG d   1       2.509   1.365  -9.947  0.00  0.00     0.046 H 
ATOM     17  H   LIG d   1       3.697   0.346 -10.797  0.00  0.00     0.046 H 
ENDROOT
BRANCH   1  18
ATOM     18  C   LIG d   1       3.627  -0.227  -6.414  0.00  0.00     0.057 C 
ATOM     19  H   LIG d   1       3.468  -1.302  -6.492  0.00  0.00     0.095 H 
BRANCH  18  20
ATOM     20  C   LIG d   1       2.765   0.336  -5.282  0.00  0.00     0.024 C 
ATOM     21  H   LIG d   1       1.756  -0.071  -5.357  0.00  0.00     0.037 H 
ATOM     22  H   LIG d   1       2.725   1.422  -5.362  0.00  0.00     0.037 H 
BRANCH  20  23
ATOM     23  C   LIG d   1       3.366  -0.048  -3.955  0.00  0.00    -0.042 A 
ATOM     24  C   LIG d   1       3.862   0.928  -3.112  0.00  0.00    -0.058 A 
ATOM     25  C   LIG d   1       4.412   0.575  -1.894  0.00  0.00    -0.061 A 
ATOM     26  H   LIG d   1       3.820   1.966  -3.405  0.00  0.00     0.062 H 
ATOM     27  C   LIG d   1       4.466  -0.755  -1.519  0.00  0.00    -0.062 A 
ATOM     28  H   LIG d   1       4.801   1.337  -1.235  0.00  0.00     0.062 H 
ATOM     29  C   LIG d   1       3.968  -1.731  -2.362  0.00  0.00    -0.061 A 
ATOM     30  H   LIG d   1       4.899  -1.032  -0.570  0.00  0.00     0.062 H 
ATOM     31  C   LIG d   1       3.419  -1.379  -3.580  0.00  0.00    -0.058 A 
ATOM     32  H   LIG d   1       4.010  -2.770  -2.069  0.00  0.00     0.062 H 
ATOM     33  H   LIG d   1       3.031  -2.141  -4.239  0.00  0.00     0.062 H 
ENDBRANCH  20  23
ENDBRANCH  18  20
BRANCH  18  34
ATOM     34  N   LIG d   1       5.043   0.040  -6.130  0.00  0.00     0.228 N 
ATOM     35  H   LIG d   1       5.115   0.731  -5.399  0.00  0.00     0.200 HD
ATOM     36  H   LIG d   1       5.492  -0.812  -5.831  0.00  0.00     0.200 HD
ATOM     37  H   LIG d   1       5.495   0.384  -6.964  0.00  0.00     0.200 HD
ENDBRANCH  18  34
ENDBRANCH   1  18
BRANCH   6  38
ATOM     38  C   LIG d   1       1.007  -2.706 -11.538  0.00  0.00     0.217 C 
ATOM     39  O   LIG d   1       0.508  -2.305 -12.569  0.00  0.00    -0.276 OA
ATOM     40  N   LIG d   1       0.569  -3.851 -10.979  0.00  0.00    -0.306 N 
ATOM     41  H   LIG d   1       0.968  -4.172 -10.154  0.00  0.00     0.149 HD
BRANCH  40  42
ATOM     42  C   LIG d   1      -0.509  -4.613 -11.615  0.00  0.00     0.088 C 
ATOM     43  H   LIG d   1      -0.962  -4.011 -12.403  0.00  0.00     0.056 H 
ATOM     44  H   LIG d   1      -0.102  -5.527 -12.046  0.00  0.00     0.056 H 
BRANCH  42  45
ATOM     45  C   LIG d   1      -1.553  -4.962 -10.586  0.00  0.00     0.231 C 
ATOM     46  O   LIG d   1      -1.244  -5.598  -9.601  0.00  0.00    -0.274 OA
ATOM     47  N   LIG d   1      -2.829  -4.568 -10.761  0.00  0.00    -0.309 N 
ATOM     48  H   LIG d   1      -3.076  -4.059 -11.549  0.00  0.00     0.149 HD
BRANCH  47  49
ATOM     49  C   LIG d   1      -3.845  -4.908  -9.760  0.00  0.00     0.051 C 
ATOM     50  H   LIG d   1      -4.320  -5.851 -10.032  0.00  0.00     0.052 H 
ATOM     51  H   LIG d   1      -3.373  -5.007  -8.783  0.00  0.00     0.052 H 
BRANCH  49  52
ATOM     52  C   LIG d   1      -4.884  -3.817  -9.708  0.00  0.00     0.059 C 
ATOM     53  O   LIG d   1      -5.343  -3.464  -8.635  0.00  0.00    -0.548 OA
ATOM     54  O   LIG d   1      -5.263  -3.288 -10.739  0.00  0.00    -0.548 OA
ENDBRANCH  49  52
ENDBRANCH  47  49
ENDBRANCH  42  45
ENDBRANCH  40  42
ENDBRANCH   6  38
TORSDOF 9
ENDMDL
MODEL 2
REMARK VINA RESULT:      -7.6      6.855     11.357
REMARK  9 active torsions:
REMARK  status: ('A' for Active; 'I' for Inactive)
REMARK    1  A    between atoms: C_4  and  C_7 
REMARK    2  A    between atoms: C_7  and  C_8 
REMARK    3  A    between atoms: C_8  and  C_10 
REMARK    4  A    between atoms: C_8  and  N_29 
REMARK       I    between atoms: C_10  and  N_12 
REMARK    5  A    between atoms: C_15  and  C_18 
REMARK       I    between atoms: C_18  and  N_20 
REMARK    6  A    between atoms: N_20  and  C_21 
REMARK    7  A    between atoms: C_21  and  C_22 
REMARK       I    between atoms: C_22  and  N_24 
REMARK    8  A    between atoms: N_24  and  C_25 
REMARK    9  A    between atoms: C_25  and  C_26 
ROOT
ATOM      1  C   LIG d   1       6.249  -3.018  -5.353  0.00  0.00     0.264 C 
ATOM      2  O   LIG d   1       6.632  -4.156  -5.191  0.00  0.00    -0.269 OA
ATOM      3  N   LIG d   1       7.110  -2.070  -5.774  0.00  0.00    -0.297 N 
ATOM      4  C   LIG d   1       6.662  -0.685  -5.970  0.00  0.00     0.015 C 
ATOM      5  C   LIG d   1       7.578   0.247  -5.172  0.00  0.00    -0.026 C 
ATOM      6  C   LIG d   1       9.034  -0.005  -5.575  0.00  0.00     0.038 C 
ATOM      7  C   LIG d   1       9.411  -1.452  -5.247  0.00  0.00    -0.026 C 
ATOM      8  C   LIG d   1       8.516  -2.402  -6.040  0.00  0.00     0.015 C 
ATOM      9  H   LIG d   1       6.715  -0.430  -7.029  0.00  0.00     0.046 H 
ATOM     10  H   LIG d   1       5.637  -0.579  -5.617  0.00  0.00     0.046 H 
ATOM     11  H   LIG d   1       7.317   1.284  -5.385  0.00  0.00     0.029 H 
ATOM     12  H   LIG d   1       7.457   0.052  -4.107  0.00  0.00     0.029 H 
ATOM     13  H   LIG d   1       9.149   0.166  -6.645  0.00  0.00     0.040 H 
ATOM     14  H   LIG d   1      10.454  -1.625  -5.512  0.00  0.00     0.029 H 
ATOM     15  H   LIG d   1       9.272  -1.631  -4.180  0.00  0.00     0.029 H 
ATOM     16  H   LIG d   1       8.714  -3.429  -5.733  0.00  0.00     0.046 H 
ATOM     17  H   LIG d   1       8.724  -2.291  -7.104  0.00  0.00     0.046 H 
ENDROOT
BRANCH   1  18
ATOM     18  C   LIG d   1       4.809  -2.662  -5.085  0.00  0.00     0.057 C 
ATOM     19  H   LIG d   1       4.585  -1.694  -5.533  0.00  0.00     0.095 H 
BRANCH  18  20
ATOM     20  C   LIG d   1       4.573  -2.593  -3.575  0.00  0.00     0.024 C 
ATOM     21  H   LIG d   1       5.472  -2.922  -3.052  0.00  0.00     0.037 H 
ATOM     22  H   LIG d   1       3.739  -3.240  -3.308  0.00  0.00     0.037 H 
BRANCH  20  23
ATOM     23  C   LIG d   1       4.254  -1.173  -3.181  0.00  0.00    -0.042 A 
ATOM     24  C   LIG d   1       3.443  -0.398  -3.989  0.00  0.00    -0.058 A 
ATOM     25  C   LIG d   1       3.149   0.903  -3.627  0.00  0.00    -0.061 A 
ATOM     26  H   LIG d   1       3.040  -0.809  -4.902  0.00  0.00     0.062 H 
ATOM     27  C   LIG d   1       3.666   1.429  -2.457  0.00  0.00    -0.062 A 
ATOM     28  H   LIG d   1       2.517   1.509  -4.258  0.00  0.00     0.062 H 
ATOM     29  C   LIG d   1       4.476   0.653  -1.649  0.00  0.00    -0.061 A 
ATOM     30  H   LIG d   1       3.440   2.447  -2.177  0.00  0.00     0.062 H 
ATOM     31  C   LIG d   1       4.771  -0.648  -2.011  0.00  0.00    -0.058 A 
ATOM     32  H   LIG d   1       4.879   1.064  -0.735  0.00  0.00     0.062 H 
ATOM     33  H   LIG d   1       5.404  -1.254  -1.380  0.00  0.00     0.062 H 
ENDBRANCH  20  23
ENDBRANCH  18  20
BRANCH  18  34
ATOM     34  N   LIG d   1       3.934  -3.687  -5.671  0.00  0.00     0.228 N 
ATOM     35  H   LIG d   1       4.498  -4.390  -6.124  0.00  0.00     0.200 HD
ATOM     36  H   LIG d   1       3.385  -4.115  -4.942  0.00  0.00     0.200 HD
ATOM     37  H   LIG d   1       3.321  -3.259  -6.348  0.00  0.00     0.200 HD
ENDBRANCH  18  34
ENDBRANCH   1  18
BRANCH   6  38
ATOM     38  C   LIG d   1       9.934   0.933  -4.816  0.00  0.00     0.217 C 
ATOM     39  O   LIG d   1      11.100   1.044  -5.133  0.00  0.00    -0.276 OA
ATOM     40  N   LIG d   1       9.445   1.651  -3.785  0.00  0.00    -0.306 N 
ATOM     41  H   LIG d   1       8.512   1.562  -3.532  0.00  0.00     0.149 HD
BRANCH  40  42
ATOM     42  C   LIG d   1      10.321   2.564  -3.047  0.00  0.00     0.088 C 
ATOM     43  H   LIG d   1      10.293   2.316  -1.986  0.00  0.00     0.056 H 
ATOM     44  H   LIG d   1      11.342   2.466  -3.416  0.00  0.00     0.056 H 
BRANCH  42  45
ATOM     45  C   LIG d   1       9.849   3.981  -3.243  0.00  0.00     0.231 C 
ATOM     46  O   LIG d   1       9.204   4.275  -4.228  0.00  0.00    -0.274 OA
ATOM     47  N   LIG d   1      10.143   4.923  -2.326  0.00  0.00    -0.309 N 
ATOM     48  H   LIG d   1      10.659   4.689  -1.538  0.00  0.00     0.149 HD
BRANCH  47  49
ATOM     49  C   LIG d   1       9.684   6.302  -2.517  0.00  0.00     0.051 C 
ATOM     50  H   LIG d   1      10.417   6.849  -3.111  0.00  0.00     0.052 H 
ATOM     51  H   LIG d   1       8.726   6.297  -3.037  0.00  0.00     0.052 H 
BRANCH  49  52
ATOM     52  C   LIG d   1       9.524   6.969  -1.175  0.00  0.00     0.059 C 
ATOM     53  O   LIG d   1       8.698   7.853  -1.029  0.00  0.00    -0.548 OA
ATOM     54  O   LIG d   1      10.222   6.624  -0.237  0.00  0.00    -0.548 OA
ENDBRANCH  49  52
ENDBRANCH  47  49
ENDBRANCH  42  45
ENDBRANCH  40  42
ENDBRANCH   6  38
TORSDOF 9
ENDMDL
MODEL 3
REMARK VINA RESULT:      -7.6      1.145      1.607
REMARK  9 active torsions:
REMARK  status: ('A' for Active; 'I' for Inactive)
REMARK    1  A    between atoms: C_4  and  C_7 
REMARK    2  A    between atoms: C_7  and  C_8 
REMARK    3  A    between atoms: C_8  and  C_10 
REMARK    4  A    between atoms: C_8  and  N_29 
REMARK       I    between atoms: C_10  and  N_12 
REMARK    5  A    between atoms: C_15  and  C_18 
REMARK       I    between atoms: C_18  and  N_20 
REMARK    6  A    between atoms: N_20  and  C_21 
REMARK    7  A    between atoms: C_21  and  C_22 
REMARK       I    between atoms: C_22  and  N_24 
REMARK    8  A    between atoms: N_24  and  C_25 
REMARK    9  A    between atoms: C_25  and  C_26 
ROOT
ATOM      1  C   LIG d   1       3.148  -0.159  -7.818  0.00  0.00     0.264 C 
ATOM      2  O   LIG d   1       2.516   0.851  -8.036  0.00  0.00    -0.269 OA
ATOM      3  N   LIG d   1       3.277  -1.095  -8.780  0.00  0.00    -0.297 N 
ATOM      4  C   LIG d   1       4.036  -2.327  -8.529  0.00  0.00     0.015 C 
ATOM      5  C   LIG d   1       3.150  -3.530  -8.868  0.00  0.00    -0.026 C 
ATOM      6  C   LIG d   1       2.632  -3.391 -10.302  0.00  0.00     0.038 C 
ATOM      7  C   LIG d   1       1.788  -2.120 -10.420  0.00  0.00    -0.026 C 
ATOM      8  C   LIG d   1       2.655  -0.904 -10.097  0.00  0.00     0.015 C 
ATOM      9  H   LIG d   1       4.926  -2.342  -9.158  0.00  0.00     0.046 H 
ATOM     10  H   LIG d   1       4.326  -2.371  -7.480  0.00  0.00     0.046 H 
ATOM     11  H   LIG d   1       3.732  -4.447  -8.778  0.00  0.00     0.029 H 
ATOM     12  H   LIG d   1       2.306  -3.565  -8.178  0.00  0.00     0.029 H 
ATOM     13  H   LIG d   1       3.477  -3.331 -10.988  0.00  0.00     0.040 H 
ATOM     14  H   LIG d   1       1.401  -2.033 -11.435  0.00  0.00     0.029 H 
ATOM     15  H   LIG d   1       0.957  -2.169  -9.715  0.00  0.00     0.029 H 
ATOM     16  H   LIG d   1       2.033  -0.008 -10.082  0.00  0.00     0.046 H 
ATOM     17  H   LIG d   1       3.429  -0.799 -10.856  0.00  0.00     0.046 H 
ENDROOT
BRANCH   1  18
ATOM     18  C   LIG d   1       3.794  -0.370  -6.472  0.00  0.00     0.057 C 
ATOM     19  H   LIG d   1       3.923  -1.437  -6.294  0.00  0.00     0.095 H 
BRANCH  18  20
ATOM     20  C   LIG d   1       2.902   0.226  -5.380  0.00  0.00     0.024 C 
ATOM     21  H   LIG d   1       1.892  -0.175  -5.477  0.00  0.00     0.037 H 
ATOM     22  H   LIG d   1       2.874   1.311  -5.486  0.00  0.00     0.037 H 
BRANCH  20  23
ATOM     23  C   LIG d   1       3.458  -0.133  -4.027  0.00  0.00    -0.042 A 
ATOM     24  C   LIG d   1       3.580  -1.459  -3.659  0.00  0.00    -0.058 A 
ATOM     25  C   LIG d   1       4.092  -1.789  -2.418  0.00  0.00    -0.061 A 
ATOM     26  H   LIG d   1       3.277  -2.238  -4.342  0.00  0.00     0.062 H 
ATOM     27  C   LIG d   1       4.481  -0.790  -1.544  0.00  0.00    -0.062 A 
ATOM     28  H   LIG d   1       4.187  -2.825  -2.130  0.00  0.00     0.062 H 
ATOM     29  C   LIG d   1       4.360   0.537  -1.912  0.00  0.00    -0.061 A 
ATOM     30  H   LIG d   1       4.877  -1.047  -0.573  0.00  0.00     0.062 H 
ATOM     31  C   LIG d   1       3.847   0.866  -3.153  0.00  0.00    -0.058 A 
ATOM     32  H   LIG d   1       4.664   1.317  -1.229  0.00  0.00     0.062 H 
ATOM     33  H   LIG d   1       3.752   1.903  -3.440  0.00  0.00     0.062 H 
ENDBRANCH  20  23
ENDBRANCH  18  20
BRANCH  18  34
ATOM     34  N   LIG d   1       5.105   0.293  -6.449  0.00  0.00     0.228 N 
ATOM     35  H   LIG d   1       5.213   0.795  -5.581  0.00  0.00     0.200 HD
ATOM     36  H   LIG d   1       5.833  -0.400  -6.529  0.00  0.00     0.200 HD
ATOM     37  H   LIG d   1       5.169   0.939  -7.221  0.00  0.00     0.200 HD
ENDBRANCH  18  34
ENDBRANCH   1  18
BRANCH   6  38
ATOM     38  C   LIG d   1       1.788  -4.589 -10.648  0.00  0.00     0.217 C 
ATOM     39  O   LIG d   1       2.207  -5.423 -11.422  0.00  0.00    -0.276 OA
ATOM     40  N   LIG d   1       0.565  -4.734 -10.099  0.00  0.00    -0.306 N 
ATOM     41  H   LIG d   1       0.230  -4.066  -9.479  0.00  0.00     0.149 HD
BRANCH  40  42
ATOM     42  C   LIG d   1      -0.256  -5.899 -10.436  0.00  0.00     0.088 C 
ATOM     43  H   LIG d   1      -0.475  -5.892 -11.503  0.00  0.00     0.056 H 
ATOM     44  H   LIG d   1       0.284  -6.810 -10.181  0.00  0.00     0.056 H 
BRANCH  42  45
ATOM     45  C   LIG d   1      -1.546  -5.846  -9.659  0.00  0.00     0.231 C 
ATOM     46  O   LIG d   1      -1.600  -6.311  -8.540  0.00  0.00    -0.274 OA
ATOM     47  N   LIG d   1      -2.640  -5.281 -10.207  0.00  0.00    -0.309 N 
ATOM     48  H   LIG d   1      -2.597  -4.909 -11.102  0.00  0.00     0.149 HD
BRANCH  47  49
ATOM     49  C   LIG d   1      -3.895  -5.230  -9.452  0.00  0.00     0.051 C 
ATOM     50  H   LIG d   1      -4.489  -6.117  -9.673  0.00  0.00     0.052 H 
ATOM     51  H   LIG d   1      -3.675  -5.197  -8.385  0.00  0.00     0.052 H 
BRANCH  49  52
ATOM     52  C   LIG d   1      -4.667  -3.997  -9.844  0.00  0.00     0.059 C 
ATOM     53  O   LIG d   1      -4.614  -3.583 -10.989  0.00  0.00    -0.548 OA
ATOM     54  O   LIG d   1      -5.345  -3.413  -9.015  0.00  0.00    -0.548 OA
ENDBRANCH  49  52
ENDBRANCH  47  49
ENDBRANCH  42  45
ENDBRANCH  40  42
ENDBRANCH   6  38
TORSDOF 9
ENDMDL
MODEL 4
REMARK VINA RESULT:      -7.4      1.328      1.734
REMARK  9 active torsions:
REMARK  status: ('A' for Active; 'I' for Inactive)
REMARK    1  A    between atoms: C_4  and  C_7 
REMARK    2  A    between atoms: C_7  and  C_8 
REMARK    3  A    between atoms: C_8  and  C_10 
REMARK    4  A    between atoms: C_8  and  N_29 
REMARK       I    between atoms: C_10  and  N_12 
REMARK    5  A    between atoms: C_15  and  C_18 
REMARK       I    between atoms: C_18  and  N_20 
REMARK    6  A    between atoms: N_20  and  C_21 
REMARK    7  A    between atoms: C_21  and  C_22 
REMARK       I    between atoms: C_22  and  N_24 
REMARK    8  A    between atoms: N_24  and  C_25 
REMARK    9  A    between atoms: C_25  and  C_26 
ROOT
ATOM      1  C   LIG d   1       3.265   0.451  -7.728  0.00  0.00     0.264 C 
ATOM      2  O   LIG d   1       2.850   1.589  -7.758  0.00  0.00    -0.269 OA
ATOM      3  N   LIG d   1       3.395  -0.250  -8.872  0.00  0.00    -0.297 N 
ATOM      4  C   LIG d   1       3.892  -1.633  -8.851  0.00  0.00     0.015 C 
ATOM      5  C   LIG d   1       2.889  -2.528  -9.585  0.00  0.00    -0.026 C 
ATOM      6  C   LIG d   1       2.642  -1.970 -10.989  0.00  0.00     0.038 C 
ATOM      7  C   LIG d   1       2.048  -0.563 -10.883  0.00  0.00    -0.026 C 
ATOM      8  C   LIG d   1       3.036   0.352 -10.163  0.00  0.00     0.015 C 
ATOM      9  H   LIG d   1       4.858  -1.681  -9.353  0.00  0.00     0.046 H 
ATOM     10  H   LIG d   1       3.996  -1.968  -7.820  0.00  0.00     0.046 H 
ATOM     11  H   LIG d   1       3.291  -3.538  -9.661  0.00  0.00     0.029 H 
ATOM     12  H   LIG d   1       1.949  -2.551  -9.032  0.00  0.00     0.029 H 
ATOM     13  H   LIG d   1       3.586  -1.925 -11.532  0.00  0.00     0.040 H 
ATOM     14  H   LIG d   1       1.851  -0.175 -11.881  0.00  0.00     0.029 H 
ATOM     15  H   LIG d   1       1.116  -0.605 -10.317  0.00  0.00     0.029 H 
ATOM     16  H   LIG d   1       2.575   1.326  -9.997  0.00  0.00     0.046 H 
ATOM     17  H   LIG d   1       3.931   0.470 -10.774  0.00  0.00     0.046 H 
ENDROOT
BRANCH   1  18
ATOM     18  C   LIG d   1       3.639  -0.182  -6.411  0.00  0.00     0.057 C 
ATOM     19  H   LIG d   1       3.505  -1.261  -6.476  0.00  0.00     0.095 H 
BRANCH  18  20
ATOM     20  C   LIG d   1       2.744   0.379  -5.304  0.00  0.00     0.024 C 
ATOM     21  H   LIG d   1       1.750  -0.062  -5.383  0.00  0.00     0.037 H 
ATOM     22  H   LIG d   1       2.671   1.462  -5.410  0.00  0.00     0.037 H 
BRANCH  20  23
ATOM     23  C   LIG d   1       3.338   0.045  -3.961  0.00  0.00    -0.042 A 
ATOM     24  C   LIG d   1       3.431  -1.273  -3.554  0.00  0.00    -0.058 A 
ATOM     25  C   LIG d   1       3.977  -1.581  -2.323  0.00  0.00    -0.061 A 
ATOM     26  H   LIG d   1       3.077  -2.063  -4.200  0.00  0.00     0.062 H 
ATOM     27  C   LIG d   1       4.431  -0.569  -1.496  0.00  0.00    -0.062 A 
ATOM     28  H   LIG d   1       4.049  -2.610  -2.005  0.00  0.00     0.062 H 
ATOM     29  C   LIG d   1       4.339   0.749  -1.903  0.00  0.00    -0.061 A 
ATOM     30  H   LIG d   1       4.854  -0.808  -0.532  0.00  0.00     0.062 H 
ATOM     31  C   LIG d   1       3.792   1.056  -3.134  0.00  0.00    -0.058 A 
ATOM     32  H   LIG d   1       4.694   1.539  -1.258  0.00  0.00     0.062 H 
ATOM     33  H   LIG d   1       3.720   2.086  -3.452  0.00  0.00     0.062 H 
ENDBRANCH  20  23
ENDBRANCH  18  20
BRANCH  18  34
ATOM     34  N   LIG d   1       5.044   0.120  -6.105  0.00  0.00     0.228 N 
ATOM     35  H   LIG d   1       5.175   0.130  -5.105  0.00  0.00     0.200 HD
ATOM     36  H   LIG d   1       5.636  -0.587  -6.514  0.00  0.00     0.200 HD
ATOM     37  H   LIG d   1       5.285   1.022  -6.486  0.00  0.00     0.200 HD
ENDBRANCH  18  34
ENDBRANCH   1  18
BRANCH   6  38
ATOM     38  C   LIG d   1       1.682  -2.867 -11.724  0.00  0.00     0.217 C 
ATOM     39  O   LIG d   1       2.103  -3.722 -12.474  0.00  0.00    -0.276 OA
ATOM     40  N   LIG d   1       0.353  -2.720 -11.549  0.00  0.00    -0.306 N 
ATOM     41  H   LIG d   1       0.016  -2.036 -10.948  0.00  0.00     0.149 HD
BRANCH  40  42
ATOM     42  C   LIG d   1      -0.581  -3.593 -12.264  0.00  0.00     0.088 C 
ATOM     43  H   LIG d   1      -1.517  -3.061 -12.433  0.00  0.00     0.056 H 
ATOM     44  H   LIG d   1      -0.149  -3.881 -13.222  0.00  0.00     0.056 H 
BRANCH  42  45
ATOM     45  C   LIG d   1      -0.847  -4.826 -11.441  0.00  0.00     0.231 C 
ATOM     46  O   LIG d   1      -0.726  -5.926 -11.940  0.00  0.00    -0.274 OA
ATOM     47  N   LIG d   1      -1.218  -4.709 -10.151  0.00  0.00    -0.309 N 
ATOM     48  H   LIG d   1      -1.315  -3.830  -9.752  0.00  0.00     0.149 HD
BRANCH  47  49
ATOM     49  C   LIG d   1      -1.477  -5.910  -9.350  0.00  0.00     0.051 C 
ATOM     50  H   LIG d   1      -0.928  -6.752  -9.772  0.00  0.00     0.052 H 
ATOM     51  H   LIG d   1      -1.150  -5.739  -8.325  0.00  0.00     0.052 H 
BRANCH  49  52
ATOM     52  C   LIG d   1      -2.953  -6.214  -9.363  0.00  0.00     0.059 C 
ATOM     53  O   LIG d   1      -3.713  -5.572  -8.659  0.00  0.00    -0.548 OA
ATOM     54  O   LIG d   1      -3.385  -7.101 -10.079  0.00  0.00    -0.548 OA
ENDBRANCH  49  52
ENDBRANCH  47  49
ENDBRANCH  42  45
ENDBRANCH  40  42
ENDBRANCH   6  38
TORSDOF 9
ENDMDL
MODEL 5
REMARK VINA RESULT:      -7.2      6.830     11.391
REMARK  9 active torsions:
REMARK  status: ('A' for Active; 'I' for Inactive)
REMARK    1  A    between atoms: C_4  and  C_7 
REMARK    2  A    between atoms: C_7  and  C_8 
REMARK    3  A    between atoms: C_8  and  C_10 
REMARK    4  A    between atoms: C_8  and  N_29 
REMARK       I    between atoms: C_10  and  N_12 
REMARK    5  A    between atoms: C_15  and  C_18 
REMARK       I    between atoms: C_18  and  N_20 
REMARK    6  A    between atoms: N_20  and  C_21 
REMARK    7  A    between atoms: C_21  and  C_22 
REMARK       I    between atoms: C_22  and  N_24 
REMARK    8  A    between atoms: N_24  and  C_25 
REMARK    9  A    between atoms: C_25  and  C_26 
ROOT
ATOM      1  C   LIG d   1       6.180  -2.963  -5.240  0.00  0.00     0.264 C 
ATOM      2  O   LIG d   1       6.752  -4.022  -5.104  0.00  0.00    -0.269 OA
ATOM      3  N   LIG d   1       6.886  -1.844  -5.502  0.00  0.00    -0.297 N 
ATOM      4  C   LIG d   1       6.207  -0.552  -5.665  0.00  0.00     0.015 C 
ATOM      5  C   LIG d   1       6.846   0.464  -4.712  0.00  0.00    -0.026 C 
ATOM      6  C   LIG d   1       8.356   0.511  -4.959  0.00  0.00     0.038 C 
ATOM      7  C   LIG d   1       8.964  -0.865  -4.678  0.00  0.00    -0.026 C 
ATOM      8  C   LIG d   1       8.349  -1.895  -5.624  0.00  0.00     0.015 C 
ATOM      9  H   LIG d   1       6.319  -0.207  -6.693  0.00  0.00     0.046 H 
ATOM     10  H   LIG d   1       5.150  -0.661  -5.426  0.00  0.00     0.046 H 
ATOM     11  H   LIG d   1       6.418   1.450  -4.891  0.00  0.00     0.029 H 
ATOM     12  H   LIG d   1       6.655   0.165  -3.681  0.00  0.00     0.029 H 
ATOM     13  H   LIG d   1       8.545   0.785  -5.997  0.00  0.00     0.040 H 
ATOM     14  H   LIG d   1      10.042  -0.826  -4.832  0.00  0.00     0.029 H 
ATOM     15  H   LIG d   1       8.753  -1.151  -3.647  0.00  0.00     0.029 H 
ATOM     16  H   LIG d   1       8.705  -2.890  -5.359  0.00  0.00     0.046 H 
ATOM     17  H   LIG d   1       8.639  -1.663  -6.649  0.00  0.00     0.046 H 
ENDROOT
BRANCH   1  18
ATOM     18  C   LIG d   1       4.679  -2.895  -5.119  0.00  0.00     0.057 C 
ATOM     19  H   LIG d   1       4.318  -1.979  -5.586  0.00  0.00     0.095 H 
BRANCH  18  20
ATOM     20  C   LIG d   1       4.287  -2.903  -3.640  0.00  0.00     0.024 C 
ATOM     21  H   LIG d   1       5.085  -3.361  -3.055  0.00  0.00     0.037 H 
ATOM     22  H   LIG d   1       3.367  -3.473  -3.511  0.00  0.00     0.037 H 
BRANCH  20  23
ATOM     23  C   LIG d   1       4.069  -1.487  -3.171  0.00  0.00    -0.042 A 
ATOM     24  C   LIG d   1       3.192  -0.661  -3.848  0.00  0.00    -0.058 A 
ATOM     25  C   LIG d   1       2.991   0.636  -3.417  0.00  0.00    -0.061 A 
ATOM     26  H   LIG d   1       2.662  -1.031  -4.713  0.00  0.00     0.062 H 
ATOM     27  C   LIG d   1       3.669   1.109  -2.308  0.00  0.00    -0.062 A 
ATOM     28  H   LIG d   1       2.306   1.281  -3.946  0.00  0.00     0.062 H 
ATOM     29  C   LIG d   1       4.546   0.283  -1.630  0.00  0.00    -0.061 A 
ATOM     30  H   LIG d   1       3.516   2.124  -1.974  0.00  0.00     0.062 H 
ATOM     31  C   LIG d   1       4.747  -1.015  -2.062  0.00  0.00    -0.058 A 
ATOM     32  H   LIG d   1       5.075   0.651  -0.764  0.00  0.00     0.062 H 
ATOM     33  H   LIG d   1       5.433  -1.660  -1.532  0.00  0.00     0.062 H 
ENDBRANCH  20  23
ENDBRANCH  18  20
BRANCH  18  34
ATOM     34  N   LIG d   1       4.081  -4.056  -5.791  0.00  0.00     0.228 N 
ATOM     35  H   LIG d   1       3.097  -4.101  -5.573  0.00  0.00     0.200 HD
ATOM     36  H   LIG d   1       4.200  -3.966  -6.788  0.00  0.00     0.200 HD
ATOM     37  H   LIG d   1       4.535  -4.899  -5.473  0.00  0.00     0.200 HD
ENDBRANCH  18  34
ENDBRANCH   1  18
BRANCH   6  38
ATOM     38  C   LIG d   1       8.982   1.533  -4.048  0.00  0.00     0.217 C 
ATOM     39  O   LIG d   1       8.279   2.273  -3.392  0.00  0.00    -0.276 OA
ATOM     40  N   LIG d   1      10.324   1.626  -3.960  0.00  0.00    -0.306 N 
ATOM     41  H   LIG d   1      10.886   1.034  -4.485  0.00  0.00     0.149 HD
BRANCH  40  42
ATOM     42  C   LIG d   1      10.934   2.620  -3.073  0.00  0.00     0.088 C 
ATOM     43  H   LIG d   1      10.508   2.525  -2.075  0.00  0.00     0.056 H 
ATOM     44  H   LIG d   1      12.010   2.454  -3.026  0.00  0.00     0.056 H 
BRANCH  42  45
ATOM     45  C   LIG d   1      10.661   4.003  -3.605  0.00  0.00     0.231 C 
ATOM     46  O   LIG d   1      11.169   4.363  -4.647  0.00  0.00    -0.274 OA
ATOM     47  N   LIG d   1       9.855   4.840  -2.925  0.00  0.00    -0.309 N 
ATOM     48  H   LIG d   1       9.450   4.553  -2.092  0.00  0.00     0.149 HD
BRANCH  47  49
ATOM     49  C   LIG d   1       9.590   6.186  -3.442  0.00  0.00     0.051 C 
ATOM     50  H   LIG d   1      10.286   6.407  -4.252  0.00  0.00     0.052 H 
ATOM     51  H   LIG d   1       8.568   6.236  -3.817  0.00  0.00     0.052 H 
BRANCH  49  52
ATOM     52  C   LIG d   1       9.769   7.194  -2.336  0.00  0.00     0.059 C 
ATOM     53  O   LIG d   1      10.577   8.098  -2.460  0.00  0.00    -0.548 OA
ATOM     54  O   LIG d   1       9.104   7.104  -1.318  0.00  0.00    -0.548 OA
ENDBRANCH  49  52
ENDBRANCH  47  49
ENDBRANCH  42  45
ENDBRANCH  40  42
ENDBRANCH   6  38
TORSDOF 9
ENDMDL
MODEL 6
REMARK VINA RESULT:      -7.2      1.921      3.302
REMARK  9 active torsions:
REMARK  status: ('A' for Active; 'I' for Inactive)
REMARK    1  A    between atoms: C_4  and  C_7 
REMARK    2  A    between atoms: C_7  and  C_8 
REMARK    3  A    between atoms: C_8  and  C_10 
REMARK    4  A    between atoms: C_8  and  N_29 
REMARK       I    between atoms: C_10  and  N_12 
REMARK    5  A    between atoms: C_15  and  C_18 
REMARK       I    between atoms: C_18  and  N_20 
REMARK    6  A    between atoms: N_20  and  C_21 
REMARK    7  A    between atoms: C_21  and  C_22 
REMARK       I    between atoms: C_22  and  N_24 
REMARK    8  A    between atoms: N_24  and  C_25 
REMARK    9  A    between atoms: C_25  and  C_26 
ROOT
ATOM      1  C   LIG d   1       3.207   0.361  -7.676  0.00  0.00     0.264 C 
ATOM      2  O   LIG d   1       2.811   1.505  -7.743  0.00  0.00    -0.269 OA
ATOM      3  N   LIG d   1       3.159  -0.434  -8.764  0.00  0.00    -0.297 N 
ATOM      4  C   LIG d   1       3.630  -1.823  -8.698  0.00  0.00     0.015 C 
ATOM      5  C   LIG d   1       2.516  -2.746  -9.203  0.00  0.00    -0.026 C 
ATOM      6  C   LIG d   1       2.080  -2.296 -10.600  0.00  0.00     0.038 C 
ATOM      7  C   LIG d   1       1.531  -0.869 -10.529  0.00  0.00    -0.026 C 
ATOM      8  C   LIG d   1       2.628   0.073 -10.037  0.00  0.00     0.015 C 
ATOM      9  H   LIG d   1       4.513  -1.940  -9.326  0.00  0.00     0.046 H 
ATOM     10  H   LIG d   1       3.875  -2.078  -7.667  0.00  0.00     0.046 H 
ATOM     11  H   LIG d   1       2.886  -3.770  -9.250  0.00  0.00     0.029 H 
ATOM     12  H   LIG d   1       1.666  -2.697  -8.523  0.00  0.00     0.029 H 
ATOM     13  H   LIG d   1       2.936  -2.322 -11.274  0.00  0.00     0.040 H 
ATOM     14  H   LIG d   1       1.199  -0.557 -11.519  0.00  0.00     0.029 H 
ATOM     15  H   LIG d   1       0.690  -0.838  -9.836  0.00  0.00     0.029 H 
ATOM     16  H   LIG d   1       2.212   1.070  -9.890  0.00  0.00     0.046 H 
ATOM     17  H   LIG d   1       3.428   0.115 -10.776  0.00  0.00     0.046 H 
ENDROOT
BRANCH   1  18
ATOM     18  C   LIG d   1       3.755  -0.173  -6.377  0.00  0.00     0.057 C 
ATOM     19  H   LIG d   1       3.709  -1.262  -6.384  0.00  0.00     0.095 H 
BRANCH  18  20
ATOM     20  C   LIG d   1       2.923   0.367  -5.212  0.00  0.00     0.024 C 
ATOM     21  H   LIG d   1       1.892   0.027  -5.314  0.00  0.00     0.037 H 
ATOM     22  H   LIG d   1       2.950   1.456  -5.221  0.00  0.00     0.037 H 
BRANCH  20  23
ATOM     23  C   LIG d   1       3.493  -0.139  -3.912  0.00  0.00    -0.042 A 
ATOM     24  C   LIG d   1       4.001   0.753  -2.986  0.00  0.00    -0.058 A 
ATOM     25  C   LIG d   1       4.522   0.289  -1.793  0.00  0.00    -0.061 A 
ATOM     26  H   LIG d   1       3.989   1.812  -3.195  0.00  0.00     0.062 H 
ATOM     27  C   LIG d   1       4.535  -1.068  -1.526  0.00  0.00    -0.062 A 
ATOM     28  H   LIG d   1       4.919   0.985  -1.070  0.00  0.00     0.062 H 
ATOM     29  C   LIG d   1       4.026  -1.959  -2.451  0.00  0.00    -0.061 A 
ATOM     30  H   LIG d   1       4.946  -1.431  -0.596  0.00  0.00     0.062 H 
ATOM     31  C   LIG d   1       3.506  -1.496  -3.645  0.00  0.00    -0.058 A 
ATOM     32  H   LIG d   1       4.036  -3.019  -2.242  0.00  0.00     0.062 H 
ATOM     33  H   LIG d   1       3.108  -2.193  -4.368  0.00  0.00     0.062 H 
ENDBRANCH  20  23
ENDBRANCH  18  20
BRANCH  18  34
ATOM     34  N   LIG d   1       5.152   0.257  -6.222  0.00  0.00     0.228 N 
ATOM     35  H   LIG d   1       5.479   0.654  -7.090  0.00  0.00     0.200 HD
ATOM     36  H   LIG d   1       5.210   0.951  -5.493  0.00  0.00     0.200 HD
ATOM     37  H   LIG d   1       5.723  -0.538  -5.978  0.00  0.00     0.200 HD
ENDBRANCH  18  34
ENDBRANCH   1  18
BRANCH   6  38
ATOM     38  C   LIG d   1       1.009  -3.222 -11.113  0.00  0.00     0.217 C 
ATOM     39  O   LIG d   1       0.896  -3.418 -12.305  0.00  0.00    -0.276 OA
ATOM     40  N   LIG d   1       0.174  -3.833 -10.248  0.00  0.00    -0.306 N 
ATOM     41  H   LIG d   1       0.265  -3.676  -9.295  0.00  0.00     0.149 HD
BRANCH  40  42
ATOM     42  C   LIG d   1      -0.868  -4.733 -10.747  0.00  0.00     0.088 C 
ATOM     43  H   LIG d   1      -1.835  -4.421 -10.355  0.00  0.00     0.056 H 
ATOM     44  H   LIG d   1      -0.889  -4.697 -11.836  0.00  0.00     0.056 H 
BRANCH  42  45
ATOM     45  C   LIG d   1      -0.573  -6.141 -10.297  0.00  0.00     0.231 C 
ATOM     46  O   LIG d   1      -1.079  -6.570  -9.281  0.00  0.00    -0.274 OA
ATOM     47  N   LIG d   1       0.251  -6.922 -11.022  0.00  0.00    -0.309 N 
ATOM     48  H   LIG d   1       0.655  -6.578 -11.834  0.00  0.00     0.149 HD
BRANCH  47  49
ATOM     49  C   LIG d   1       0.538  -8.291 -10.583  0.00  0.00     0.051 C 
ATOM     50  H   LIG d   1      -0.103  -8.543  -9.737  0.00  0.00     0.052 H 
ATOM     51  H   LIG d   1       0.345  -8.982 -11.404  0.00  0.00     0.052 H 
BRANCH  49  52
ATOM     52  C   LIG d   1       1.983  -8.394 -10.169  0.00  0.00     0.059 C 
ATOM     53  O   LIG d   1       2.692  -9.265 -10.642  0.00  0.00    -0.548 OA
ATOM     54  O   LIG d   1       2.442  -7.604  -9.361  0.00  0.00    -0.548 OA
ENDBRANCH  49  52
ENDBRANCH  47  49
ENDBRANCH  42  45
ENDBRANCH  40  42
ENDBRANCH   6  38
TORSDOF 9
ENDMDL
MODEL 7
REMARK VINA RESULT:      -7.1      5.961      7.112
REMARK  9 active torsions:
REMARK  status: ('A' for Active; 'I' for Inactive)
REMARK    1  A    between atoms: C_4  and  C_7 
REMARK    2  A    between atoms: C_7  and  C_8 
REMARK    3  A    between atoms: C_8  and  C_10 
REMARK    4  A    between atoms: C_8  and  N_29 
REMARK       I    between atoms: C_10  and  N_12 
REMARK    5  A    between atoms: C_15  and  C_18 
REMARK       I    between atoms: C_18  and  N_20 
REMARK    6  A    between atoms: N_20  and  C_21 
REMARK    7  A    between atoms: C_21  and  C_22 
REMARK       I    between atoms: C_22  and  N_24 
REMARK    8  A    between atoms: N_24  and  C_25 
REMARK    9  A    between atoms: C_25  and  C_26 
ROOT
ATOM      1  C   LIG d   1       7.161   0.127  -5.224  0.00  0.00     0.264 C 
ATOM      2  O   LIG d   1       6.926   0.986  -6.047  0.00  0.00    -0.269 OA
ATOM      3  N   LIG d   1       7.217  -1.167  -5.597  0.00  0.00    -0.297 N 
ATOM      4  C   LIG d   1       7.495  -2.219  -4.611  0.00  0.00     0.015 C 
ATOM      5  C   LIG d   1       6.390  -3.277  -4.694  0.00  0.00    -0.026 C 
ATOM      6  C   LIG d   1       6.276  -3.780  -6.135  0.00  0.00     0.038 C 
ATOM      7  C   LIG d   1       5.901  -2.616  -7.055  0.00  0.00    -0.026 C 
ATOM      8  C   LIG d   1       6.995  -1.552  -6.998  0.00  0.00     0.015 C 
ATOM      9  H   LIG d   1       8.458  -2.681  -4.831  0.00  0.00     0.046 H 
ATOM     10  H   LIG d   1       7.513  -1.787  -3.611  0.00  0.00     0.046 H 
ATOM     11  H   LIG d   1       6.634  -4.110  -4.036  0.00  0.00     0.029 H 
ATOM     12  H   LIG d   1       5.441  -2.836  -4.386  0.00  0.00     0.029 H 
ATOM     13  H   LIG d   1       7.232  -4.198  -6.450  0.00  0.00     0.040 H 
ATOM     14  H   LIG d   1       5.798  -2.979  -8.077  0.00  0.00     0.029 H 
ATOM     15  H   LIG d   1       4.957  -2.182  -6.725  0.00  0.00     0.029 H 
ATOM     16  H   LIG d   1       6.684  -0.679  -7.573  0.00  0.00     0.046 H 
ATOM     17  H   LIG d   1       7.917  -1.957  -7.417  0.00  0.00     0.046 H 
ENDROOT
BRANCH   1  18
ATOM     18  C   LIG d   1       7.391   0.506  -3.784  0.00  0.00     0.057 C 
ATOM     19  H   LIG d   1       7.539  -0.396  -3.190  0.00  0.00     0.095 H 
BRANCH  18  20
ATOM     20  C   LIG d   1       6.175   1.271  -3.257  0.00  0.00     0.024 C 
ATOM     21  H   LIG d   1       5.897   2.047  -3.970  0.00  0.00     0.037 H 
ATOM     22  H   LIG d   1       6.420   1.728  -2.299  0.00  0.00     0.037 H 
BRANCH  20  23
ATOM     23  C   LIG d   1       5.022   0.317  -3.077  0.00  0.00    -0.042 A 
ATOM     24  C   LIG d   1       3.822   0.552  -3.722  0.00  0.00    -0.058 A 
ATOM     25  C   LIG d   1       2.766  -0.324  -3.558  0.00  0.00    -0.061 A 
ATOM     26  H   LIG d   1       3.711   1.420  -4.354  0.00  0.00     0.062 H 
ATOM     27  C   LIG d   1       2.909  -1.436  -2.749  0.00  0.00    -0.062 A 
ATOM     28  H   LIG d   1       1.829  -0.140  -4.061  0.00  0.00     0.062 H 
ATOM     29  C   LIG d   1       4.109  -1.672  -2.105  0.00  0.00    -0.061 A 
ATOM     30  H   LIG d   1       2.083  -2.118  -2.617  0.00  0.00     0.062 H 
ATOM     31  C   LIG d   1       5.165  -0.796  -2.268  0.00  0.00    -0.058 A 
ATOM     32  H   LIG d   1       4.221  -2.541  -1.473  0.00  0.00     0.062 H 
ATOM     33  H   LIG d   1       6.103  -0.980  -1.764  0.00  0.00     0.062 H 
ENDBRANCH  20  23
ENDBRANCH  18  20
BRANCH  18  34
ATOM     34  N   LIG d   1       8.584   1.357  -3.687  0.00  0.00     0.228 N 
ATOM     35  H   LIG d   1       8.399   2.247  -4.125  0.00  0.00     0.200 HD
ATOM     36  H   LIG d   1       8.815   1.504  -2.716  0.00  0.00     0.200 HD
ATOM     37  H   LIG d   1       9.358   0.907  -4.152  0.00  0.00     0.200 HD
ENDBRANCH  18  34
ENDBRANCH   1  18
BRANCH   6  38
ATOM     38  C   LIG d   1       5.213  -4.844  -6.212  0.00  0.00     0.217 C 
ATOM     39  O   LIG d   1       4.194  -4.732  -5.564  0.00  0.00    -0.276 OA
ATOM     40  N   LIG d   1       5.394  -5.922  -7.001  0.00  0.00    -0.306 N 
ATOM     41  H   LIG d   1       6.210  -6.012  -7.520  0.00  0.00     0.149 HD
BRANCH  40  42
ATOM     42  C   LIG d   1       4.361  -6.957  -7.077  0.00  0.00     0.088 C 
ATOM     43  H   LIG d   1       3.450  -6.596  -6.601  0.00  0.00     0.056 H 
ATOM     44  H   LIG d   1       4.156  -7.191  -8.122  0.00  0.00     0.056 H 
BRANCH  42  45
ATOM     45  C   LIG d   1       4.839  -8.198  -6.369  0.00  0.00     0.231 C 
ATOM     46  O   LIG d   1       5.157  -9.178  -7.010  0.00  0.00    -0.274 OA
ATOM     47  N   LIG d   1       4.914  -8.220  -5.024  0.00  0.00    -0.309 N 
ATOM     48  H   LIG d   1       4.660  -7.436  -4.511  0.00  0.00     0.149 HD
BRANCH  47  49
ATOM     49  C   LIG d   1       5.379  -9.427  -4.335  0.00  0.00     0.051 C 
ATOM     50  H   LIG d   1       5.841 -10.102  -5.056  0.00  0.00     0.052 H 
ATOM     51  H   LIG d   1       6.110  -9.152  -3.574  0.00  0.00     0.052 H 
BRANCH  49  52
ATOM     52  C   LIG d   1       4.208 -10.114  -3.680  0.00  0.00     0.059 C 
ATOM     53  O   LIG d   1       4.273 -11.300  -3.406  0.00  0.00    -0.548 OA
ATOM     54  O   LIG d   1       3.197  -9.483  -3.424  0.00  0.00    -0.548 OA
ENDBRANCH  49  52
ENDBRANCH  47  49
ENDBRANCH  42  45
ENDBRANCH  40  42
ENDBRANCH   6  38
TORSDOF 9
ENDMDL
MODEL 8
REMARK VINA RESULT:      -7.0      2.487      3.125
REMARK  9 active torsions:
REMARK  status: ('A' for Active; 'I' for Inactive)
REMARK    1  A    between atoms: C_4  and  C_7 
REMARK    2  A    between atoms: C_7  and  C_8 
REMARK    3  A    between atoms: C_8  and  C_10 
REMARK    4  A    between atoms: C_8  and  N_29 
REMARK       I    between atoms: C_10  and  N_12 
REMARK    5  A    between atoms: C_15  and  C_18 
REMARK       I    between atoms: C_18  and  N_20 
REMARK    6  A    between atoms: N_20  and  C_21 
REMARK    7  A    between atoms: C_21  and  C_22 
REMARK       I    between atoms: C_22  and  N_24 
REMARK    8  A    between atoms: N_24  and  C_25 
REMARK    9  A    between atoms: C_25  and  C_26 
ROOT
ATOM      1  C   LIG d   1       3.126   0.466  -7.688  0.00  0.00     0.264 C 
ATOM      2  O   LIG d   1       2.803   1.635  -7.704  0.00  0.00    -0.269 OA
ATOM      3  N   LIG d   1       3.069  -0.264  -8.820  0.00  0.00    -0.297 N 
ATOM      4  C   LIG d   1       3.452  -1.682  -8.816  0.00  0.00     0.015 C 
ATOM      5  C   LIG d   1       2.303  -2.504  -9.409  0.00  0.00    -0.026 C 
ATOM      6  C   LIG d   1       1.947  -1.953 -10.792  0.00  0.00     0.038 C 
ATOM      7  C   LIG d   1       1.484  -0.500 -10.660  0.00  0.00    -0.026 C 
ATOM      8  C   LIG d   1       2.618   0.343 -10.079  0.00  0.00     0.015 C 
ATOM      9  H   LIG d   1       4.349  -1.820  -9.419  0.00  0.00     0.046 H 
ATOM     10  H   LIG d   1       3.642  -2.006  -7.793  0.00  0.00     0.046 H 
ATOM     11  H   LIG d   1       2.611  -3.546  -9.501  0.00  0.00     0.029 H 
ATOM     12  H   LIG d   1       1.433  -2.438  -8.756  0.00  0.00     0.029 H 
ATOM     13  H   LIG d   1       2.825  -1.997 -11.437  0.00  0.00     0.040 H 
ATOM     14  H   LIG d   1       1.209  -0.115 -11.642  0.00  0.00     0.029 H 
ATOM     15  H   LIG d   1       0.621  -0.453  -9.995  0.00  0.00     0.029 H 
ATOM     16  H   LIG d   1       2.259   1.354  -9.891  0.00  0.00     0.046 H 
ATOM     17  H   LIG d   1       3.445   0.374 -10.788  0.00  0.00     0.046 H 
ENDROOT
BRANCH   1  18
ATOM     18  C   LIG d   1       3.592  -0.171  -6.403  0.00  0.00     0.057 C 
ATOM     19  H   LIG d   1       3.500  -1.254  -6.480  0.00  0.00     0.095 H 
BRANCH  18  20
ATOM     20  C   LIG d   1       2.731   0.334  -5.243  0.00  0.00     0.024 C 
ATOM     21  H   LIG d   1       1.730  -0.089  -5.322  0.00  0.00     0.037 H 
ATOM     22  H   LIG d   1       2.671   1.422  -5.282  0.00  0.00     0.037 H 
BRANCH  20  23
ATOM     23  C   LIG d   1       3.354  -0.087  -3.937  0.00  0.00    -0.042 A 
ATOM     24  C   LIG d   1       3.828   0.868  -3.056  0.00  0.00    -0.058 A 
ATOM     25  C   LIG d   1       4.397   0.481  -1.858  0.00  0.00    -0.061 A 
ATOM     26  H   LIG d   1       3.751   1.916  -3.305  0.00  0.00     0.062 H 
ATOM     27  C   LIG d   1       4.493  -0.861  -1.540  0.00  0.00    -0.062 A 
ATOM     28  H   LIG d   1       4.767   1.226  -1.171  0.00  0.00     0.062 H 
ATOM     29  C   LIG d   1       4.019  -1.816  -2.420  0.00  0.00    -0.061 A 
ATOM     30  H   LIG d   1       4.942  -1.163  -0.605  0.00  0.00     0.062 H 
ATOM     31  C   LIG d   1       3.450  -1.429  -3.618  0.00  0.00    -0.058 A 
ATOM     32  H   LIG d   1       4.094  -2.864  -2.171  0.00  0.00     0.062 H 
ATOM     33  H   LIG d   1       3.080  -2.175  -4.306  0.00  0.00     0.062 H 
ENDBRANCH  20  23
ENDBRANCH  18  20
BRANCH  18  34
ATOM     34  N   LIG d   1       4.997   0.186  -6.163  0.00  0.00     0.228 N 
ATOM     35  H   LIG d   1       5.144   0.322  -5.174  0.00  0.00     0.200 HD
ATOM     36  H   LIG d   1       5.593  -0.559  -6.491  0.00  0.00     0.200 HD
ATOM     37  H   LIG d   1       5.217   1.037  -6.657  0.00  0.00     0.200 HD
ENDBRANCH  18  34
ENDBRANCH   1  18
BRANCH   6  38
ATOM     38  C   LIG d   1       0.841  -2.780 -11.392  0.00  0.00     0.217 C 
ATOM     39  O   LIG d   1       0.636  -3.905 -10.987  0.00  0.00    -0.276 OA
ATOM     40  N   LIG d   1       0.079  -2.272 -12.382  0.00  0.00    -0.306 N 
ATOM     41  H   LIG d   1       0.244  -1.372 -12.706  0.00  0.00     0.149 HD
BRANCH  40  42
ATOM     42  C   LIG d   1      -0.997  -3.076 -12.966  0.00  0.00     0.088 C 
ATOM     43  H   LIG d   1      -0.600  -3.669 -13.789  0.00  0.00     0.056 H 
ATOM     44  H   LIG d   1      -1.408  -3.740 -12.205  0.00  0.00     0.056 H 
BRANCH  42  45
ATOM     45  C   LIG d   1      -2.082  -2.166 -13.479  0.00  0.00     0.231 C 
ATOM     46  O   LIG d   1      -2.621  -2.403 -14.540  0.00  0.00    -0.274 OA
ATOM     47  N   LIG d   1      -2.455  -1.089 -12.760  0.00  0.00    -0.309 N 
ATOM     48  H   LIG d   1      -2.025  -0.900 -11.912  0.00  0.00     0.149 HD
BRANCH  47  49
ATOM     49  C   LIG d   1      -3.511  -0.204 -13.260  0.00  0.00     0.051 C 
ATOM     50  H   LIG d   1      -4.125  -0.743 -13.982  0.00  0.00     0.052 H 
ATOM     51  H   LIG d   1      -4.133   0.126 -12.427  0.00  0.00     0.052 H 
BRANCH  49  52
ATOM     52  C   LIG d   1      -2.887   0.996 -13.926  0.00  0.00     0.059 C 
ATOM     53  O   LIG d   1      -2.746   1.016 -15.137  0.00  0.00    -0.548 OA
ATOM     54  O   LIG d   1      -2.525   1.946 -13.253  0.00  0.00    -0.548 OA
ENDBRANCH  49  52
ENDBRANCH  47  49
ENDBRANCH  42  45
ENDBRANCH  40  42
ENDBRANCH   6  38
TORSDOF 9
ENDMDL
MODEL 9
REMARK VINA RESULT:      -6.8      3.554      8.166
REMARK  9 active torsions:
REMARK  status: ('A' for Active; 'I' for Inactive)
REMARK    1  A    between atoms: C_4  and  C_7 
REMARK    2  A    between atoms: C_7  and  C_8 
REMARK    3  A    between atoms: C_8  and  C_10 
REMARK    4  A    between atoms: C_8  and  N_29 
REMARK       I    between atoms: C_10  and  N_12 
REMARK    5  A    between atoms: C_15  and  C_18 
REMARK       I    between atoms: C_18  and  N_20 
REMARK    6  A    between atoms: N_20  and  C_21 
REMARK    7  A    between atoms: C_21  and  C_22 
REMARK       I    between atoms: C_22  and  N_24 
REMARK    8  A    between atoms: N_24  and  C_25 
REMARK    9  A    between atoms: C_25  and  C_26 
ROOT
ATOM      1  C   LIG d   1       2.573  -3.590  -9.894  0.00  0.00     0.264 C 
ATOM      2  O   LIG d   1       1.668  -4.392  -9.962  0.00  0.00    -0.269 OA
ATOM      3  N   LIG d   1       3.621  -3.823  -9.079  0.00  0.00    -0.297 N 
ATOM      4  C   LIG d   1       4.724  -2.857  -8.982  0.00  0.00     0.015 C 
ATOM      5  C   LIG d   1       4.934  -2.495  -7.508  0.00  0.00    -0.026 C 
ATOM      6  C   LIG d   1       5.146  -3.775  -6.696  0.00  0.00     0.038 C 
ATOM      7  C   LIG d   1       3.903  -4.661  -6.804  0.00  0.00    -0.026 C 
ATOM      8  C   LIG d   1       3.679  -5.045  -8.266  0.00  0.00     0.015 C 
ATOM      9  H   LIG d   1       5.635  -3.302  -9.381  0.00  0.00     0.046 H 
ATOM     10  H   LIG d   1       4.475  -1.959  -9.546  0.00  0.00     0.046 H 
ATOM     11  H   LIG d   1       5.810  -1.854  -7.412  0.00  0.00     0.029 H 
ATOM     12  H   LIG d   1       4.055  -1.969  -7.134  0.00  0.00     0.029 H 
ATOM     13  H   LIG d   1       6.010  -4.313  -7.087  0.00  0.00     0.040 H 
ATOM     14  H   LIG d   1       4.045  -5.562  -6.208  0.00  0.00     0.029 H 
ATOM     15  H   LIG d   1       3.034  -4.114  -6.437  0.00  0.00     0.029 H 
ATOM     16  H   LIG d   1       2.740  -5.591  -8.358  0.00  0.00     0.046 H 
ATOM     17  H   LIG d   1       4.502  -5.672  -8.606  0.00  0.00     0.046 H 
ENDROOT
BRANCH   1  18
ATOM     18  C   LIG d   1       2.530  -2.331 -10.722  0.00  0.00     0.057 C 
ATOM     19  H   LIG d   1       3.540  -1.941 -10.845  0.00  0.00     0.095 H 
BRANCH  18  20
ATOM     20  C   LIG d   1       1.660  -1.287 -10.017  0.00  0.00     0.024 C 
ATOM     21  H   LIG d   1       1.336  -1.676  -9.052  0.00  0.00     0.037 H 
ATOM     22  H   LIG d   1       0.789  -1.066 -10.632  0.00  0.00     0.037 H 
BRANCH  20  23
ATOM     23  C   LIG d   1       2.460  -0.027  -9.809  0.00  0.00    -0.042 A 
ATOM     24  C   LIG d   1       3.285   0.443 -10.813  0.00  0.00    -0.058 A 
ATOM     25  C   LIG d   1       4.017   1.600 -10.622  0.00  0.00    -0.061 A 
ATOM     26  H   LIG d   1       3.356  -0.093 -11.748  0.00  0.00     0.062 H 
ATOM     27  C   LIG d   1       3.925   2.286  -9.425  0.00  0.00    -0.062 A 
ATOM     28  H   LIG d   1       4.661   1.967 -11.406  0.00  0.00     0.062 H 
ATOM     29  C   LIG d   1       3.100   1.816  -8.421  0.00  0.00    -0.061 A 
ATOM     30  H   LIG d   1       4.500   3.187  -9.274  0.00  0.00     0.062 H 
ATOM     31  C   LIG d   1       2.368   0.660  -8.611  0.00  0.00    -0.058 A 
ATOM     32  H   LIG d   1       3.027   2.353  -7.486  0.00  0.00     0.062 H 
ATOM     33  H   LIG d   1       1.723   0.292  -7.827  0.00  0.00     0.062 H 
ENDBRANCH  20  23
ENDBRANCH  18  20
BRANCH  18  34
ATOM     34  N   LIG d   1       1.959  -2.633 -12.042  0.00  0.00     0.228 N 
ATOM     35  H   LIG d   1       1.212  -1.985 -12.241  0.00  0.00     0.200 HD
ATOM     36  H   LIG d   1       2.675  -2.547 -12.746  0.00  0.00     0.200 HD
ATOM     37  H   LIG d   1       1.597  -3.575 -12.044  0.00  0.00     0.200 HD
ENDBRANCH  18  34
ENDBRANCH   1  18
BRANCH   6  38
ATOM     38  C   LIG d   1       5.386  -3.420  -5.253  0.00  0.00     0.217 C 
ATOM     39  O   LIG d   1       4.572  -3.728  -4.408  0.00  0.00    -0.276 OA
ATOM     40  N   LIG d   1       6.507  -2.759  -4.898  0.00  0.00    -0.306 N 
ATOM     41  H   LIG d   1       7.158  -2.513  -5.574  0.00  0.00     0.149 HD
BRANCH  40  42
ATOM     42  C   LIG d   1       6.741  -2.413  -3.494  0.00  0.00     0.088 C 
ATOM     43  H   LIG d   1       6.337  -3.198  -2.855  0.00  0.00     0.056 H 
ATOM     44  H   LIG d   1       7.812  -2.316  -3.318  0.00  0.00     0.056 H 
BRANCH  42  45
ATOM     45  C   LIG d   1       6.059  -1.108  -3.177  0.00  0.00     0.231 C 
ATOM     46  O   LIG d   1       6.592  -0.058  -3.471  0.00  0.00    -0.274 OA
ATOM     47  N   LIG d   1       4.858  -1.106  -2.568  0.00  0.00    -0.309 N 
ATOM     48  H   LIG d   1       4.431  -1.945  -2.333  0.00  0.00     0.149 HD
BRANCH  47  49
ATOM     49  C   LIG d   1       4.194   0.165  -2.259  0.00  0.00     0.051 C 
ATOM     50  H   LIG d   1       3.629   0.063  -1.332  0.00  0.00     0.052 H 
ATOM     51  H   LIG d   1       4.944   0.947  -2.143  0.00  0.00     0.052 H 
BRANCH  49  52
ATOM     52  C   LIG d   1       3.258   0.529  -3.383  0.00  0.00     0.059 C 
ATOM     53  O   LIG d   1       3.314   1.636  -3.888  0.00  0.00    -0.548 OA
ATOM     54  O   LIG d   1       2.445  -0.286  -3.786  0.00  0.00    -0.548 OA
ENDBRANCH  49  52
ENDBRANCH  47  49
ENDBRANCH  42  45
ENDBRANCH  40  42
ENDBRANCH   6  38
TORSDOF 9
ENDMDL
MODEL 10
REMARK VINA RESULT:      -6.8      3.648      5.978
REMARK  9 active torsions:
REMARK  status: ('A' for Active; 'I' for Inactive)
REMARK    1  A    between atoms: C_4  and  C_7 
REMARK    2  A    between atoms: C_7  and  C_8 
REMARK    3  A    between atoms: C_8  and  C_10 
REMARK    4  A    between atoms: C_8  and  N_29 
REMARK       I    between atoms: C_10  and  N_12 
REMARK    5  A    between atoms: C_15  and  C_18 
REMARK       I    between atoms: C_18  and  N_20 
REMARK    6  A    between atoms: N_20  and  C_21 
REMARK    7  A    between atoms: C_21  and  C_22 
REMARK       I    between atoms: C_22  and  N_24 
REMARK    8  A    between atoms: N_24  and  C_25 
REMARK    9  A    between atoms: C_25  and  C_26 
ROOT
ATOM      1  C   LIG d   1       7.743  -3.667  -5.205  0.00  0.00     0.264 C 
ATOM      2  O   LIG d   1       8.835  -3.626  -5.729  0.00  0.00    -0.269 OA
ATOM      3  N   LIG d   1       6.771  -4.438  -5.733  0.00  0.00    -0.297 N 
ATOM      4  C   LIG d   1       5.441  -4.495  -5.113  0.00  0.00     0.015 C 
ATOM      5  C   LIG d   1       4.386  -4.173  -6.177  0.00  0.00    -0.026 C 
ATOM      6  C   LIG d   1       4.565  -5.116  -7.370  0.00  0.00     0.038 C 
ATOM      7  C   LIG d   1       5.951  -4.907  -7.984  0.00  0.00    -0.026 C 
ATOM      8  C   LIG d   1       7.022  -5.233  -6.943  0.00  0.00     0.015 C 
ATOM      9  H   LIG d   1       5.265  -5.496  -4.717  0.00  0.00     0.046 H 
ATOM     10  H   LIG d   1       5.382  -3.765  -4.307  0.00  0.00     0.046 H 
ATOM     11  H   LIG d   1       3.391  -4.306  -5.754  0.00  0.00     0.029 H 
ATOM     12  H   LIG d   1       4.507  -3.141  -6.507  0.00  0.00     0.029 H 
ATOM     13  H   LIG d   1       4.469  -6.148  -7.034  0.00  0.00     0.040 H 
ATOM     14  H   LIG d   1       6.070  -5.562  -8.846  0.00  0.00     0.029 H 
ATOM     15  H   LIG d   1       6.057  -3.868  -8.297  0.00  0.00     0.029 H 
ATOM     16  H   LIG d   1       8.005  -4.989  -7.345  0.00  0.00     0.046 H 
ATOM     17  H   LIG d   1       6.978  -6.295  -6.700  0.00  0.00     0.046 H 
ENDROOT
BRANCH   1  18
ATOM     18  C   LIG d   1       7.471  -2.859  -3.963  0.00  0.00     0.057 C 
ATOM     19  H   LIG d   1       6.585  -3.249  -3.462  0.00  0.00     0.095 H 
BRANCH  18  20
ATOM     20  C   LIG d   1       7.237  -1.396  -4.348  0.00  0.00     0.024 C 
ATOM     21  H   LIG d   1       6.899  -1.343  -5.383  0.00  0.00     0.037 H 
ATOM     22  H   LIG d   1       8.167  -0.839  -4.239  0.00  0.00     0.037 H 
BRANCH  20  23
ATOM     23  C   LIG d   1       6.186  -0.802  -3.445  0.00  0.00    -0.042 A 
ATOM     24  C   LIG d   1       5.289  -1.625  -2.793  0.00  0.00    -0.058 A 
ATOM     25  C   LIG d   1       4.327  -1.080  -1.964  0.00  0.00    -0.061 A 
ATOM     26  H   LIG d   1       5.340  -2.695  -2.930  0.00  0.00     0.062 H 
ATOM     27  C   LIG d   1       4.262   0.290  -1.787  0.00  0.00    -0.062 A 
ATOM     28  H   LIG d   1       3.625  -1.723  -1.454  0.00  0.00     0.062 H 
ATOM     29  C   LIG d   1       5.160   1.114  -2.439  0.00  0.00    -0.061 A 
ATOM     30  H   LIG d   1       3.508   0.716  -1.143  0.00  0.00     0.062 H 
ATOM     31  C   LIG d   1       6.122   0.569  -3.269  0.00  0.00    -0.058 A 
ATOM     32  H   LIG d   1       5.110   2.184  -2.302  0.00  0.00     0.062 H 
ATOM     33  H   LIG d   1       6.824   1.212  -3.779  0.00  0.00     0.062 H 
ENDBRANCH  20  23
ENDBRANCH  18  20
BRANCH  18  34
ATOM     34  N   LIG d   1       8.625  -2.948  -3.058  0.00  0.00     0.228 N 
ATOM     35  H   LIG d   1       9.077  -2.048  -3.000  0.00  0.00     0.200 HD
ATOM     36  H   LIG d   1       8.312  -3.226  -2.141  0.00  0.00     0.200 HD
ATOM     37  H   LIG d   1       9.278  -3.631  -3.412  0.00  0.00     0.200 HD
ENDBRANCH  18  34
ENDBRANCH   1  18
BRANCH   6  38
ATOM     38  C   LIG d   1       3.509  -4.823  -8.402  0.00  0.00     0.217 C 
ATOM     39  O   LIG d   1       2.795  -5.715  -8.810  0.00  0.00    -0.276 OA
ATOM     40  N   LIG d   1       3.356  -3.570  -8.875  0.00  0.00    -0.306 N 
ATOM     41  H   LIG d   1       3.927  -2.856  -8.548  0.00  0.00     0.149 HD
BRANCH  40  42
ATOM     42  C   LIG d   1       2.329  -3.285  -9.879  0.00  0.00     0.088 C 
ATOM     43  H   LIG d   1       2.614  -3.740 -10.828  0.00  0.00     0.056 H 
ATOM     44  H   LIG d   1       1.375  -3.696  -9.550  0.00  0.00     0.056 H 
BRANCH  42  45
ATOM     45  C   LIG d   1       2.199  -1.794 -10.057  0.00  0.00     0.231 C 
ATOM     46  O   LIG d   1       1.762  -1.343 -11.095  0.00  0.00    -0.274 OA
ATOM     47  N   LIG d   1       2.569  -0.963  -9.063  0.00  0.00    -0.309 N 
ATOM     48  H   LIG d   1       2.918  -1.323  -8.233  0.00  0.00     0.149 HD
BRANCH  47  49
ATOM     49  C   LIG d   1       2.443   0.488  -9.236  0.00  0.00     0.051 C 
ATOM     50  H   LIG d   1       2.862   0.776 -10.200  0.00  0.00     0.052 H 
ATOM     51  H   LIG d   1       1.390   0.767  -9.198  0.00  0.00     0.052 H 
BRANCH  49  52
ATOM     52  C   LIG d   1       3.189   1.192  -8.132  0.00  0.00     0.059 C 
ATOM     53  O   LIG d   1       4.171   0.671  -7.632  0.00  0.00    -0.548 OA
ATOM     54  O   LIG d   1       2.810   2.282  -7.740  0.00  0.00    -0.548 OA
ENDBRANCH  49  52
ENDBRANCH  47  49
ENDBRANCH  42  45
ENDBRANCH  40  42
ENDBRANCH   6  38
TORSDOF 9
ENDMDL
