MODEL 1
REMARK VINA RESULT:      -6.1      0.000      0.000
REMARK  7 active torsions:
REMARK  status: ('A' for Active; 'I' for Inactive)
REMARK    1  A    between atoms: C_1  and  C_2 
REMARK    2  A    between atoms: C_2  and  O_3 
REMARK    3  A    between atoms: O_3  and  C_4 
REMARK    4  A    between atoms: C_4  and  C_6 
REMARK    5  A    between atoms: C_7  and  C_25 
REMARK    6  A    between atoms: C_11  and  N_15 
REMARK       I    between atoms: N_15  and  C_16 
REMARK    7  A    between atoms: C_16  and  C_18 
ROOT
ATOM      1  C   LIG d   1       4.126  -0.779 -12.761  0.00  0.00     0.215 A 
ATOM      2  C   LIG d   1       2.899  -1.134 -12.298  0.00  0.00     0.010 A 
ATOM      3  C   LIG d   1       2.867  -0.806 -10.920  0.00  0.00     0.024 A 
ATOM      4  C   LIG d   1       1.892  -0.918  -9.921  0.00  0.00    -0.049 A 
ATOM      5  C   LIG d   1       2.168  -0.504  -8.652  0.00  0.00    -0.040 A 
ATOM      6  C   LIG d   1       3.418   0.033  -8.341  0.00  0.00     0.037 A 
ATOM      7  C   LIG d   1       4.395   0.152  -9.316  0.00  0.00     0.003 A 
ATOM      8  C   LIG d   1       4.128  -0.259 -10.615  0.00  0.00     0.138 A 
ATOM      9  O   LIG d   1       4.858  -0.265 -11.748  0.00  0.00    -0.448 OA
ATOM     10  H   LIG d   1       0.922  -1.333 -10.156  0.00  0.00     0.062 H 
ATOM     11  H   LIG d   1       1.416  -0.591  -7.882  0.00  0.00     0.064 H 
ATOM     12  H   LIG d   1       5.361   0.569  -9.068  0.00  0.00     0.067 H 
ENDROOT
BRANCH   6  13
ATOM     13  N   LIG d   1       3.687   0.453  -7.037  0.00  0.00    -0.281 N 
ATOM     14  C   LIG d   1       4.112  -0.436  -6.117  0.00  0.00     0.248 C 
ATOM     15  O   LIG d   1       4.351  -1.582  -6.444  0.00  0.00    -0.270 OA
ATOM     16  H   LIG d   1       3.570   1.385  -6.794  0.00  0.00     0.155 HD
BRANCH  14  17
ATOM     17  C   LIG d   1       4.284  -0.018  -4.712  0.00  0.00     0.037 A 
ATOM     18  C   LIG d   1       5.554  -0.022  -4.130  0.00  0.00    -0.047 A 
ATOM     19  C   LIG d   1       5.710   0.371  -2.818  0.00  0.00    -0.026 A 
ATOM     20  H   LIG d   1       6.413  -0.333  -4.707  0.00  0.00     0.063 H 
ATOM     21  C   LIG d   1       4.610   0.770  -2.075  0.00  0.00     0.123 A 
ATOM     22  H   LIG d   1       6.692   0.368  -2.367  0.00  0.00     0.065 H 
ATOM     23  C   LIG d   1       3.346   0.776  -2.647  0.00  0.00    -0.026 A 
ATOM     24  F   LIG d   1       4.768   1.153  -0.790  0.00  0.00    -0.205 F 
ATOM     25  C   LIG d   1       3.180   0.391  -3.960  0.00  0.00    -0.047 A 
ATOM     26  H   LIG d   1       2.492   1.087  -2.065  0.00  0.00     0.065 H 
ATOM     27  H   LIG d   1       2.196   0.400  -4.406  0.00  0.00     0.063 H 
ENDBRANCH  14  17
ENDBRANCH   6  13
BRANCH   2  28
ATOM     28  C   LIG d   1       1.779  -1.745 -13.101  0.00  0.00    -0.035 C 
ATOM     29  H   LIG d   1       1.195  -2.410 -12.463  0.00  0.00     0.028 H 
ATOM     30  H   LIG d   1       1.136  -0.955 -13.487  0.00  0.00     0.028 H 
ATOM     31  H   LIG d   1       2.196  -2.313 -13.932  0.00  0.00     0.028 H 
ENDBRANCH   2  28
BRANCH   1  32
ATOM     32  C   LIG d   1       4.589  -0.942 -14.143  0.00  0.00     0.375 C 
ATOM     33  O   LIG d   1       5.309  -1.877 -14.437  0.00  0.00    -0.241 OA
BRANCH  32  34
ATOM     34  O   LIG d   1       4.216  -0.056 -15.088  0.00  0.00    -0.459 OA
BRANCH  34  35
ATOM     35  C   LIG d   1       4.097  -0.552 -16.448  0.00  0.00     0.090 C 
ATOM     36  H   LIG d   1       4.351   0.245 -17.148  0.00  0.00     0.070 H 
ATOM     37  H   LIG d   1       4.778  -1.390 -16.589  0.00  0.00     0.070 H 
BRANCH  35  38
ATOM     38  C   LIG d   1       2.660  -1.013 -16.699  0.00  0.00    -0.031 C 
ATOM     39  H   LIG d   1       2.038  -0.151 -16.939  0.00  0.00     0.026 H 
ATOM     40  H   LIG d   1       2.645  -1.716 -17.533  0.00  0.00     0.026 H 
ATOM     41  H   LIG d   1       2.274  -1.503 -15.805  0.00  0.00     0.026 H 
ENDBRANCH  35  38
ENDBRANCH  34  35
ENDBRANCH  32  34
ENDBRANCH   1  32
TORSDOF 7
ENDMDL
MODEL 2
REMARK VINA RESULT:      -6.1      2.122      3.087
REMARK  7 active torsions:
REMARK  status: ('A' for Active; 'I' for Inactive)
REMARK    1  A    between atoms: C_1  and  C_2 
REMARK    2  A    between atoms: C_2  and  O_3 
REMARK    3  A    between atoms: O_3  and  C_4 
REMARK    4  A    between atoms: C_4  and  C_6 
REMARK    5  A    between atoms: C_7  and  C_25 
REMARK    6  A    between atoms: C_11  and  N_15 
REMARK       I    between atoms: N_15  and  C_16 
REMARK    7  A    between atoms: C_16  and  C_18 
ROOT
ATOM      1  C   LIG d   1       1.263  -1.920 -11.882  0.00  0.00     0.215 A 
ATOM      2  C   LIG d   1       2.472  -1.380 -12.188  0.00  0.00     0.010 A 
ATOM      3  C   LIG d   1       3.000  -0.842 -10.987  0.00  0.00     0.024 A 
ATOM      4  C   LIG d   1       4.192  -0.182 -10.665  0.00  0.00    -0.049 A 
ATOM      5  C   LIG d   1       4.417   0.227  -9.385  0.00  0.00    -0.040 A 
ATOM      6  C   LIG d   1       3.467  -0.008  -8.391  0.00  0.00     0.037 A 
ATOM      7  C   LIG d   1       2.281  -0.659  -8.691  0.00  0.00     0.003 A 
ATOM      8  C   LIG d   1       2.039  -1.087  -9.988  0.00  0.00     0.138 A 
ATOM      9  O   LIG d   1       1.007  -1.734 -10.568  0.00  0.00    -0.448 OA
ATOM     10  H   LIG d   1       4.932   0.002 -11.431  0.00  0.00     0.062 H 
ATOM     11  H   LIG d   1       5.337   0.735  -9.137  0.00  0.00     0.064 H 
ATOM     12  H   LIG d   1       1.549  -0.837  -7.916  0.00  0.00     0.067 H 
ENDROOT
BRANCH   6  13
ATOM     13  N   LIG d   1       3.711   0.418  -7.083  0.00  0.00    -0.281 N 
ATOM     14  C   LIG d   1       4.158  -0.459  -6.162  0.00  0.00     0.248 C 
ATOM     15  O   LIG d   1       4.439  -1.595  -6.490  0.00  0.00    -0.270 OA
ATOM     16  H   LIG d   1       3.560   1.344  -6.839  0.00  0.00     0.155 HD
BRANCH  14  17
ATOM     17  C   LIG d   1       4.306  -0.039  -4.755  0.00  0.00     0.037 A 
ATOM     18  C   LIG d   1       3.184   0.356  -4.020  0.00  0.00    -0.047 A 
ATOM     19  C   LIG d   1       3.326   0.747  -2.706  0.00  0.00    -0.026 A 
ATOM     20  H   LIG d   1       2.207   0.355  -4.482  0.00  0.00     0.063 H 
ATOM     21  C   LIG d   1       4.579   0.750  -2.112  0.00  0.00     0.123 A 
ATOM     22  H   LIG d   1       2.460   1.052  -2.138  0.00  0.00     0.065 H 
ATOM     23  C   LIG d   1       5.696   0.360  -2.837  0.00  0.00    -0.026 A 
ATOM     24  F   LIG d   1       4.713   1.135  -0.825  0.00  0.00    -0.205 F 
ATOM     25  C   LIG d   1       5.564  -0.039  -4.149  0.00  0.00    -0.047 A 
ATOM     26  H   LIG d   1       6.670   0.364  -2.370  0.00  0.00     0.065 H 
ATOM     27  H   LIG d   1       6.434  -0.347  -4.710  0.00  0.00     0.063 H 
ENDBRANCH  14  17
ENDBRANCH   6  13
BRANCH   2  28
ATOM     28  C   LIG d   1       3.134  -1.371 -13.542  0.00  0.00    -0.035 C 
ATOM     29  H   LIG d   1       3.589  -0.395 -13.717  0.00  0.00     0.028 H 
ATOM     30  H   LIG d   1       3.903  -2.142 -13.576  0.00  0.00     0.028 H 
ATOM     31  H   LIG d   1       2.388  -1.567 -14.312  0.00  0.00     0.028 H 
ENDBRANCH   2  28
BRANCH   1  32
ATOM     32  C   LIG d   1       0.369  -2.587 -12.833  0.00  0.00     0.375 C 
ATOM     33  O   LIG d   1       0.241  -3.796 -12.802  0.00  0.00    -0.241 OA
BRANCH  32  34
ATOM     34  O   LIG d   1      -0.311  -1.860 -13.743  0.00  0.00    -0.459 OA
BRANCH  34  35
ATOM     35  C   LIG d   1      -1.754  -1.798 -13.591  0.00  0.00     0.090 C 
ATOM     36  H   LIG d   1      -2.228  -1.982 -14.556  0.00  0.00     0.070 H 
ATOM     37  H   LIG d   1      -2.077  -2.554 -12.877  0.00  0.00     0.070 H 
BRANCH  35  38
ATOM     38  C   LIG d   1      -2.155  -0.411 -13.082  0.00  0.00    -0.031 C 
ATOM     39  H   LIG d   1      -1.478   0.337 -13.496  0.00  0.00     0.026 H 
ATOM     40  H   LIG d   1      -3.176  -0.191 -13.395  0.00  0.00     0.026 H 
ATOM     41  H   LIG d   1      -2.096  -0.393 -11.994  0.00  0.00     0.026 H 
ENDBRANCH  35  38
ENDBRANCH  34  35
ENDBRANCH  32  34
ENDBRANCH   1  32
TORSDOF 7
ENDMDL
MODEL 3
REMARK VINA RESULT:      -5.9      7.658      9.342
REMARK  7 active torsions:
REMARK  status: ('A' for Active; 'I' for Inactive)
REMARK    1  A    between atoms: C_1  and  C_2 
REMARK    2  A    between atoms: C_2  and  O_3 
REMARK    3  A    between atoms: O_3  and  C_4 
REMARK    4  A    between atoms: C_4  and  C_6 
REMARK    5  A    between atoms: C_7  and  C_25 
REMARK    6  A    between atoms: C_11  and  N_15 
REMARK       I    between atoms: N_15  and  C_16 
REMARK    7  A    between atoms: C_16  and  C_18 
ROOT
ATOM      1  C   LIG d   1      11.005   5.592  -6.369  0.00  0.00     0.215 A 
ATOM      2  C   LIG d   1      11.520   5.336  -5.138  0.00  0.00     0.010 A 
ATOM      3  C   LIG d   1      10.800   4.234  -4.611  0.00  0.00     0.024 A 
ATOM      4  C   LIG d   1      10.875   3.515  -3.412  0.00  0.00    -0.049 A 
ATOM      5  C   LIG d   1      10.021   2.476  -3.189  0.00  0.00    -0.040 A 
ATOM      6  C   LIG d   1       9.071   2.124  -4.148  0.00  0.00     0.037 A 
ATOM      7  C   LIG d   1       8.983   2.825  -5.340  0.00  0.00     0.003 A 
ATOM      8  C   LIG d   1       9.848   3.881  -5.586  0.00  0.00     0.138 A 
ATOM      9  O   LIG d   1      10.001   4.724  -6.626  0.00  0.00    -0.448 OA
ATOM     10  H   LIG d   1      11.609   3.782  -2.665  0.00  0.00     0.062 H 
ATOM     11  H   LIG d   1      10.079   1.922  -2.264  0.00  0.00     0.064 H 
ATOM     12  H   LIG d   1       8.244   2.547  -6.079  0.00  0.00     0.067 H 
ENDROOT
BRANCH   6  13
ATOM     13  N   LIG d   1       8.202   1.058  -3.905  0.00  0.00    -0.281 N 
ATOM     14  C   LIG d   1       6.938   1.298  -3.502  0.00  0.00     0.248 C 
ATOM     15  O   LIG d   1       6.525   2.439  -3.441  0.00  0.00    -0.270 OA
ATOM     16  H   LIG d   1       8.508   0.146  -4.029  0.00  0.00     0.155 HD
BRANCH  14  17
ATOM     17  C   LIG d   1       6.057   0.172  -3.133  0.00  0.00     0.037 A 
ATOM     18  C   LIG d   1       6.298  -1.104  -3.649  0.00  0.00    -0.047 A 
ATOM     19  C   LIG d   1       5.472  -2.152  -3.301  0.00  0.00    -0.026 A 
ATOM     20  H   LIG d   1       7.129  -1.269  -4.319  0.00  0.00     0.063 H 
ATOM     21  C   LIG d   1       4.405  -1.942  -2.442  0.00  0.00     0.123 A 
ATOM     22  H   LIG d   1       5.658  -3.139  -3.699  0.00  0.00     0.065 H 
ATOM     23  C   LIG d   1       4.161  -0.677  -1.928  0.00  0.00    -0.026 A 
ATOM     24  F   LIG d   1       3.599  -2.972  -2.105  0.00  0.00    -0.205 F 
ATOM     25  C   LIG d   1       4.983   0.377  -2.264  0.00  0.00    -0.047 A 
ATOM     26  H   LIG d   1       3.328  -0.518  -1.259  0.00  0.00     0.065 H 
ATOM     27  H   LIG d   1       4.795   1.360  -1.859  0.00  0.00     0.063 H 
ENDBRANCH  14  17
ENDBRANCH   6  13
BRANCH   2  28
ATOM     28  C   LIG d   1      12.652   6.071  -4.468  0.00  0.00    -0.035 C 
ATOM     29  H   LIG d   1      12.468   6.121  -3.394  0.00  0.00     0.028 H 
ATOM     30  H   LIG d   1      13.588   5.543  -4.651  0.00  0.00     0.028 H 
ATOM     31  H   LIG d   1      12.720   7.081  -4.873  0.00  0.00     0.028 H 
ENDBRANCH   2  28
BRANCH   1  32
ATOM     32  C   LIG d   1      11.459   6.655  -7.272  0.00  0.00     0.375 C 
ATOM     33  O   LIG d   1      12.207   6.393  -8.194  0.00  0.00    -0.241 OA
BRANCH  32  34
ATOM     34  O   LIG d   1      11.046   7.924  -7.079  0.00  0.00    -0.459 OA
BRANCH  34  35
ATOM     35  C   LIG d   1       9.626   8.129  -6.852  0.00  0.00     0.090 C 
ATOM     36  H   LIG d   1       9.198   7.233  -6.401  0.00  0.00     0.070 H 
ATOM     37  H   LIG d   1       9.483   8.976  -6.182  0.00  0.00     0.070 H 
BRANCH  35  38
ATOM     38  C   LIG d   1       8.931   8.411  -8.186  0.00  0.00    -0.031 C 
ATOM     39  H   LIG d   1       8.459   7.499  -8.550  0.00  0.00     0.026 H 
ATOM     40  H   LIG d   1       8.174   9.182  -8.044  0.00  0.00     0.026 H 
ATOM     41  H   LIG d   1       9.667   8.754  -8.913  0.00  0.00     0.026 H 
ENDBRANCH  35  38
ENDBRANCH  34  35
ENDBRANCH  32  34
ENDBRANCH   1  32
TORSDOF 7
ENDMDL
MODEL 4
REMARK VINA RESULT:      -5.9      6.794      8.183
REMARK  7 active torsions:
REMARK  status: ('A' for Active; 'I' for Inactive)
REMARK    1  A    between atoms: C_1  and  C_2 
REMARK    2  A    between atoms: C_2  and  O_3 
REMARK    3  A    between atoms: O_3  and  C_4 
REMARK    4  A    between atoms: C_4  and  C_6 
REMARK    5  A    between atoms: C_7  and  C_25 
REMARK    6  A    between atoms: C_11  and  N_15 
REMARK       I    between atoms: N_15  and  C_16 
REMARK    7  A    between atoms: C_16  and  C_18 
ROOT
ATOM      1  C   LIG d   1       4.854  -9.304  -7.026  0.00  0.00     0.215 A 
ATOM      2  C   LIG d   1       4.650  -8.494  -8.098  0.00  0.00     0.010 A 
ATOM      3  C   LIG d   1       4.495  -7.177  -7.596  0.00  0.00     0.024 A 
ATOM      4  C   LIG d   1       4.277  -5.932  -8.198  0.00  0.00    -0.049 A 
ATOM      5  C   LIG d   1       4.169  -4.814  -7.426  0.00  0.00    -0.040 A 
ATOM      6  C   LIG d   1       4.275  -4.901  -6.037  0.00  0.00     0.037 A 
ATOM      7  C   LIG d   1       4.492  -6.124  -5.424  0.00  0.00     0.003 A 
ATOM      8  C   LIG d   1       4.610  -7.272  -6.196  0.00  0.00     0.138 A 
ATOM      9  O   LIG d   1       4.821  -8.568  -5.893  0.00  0.00    -0.448 OA
ATOM     10  H   LIG d   1       4.194  -5.858  -9.273  0.00  0.00     0.062 H 
ATOM     11  H   LIG d   1       4.000  -3.854  -7.891  0.00  0.00     0.064 H 
ATOM     12  H   LIG d   1       4.573  -6.184  -4.348  0.00  0.00     0.067 H 
ENDROOT
BRANCH   6  13
ATOM     13  N   LIG d   1       4.162  -3.747  -5.259  0.00  0.00    -0.281 N 
ATOM     14  C   LIG d   1       5.265  -3.181  -4.730  0.00  0.00     0.248 C 
ATOM     15  O   LIG d   1       6.365  -3.617  -5.006  0.00  0.00    -0.270 OA
ATOM     16  H   LIG d   1       3.290  -3.353  -5.102  0.00  0.00     0.155 HD
BRANCH  14  17
ATOM     17  C   LIG d   1       5.135  -2.031  -3.813  0.00  0.00     0.037 A 
ATOM     18  C   LIG d   1       5.887  -0.874  -4.030  0.00  0.00    -0.047 A 
ATOM     19  C   LIG d   1       5.762   0.198  -3.172  0.00  0.00    -0.026 A 
ATOM     20  H   LIG d   1       6.567  -0.819  -4.867  0.00  0.00     0.063 H 
ATOM     21  C   LIG d   1       4.891   0.130  -2.095  0.00  0.00     0.123 A 
ATOM     22  H   LIG d   1       6.344   1.093  -3.338  0.00  0.00     0.065 H 
ATOM     23  C   LIG d   1       4.141  -1.017  -1.875  0.00  0.00    -0.026 A 
ATOM     24  F   LIG d   1       4.772   1.182  -1.258  0.00  0.00    -0.205 F 
ATOM     25  C   LIG d   1       4.255  -2.092  -2.731  0.00  0.00    -0.047 A 
ATOM     26  H   LIG d   1       3.464  -1.065  -1.035  0.00  0.00     0.065 H 
ATOM     27  H   LIG d   1       3.667  -2.982  -2.561  0.00  0.00     0.063 H 
ENDBRANCH  14  17
ENDBRANCH   6  13
BRANCH   2  28
ATOM     28  C   LIG d   1       4.611  -8.913  -9.545  0.00  0.00    -0.035 C 
ATOM     29  H   LIG d   1       4.240  -9.936  -9.617  0.00  0.00     0.028 H 
ATOM     30  H   LIG d   1       3.950  -8.247 -10.098  0.00  0.00     0.028 H 
ATOM     31  H   LIG d   1       5.615  -8.860  -9.966  0.00  0.00     0.028 H 
ENDBRANCH   2  28
BRANCH   1  32
ATOM     32  C   LIG d   1       5.064 -10.754  -7.089  0.00  0.00     0.375 C 
ATOM     33  O   LIG d   1       6.180 -11.215  -6.943  0.00  0.00    -0.241 OA
BRANCH  32  34
ATOM     34  O   LIG d   1       4.019 -11.577  -7.310  0.00  0.00    -0.459 OA
BRANCH  34  35
ATOM     35  C   LIG d   1       3.635 -12.462  -6.225  0.00  0.00     0.090 C 
ATOM     36  H   LIG d   1       4.527 -12.778  -5.682  0.00  0.00     0.070 H 
ATOM     37  H   LIG d   1       2.965 -11.935  -5.546  0.00  0.00     0.070 H 
BRANCH  35  38
ATOM     38  C   LIG d   1       2.922 -13.690  -6.795  0.00  0.00    -0.031 C 
ATOM     39  H   LIG d   1       2.430 -13.423  -7.730  0.00  0.00     0.026 H 
ATOM     40  H   LIG d   1       3.651 -14.479  -6.981  0.00  0.00     0.026 H 
ATOM     41  H   LIG d   1       2.179 -14.043  -6.080  0.00  0.00     0.026 H 
ENDBRANCH  35  38
ENDBRANCH  34  35
ENDBRANCH  32  34
ENDBRANCH   1  32
TORSDOF 7
ENDMDL
MODEL 5
REMARK VINA RESULT:      -5.9      3.911      9.470
REMARK  7 active torsions:
REMARK  status: ('A' for Active; 'I' for Inactive)
REMARK    1  A    between atoms: C_1  and  C_2 
REMARK    2  A    between atoms: C_2  and  O_3 
REMARK    3  A    between atoms: O_3  and  C_4 
REMARK    4  A    between atoms: C_4  and  C_6 
REMARK    5  A    between atoms: C_7  and  C_25 
REMARK    6  A    between atoms: C_11  and  N_15 
REMARK       I    between atoms: N_15  and  C_16 
REMARK    7  A    between atoms: C_16  and  C_18 
ROOT
ATOM      1  C   LIG d   1       4.082  -1.098  -5.456  0.00  0.00     0.215 A 
ATOM      2  C   LIG d   1       3.285  -0.035  -5.742  0.00  0.00     0.010 A 
ATOM      3  C   LIG d   1       3.295   0.121  -7.151  0.00  0.00     0.024 A 
ATOM      4  C   LIG d   1       2.670   1.014  -8.030  0.00  0.00    -0.049 A 
ATOM      5  C   LIG d   1       2.882   0.906  -9.372  0.00  0.00    -0.040 A 
ATOM      6  C   LIG d   1       3.719  -0.089  -9.878  0.00  0.00     0.037 A 
ATOM      7  C   LIG d   1       4.346  -0.981  -9.023  0.00  0.00     0.003 A 
ATOM      8  C   LIG d   1       4.137  -0.889  -7.655  0.00  0.00     0.138 A 
ATOM      9  O   LIG d   1       4.593  -1.598  -6.603  0.00  0.00    -0.448 OA
ATOM     10  H   LIG d   1       2.020   1.786  -7.644  0.00  0.00     0.062 H 
ATOM     11  H   LIG d   1       2.399   1.595 -10.049  0.00  0.00     0.064 H 
ATOM     12  H   LIG d   1       4.994  -1.749  -9.422  0.00  0.00     0.067 H 
ENDROOT
BRANCH   6  13
ATOM     13  N   LIG d   1       3.928  -0.186 -11.255  0.00  0.00    -0.281 N 
ATOM     14  C   LIG d   1       3.118  -0.959 -12.006  0.00  0.00     0.248 C 
ATOM     15  O   LIG d   1       2.152  -1.496 -11.503  0.00  0.00    -0.270 OA
ATOM     16  H   LIG d   1       4.654   0.305 -11.671  0.00  0.00     0.155 HD
BRANCH  14  17
ATOM     17  C   LIG d   1       3.408  -1.154 -13.440  0.00  0.00     0.037 A 
ATOM     18  C   LIG d   1       4.499  -0.509 -14.029  0.00  0.00    -0.047 A 
ATOM     19  C   LIG d   1       4.766  -0.694 -15.368  0.00  0.00    -0.026 A 
ATOM     20  H   LIG d   1       5.131   0.136 -13.435  0.00  0.00     0.063 H 
ATOM     21  C   LIG d   1       3.955  -1.520 -16.132  0.00  0.00     0.123 A 
ATOM     22  H   LIG d   1       5.609  -0.195 -15.824  0.00  0.00     0.065 H 
ATOM     23  C   LIG d   1       2.871  -2.163 -15.553  0.00  0.00    -0.026 A 
ATOM     24  F   LIG d   1       4.221  -1.698 -17.444  0.00  0.00    -0.205 F 
ATOM     25  C   LIG d   1       2.598  -1.989 -14.213  0.00  0.00    -0.047 A 
ATOM     26  H   LIG d   1       2.242  -2.805 -16.152  0.00  0.00     0.065 H 
ATOM     27  H   LIG d   1       1.757  -2.494 -13.763  0.00  0.00     0.063 H 
ENDBRANCH  14  17
ENDBRANCH   6  13
BRANCH   2  28
ATOM     28  C   LIG d   1       2.523   0.808  -4.752  0.00  0.00    -0.035 C 
ATOM     29  H   LIG d   1       1.532   0.381  -4.599  0.00  0.00     0.028 H 
ATOM     30  H   LIG d   1       3.060   0.828  -3.803  0.00  0.00     0.028 H 
ATOM     31  H   LIG d   1       2.427   1.823  -5.136  0.00  0.00     0.028 H 
ENDBRANCH   2  28
BRANCH   1  32
ATOM     32  C   LIG d   1       4.355  -1.613  -4.111  0.00  0.00     0.375 C 
ATOM     33  O   LIG d   1       3.921  -2.698  -3.775  0.00  0.00    -0.241 OA
BRANCH  32  34
ATOM     34  O   LIG d   1       5.088  -0.883  -3.246  0.00  0.00    -0.459 OA
BRANCH  34  35
ATOM     35  C   LIG d   1       4.497  -0.608  -1.949  0.00  0.00     0.090 C 
ATOM     36  H   LIG d   1       3.459  -0.943  -1.944  0.00  0.00     0.070 H 
ATOM     37  H   LIG d   1       5.052  -1.140  -1.176  0.00  0.00     0.070 H 
BRANCH  35  38
ATOM     38  C   LIG d   1       4.550   0.896  -1.672  0.00  0.00    -0.031 C 
ATOM     39  H   LIG d   1       5.083   1.396  -2.480  0.00  0.00     0.026 H 
ATOM     40  H   LIG d   1       3.535   1.289  -1.607  0.00  0.00     0.026 H 
ATOM     41  H   LIG d   1       5.068   1.074  -0.730  0.00  0.00     0.026 H 
ENDBRANCH  35  38
ENDBRANCH  34  35
ENDBRANCH  32  34
ENDBRANCH   1  32
TORSDOF 7
ENDMDL
MODEL 6
REMARK VINA RESULT:      -5.7      7.068      9.432
REMARK  7 active torsions:
REMARK  status: ('A' for Active; 'I' for Inactive)
REMARK    1  A    between atoms: C_1  and  C_2 
REMARK    2  A    between atoms: C_2  and  O_3 
REMARK    3  A    between atoms: O_3  and  C_4 
REMARK    4  A    between atoms: C_4  and  C_6 
REMARK    5  A    between atoms: C_7  and  C_25 
REMARK    6  A    between atoms: C_11  and  N_15 
REMARK       I    between atoms: N_15  and  C_16 
REMARK    7  A    between atoms: C_16  and  C_18 
ROOT
ATOM      1  C   LIG d   1      10.735   5.898  -5.421  0.00  0.00     0.215 A 
ATOM      2  C   LIG d   1      11.540   4.832  -5.669  0.00  0.00     0.010 A 
ATOM      3  C   LIG d   1      10.858   3.682  -5.198  0.00  0.00     0.024 A 
ATOM      4  C   LIG d   1      11.163   2.315  -5.184  0.00  0.00    -0.049 A 
ATOM      5  C   LIG d   1      10.279   1.428  -4.646  0.00  0.00    -0.040 A 
ATOM      6  C   LIG d   1       9.070   1.872  -4.110  0.00  0.00     0.037 A 
ATOM      7  C   LIG d   1       8.751   3.220  -4.116  0.00  0.00     0.003 A 
ATOM      8  C   LIG d   1       9.637   4.136  -4.664  0.00  0.00     0.138 A 
ATOM      9  O   LIG d   1       9.603   5.476  -4.814  0.00  0.00    -0.448 OA
ATOM     10  H   LIG d   1      12.098   1.965  -5.598  0.00  0.00     0.062 H 
ATOM     11  H   LIG d   1      10.515   0.374  -4.635  0.00  0.00     0.064 H 
ATOM     12  H   LIG d   1       7.813   3.557  -3.698  0.00  0.00     0.067 H 
ENDROOT
BRANCH   6  13
ATOM     13  N   LIG d   1       8.175   0.951  -3.562  0.00  0.00    -0.281 N 
ATOM     14  C   LIG d   1       7.082   0.577  -4.258  0.00  0.00     0.248 C 
ATOM     15  O   LIG d   1       6.925   0.967  -5.398  0.00  0.00    -0.270 OA
ATOM     16  H   LIG d   1       8.340   0.580  -2.681  0.00  0.00     0.155 HD
BRANCH  14  17
ATOM     17  C   LIG d   1       6.077  -0.305  -3.634  0.00  0.00     0.037 A 
ATOM     18  C   LIG d   1       5.841  -1.579  -4.157  0.00  0.00    -0.047 A 
ATOM     19  C   LIG d   1       4.902  -2.400  -3.570  0.00  0.00    -0.026 A 
ATOM     20  H   LIG d   1       6.393  -1.920  -5.020  0.00  0.00     0.063 H 
ATOM     21  C   LIG d   1       4.191  -1.963  -2.463  0.00  0.00     0.123 A 
ATOM     22  H   LIG d   1       4.719  -3.385  -3.974  0.00  0.00     0.065 H 
ATOM     23  C   LIG d   1       4.420  -0.699  -1.939  0.00  0.00    -0.026 A 
ATOM     24  F   LIG d   1       3.272  -2.771  -1.892  0.00  0.00    -0.205 F 
ATOM     25  C   LIG d   1       5.362   0.127  -2.515  0.00  0.00    -0.047 A 
ATOM     26  H   LIG d   1       3.864  -0.364  -1.077  0.00  0.00     0.065 H 
ATOM     27  H   LIG d   1       5.543   1.109  -2.103  0.00  0.00     0.063 H 
ENDBRANCH  14  17
ENDBRANCH   6  13
BRANCH   2  28
ATOM     28  C   LIG d   1      12.893   4.864  -6.332  0.00  0.00    -0.035 C 
ATOM     29  H   LIG d   1      12.795   4.554  -7.373  0.00  0.00     0.028 H 
ATOM     30  H   LIG d   1      13.293   5.877  -6.292  0.00  0.00     0.028 H 
ATOM     31  H   LIG d   1      13.569   4.186  -5.812  0.00  0.00     0.028 H 
ENDBRANCH   2  28
BRANCH   1  32
ATOM     32  C   LIG d   1      11.051   7.292  -5.749  0.00  0.00     0.375 C 
ATOM     33  O   LIG d   1      11.591   8.003  -4.925  0.00  0.00    -0.241 OA
BRANCH  32  34
ATOM     34  O   LIG d   1      10.741   7.784  -6.966  0.00  0.00    -0.459 OA
BRANCH  34  35
ATOM     35  C   LIG d   1       9.659   8.750  -7.030  0.00  0.00     0.090 C 
ATOM     36  H   LIG d   1       9.020   8.639  -6.154  0.00  0.00     0.070 H 
ATOM     37  H   LIG d   1      10.072   9.758  -7.052  0.00  0.00     0.070 H 
BRANCH  35  38
ATOM     38  C   LIG d   1       8.834   8.509  -8.296  0.00  0.00    -0.031 C 
ATOM     39  H   LIG d   1       7.866   9.001  -8.199  0.00  0.00     0.026 H 
ATOM     40  H   LIG d   1       9.364   8.917  -9.158  0.00  0.00     0.026 H 
ATOM     41  H   LIG d   1       8.686   7.438  -8.435  0.00  0.00     0.026 H 
ENDBRANCH  35  38
ENDBRANCH  34  35
ENDBRANCH  32  34
ENDBRANCH   1  32
TORSDOF 7
ENDMDL
MODEL 7
REMARK VINA RESULT:      -5.6      5.415      6.177
REMARK  7 active torsions:
REMARK  status: ('A' for Active; 'I' for Inactive)
REMARK    1  A    between atoms: C_1  and  C_2 
REMARK    2  A    between atoms: C_2  and  O_3 
REMARK    3  A    between atoms: O_3  and  C_4 
REMARK    4  A    between atoms: C_4  and  C_6 
REMARK    5  A    between atoms: C_7  and  C_25 
REMARK    6  A    between atoms: C_11  and  N_15 
REMARK       I    between atoms: N_15  and  C_16 
REMARK    7  A    between atoms: C_16  and  C_18 
ROOT
ATOM      1  C   LIG d   1       3.980  -7.399  -9.845  0.00  0.00     0.215 A 
ATOM      2  C   LIG d   1       4.438  -8.049  -8.744  0.00  0.00     0.010 A 
ATOM      3  C   LIG d   1       4.427  -7.115  -7.678  0.00  0.00     0.024 A 
ATOM      4  C   LIG d   1       4.768  -7.190  -6.322  0.00  0.00    -0.049 A 
ATOM      5  C   LIG d   1       4.646  -6.089  -5.529  0.00  0.00    -0.040 A 
ATOM      6  C   LIG d   1       4.184  -4.884  -6.060  0.00  0.00     0.037 A 
ATOM      7  C   LIG d   1       3.843  -4.790  -7.399  0.00  0.00     0.003 A 
ATOM      8  C   LIG d   1       3.955  -5.904  -8.219  0.00  0.00     0.138 A 
ATOM      9  O   LIG d   1       3.701  -6.115  -9.526  0.00  0.00    -0.448 OA
ATOM     10  H   LIG d   1       5.126  -8.121  -5.905  0.00  0.00     0.062 H 
ATOM     11  H   LIG d   1       4.909  -6.148  -4.483  0.00  0.00     0.064 H 
ATOM     12  H   LIG d   1       3.487  -3.853  -7.803  0.00  0.00     0.067 H 
ENDROOT
BRANCH   6  13
ATOM     13  N   LIG d   1       4.066  -3.763  -5.235  0.00  0.00    -0.281 N 
ATOM     14  C   LIG d   1       5.171  -3.109  -4.824  0.00  0.00     0.248 C 
ATOM     15  O   LIG d   1       6.263  -3.435  -5.245  0.00  0.00    -0.270 OA
ATOM     16  H   LIG d   1       3.189  -3.454  -4.960  0.00  0.00     0.155 HD
BRANCH  14  17
ATOM     17  C   LIG d   1       5.053  -1.997  -3.860  0.00  0.00     0.037 A 
ATOM     18  C   LIG d   1       5.748  -0.805  -4.078  0.00  0.00    -0.047 A 
ATOM     19  C   LIG d   1       5.634   0.231  -3.175  0.00  0.00    -0.026 A 
ATOM     20  H   LIG d   1       6.374  -0.695  -4.951  0.00  0.00     0.063 H 
ATOM     21  C   LIG d   1       4.833   0.092  -2.052  0.00  0.00     0.123 A 
ATOM     22  H   LIG d   1       6.171   1.153  -3.343  0.00  0.00     0.065 H 
ATOM     23  C   LIG d   1       4.141  -1.090  -1.831  0.00  0.00    -0.026 A 
ATOM     24  F   LIG d   1       4.725   1.109  -1.171  0.00  0.00    -0.205 F 
ATOM     25  C   LIG d   1       4.243  -2.130  -2.730  0.00  0.00    -0.047 A 
ATOM     26  H   LIG d   1       3.518  -1.194  -0.955  0.00  0.00     0.065 H 
ATOM     27  H   LIG d   1       3.700  -3.048  -2.559  0.00  0.00     0.063 H 
ENDBRANCH  14  17
ENDBRANCH   6  13
BRANCH   2  28
ATOM     28  C   LIG d   1       4.861  -9.494  -8.666  0.00  0.00    -0.035 C 
ATOM     29  H   LIG d   1       4.081 -10.075  -8.172  0.00  0.00     0.028 H 
ATOM     30  H   LIG d   1       5.019  -9.881  -9.672  0.00  0.00     0.028 H 
ATOM     31  H   LIG d   1       5.787  -9.572  -8.098  0.00  0.00     0.028 H 
ENDBRANCH   2  28
BRANCH   1  32
ATOM     32  C   LIG d   1       3.827  -7.994 -11.177  0.00  0.00     0.375 C 
ATOM     33  O   LIG d   1       4.809  -8.260 -11.842  0.00  0.00    -0.241 OA
BRANCH  32  34
ATOM     34  O   LIG d   1       2.595  -8.245 -11.664  0.00  0.00    -0.459 OA
BRANCH  34  35
ATOM     35  C   LIG d   1       1.702  -9.027 -10.828  0.00  0.00     0.090 C 
ATOM     36  H   LIG d   1       1.390  -9.922 -11.367  0.00  0.00     0.070 H 
ATOM     37  H   LIG d   1       2.220  -9.315  -9.914  0.00  0.00     0.070 H 
BRANCH  35  38
ATOM     38  C   LIG d   1       0.471  -8.189 -10.473  0.00  0.00    -0.031 C 
ATOM     39  H   LIG d   1       0.630  -7.157 -10.787  0.00  0.00     0.026 H 
ATOM     40  H   LIG d   1      -0.403  -8.594 -10.985  0.00  0.00     0.026 H 
ATOM     41  H   LIG d   1       0.308  -8.221  -9.396  0.00  0.00     0.026 H 
ENDBRANCH  35  38
ENDBRANCH  34  35
ENDBRANCH  32  34
ENDBRANCH   1  32
TORSDOF 7
ENDMDL
MODEL 8
REMARK VINA RESULT:      -5.5      6.281      9.016
REMARK  7 active torsions:
REMARK  status: ('A' for Active; 'I' for Inactive)
REMARK    1  A    between atoms: C_1  and  C_2 
REMARK    2  A    between atoms: C_2  and  O_3 
REMARK    3  A    between atoms: O_3  and  C_4 
REMARK    4  A    between atoms: C_4  and  C_6 
REMARK    5  A    between atoms: C_7  and  C_25 
REMARK    6  A    between atoms: C_11  and  N_15 
REMARK       I    between atoms: N_15  and  C_16 
REMARK    7  A    between atoms: C_16  and  C_18 
ROOT
ATOM      1  C   LIG d   1       4.762  -8.519  -6.241  0.00  0.00     0.215 A 
ATOM      2  C   LIG d   1       5.684  -7.802  -5.548  0.00  0.00     0.010 A 
ATOM      3  C   LIG d   1       5.453  -6.435  -5.845  0.00  0.00     0.024 A 
ATOM      4  C   LIG d   1       6.057  -5.241  -5.433  0.00  0.00    -0.049 A 
ATOM      5  C   LIG d   1       5.596  -4.049  -5.908  0.00  0.00    -0.040 A 
ATOM      6  C   LIG d   1       4.526  -4.010  -6.802  0.00  0.00     0.037 A 
ATOM      7  C   LIG d   1       3.916  -5.182  -7.220  0.00  0.00     0.003 A 
ATOM      8  C   LIG d   1       4.369  -6.404  -6.742  0.00  0.00     0.138 A 
ATOM      9  O   LIG d   1       3.984  -7.678  -6.958  0.00  0.00    -0.448 OA
ATOM     10  H   LIG d   1       6.886  -5.264  -4.741  0.00  0.00     0.062 H 
ATOM     11  H   LIG d   1       6.062  -3.128  -5.590  0.00  0.00     0.064 H 
ATOM     12  H   LIG d   1       3.088  -5.144  -7.913  0.00  0.00     0.067 H 
ENDROOT
BRANCH   6  13
ATOM     13  N   LIG d   1       4.065  -2.782  -7.280  0.00  0.00    -0.281 N 
ATOM     14  C   LIG d   1       4.619  -2.238  -8.382  0.00  0.00     0.248 C 
ATOM     15  O   LIG d   1       5.451  -2.857  -9.014  0.00  0.00    -0.270 OA
ATOM     16  H   LIG d   1       3.347  -2.321  -6.819  0.00  0.00     0.155 HD
BRANCH  14  17
ATOM     17  C   LIG d   1       4.214  -0.887  -8.820  0.00  0.00     0.037 A 
ATOM     18  C   LIG d   1       4.688  -0.371 -10.029  0.00  0.00    -0.047 A 
ATOM     19  C   LIG d   1       4.306   0.890 -10.434  0.00  0.00    -0.026 A 
ATOM     20  H   LIG d   1       5.352  -0.959 -10.645  0.00  0.00     0.063 H 
ATOM     21  C   LIG d   1       3.454   1.647  -9.644  0.00  0.00     0.123 A 
ATOM     22  H   LIG d   1       4.672   1.290 -11.368  0.00  0.00     0.065 H 
ATOM     23  C   LIG d   1       2.981   1.140  -8.443  0.00  0.00    -0.026 A 
ATOM     24  F   LIG d   1       3.084   2.882 -10.045  0.00  0.00    -0.205 F 
ATOM     25  C   LIG d   1       3.352  -0.122  -8.031  0.00  0.00    -0.047 A 
ATOM     26  H   LIG d   1       2.318   1.733  -7.831  0.00  0.00     0.065 H 
ATOM     27  H   LIG d   1       2.979  -0.518  -7.098  0.00  0.00     0.063 H 
ENDBRANCH  14  17
ENDBRANCH   6  13
BRANCH   2  28
ATOM     28  C   LIG d   1       6.742  -8.354  -4.626  0.00  0.00    -0.035 C 
ATOM     29  H   LIG d   1       7.546  -7.624  -4.518  0.00  0.00     0.028 H 
ATOM     30  H   LIG d   1       6.303  -8.557  -3.650  0.00  0.00     0.028 H 
ATOM     31  H   LIG d   1       7.143  -9.277  -5.044  0.00  0.00     0.028 H 
ENDBRANCH   2  28
BRANCH   1  32
ATOM     32  C   LIG d   1       4.638  -9.980  -6.224  0.00  0.00     0.375 C 
ATOM     33  O   LIG d   1       5.373 -10.661  -6.912  0.00  0.00    -0.241 OA
BRANCH  32  34
ATOM     34  O   LIG d   1       3.708 -10.568  -5.445  0.00  0.00    -0.459 OA
BRANCH  34  35
ATOM     35  C   LIG d   1       4.123 -10.973  -4.113  0.00  0.00     0.090 C 
ATOM     36  H   LIG d   1       3.829 -12.009  -3.941  0.00  0.00     0.070 H 
ATOM     37  H   LIG d   1       5.206 -10.884  -4.028  0.00  0.00     0.070 H 
BRANCH  35  38
ATOM     38  C   LIG d   1       3.453 -10.072  -3.074  0.00  0.00    -0.031 C 
ATOM     39  H   LIG d   1       4.200  -9.418  -2.624  0.00  0.00     0.026 H 
ATOM     40  H   LIG d   1       2.685  -9.468  -3.558  0.00  0.00     0.026 H 
ATOM     41  H   LIG d   1       2.996 -10.689  -2.300  0.00  0.00     0.026 H 
ENDBRANCH  35  38
ENDBRANCH  34  35
ENDBRANCH  32  34
ENDBRANCH   1  32
TORSDOF 7
ENDMDL
MODEL 9
REMARK VINA RESULT:      -5.3      5.067      7.427
REMARK  7 active torsions:
REMARK  status: ('A' for Active; 'I' for Inactive)
REMARK    1  A    between atoms: C_1  and  C_2 
REMARK    2  A    between atoms: C_2  and  O_3 
REMARK    3  A    between atoms: O_3  and  C_4 
REMARK    4  A    between atoms: C_4  and  C_6 
REMARK    5  A    between atoms: C_7  and  C_25 
REMARK    6  A    between atoms: C_11  and  N_15 
REMARK       I    between atoms: N_15  and  C_16 
REMARK    7  A    between atoms: C_16  and  C_18 
ROOT
ATOM      1  C   LIG d   1       3.893  -0.071  -6.565  0.00  0.00     0.215 A 
ATOM      2  C   LIG d   1       3.611  -0.194  -5.242  0.00  0.00     0.010 A 
ATOM      3  C   LIG d   1       4.717  -0.849  -4.643  0.00  0.00     0.024 A 
ATOM      4  C   LIG d   1       5.016  -1.238  -3.332  0.00  0.00    -0.049 A 
ATOM      5  C   LIG d   1       6.194  -1.868  -3.063  0.00  0.00    -0.040 A 
ATOM      6  C   LIG d   1       7.105  -2.129  -4.087  0.00  0.00     0.037 A 
ATOM      7  C   LIG d   1       6.826  -1.752  -5.390  0.00  0.00     0.003 A 
ATOM      8  C   LIG d   1       5.634  -1.104  -5.680  0.00  0.00     0.138 A 
ATOM      9  O   LIG d   1       5.100  -0.624  -6.821  0.00  0.00    -0.448 OA
ATOM     10  H   LIG d   1       4.314  -1.038  -2.535  0.00  0.00     0.062 H 
ATOM     11  H   LIG d   1       6.425  -2.168  -2.051  0.00  0.00     0.064 H 
ATOM     12  H   LIG d   1       7.537  -1.958  -6.178  0.00  0.00     0.067 H 
ENDROOT
BRANCH   6  13
ATOM     13  N   LIG d   1       8.308  -2.777  -3.796  0.00  0.00    -0.281 N 
ATOM     14  C   LIG d   1       8.461  -4.082  -4.097  0.00  0.00     0.248 C 
ATOM     15  O   LIG d   1       7.590  -4.671  -4.706  0.00  0.00    -0.270 OA
ATOM     16  H   LIG d   1       9.034  -2.287  -3.379  0.00  0.00     0.155 HD
BRANCH  14  17
ATOM     17  C   LIG d   1       9.686  -4.795  -3.685  0.00  0.00     0.037 A 
ATOM     18  C   LIG d   1      10.934  -4.181  -3.824  0.00  0.00    -0.047 A 
ATOM     19  C   LIG d   1      12.075  -4.851  -3.437  0.00  0.00    -0.026 A 
ATOM     20  H   LIG d   1      11.004  -3.185  -4.234  0.00  0.00     0.063 H 
ATOM     21  C   LIG d   1      11.987  -6.131  -2.911  0.00  0.00     0.123 A 
ATOM     22  H   LIG d   1      13.040  -4.377  -3.544  0.00  0.00     0.065 H 
ATOM     23  C   LIG d   1      10.751  -6.745  -2.772  0.00  0.00    -0.026 A 
ATOM     24  F   LIG d   1      13.108  -6.782  -2.534  0.00  0.00    -0.205 F 
ATOM     25  C   LIG d   1       9.603  -6.082  -3.150  0.00  0.00    -0.047 A 
ATOM     26  H   LIG d   1      10.688  -7.742  -2.362  0.00  0.00     0.065 H 
ATOM     27  H   LIG d   1       8.641  -6.560  -3.036  0.00  0.00     0.063 H 
ENDBRANCH  14  17
ENDBRANCH   6  13
BRANCH   2  28
ATOM     28  C   LIG d   1       2.367   0.290  -4.541  0.00  0.00    -0.035 C 
ATOM     29  H   LIG d   1       1.727  -0.562  -4.310  0.00  0.00     0.028 H 
ATOM     30  H   LIG d   1       2.645   0.796  -3.617  0.00  0.00     0.028 H 
ATOM     31  H   LIG d   1       1.831   0.983  -5.188  0.00  0.00     0.028 H 
ENDBRANCH   2  28
BRANCH   1  32
ATOM     32  C   LIG d   1       3.017   0.551  -7.563  0.00  0.00     0.375 C 
ATOM     33  O   LIG d   1       3.026   1.758  -7.712  0.00  0.00    -0.241 OA
BRANCH  32  34
ATOM     34  O   LIG d   1       2.202  -0.215  -8.316  0.00  0.00    -0.459 OA
BRANCH  34  35
ATOM     35  C   LIG d   1       2.519  -0.324  -9.729  0.00  0.00     0.090 C 
ATOM     36  H   LIG d   1       2.804   0.655 -10.114  0.00  0.00     0.070 H 
ATOM     37  H   LIG d   1       3.346  -1.021  -9.863  0.00  0.00     0.070 H 
BRANCH  35  38
ATOM     38  C   LIG d   1       1.293  -0.835 -10.489  0.00  0.00    -0.031 C 
ATOM     39  H   LIG d   1       1.312  -0.452 -11.509  0.00  0.00     0.026 H 
ATOM     40  H   LIG d   1       1.307  -1.925 -10.509  0.00  0.00     0.026 H 
ATOM     41  H   LIG d   1       0.387  -0.493  -9.988  0.00  0.00     0.026 H 
ENDBRANCH  35  38
ENDBRANCH  34  35
ENDBRANCH  32  34
ENDBRANCH   1  32
TORSDOF 7
ENDMDL
