MODEL 1
REMARK VINA RESULT:      -7.6      0.000      0.000
REMARK  6 active torsions:
REMARK  status: ('A' for Active; 'I' for Inactive)
REMARK    1  A    between atoms: C_1  and  C_2 
REMARK    2  A    between atoms: C_5  and  C_8 
REMARK    3  A    between atoms: C_8  and  C_9 
REMARK    4  A    between atoms: C_9  and  C_24 
REMARK    5  A    between atoms: N_15  and  C_18 
REMARK    6  A    between atoms: C_24  and  N_25 
ROOT
ATOM      1  C   LIG d   1       4.647  -2.362  -7.337  0.00  0.00     0.140 A 
ATOM      2  C   LIG d   1       4.473  -3.793  -6.867  0.00  0.00     0.237 A 
ATOM      3  O   LIG d   1       4.471  -4.717  -7.653  0.00  0.00    -0.274 OA
ATOM      4  N   LIG d   1       4.321  -4.001  -5.543  0.00  0.00    -0.238 N 
ATOM      5  C   LIG d   1       4.320  -2.992  -4.663  0.00  0.00     0.319 A 
ATOM      6  O   LIG d   1       4.177  -3.269  -3.488  0.00  0.00    -0.251 OA
ATOM      7  N   LIG d   1       4.466  -1.702  -4.981  0.00  0.00    -0.193 N 
ATOM      8  C   LIG d   1       4.631  -1.295  -6.258  0.00  0.00     0.244 A 
ATOM      9  O   LIG d   1       4.761  -0.121  -6.533  0.00  0.00    -0.274 OA
ATOM     10  H   LIG d   1       4.208  -4.908  -5.218  0.00  0.00     0.159 HD
ENDROOT
BRANCH   1  11
ATOM     11  C   LIG d   1       5.978  -2.264  -8.084  0.00  0.00    -0.004 C 
ATOM     12  H   LIG d   1       6.071  -1.276  -8.536  0.00  0.00     0.033 H 
ATOM     13  H   LIG d   1       6.014  -3.024  -8.864  0.00  0.00     0.033 H 
BRANCH  11  14
ATOM     14  C   LIG d   1       7.114  -2.482  -7.117  0.00  0.00    -0.046 A 
ATOM     15  C   LIG d   1       7.566  -3.763  -6.860  0.00  0.00    -0.058 A 
ATOM     16  C   LIG d   1       8.608  -3.963  -5.974  0.00  0.00    -0.059 A 
ATOM     17  H   LIG d   1       7.106  -4.607  -7.352  0.00  0.00     0.062 H 
ATOM     18  C   LIG d   1       9.198  -2.882  -5.346  0.00  0.00    -0.050 A 
ATOM     19  H   LIG d   1       8.962  -4.963  -5.773  0.00  0.00     0.062 H 
ATOM     20  C   LIG d   1       8.742  -1.602  -5.599  0.00  0.00    -0.059 A 
ATOM     21  C   LIG d   1       7.704  -1.402  -6.488  0.00  0.00    -0.058 A 
ATOM     22  H   LIG d   1       9.200  -0.758  -5.104  0.00  0.00     0.062 H 
ATOM     23  H   LIG d   1       7.350  -0.401  -6.689  0.00  0.00     0.062 H 
BRANCH  18  24
ATOM     24  C   LIG d   1      10.335  -3.101  -4.380  0.00  0.00    -0.040 C 
ATOM     25  H   LIG d   1      10.066  -2.693  -3.405  0.00  0.00     0.028 H 
ATOM     26  H   LIG d   1      10.531  -4.168  -4.285  0.00  0.00     0.028 H 
ATOM     27  H   LIG d   1      11.227  -2.597  -4.750  0.00  0.00     0.028 H 
ENDBRANCH  18  24
ENDBRANCH  11  14
ENDBRANCH   1  11
BRANCH   1  28
ATOM     28  C   LIG d   1       3.525  -2.052  -8.329  0.00  0.00     0.022 C 
ATOM     29  H   LIG d   1       3.177  -2.978  -8.787  0.00  0.00     0.044 H 
ATOM     30  H   LIG d   1       2.696  -1.574  -7.803  0.00  0.00     0.044 H 
BRANCH  28  31
ATOM     31  N   LIG d   1       4.028  -1.148  -9.372  0.00  0.00    -0.300 N 
ATOM     32  C   LIG d   1       3.306   0.134  -9.352  0.00  0.00     0.007 C 
ATOM     33  C   LIG d   1       3.998   1.083 -10.345  0.00  0.00     0.013 C 
ATOM     34  H   LIG d   1       2.270  -0.022  -9.652  0.00  0.00     0.043 H 
ATOM     35  H   LIG d   1       3.340   0.560  -8.350  0.00  0.00     0.043 H 
ATOM     36  C   LIG d   1       3.836   0.498 -11.752  0.00  0.00    -0.038 C 
ATOM     37  H   LIG d   1       3.557   2.079 -10.291  0.00  0.00     0.038 H 
ATOM     38  C   LIG d   1       5.468   1.135  -9.994  0.00  0.00     0.026 C 
ATOM     39  C   LIG d   1       4.530  -0.867 -11.767  0.00  0.00    -0.009 C 
ATOM     40  H   LIG d   1       4.303   1.159 -12.483  0.00  0.00     0.028 H 
ATOM     41  H   LIG d   1       2.778   0.378 -11.984  0.00  0.00     0.028 H 
ATOM     42  C   LIG d   1       3.953  -1.778 -10.694  0.00  0.00     0.003 C 
ATOM     43  H   LIG d   1       4.357  -1.329 -12.740  0.00  0.00     0.033 H 
ATOM     44  C   LIG d   1       6.025  -0.664 -11.592  0.00  0.00     0.030 C 
ATOM     45  H   LIG d   1       4.514  -2.712 -10.678  0.00  0.00     0.043 H 
ATOM     46  H   LIG d   1       2.910  -1.992 -10.930  0.00  0.00     0.043 H 
ATOM     47  N   LIG d   1       6.360   0.261 -10.514  0.00  0.00    -0.312 N 
ATOM     48  H   LIG d   1       6.491  -1.627 -11.386  0.00  0.00     0.050 H 
ATOM     49  H   LIG d   1       6.438  -0.264 -12.519  0.00  0.00     0.050 H 
ATOM     50  C   LIG d   1       7.636   0.247 -10.057  0.00  0.00     0.252 C 
ATOM     51  C   LIG d   1       8.087   1.232  -9.166  0.00  0.00     0.003 C 
ATOM     52  O   LIG d   1       8.400  -0.632 -10.424  0.00  0.00    -0.268 OA
ATOM     53  C   LIG d   1       7.206   2.167  -8.709  0.00  0.00    -0.055 C 
ATOM     54  H   LIG d   1       9.119   1.249  -8.847  0.00  0.00     0.067 H 
ATOM     55  C   LIG d   1       5.873   2.101  -9.127  0.00  0.00    -0.042 C 
ATOM     56  H   LIG d   1       7.532   2.946  -8.035  0.00  0.00     0.062 H 
ATOM     57  H   LIG d   1       5.159   2.823  -8.757  0.00  0.00     0.064 H 
ENDBRANCH  28  31
ENDBRANCH   1  28
BRANCH   7  58
ATOM     58  C   LIG d   1       4.446  -0.742  -3.960  0.00  0.00     0.045 A 
ATOM     59  C   LIG d   1       5.637  -0.260  -3.435  0.00  0.00    -0.040 A 
ATOM     60  C   LIG d   1       5.614   0.690  -2.432  0.00  0.00    -0.060 A 
ATOM     61  H   LIG d   1       6.581  -0.624  -3.813  0.00  0.00     0.064 H 
ATOM     62  C   LIG d   1       4.407   1.153  -1.943  0.00  0.00    -0.062 A 
ATOM     63  H   LIG d   1       6.541   1.068  -2.026  0.00  0.00     0.062 H 
ATOM     64  C   LIG d   1       3.218   0.670  -2.461  0.00  0.00    -0.060 A 
ATOM     65  H   LIG d   1       4.391   1.892  -1.156  0.00  0.00     0.062 H 
ATOM     66  C   LIG d   1       3.234  -0.276  -3.467  0.00  0.00    -0.040 A 
ATOM     67  H   LIG d   1       2.276   1.033  -2.077  0.00  0.00     0.062 H 
ATOM     68  H   LIG d   1       2.306  -0.652  -3.871  0.00  0.00     0.064 H 
ENDBRANCH   7  58
TORSDOF 6
ENDMDL
MODEL 2
REMARK VINA RESULT:      -7.5      2.063      7.079
REMARK  6 active torsions:
REMARK  status: ('A' for Active; 'I' for Inactive)
REMARK    1  A    between atoms: C_1  and  C_2 
REMARK    2  A    between atoms: C_5  and  C_8 
REMARK    3  A    between atoms: C_8  and  C_9 
REMARK    4  A    between atoms: C_9  and  C_24 
REMARK    5  A    between atoms: N_15  and  C_18 
REMARK    6  A    between atoms: C_24  and  N_25 
ROOT
ATOM      1  C   LIG d   1       5.086  -0.214  -7.983  0.00  0.00     0.140 A 
ATOM      2  C   LIG d   1       4.153  -0.635  -6.864  0.00  0.00     0.237 A 
ATOM      3  O   LIG d   1       3.726   0.171  -6.064  0.00  0.00    -0.274 OA
ATOM      4  N   LIG d   1       3.814  -1.939  -6.791  0.00  0.00    -0.238 N 
ATOM      5  C   LIG d   1       4.276  -2.841  -7.666  0.00  0.00     0.319 A 
ATOM      6  O   LIG d   1       3.921  -3.995  -7.527  0.00  0.00    -0.251 OA
ATOM      7  N   LIG d   1       5.101  -2.565  -8.682  0.00  0.00    -0.193 N 
ATOM      8  C   LIG d   1       5.551  -1.314  -8.918  0.00  0.00     0.244 A 
ATOM      9  O   LIG d   1       6.299  -1.079  -9.842  0.00  0.00    -0.274 OA
ATOM     10  H   LIG d   1       3.218  -2.233  -6.085  0.00  0.00     0.159 HD
ENDROOT
BRANCH   1  11
ATOM     11  C   LIG d   1       4.377   0.853  -8.819  0.00  0.00    -0.004 C 
ATOM     12  H   LIG d   1       5.111   1.396  -9.415  0.00  0.00     0.033 H 
ATOM     13  H   LIG d   1       3.861   1.549  -8.157  0.00  0.00     0.033 H 
BRANCH  11  14
ATOM     14  C   LIG d   1       3.376   0.193  -9.733  0.00  0.00    -0.046 A 
ATOM     15  C   LIG d   1       2.146  -0.199  -9.241  0.00  0.00    -0.058 A 
ATOM     16  C   LIG d   1       1.228  -0.804 -10.080  0.00  0.00    -0.059 A 
ATOM     17  H   LIG d   1       1.900  -0.032  -8.203  0.00  0.00     0.062 H 
ATOM     18  C   LIG d   1       1.541  -1.016 -11.409  0.00  0.00    -0.050 A 
ATOM     19  H   LIG d   1       0.266  -1.110  -9.697  0.00  0.00     0.062 H 
ATOM     20  C   LIG d   1       2.774  -0.629 -11.899  0.00  0.00    -0.059 A 
ATOM     21  C   LIG d   1       3.690  -0.020 -11.062  0.00  0.00    -0.058 A 
ATOM     22  H   LIG d   1       3.021  -0.799 -12.937  0.00  0.00     0.062 H 
ATOM     23  H   LIG d   1       4.652   0.286 -11.445  0.00  0.00     0.062 H 
BRANCH  18  24
ATOM     24  C   LIG d   1       0.540  -1.675 -12.323  0.00  0.00    -0.040 C 
ATOM     25  H   LIG d   1      -0.021  -2.426 -11.766  0.00  0.00     0.028 H 
ATOM     26  H   LIG d   1      -0.146  -0.924 -12.713  0.00  0.00     0.028 H 
ATOM     27  H   LIG d   1       1.064  -2.154 -13.150  0.00  0.00     0.028 H 
ENDBRANCH  18  24
ENDBRANCH  11  14
ENDBRANCH   1  11
BRANCH   1  28
ATOM     28  C   LIG d   1       6.323   0.426  -7.349  0.00  0.00     0.022 C 
ATOM     29  H   LIG d   1       7.143   0.421  -8.067  0.00  0.00     0.044 H 
ATOM     30  H   LIG d   1       6.095   1.455  -7.066  0.00  0.00     0.044 H 
BRANCH  28  31
ATOM     31  N   LIG d   1       6.712  -0.335  -6.155  0.00  0.00    -0.300 N 
ATOM     32  C   LIG d   1       7.348   0.539  -5.157  0.00  0.00     0.007 C 
ATOM     33  C   LIG d   1       7.567  -0.284  -3.876  0.00  0.00     0.013 C 
ATOM     34  H   LIG d   1       8.306   0.894  -5.535  0.00  0.00     0.043 H 
ATOM     35  H   LIG d   1       6.698   1.387  -4.943  0.00  0.00     0.043 H 
ATOM     36  C   LIG d   1       8.566  -1.402  -4.196  0.00  0.00    -0.038 C 
ATOM     37  H   LIG d   1       7.946   0.351  -3.075  0.00  0.00     0.038 H 
ATOM     38  C   LIG d   1       6.242  -0.898  -3.483  0.00  0.00     0.026 C 
ATOM     39  C   LIG d   1       7.940  -2.283  -5.281  0.00  0.00    -0.009 C 
ATOM     40  H   LIG d   1       8.756  -1.995  -3.301  0.00  0.00     0.028 H 
ATOM     41  H   LIG d   1       9.498  -0.972  -4.560  0.00  0.00     0.028 H 
ATOM     42  C   LIG d   1       7.586  -1.458  -6.509  0.00  0.00     0.003 C 
ATOM     43  H   LIG d   1       8.671  -3.038  -5.573  0.00  0.00     0.033 H 
ATOM     44  C   LIG d   1       6.726  -2.990  -4.704  0.00  0.00     0.030 C 
ATOM     45  H   LIG d   1       7.076  -2.095  -7.232  0.00  0.00     0.043 H 
ATOM     46  H   LIG d   1       8.502  -1.071  -6.956  0.00  0.00     0.043 H 
ATOM     47  N   LIG d   1       5.844  -2.103  -3.952  0.00  0.00    -0.312 N 
ATOM     48  H   LIG d   1       6.159  -3.441  -5.519  0.00  0.00     0.050 H 
ATOM     49  H   LIG d   1       7.062  -3.779  -4.032  0.00  0.00     0.050 H 
ATOM     50  C   LIG d   1       4.588  -2.545  -3.697  0.00  0.00     0.252 C 
ATOM     51  C   LIG d   1       3.748  -1.844  -2.820  0.00  0.00     0.003 C 
ATOM     52  O   LIG d   1       4.184  -3.563  -4.236  0.00  0.00    -0.268 OA
ATOM     53  C   LIG d   1       4.185  -0.671  -2.277  0.00  0.00    -0.055 C 
ATOM     54  H   LIG d   1       2.769  -2.229  -2.576  0.00  0.00     0.067 H 
ATOM     55  C   LIG d   1       5.451  -0.193  -2.632  0.00  0.00    -0.042 C 
ATOM     56  H   LIG d   1       3.564  -0.121  -1.586  0.00  0.00     0.062 H 
ATOM     57  H   LIG d   1       5.802   0.745  -2.227  0.00  0.00     0.064 H 
ENDBRANCH  28  31
ENDBRANCH   1  28
BRANCH   7  58
ATOM     58  C   LIG d   1       5.512  -3.605  -9.526  0.00  0.00     0.045 A 
ATOM     59  C   LIG d   1       6.639  -4.353  -9.212  0.00  0.00    -0.040 A 
ATOM     60  C   LIG d   1       7.036  -5.382 -10.044  0.00  0.00    -0.060 A 
ATOM     61  H   LIG d   1       7.200  -4.134  -8.316  0.00  0.00     0.064 H 
ATOM     62  C   LIG d   1       6.322  -5.660 -11.194  0.00  0.00    -0.062 A 
ATOM     63  H   LIG d   1       7.911  -5.967  -9.798  0.00  0.00     0.062 H 
ATOM     64  C   LIG d   1       5.202  -4.913 -11.513  0.00  0.00    -0.060 A 
ATOM     65  H   LIG d   1       6.638  -6.462 -11.845  0.00  0.00     0.062 H 
ATOM     66  C   LIG d   1       4.795  -3.887 -10.682  0.00  0.00    -0.040 A 
ATOM     67  H   LIG d   1       4.645  -5.132 -12.411  0.00  0.00     0.062 H 
ATOM     68  H   LIG d   1       3.921  -3.304 -10.931  0.00  0.00     0.064 H 
ENDBRANCH   7  58
TORSDOF 6
ENDMDL
MODEL 3
REMARK VINA RESULT:      -7.4      2.181      6.560
REMARK  6 active torsions:
REMARK  status: ('A' for Active; 'I' for Inactive)
REMARK    1  A    between atoms: C_1  and  C_2 
REMARK    2  A    between atoms: C_5  and  C_8 
REMARK    3  A    between atoms: C_8  and  C_9 
REMARK    4  A    between atoms: C_9  and  C_24 
REMARK    5  A    between atoms: N_15  and  C_18 
REMARK    6  A    between atoms: C_24  and  N_25 
ROOT
ATOM      1  C   LIG d   1       3.697  -0.249  -7.095  0.00  0.00     0.140 A 
ATOM      2  C   LIG d   1       3.114   0.910  -7.881  0.00  0.00     0.237 A 
ATOM      3  O   LIG d   1       3.002   2.012  -7.387  0.00  0.00    -0.274 OA
ATOM      4  N   LIG d   1       2.725   0.669  -9.150  0.00  0.00    -0.238 N 
ATOM      5  C   LIG d   1       2.842  -0.541  -9.710  0.00  0.00     0.319 A 
ATOM      6  O   LIG d   1       2.466  -0.669 -10.859  0.00  0.00    -0.251 OA
ATOM      7  N   LIG d   1       3.341  -1.620  -9.098  0.00  0.00    -0.193 N 
ATOM      8  C   LIG d   1       3.784  -1.577  -7.823  0.00  0.00     0.244 A 
ATOM      9  O   LIG d   1       4.234  -2.564  -7.280  0.00  0.00    -0.274 OA
ATOM     10  H   LIG d   1       2.350   1.395  -9.673  0.00  0.00     0.159 HD
ENDROOT
BRANCH   1  11
ATOM     11  C   LIG d   1       5.106   0.141  -6.645  0.00  0.00    -0.004 C 
ATOM     12  H   LIG d   1       5.438  -0.537  -5.858  0.00  0.00     0.033 H 
ATOM     13  H   LIG d   1       5.097   1.162  -6.265  0.00  0.00     0.033 H 
BRANCH  11  14
ATOM     14  C   LIG d   1       6.051   0.050  -7.817  0.00  0.00    -0.046 A 
ATOM     15  C   LIG d   1       6.156   1.106  -8.702  0.00  0.00    -0.058 A 
ATOM     16  C   LIG d   1       7.023   1.022  -9.776  0.00  0.00    -0.059 A 
ATOM     17  H   LIG d   1       5.563   1.996  -8.555  0.00  0.00     0.062 H 
ATOM     18  C   LIG d   1       7.783  -0.116  -9.964  0.00  0.00    -0.050 A 
ATOM     19  H   LIG d   1       7.106   1.847 -10.468  0.00  0.00     0.062 H 
ATOM     20  C   LIG d   1       7.673  -1.174  -9.081  0.00  0.00    -0.059 A 
ATOM     21  C   LIG d   1       6.810  -1.089  -8.005  0.00  0.00    -0.058 A 
ATOM     22  H   LIG d   1       8.264  -2.066  -9.231  0.00  0.00     0.062 H 
ATOM     23  H   LIG d   1       6.727  -1.914  -7.313  0.00  0.00     0.062 H 
BRANCH  18  24
ATOM     24  C   LIG d   1       8.728  -0.207 -11.135  0.00  0.00    -0.040 C 
ATOM     25  H   LIG d   1       9.717   0.139 -10.831  0.00  0.00     0.028 H 
ATOM     26  H   LIG d   1       8.793  -1.241 -11.471  0.00  0.00     0.028 H 
ATOM     27  H   LIG d   1       8.360   0.418 -11.948  0.00  0.00     0.028 H 
ENDBRANCH  18  24
ENDBRANCH  11  14
ENDBRANCH   1  11
BRANCH   1  28
ATOM     28  C   LIG d   1       2.840  -0.448  -5.843  0.00  0.00     0.022 C 
ATOM     29  H   LIG d   1       2.083   0.335  -5.792  0.00  0.00     0.044 H 
ATOM     30  H   LIG d   1       2.351  -1.422  -5.889  0.00  0.00     0.044 H 
BRANCH  28  31
ATOM     31  N   LIG d   1       3.693  -0.384  -4.650  0.00  0.00    -0.300 N 
ATOM     32  C   LIG d   1       3.845  -1.713  -4.038  0.00  0.00     0.007 C 
ATOM     33  C   LIG d   1       4.882  -1.601  -2.908  0.00  0.00     0.013 C 
ATOM     34  H   LIG d   1       2.889  -2.043  -3.630  0.00  0.00     0.043 H 
ATOM     35  H   LIG d   1       4.191  -2.426  -4.787  0.00  0.00     0.043 H 
ATOM     36  C   LIG d   1       4.309  -0.673  -1.830  0.00  0.00    -0.038 C 
ATOM     37  H   LIG d   1       5.099  -2.584  -2.490  0.00  0.00     0.038 H 
ATOM     38  C   LIG d   1       6.135  -0.981  -3.484  0.00  0.00     0.026 C 
ATOM     39  C   LIG d   1       4.088   0.699  -2.473  0.00  0.00    -0.009 C 
ATOM     40  H   LIG d   1       5.016  -0.586  -1.004  0.00  0.00     0.028 H 
ATOM     41  H   LIG d   1       3.362  -1.069  -1.466  0.00  0.00     0.028 H 
ATOM     42  C   LIG d   1       3.173   0.587  -3.682  0.00  0.00     0.003 C 
ATOM     43  H   LIG d   1       3.610   1.348  -1.738  0.00  0.00     0.033 H 
ATOM     44  C   LIG d   1       5.435   1.298  -2.836  0.00  0.00     0.030 C 
ATOM     45  H   LIG d   1       3.093   1.563  -4.162  0.00  0.00     0.043 H 
ATOM     46  H   LIG d   1       2.182   0.269  -3.354  0.00  0.00     0.043 H 
ATOM     47  N   LIG d   1       6.320   0.359  -3.519  0.00  0.00    -0.312 N 
ATOM     48  H   LIG d   1       5.276   2.162  -3.481  0.00  0.00     0.050 H 
ATOM     49  H   LIG d   1       5.934   1.627  -1.924  0.00  0.00     0.050 H 
ATOM     50  C   LIG d   1       7.385   0.876  -4.180  0.00  0.00     0.252 C 
ATOM     51  C   LIG d   1       8.384   0.037  -4.692  0.00  0.00     0.003 C 
ATOM     52  O   LIG d   1       7.474   2.084  -4.331  0.00  0.00    -0.268 OA
ATOM     53  C   LIG d   1       8.238  -1.315  -4.579  0.00  0.00    -0.055 C 
ATOM     54  H   LIG d   1       9.258   0.455  -5.170  0.00  0.00     0.067 H 
ATOM     55  C   LIG d   1       7.084  -1.822  -3.973  0.00  0.00    -0.042 C 
ATOM     56  H   LIG d   1       9.002  -1.983  -4.951  0.00  0.00     0.062 H 
ATOM     57  H   LIG d   1       6.945  -2.890  -3.895  0.00  0.00     0.064 H 
ENDBRANCH  28  31
ENDBRANCH   1  28
BRANCH   7  58
ATOM     58  C   LIG d   1       3.407  -2.831  -9.799  0.00  0.00     0.045 A 
ATOM     59  C   LIG d   1       4.572  -3.188 -10.465  0.00  0.00    -0.040 A 
ATOM     60  C   LIG d   1       4.635  -4.386 -11.150  0.00  0.00    -0.060 A 
ATOM     61  H   LIG d   1       5.430  -2.532 -10.441  0.00  0.00     0.064 H 
ATOM     62  C   LIG d   1       3.536  -5.223 -11.185  0.00  0.00    -0.062 A 
ATOM     63  H   LIG d   1       5.543  -4.665 -11.664  0.00  0.00     0.062 H 
ATOM     64  C   LIG d   1       2.372  -4.868 -10.528  0.00  0.00    -0.060 A 
ATOM     65  H   LIG d   1       3.586  -6.156 -11.726  0.00  0.00     0.062 H 
ATOM     66  C   LIG d   1       2.304  -3.675  -9.836  0.00  0.00    -0.040 A 
ATOM     67  H   LIG d   1       1.515  -5.524 -10.557  0.00  0.00     0.062 H 
ATOM     68  H   LIG d   1       1.395  -3.397  -9.324  0.00  0.00     0.064 H 
ENDBRANCH   7  58
TORSDOF 6
ENDMDL
MODEL 4
REMARK VINA RESULT:      -7.4      1.978      2.972
REMARK  6 active torsions:
REMARK  status: ('A' for Active; 'I' for Inactive)
REMARK    1  A    between atoms: C_1  and  C_2 
REMARK    2  A    between atoms: C_5  and  C_8 
REMARK    3  A    between atoms: C_8  and  C_9 
REMARK    4  A    between atoms: C_9  and  C_24 
REMARK    5  A    between atoms: N_15  and  C_18 
REMARK    6  A    between atoms: C_24  and  N_25 
ROOT
ATOM      1  C   LIG d   1       6.486  -2.441  -7.168  0.00  0.00     0.140 A 
ATOM      2  C   LIG d   1       7.672  -3.294  -6.762  0.00  0.00     0.237 A 
ATOM      3  O   LIG d   1       8.283  -3.952  -7.577  0.00  0.00    -0.274 OA
ATOM      4  N   LIG d   1       8.022  -3.295  -5.459  0.00  0.00    -0.238 N 
ATOM      5  C   LIG d   1       7.358  -2.575  -4.546  0.00  0.00     0.319 A 
ATOM      6  O   LIG d   1       7.742  -2.634  -3.394  0.00  0.00    -0.251 OA
ATOM      7  N   LIG d   1       6.304  -1.796  -4.809  0.00  0.00    -0.193 N 
ATOM      8  C   LIG d   1       5.805  -1.665  -6.056  0.00  0.00     0.244 A 
ATOM      9  O   LIG d   1       4.848  -0.956  -6.280  0.00  0.00    -0.274 OA
ATOM     10  H   LIG d   1       8.777  -3.833  -5.174  0.00  0.00     0.159 HD
ENDROOT
BRANCH   1  11
ATOM     11  C   LIG d   1       6.958  -1.441  -8.226  0.00  0.00    -0.004 C 
ATOM     12  H   LIG d   1       6.095  -0.945  -8.670  0.00  0.00     0.033 H 
ATOM     13  H   LIG d   1       7.513  -1.969  -9.002  0.00  0.00     0.033 H 
BRANCH  11  14
ATOM     14  C   LIG d   1       7.852  -0.413  -7.581  0.00  0.00    -0.046 A 
ATOM     15  C   LIG d   1       7.325   0.793  -7.159  0.00  0.00    -0.058 A 
ATOM     16  C   LIG d   1       8.146   1.736  -6.567  0.00  0.00    -0.059 A 
ATOM     17  H   LIG d   1       6.274   0.998  -7.289  0.00  0.00     0.062 H 
ATOM     18  C   LIG d   1       9.492   1.472  -6.398  0.00  0.00    -0.050 A 
ATOM     19  H   LIG d   1       7.734   2.678  -6.236  0.00  0.00     0.062 H 
ATOM     20  C   LIG d   1      10.020   0.269  -6.826  0.00  0.00    -0.059 A 
ATOM     21  C   LIG d   1       9.199  -0.676  -7.413  0.00  0.00    -0.058 A 
ATOM     22  H   LIG d   1      11.072   0.064  -6.698  0.00  0.00     0.062 H 
ATOM     23  H   LIG d   1       9.610  -1.618  -7.744  0.00  0.00     0.062 H 
BRANCH  18  24
ATOM     24  C   LIG d   1      10.386   2.500  -5.753  0.00  0.00    -0.040 C 
ATOM     25  H   LIG d   1       9.852   2.980  -4.931  0.00  0.00     0.028 H 
ATOM     26  H   LIG d   1      11.282   2.013  -5.369  0.00  0.00     0.028 H 
ATOM     27  H   LIG d   1      10.667   3.251  -6.490  0.00  0.00     0.028 H 
ENDBRANCH  18  24
ENDBRANCH  11  14
ENDBRANCH   1  11
BRANCH   1  28
ATOM     28  C   LIG d   1       5.446  -3.357  -7.816  0.00  0.00     0.022 C 
ATOM     29  H   LIG d   1       5.942  -4.231  -8.237  0.00  0.00     0.044 H 
ATOM     30  H   LIG d   1       4.724  -3.677  -7.063  0.00  0.00     0.044 H 
BRANCH  28  31
ATOM     31  N   LIG d   1       4.748  -2.629  -8.883  0.00  0.00    -0.300 N 
ATOM     32  C   LIG d   1       3.291  -2.803  -8.775  0.00  0.00     0.007 C 
ATOM     33  C   LIG d   1       2.624  -1.880  -9.809  0.00  0.00     0.013 C 
ATOM     34  H   LIG d   1       3.028  -3.840  -8.983  0.00  0.00     0.043 H 
ATOM     35  H   LIG d   1       2.961  -2.532  -7.772  0.00  0.00     0.043 H 
ATOM     36  C   LIG d   1       3.032  -2.360 -11.206  0.00  0.00    -0.038 C 
ATOM     37  H   LIG d   1       1.540  -1.902  -9.698  0.00  0.00     0.038 H 
ATOM     38  C   LIG d   1       3.150  -0.478  -9.591  0.00  0.00     0.026 C 
ATOM     39  C   LIG d   1       4.555  -2.243 -11.308  0.00  0.00    -0.009 C 
ATOM     40  H   LIG d   1       2.560  -1.734 -11.964  0.00  0.00     0.028 H 
ATOM     41  H   LIG d   1       2.730  -3.398 -11.343  0.00  0.00     0.028 H 
ATOM     42  C   LIG d   1       5.233  -3.039 -10.205  0.00  0.00     0.003 C 
ATOM     43  H   LIG d   1       4.867  -2.652 -12.270  0.00  0.00     0.033 H 
ATOM     44  C   LIG d   1       4.942  -0.775 -11.266  0.00  0.00     0.030 C 
ATOM     45  H   LIG d   1       6.310  -2.877 -10.257  0.00  0.00     0.043 H 
ATOM     46  H   LIG d   1       5.024  -4.100 -10.349  0.00  0.00     0.043 H 
ATOM     47  N   LIG d   1       4.269  -0.030 -10.206  0.00  0.00    -0.312 N 
ATOM     48  H   LIG d   1       6.019  -0.697 -11.121  0.00  0.00     0.050 H 
ATOM     49  H   LIG d   1       4.681  -0.312 -12.219  0.00  0.00     0.050 H 
ATOM     50  C   LIG d   1       4.788   1.175  -9.867  0.00  0.00     0.252 C 
ATOM     51  C   LIG d   1       4.095   2.034  -9.002  0.00  0.00     0.003 C 
ATOM     52  O   LIG d   1       5.871   1.515 -10.317  0.00  0.00    -0.268 OA
ATOM     53  C   LIG d   1       2.920   1.614  -8.450  0.00  0.00    -0.055 C 
ATOM     54  H   LIG d   1       4.485   3.016  -8.778  0.00  0.00     0.067 H 
ATOM     55  C   LIG d   1       2.455   0.329  -8.747  0.00  0.00    -0.042 C 
ATOM     56  H   LIG d   1       2.358   2.264  -7.795  0.00  0.00     0.062 H 
ATOM     57  H   LIG d   1       1.537  -0.025  -8.302  0.00  0.00     0.064 H 
ENDBRANCH  28  31
ENDBRANCH   1  28
BRANCH   7  58
ATOM     58  C   LIG d   1       5.698  -1.094  -3.758  0.00  0.00     0.045 A 
ATOM     59  C   LIG d   1       5.995   0.247  -3.555  0.00  0.00    -0.040 A 
ATOM     60  C   LIG d   1       5.392   0.938  -2.522  0.00  0.00    -0.060 A 
ATOM     61  H   LIG d   1       6.693   0.751  -4.207  0.00  0.00     0.064 H 
ATOM     62  C   LIG d   1       4.502   0.293  -1.683  0.00  0.00    -0.062 A 
ATOM     63  H   LIG d   1       5.620   1.982  -2.366  0.00  0.00     0.062 H 
ATOM     64  C   LIG d   1       4.208  -1.045  -1.879  0.00  0.00    -0.060 A 
ATOM     65  H   LIG d   1       4.035   0.834  -0.873  0.00  0.00     0.062 H 
ATOM     66  C   LIG d   1       4.804  -1.739  -2.914  0.00  0.00    -0.040 A 
ATOM     67  H   LIG d   1       3.513  -1.546  -1.223  0.00  0.00     0.062 H 
ATOM     68  H   LIG d   1       4.575  -2.783  -3.067  0.00  0.00     0.064 H 
ENDBRANCH   7  58
TORSDOF 6
ENDMDL
MODEL 5
REMARK VINA RESULT:      -6.9      2.179      5.715
REMARK  6 active torsions:
REMARK  status: ('A' for Active; 'I' for Inactive)
REMARK    1  A    between atoms: C_1  and  C_2 
REMARK    2  A    between atoms: C_5  and  C_8 
REMARK    3  A    between atoms: C_8  and  C_9 
REMARK    4  A    between atoms: C_9  and  C_24 
REMARK    5  A    between atoms: N_15  and  C_18 
REMARK    6  A    between atoms: C_24  and  N_25 
ROOT
ATOM      1  C   LIG d   1       4.981  -1.325  -7.693  0.00  0.00     0.140 A 
ATOM      2  C   LIG d   1       6.415  -1.787  -7.866  0.00  0.00     0.237 A 
ATOM      3  O   LIG d   1       6.829  -2.164  -8.941  0.00  0.00    -0.274 OA
ATOM      4  N   LIG d   1       7.213  -1.763  -6.778  0.00  0.00    -0.238 N 
ATOM      5  C   LIG d   1       6.772  -1.350  -5.584  0.00  0.00     0.319 A 
ATOM      6  O   LIG d   1       7.559  -1.361  -4.658  0.00  0.00    -0.251 OA
ATOM      7  N   LIG d   1       5.528  -0.926  -5.335  0.00  0.00    -0.193 N 
ATOM      8  C   LIG d   1       4.584  -0.878  -6.299  0.00  0.00     0.244 A 
ATOM      9  O   LIG d   1       3.459  -0.492  -6.058  0.00  0.00    -0.274 OA
ATOM     10  H   LIG d   1       8.135  -2.054  -6.864  0.00  0.00     0.159 HD
ENDROOT
BRANCH   1  11
ATOM     11  C   LIG d   1       4.736  -0.161  -8.654  0.00  0.00    -0.004 C 
ATOM     12  H   LIG d   1       5.650   0.053  -9.208  0.00  0.00     0.033 H 
ATOM     13  H   LIG d   1       4.441   0.723  -8.087  0.00  0.00     0.033 H 
BRANCH  11  14
ATOM     14  C   LIG d   1       3.637  -0.527  -9.619  0.00  0.00    -0.046 A 
ATOM     15  C   LIG d   1       2.316  -0.317  -9.274  0.00  0.00    -0.058 A 
ATOM     16  C   LIG d   1       1.309  -0.653 -10.159  0.00  0.00    -0.059 A 
ATOM     17  H   LIG d   1       2.070   0.111  -8.313  0.00  0.00     0.062 H 
ATOM     18  C   LIG d   1       1.623  -1.199 -11.389  0.00  0.00    -0.050 A 
ATOM     19  H   LIG d   1       0.276  -0.488  -9.890  0.00  0.00     0.062 H 
ATOM     20  C   LIG d   1       2.945  -1.415 -11.732  0.00  0.00    -0.059 A 
ATOM     21  C   LIG d   1       3.952  -1.074 -10.849  0.00  0.00    -0.058 A 
ATOM     22  H   LIG d   1       3.191  -1.846 -12.691  0.00  0.00     0.062 H 
ATOM     23  H   LIG d   1       4.985  -1.239 -11.117  0.00  0.00     0.062 H 
BRANCH  18  24
ATOM     24  C   LIG d   1       0.525  -1.565 -12.355  0.00  0.00    -0.040 C 
ATOM     25  H   LIG d   1      -0.026  -0.666 -12.634  0.00  0.00     0.028 H 
ATOM     26  H   LIG d   1       0.960  -2.017 -13.246  0.00  0.00     0.028 H 
ATOM     27  H   LIG d   1      -0.153  -2.274 -11.880  0.00  0.00     0.028 H 
ENDBRANCH  18  24
ENDBRANCH  11  14
ENDBRANCH   1  11
BRANCH   1  28
ATOM     28  C   LIG d   1       4.061  -2.477  -8.102  0.00  0.00     0.022 C 
ATOM     29  H   LIG d   1       3.085  -2.349  -7.634  0.00  0.00     0.044 H 
ATOM     30  H   LIG d   1       3.945  -2.482  -9.187  0.00  0.00     0.044 H 
BRANCH  28  31
ATOM     31  N   LIG d   1       4.648  -3.752  -7.668  0.00  0.00    -0.300 N 
ATOM     32  C   LIG d   1       4.304  -4.836  -8.601  0.00  0.00     0.007 C 
ATOM     33  C   LIG d   1       5.089  -6.090  -8.183  0.00  0.00     0.013 C 
ATOM     34  H   LIG d   1       3.234  -5.038  -8.552  0.00  0.00     0.043 H 
ATOM     35  H   LIG d   1       4.579  -4.550  -9.616  0.00  0.00     0.043 H 
ATOM     36  C   LIG d   1       4.597  -6.517  -6.796  0.00  0.00    -0.038 C 
ATOM     37  H   LIG d   1       4.941  -6.892  -8.906  0.00  0.00     0.038 H 
ATOM     38  C   LIG d   1       6.553  -5.717  -8.098  0.00  0.00     0.026 C 
ATOM     39  C   LIG d   1       4.894  -5.369  -5.827  0.00  0.00    -0.009 C 
ATOM     40  H   LIG d   1       5.125  -7.417  -6.477  0.00  0.00     0.028 H 
ATOM     41  H   LIG d   1       3.524  -6.708  -6.826  0.00  0.00     0.028 H 
ATOM     42  C   LIG d   1       4.238  -4.081  -6.299  0.00  0.00     0.003 C 
ATOM     43  H   LIG d   1       4.480  -5.628  -4.851  0.00  0.00     0.033 H 
ATOM     44  C   LIG d   1       6.398  -5.219  -5.684  0.00  0.00     0.030 C 
ATOM     45  H   LIG d   1       4.527  -3.267  -5.634  0.00  0.00     0.043 H 
ATOM     46  H   LIG d   1       3.154  -4.199  -6.270  0.00  0.00     0.043 H 
ATOM     47  N   LIG d   1       7.104  -5.235  -6.961  0.00  0.00    -0.312 N 
ATOM     48  H   LIG d   1       6.613  -4.279  -5.175  0.00  0.00     0.050 H 
ATOM     49  H   LIG d   1       6.780  -6.042  -5.079  0.00  0.00     0.050 H 
ATOM     50  C   LIG d   1       8.378  -4.772  -6.973  0.00  0.00     0.252 C 
ATOM     51  C   LIG d   1       9.187  -4.933  -8.107  0.00  0.00     0.003 C 
ATOM     52  O   LIG d   1       8.826  -4.209  -5.987  0.00  0.00    -0.268 OA
ATOM     53  C   LIG d   1       8.654  -5.501  -9.227  0.00  0.00    -0.055 C 
ATOM     54  H   LIG d   1      10.218  -4.612  -8.094  0.00  0.00     0.067 H 
ATOM     55  C   LIG d   1       7.309  -5.885  -9.215  0.00  0.00    -0.042 C 
ATOM     56  H   LIG d   1       9.260  -5.651 -10.109  0.00  0.00     0.062 H 
ATOM     57  H   LIG d   1       6.867  -6.317 -10.101  0.00  0.00     0.064 H 
ENDBRANCH  28  31
ENDBRANCH   1  28
BRANCH   7  58
ATOM     58  C   LIG d   1       5.195  -0.521  -4.036  0.00  0.00     0.045 A 
ATOM     59  C   LIG d   1       4.659  -1.434  -3.137  0.00  0.00    -0.040 A 
ATOM     60  C   LIG d   1       4.338  -1.032  -1.855  0.00  0.00    -0.060 A 
ATOM     61  H   LIG d   1       4.500  -2.459  -3.439  0.00  0.00     0.064 H 
ATOM     62  C   LIG d   1       4.537   0.280  -1.470  0.00  0.00    -0.062 A 
ATOM     63  H   LIG d   1       3.925  -1.744  -1.155  0.00  0.00     0.062 H 
ATOM     64  C   LIG d   1       5.065   1.194  -2.364  0.00  0.00    -0.060 A 
ATOM     65  H   LIG d   1       4.280   0.593  -0.469  0.00  0.00     0.062 H 
ATOM     66  C   LIG d   1       5.394   0.797  -3.645  0.00  0.00    -0.040 A 
ATOM     67  H   LIG d   1       5.219   2.218  -2.061  0.00  0.00     0.062 H 
ATOM     68  H   LIG d   1       5.805   1.511  -4.344  0.00  0.00     0.064 H 
ENDBRANCH   7  58
TORSDOF 6
ENDMDL
MODEL 6
REMARK VINA RESULT:      -6.7      1.657      3.319
REMARK  6 active torsions:
REMARK  status: ('A' for Active; 'I' for Inactive)
REMARK    1  A    between atoms: C_1  and  C_2 
REMARK    2  A    between atoms: C_5  and  C_8 
REMARK    3  A    between atoms: C_8  and  C_9 
REMARK    4  A    between atoms: C_9  and  C_24 
REMARK    5  A    between atoms: N_15  and  C_18 
REMARK    6  A    between atoms: C_24  and  N_25 
ROOT
ATOM      1  C   LIG d   1       6.811  -0.729  -7.517  0.00  0.00     0.140 A 
ATOM      2  C   LIG d   1       6.389  -1.859  -8.436  0.00  0.00     0.237 A 
ATOM      3  O   LIG d   1       6.913  -2.019  -9.518  0.00  0.00    -0.274 OA
ATOM      4  N   LIG d   1       5.409  -2.680  -8.005  0.00  0.00    -0.238 N 
ATOM      5  C   LIG d   1       4.820  -2.517  -6.814  0.00  0.00     0.319 A 
ATOM      6  O   LIG d   1       3.946  -3.303  -6.505  0.00  0.00    -0.251 OA
ATOM      7  N   LIG d   1       5.124  -1.553  -5.938  0.00  0.00    -0.193 N 
ATOM      8  C   LIG d   1       6.080  -0.634  -6.191  0.00  0.00     0.244 A 
ATOM      9  O   LIG d   1       6.344   0.236  -5.388  0.00  0.00    -0.274 OA
ATOM     10  H   LIG d   1       5.122  -3.411  -8.574  0.00  0.00     0.159 HD
ENDROOT
BRANCH   1  11
ATOM     11  C   LIG d   1       8.305  -0.883  -7.227  0.00  0.00    -0.004 C 
ATOM     12  H   LIG d   1       8.668   0.003  -6.705  0.00  0.00     0.033 H 
ATOM     13  H   LIG d   1       8.847  -0.998  -8.165  0.00  0.00     0.033 H 
BRANCH  11  14
ATOM     14  C   LIG d   1       8.527  -2.100  -6.366  0.00  0.00    -0.046 A 
ATOM     15  C   LIG d   1       8.573  -1.974  -4.990  0.00  0.00    -0.058 A 
ATOM     16  C   LIG d   1       8.777  -3.091  -4.201  0.00  0.00    -0.059 A 
ATOM     17  H   LIG d   1       8.450  -1.004  -4.532  0.00  0.00     0.062 H 
ATOM     18  C   LIG d   1       8.933  -4.333  -4.787  0.00  0.00    -0.050 A 
ATOM     19  H   LIG d   1       8.812  -2.994  -3.126  0.00  0.00     0.062 H 
ATOM     20  C   LIG d   1       8.892  -4.457  -6.163  0.00  0.00    -0.059 A 
ATOM     21  C   LIG d   1       8.684  -3.342  -6.952  0.00  0.00    -0.058 A 
ATOM     22  H   LIG d   1       9.018  -5.427  -6.622  0.00  0.00     0.062 H 
ATOM     23  H   LIG d   1       8.648  -3.439  -8.027  0.00  0.00     0.062 H 
BRANCH  18  24
ATOM     24  C   LIG d   1       9.154  -5.551  -3.926  0.00  0.00    -0.040 C 
ATOM     25  H   LIG d   1       9.264  -6.429  -4.563  0.00  0.00     0.028 H 
ATOM     26  H   LIG d   1      10.057  -5.416  -3.332  0.00  0.00     0.028 H 
ATOM     27  H   LIG d   1       8.299  -5.687  -3.265  0.00  0.00     0.028 H 
ENDBRANCH  18  24
ENDBRANCH  11  14
ENDBRANCH   1  11
BRANCH   1  28
ATOM     28  C   LIG d   1       6.609   0.589  -8.267  0.00  0.00     0.022 C 
ATOM     29  H   LIG d   1       6.713   1.423  -7.573  0.00  0.00     0.044 H 
ATOM     30  H   LIG d   1       7.357   0.677  -9.055  0.00  0.00     0.044 H 
BRANCH  28  31
ATOM     31  N   LIG d   1       5.266   0.614  -8.863  0.00  0.00    -0.300 N 
ATOM     32  C   LIG d   1       5.217   1.528 -10.014  0.00  0.00     0.007 C 
ATOM     33  C   LIG d   1       3.844   1.371 -10.688  0.00  0.00     0.013 C 
ATOM     34  H   LIG d   1       5.345   2.556  -9.674  0.00  0.00     0.043 H 
ATOM     35  H   LIG d   1       6.006   1.273 -10.722  0.00  0.00     0.043 H 
ATOM     36  C   LIG d   1       2.773   1.839  -9.696  0.00  0.00    -0.038 C 
ATOM     37  H   LIG d   1       3.798   1.959 -11.605  0.00  0.00     0.038 H 
ATOM     38  C   LIG d   1       3.636  -0.097 -10.988  0.00  0.00     0.026 C 
ATOM     39  C   LIG d   1       2.857   0.932  -8.464  0.00  0.00    -0.009 C 
ATOM     40  H   LIG d   1       1.786   1.755 -10.151  0.00  0.00     0.028 H 
ATOM     41  H   LIG d   1       2.962   2.873  -9.408  0.00  0.00     0.028 H 
ATOM     42  C   LIG d   1       4.253   0.966  -7.863  0.00  0.00     0.003 C 
ATOM     43  H   LIG d   1       2.152   1.302  -7.718  0.00  0.00     0.033 H 
ATOM     44  C   LIG d   1       2.444  -0.475  -8.858  0.00  0.00     0.030 C 
ATOM     45  H   LIG d   1       4.304   0.257  -7.037  0.00  0.00     0.043 H 
ATOM     46  H   LIG d   1       4.456   1.969  -7.486  0.00  0.00     0.043 H 
ATOM     47  N   LIG d   1       3.072  -0.938 -10.091  0.00  0.00    -0.312 N 
ATOM     48  H   LIG d   1       2.707  -1.159  -8.051  0.00  0.00     0.050 H 
ATOM     49  H   LIG d   1       1.363  -0.500  -9.001  0.00  0.00     0.050 H 
ATOM     50  C   LIG d   1       3.045  -2.271 -10.340  0.00  0.00     0.252 C 
ATOM     51  C   LIG d   1       3.449  -2.773 -11.586  0.00  0.00     0.003 C 
ATOM     52  O   LIG d   1       2.665  -3.040  -9.472  0.00  0.00    -0.268 OA
ATOM     53  C   LIG d   1       3.937  -1.910 -12.523  0.00  0.00    -0.055 C 
ATOM     54  H   LIG d   1       3.374  -3.828 -11.800  0.00  0.00     0.067 H 
ATOM     55  C   LIG d   1       4.039  -0.552 -12.203  0.00  0.00    -0.042 C 
ATOM     56  H   LIG d   1       4.239  -2.269 -13.496  0.00  0.00     0.062 H 
ATOM     57  H   LIG d   1       4.443   0.140 -12.928  0.00  0.00     0.064 H 
ENDBRANCH  28  31
ENDBRANCH   1  28
BRANCH   7  58
ATOM     58  C   LIG d   1       4.429  -1.493  -4.723  0.00  0.00     0.045 A 
ATOM     59  C   LIG d   1       4.811  -2.303  -3.662  0.00  0.00    -0.040 A 
ATOM     60  C   LIG d   1       4.128  -2.237  -2.463  0.00  0.00    -0.060 A 
ATOM     61  H   LIG d   1       5.646  -2.979  -3.772  0.00  0.00     0.064 H 
ATOM     62  C   LIG d   1       3.056  -1.376  -2.323  0.00  0.00    -0.062 A 
ATOM     63  H   LIG d   1       4.428  -2.864  -1.637  0.00  0.00     0.062 H 
ATOM     64  C   LIG d   1       2.668  -0.573  -3.380  0.00  0.00    -0.060 A 
ATOM     65  H   LIG d   1       2.520  -1.331  -1.387  0.00  0.00     0.062 H 
ATOM     66  C   LIG d   1       3.351  -0.629  -4.579  0.00  0.00    -0.040 A 
ATOM     67  H   LIG d   1       1.830   0.099  -3.268  0.00  0.00     0.062 H 
ATOM     68  H   LIG d   1       3.048  -0.002  -5.404  0.00  0.00     0.064 H 
ENDBRANCH   7  58
TORSDOF 6
ENDMDL
MODEL 7
REMARK VINA RESULT:      -6.5      2.030      4.213
REMARK  6 active torsions:
REMARK  status: ('A' for Active; 'I' for Inactive)
REMARK    1  A    between atoms: C_1  and  C_2 
REMARK    2  A    between atoms: C_5  and  C_8 
REMARK    3  A    between atoms: C_8  and  C_9 
REMARK    4  A    between atoms: C_9  and  C_24 
REMARK    5  A    between atoms: N_15  and  C_18 
REMARK    6  A    between atoms: C_24  and  N_25 
ROOT
ATOM      1  C   LIG d   1       6.869  -0.224  -7.407  0.00  0.00     0.140 A 
ATOM      2  C   LIG d   1       6.580  -1.397  -8.323  0.00  0.00     0.237 A 
ATOM      3  O   LIG d   1       7.085  -1.476  -9.423  0.00  0.00    -0.274 OA
ATOM      4  N   LIG d   1       5.739  -2.350  -7.870  0.00  0.00    -0.238 N 
ATOM      5  C   LIG d   1       5.172  -2.278  -6.659  0.00  0.00     0.319 A 
ATOM      6  O   LIG d   1       4.427  -3.180  -6.331  0.00  0.00    -0.251 OA
ATOM      7  N   LIG d   1       5.366  -1.285  -5.784  0.00  0.00    -0.193 N 
ATOM      8  C   LIG d   1       6.176  -0.240  -6.057  0.00  0.00     0.244 A 
ATOM      9  O   LIG d   1       6.341   0.654  -5.255  0.00  0.00    -0.274 OA
ATOM     10  H   LIG d   1       5.539  -3.111  -8.437  0.00  0.00     0.159 HD
ENDROOT
BRANCH   1  11
ATOM     11  C   LIG d   1       8.379  -0.169  -7.165  0.00  0.00    -0.004 C 
ATOM     12  H   LIG d   1       8.872  -0.928  -7.772  0.00  0.00     0.033 H 
ATOM     13  H   LIG d   1       8.585  -0.355  -6.112  0.00  0.00     0.033 H 
BRANCH  11  14
ATOM     14  C   LIG d   1       8.899   1.194  -7.545  0.00  0.00    -0.046 A 
ATOM     15  C   LIG d   1       9.066   2.165  -6.575  0.00  0.00    -0.058 A 
ATOM     16  C   LIG d   1       9.543   3.415  -6.924  0.00  0.00    -0.059 A 
ATOM     17  H   LIG d   1       8.824   1.947  -5.546  0.00  0.00     0.062 H 
ATOM     18  C   LIG d   1       9.854   3.693  -8.242  0.00  0.00    -0.050 A 
ATOM     19  H   LIG d   1       9.675   4.173  -6.167  0.00  0.00     0.062 H 
ATOM     20  C   LIG d   1       9.682   2.724  -9.212  0.00  0.00    -0.059 A 
ATOM     21  C   LIG d   1       9.209   1.473  -8.863  0.00  0.00    -0.058 A 
ATOM     22  H   LIG d   1       9.920   2.943 -10.242  0.00  0.00     0.062 H 
ATOM     23  H   LIG d   1       9.077   0.714  -9.620  0.00  0.00     0.062 H 
BRANCH  18  24
ATOM     24  C   LIG d   1      10.375   5.056  -8.621  0.00  0.00    -0.040 C 
ATOM     25  H   LIG d   1      10.267   5.198  -9.697  0.00  0.00     0.028 H 
ATOM     26  H   LIG d   1       9.807   5.822  -8.094  0.00  0.00     0.028 H 
ATOM     27  H   LIG d   1      11.427   5.130  -8.349  0.00  0.00     0.028 H 
ENDBRANCH  18  24
ENDBRANCH  11  14
ENDBRANCH   1  11
BRANCH   1  28
ATOM     28  C   LIG d   1       6.460   1.057  -8.137  0.00  0.00     0.022 C 
ATOM     29  H   LIG d   1       6.457   1.891  -7.435  0.00  0.00     0.044 H 
ATOM     30  H   LIG d   1       7.170   1.260  -8.939  0.00  0.00     0.044 H 
BRANCH  28  31
ATOM     31  N   LIG d   1       5.116   0.890  -8.704  0.00  0.00    -0.300 N 
ATOM     32  C   LIG d   1       4.893   1.827  -9.816  0.00  0.00     0.007 C 
ATOM     33  C   LIG d   1       3.544   1.478 -10.468  0.00  0.00     0.013 C 
ATOM     34  H   LIG d   1       4.866   2.848  -9.438  0.00  0.00     0.043 H 
ATOM     35  H   LIG d   1       5.694   1.726 -10.549  0.00  0.00     0.043 H 
ATOM     36  C   LIG d   1       2.439   1.734  -9.437  0.00  0.00    -0.038 C 
ATOM     37  H   LIG d   1       3.383   2.084 -11.360  0.00  0.00     0.038 H 
ATOM     38  C   LIG d   1       3.563   0.008 -10.823  0.00  0.00     0.026 C 
ATOM     39  C   LIG d   1       2.697   0.807  -8.246  0.00  0.00    -0.009 C 
ATOM     40  H   LIG d   1       1.466   1.511  -9.876  0.00  0.00     0.028 H 
ATOM     41  H   LIG d   1       2.470   2.773  -9.112  0.00  0.00     0.028 H 
ATOM     42  C   LIG d   1       4.086   1.040  -7.671  0.00  0.00     0.003 C 
ATOM     43  H   LIG d   1       1.962   1.032  -7.471  0.00  0.00     0.033 H 
ATOM     44  C   LIG d   1       2.501  -0.632  -8.687  0.00  0.00     0.030 C 
ATOM     45  H   LIG d   1       4.269   0.319  -6.875  0.00  0.00     0.043 H 
ATOM     46  H   LIG d   1       4.138   2.048  -7.258  0.00  0.00     0.043 H 
ATOM     47  N   LIG d   1       3.162  -0.945  -9.950  0.00  0.00    -0.312 N 
ATOM     48  H   LIG d   1       2.890  -1.295  -7.914  0.00  0.00     0.050 H 
ATOM     49  H   LIG d   1       1.435  -0.823  -8.810  0.00  0.00     0.050 H 
ATOM     50  C   LIG d   1       3.339  -2.254 -10.253  0.00  0.00     0.252 C 
ATOM     51  C   LIG d   1       3.785  -2.640 -11.525  0.00  0.00     0.003 C 
ATOM     52  O   LIG d   1       3.108  -3.106  -9.409  0.00  0.00    -0.268 OA
ATOM     53  C   LIG d   1       4.106  -1.677 -12.436  0.00  0.00    -0.055 C 
ATOM     54  H   LIG d   1       3.872  -3.685 -11.780  0.00  0.00     0.067 H 
ATOM     55  C   LIG d   1       4.001  -0.333 -12.064  0.00  0.00    -0.042 C 
ATOM     56  H   LIG d   1       4.436  -1.948 -13.428  0.00  0.00     0.062 H 
ATOM     57  H   LIG d   1       4.272   0.441 -12.768  0.00  0.00     0.064 H 
ENDBRANCH  28  31
ENDBRANCH   1  28
BRANCH   7  58
ATOM     58  C   LIG d   1       4.710  -1.331  -4.547  0.00  0.00     0.045 A 
ATOM     59  C   LIG d   1       5.327  -1.923  -3.453  0.00  0.00    -0.040 A 
ATOM     60  C   LIG d   1       4.679  -1.960  -2.233  0.00  0.00    -0.060 A 
ATOM     61  H   LIG d   1       6.314  -2.348  -3.555  0.00  0.00     0.064 H 
ATOM     62  C   LIG d   1       3.413  -1.421  -2.104  0.00  0.00    -0.062 A 
ATOM     63  H   LIG d   1       5.160  -2.417  -1.381  0.00  0.00     0.062 H 
ATOM     64  C   LIG d   1       2.793  -0.836  -3.193  0.00  0.00    -0.060 A 
ATOM     65  H   LIG d   1       2.907  -1.456  -1.151  0.00  0.00     0.062 H 
ATOM     66  C   LIG d   1       3.437  -0.789  -4.414  0.00  0.00    -0.040 A 
ATOM     67  H   LIG d   1       1.804  -0.415  -3.090  0.00  0.00     0.062 H 
ATOM     68  H   LIG d   1       2.953  -0.333  -5.265  0.00  0.00     0.064 H 
ENDBRANCH   7  58
TORSDOF 6
ENDMDL
MODEL 8
REMARK VINA RESULT:      -6.4      2.829      5.495
REMARK  6 active torsions:
REMARK  status: ('A' for Active; 'I' for Inactive)
REMARK    1  A    between atoms: C_1  and  C_2 
REMARK    2  A    between atoms: C_5  and  C_8 
REMARK    3  A    between atoms: C_8  and  C_9 
REMARK    4  A    between atoms: C_9  and  C_24 
REMARK    5  A    between atoms: N_15  and  C_18 
REMARK    6  A    between atoms: C_24  and  N_25 
ROOT
ATOM      1  C   LIG d   1       5.989  -3.345  -7.727  0.00  0.00     0.140 A 
ATOM      2  C   LIG d   1       7.286  -2.561  -7.782  0.00  0.00     0.237 A 
ATOM      3  O   LIG d   1       8.103  -2.756  -8.657  0.00  0.00    -0.274 OA
ATOM      4  N   LIG d   1       7.499  -1.638  -6.821  0.00  0.00    -0.238 N 
ATOM      5  C   LIG d   1       6.608  -1.410  -5.848  0.00  0.00     0.319 A 
ATOM      6  O   LIG d   1       6.880  -0.560  -5.023  0.00  0.00    -0.251 OA
ATOM      7  N   LIG d   1       5.440  -2.049  -5.718  0.00  0.00    -0.193 N 
ATOM      8  C   LIG d   1       5.050  -3.008  -6.584  0.00  0.00     0.244 A 
ATOM      9  O   LIG d   1       3.989  -3.580  -6.453  0.00  0.00    -0.274 OA
ATOM     10  H   LIG d   1       8.321  -1.123  -6.835  0.00  0.00     0.159 HD
ENDROOT
BRANCH   1  11
ATOM     11  C   LIG d   1       5.240  -3.118  -9.042  0.00  0.00    -0.004 C 
ATOM     12  H   LIG d   1       4.485  -3.894  -9.169  0.00  0.00     0.033 H 
ATOM     13  H   LIG d   1       5.944  -3.156  -9.873  0.00  0.00     0.033 H 
BRANCH  11  14
ATOM     14  C   LIG d   1       4.570  -1.767  -9.012  0.00  0.00    -0.046 A 
ATOM     15  C   LIG d   1       5.297  -0.630  -9.309  0.00  0.00    -0.058 A 
ATOM     16  C   LIG d   1       4.682   0.609  -9.282  0.00  0.00    -0.059 A 
ATOM     17  H   LIG d   1       6.343  -0.708  -9.563  0.00  0.00     0.062 H 
ATOM     18  C   LIG d   1       3.342   0.709  -8.958  0.00  0.00    -0.050 A 
ATOM     19  H   LIG d   1       5.249   1.498  -9.514  0.00  0.00     0.062 H 
ATOM     20  C   LIG d   1       2.618  -0.429  -8.656  0.00  0.00    -0.059 A 
ATOM     21  C   LIG d   1       3.230  -1.667  -8.688  0.00  0.00    -0.058 A 
ATOM     22  H   LIG d   1       1.571  -0.351  -8.399  0.00  0.00     0.062 H 
ATOM     23  H   LIG d   1       2.664  -2.557  -8.455  0.00  0.00     0.062 H 
BRANCH  18  24
ATOM     24  C   LIG d   1       2.673   2.059  -8.929  0.00  0.00    -0.040 C 
ATOM     25  H   LIG d   1       1.679   1.962  -8.490  0.00  0.00     0.028 H 
ATOM     26  H   LIG d   1       3.269   2.748  -8.332  0.00  0.00     0.028 H 
ATOM     27  H   LIG d   1       2.584   2.441  -9.946  0.00  0.00     0.028 H 
ENDBRANCH  18  24
ENDBRANCH  11  14
ENDBRANCH   1  11
BRANCH   1  28
ATOM     28  C   LIG d   1       6.340  -4.831  -7.634  0.00  0.00     0.022 C 
ATOM     29  H   LIG d   1       7.417  -4.958  -7.735  0.00  0.00     0.044 H 
ATOM     30  H   LIG d   1       6.018  -5.220  -6.667  0.00  0.00     0.044 H 
BRANCH  28  31
ATOM     31  N   LIG d   1       5.657  -5.564  -8.708  0.00  0.00    -0.300 N 
ATOM     32  C   LIG d   1       4.664  -6.500  -8.158  0.00  0.00     0.007 C 
ATOM     33  C   LIG d   1       3.874  -7.099  -9.334  0.00  0.00     0.013 C 
ATOM     34  H   LIG d   1       5.171  -7.295  -7.612  0.00  0.00     0.043 H 
ATOM     35  H   LIG d   1       3.986  -5.968  -7.491  0.00  0.00     0.043 H 
ATOM     36  C   LIG d   1       4.845  -7.923 -10.187  0.00  0.00    -0.038 C 
ATOM     37  H   LIG d   1       3.060  -7.725  -8.967  0.00  0.00     0.038 H 
ATOM     38  C   LIG d   1       3.331  -5.955 -10.162  0.00  0.00     0.026 C 
ATOM     39  C   LIG d   1       5.920  -6.968 -10.714  0.00  0.00    -0.009 C 
ATOM     40  H   LIG d   1       4.309  -8.376 -11.022  0.00  0.00     0.028 H 
ATOM     41  H   LIG d   1       5.305  -8.700  -9.577  0.00  0.00     0.028 H 
ATOM     42  C   LIG d   1       6.622  -6.259  -9.566  0.00  0.00     0.003 C 
ATOM     43  H   LIG d   1       6.661  -7.554 -11.260  0.00  0.00     0.033 H 
ATOM     44  C   LIG d   1       5.280  -5.987 -11.679  0.00  0.00     0.030 C 
ATOM     45  H   LIG d   1       7.327  -5.534  -9.971  0.00  0.00     0.043 H 
ATOM     46  H   LIG d   1       7.166  -6.993  -8.971  0.00  0.00     0.043 H 
ATOM     47  N   LIG d   1       4.039  -5.406 -11.175  0.00  0.00    -0.312 N 
ATOM     48  H   LIG d   1       5.986  -5.182 -11.886  0.00  0.00     0.050 H 
ATOM     49  H   LIG d   1       5.054  -6.504 -12.612  0.00  0.00     0.050 H 
ATOM     50  C   LIG d   1       3.581  -4.288 -11.790  0.00  0.00     0.252 C 
ATOM     51  C   LIG d   1       2.306  -3.783 -11.498  0.00  0.00     0.003 C 
ATOM     52  O   LIG d   1       4.286  -3.714 -12.605  0.00  0.00    -0.268 OA
ATOM     53  C   LIG d   1       1.556  -4.392 -10.535  0.00  0.00    -0.055 C 
ATOM     54  H   LIG d   1       1.923  -2.925 -12.029  0.00  0.00     0.067 H 
ATOM     55  C   LIG d   1       2.092  -5.489  -9.853  0.00  0.00    -0.042 C 
ATOM     56  H   LIG d   1       0.564  -4.033 -10.303  0.00  0.00     0.062 H 
ATOM     57  H   LIG d   1       1.518  -5.969  -9.073  0.00  0.00     0.064 H 
ENDBRANCH  28  31
ENDBRANCH   1  28
BRANCH   7  58
ATOM     58  C   LIG d   1       4.597  -1.715  -4.650  0.00  0.00     0.045 A 
ATOM     59  C   LIG d   1       4.671  -2.420  -3.456  0.00  0.00    -0.040 A 
ATOM     60  C   LIG d   1       3.843  -2.083  -2.404  0.00  0.00    -0.060 A 
ATOM     61  H   LIG d   1       5.380  -3.228  -3.350  0.00  0.00     0.064 H 
ATOM     62  C   LIG d   1       2.932  -1.053  -2.541  0.00  0.00    -0.062 A 
ATOM     63  H   LIG d   1       3.903  -2.629  -1.474  0.00  0.00     0.062 H 
ATOM     64  C   LIG d   1       2.851  -0.352  -3.731  0.00  0.00    -0.060 A 
ATOM     65  H   LIG d   1       2.282  -0.795  -1.718  0.00  0.00     0.062 H 
ATOM     66  C   LIG d   1       3.680  -0.680  -4.785  0.00  0.00    -0.040 A 
ATOM     67  H   LIG d   1       2.138   0.452  -3.835  0.00  0.00     0.062 H 
ATOM     68  H   LIG d   1       3.617  -0.132  -5.714  0.00  0.00     0.064 H 
ENDBRANCH   7  58
TORSDOF 6
ENDMDL
MODEL 9
REMARK VINA RESULT:      -6.3      2.233      6.770
REMARK  6 active torsions:
REMARK  status: ('A' for Active; 'I' for Inactive)
REMARK    1  A    between atoms: C_1  and  C_2 
REMARK    2  A    between atoms: C_5  and  C_8 
REMARK    3  A    between atoms: C_8  and  C_9 
REMARK    4  A    between atoms: C_9  and  C_24 
REMARK    5  A    between atoms: N_15  and  C_18 
REMARK    6  A    between atoms: C_24  and  N_25 
ROOT
ATOM      1  C   LIG d   1       5.048  -0.404  -7.690  0.00  0.00     0.140 A 
ATOM      2  C   LIG d   1       5.756   0.825  -8.226  0.00  0.00     0.237 A 
ATOM      3  O   LIG d   1       6.582   1.415  -7.562  0.00  0.00    -0.274 OA
ATOM      4  N   LIG d   1       5.433   1.239  -9.469  0.00  0.00    -0.238 N 
ATOM      5  C   LIG d   1       4.523   0.599 -10.215  0.00  0.00     0.319 A 
ATOM      6  O   LIG d   1       4.293   1.040 -11.323  0.00  0.00    -0.251 OA
ATOM      7  N   LIG d   1       3.849  -0.490  -9.829  0.00  0.00    -0.193 N 
ATOM      8  C   LIG d   1       4.036  -1.053  -8.616  0.00  0.00     0.244 A 
ATOM      9  O   LIG d   1       3.417  -2.040  -8.279  0.00  0.00    -0.274 OA
ATOM     10  H   LIG d   1       5.872   2.022  -9.834  0.00  0.00     0.159 HD
ENDROOT
BRANCH   1  11
ATOM     11  C   LIG d   1       6.108  -1.449  -7.337  0.00  0.00    -0.004 C 
ATOM     12  H   LIG d   1       5.666  -2.218  -6.704  0.00  0.00     0.033 H 
ATOM     13  H   LIG d   1       6.929  -0.969  -6.805  0.00  0.00     0.033 H 
BRANCH  11  14
ATOM     14  C   LIG d   1       6.633  -2.080  -8.602  0.00  0.00    -0.046 A 
ATOM     15  C   LIG d   1       7.594  -1.429  -9.352  0.00  0.00    -0.058 A 
ATOM     16  C   LIG d   1       8.075  -2.008 -10.512  0.00  0.00    -0.059 A 
ATOM     17  H   LIG d   1       7.970  -0.469  -9.031  0.00  0.00     0.062 H 
ATOM     18  C   LIG d   1       7.594  -3.237 -10.921  0.00  0.00    -0.050 A 
ATOM     19  H   LIG d   1       8.827  -1.500 -11.097  0.00  0.00     0.062 H 
ATOM     20  C   LIG d   1       6.629  -3.885 -10.174  0.00  0.00    -0.059 A 
ATOM     21  C   LIG d   1       6.152  -3.309  -9.012  0.00  0.00    -0.058 A 
ATOM     22  H   LIG d   1       6.250  -4.844 -10.496  0.00  0.00     0.062 H 
ATOM     23  H   LIG d   1       5.400  -3.817  -8.427  0.00  0.00     0.062 H 
BRANCH  18  24
ATOM     24  C   LIG d   1       8.119  -3.868 -12.186  0.00  0.00    -0.040 C 
ATOM     25  H   LIG d   1       7.649  -4.842 -12.327  0.00  0.00     0.028 H 
ATOM     26  H   LIG d   1       7.888  -3.227 -13.035  0.00  0.00     0.028 H 
ATOM     27  H   LIG d   1       9.199  -3.994 -12.107  0.00  0.00     0.028 H 
ENDBRANCH  18  24
ENDBRANCH  11  14
ENDBRANCH   1  11
BRANCH   1  28
ATOM     28  C   LIG d   1       4.327  -0.009  -6.400  0.00  0.00     0.022 C 
ATOM     29  H   LIG d   1       4.535   1.037  -6.173  0.00  0.00     0.044 H 
ATOM     30  H   LIG d   1       3.252  -0.146  -6.527  0.00  0.00     0.044 H 
BRANCH  28  31
ATOM     31  N   LIG d   1       4.801  -0.853  -5.295  0.00  0.00    -0.300 N 
ATOM     32  C   LIG d   1       3.697  -1.639  -4.722  0.00  0.00     0.007 C 
ATOM     33  C   LIG d   1       4.293  -2.619  -3.698  0.00  0.00     0.013 C 
ATOM     34  H   LIG d   1       2.990  -0.974  -4.227  0.00  0.00     0.043 H 
ATOM     35  H   LIG d   1       3.190  -2.194  -5.512  0.00  0.00     0.043 H 
ATOM     36  C   LIG d   1       4.902  -1.799  -2.555  0.00  0.00    -0.038 C 
ATOM     37  H   LIG d   1       3.523  -3.291  -3.318  0.00  0.00     0.038 H 
ATOM     38  C   LIG d   1       5.388  -3.404  -4.385  0.00  0.00     0.026 C 
ATOM     39  C   LIG d   1       6.012  -0.929  -3.152  0.00  0.00    -0.009 C 
ATOM     40  H   LIG d   1       5.320  -2.468  -1.802  0.00  0.00     0.028 H 
ATOM     41  H   LIG d   1       4.137  -1.166  -2.106  0.00  0.00     0.028 H 
ATOM     42  C   LIG d   1       5.468  -0.049  -4.267  0.00  0.00     0.003 C 
ATOM     43  H   LIG d   1       6.403  -0.284  -2.364  0.00  0.00     0.033 H 
ATOM     44  C   LIG d   1       7.136  -1.827  -3.638  0.00  0.00     0.030 C 
ATOM     45  H   LIG d   1       6.291   0.502  -4.722  0.00  0.00     0.043 H 
ATOM     46  H   LIG d   1       4.753   0.660  -3.847  0.00  0.00     0.043 H 
ATOM     47  N   LIG d   1       6.669  -2.968  -4.418  0.00  0.00    -0.312 N 
ATOM     48  H   LIG d   1       7.819  -1.238  -4.250  0.00  0.00     0.050 H 
ATOM     49  H   LIG d   1       7.681  -2.210  -2.774  0.00  0.00     0.050 H 
ATOM     50  C   LIG d   1       7.585  -3.622  -5.173  0.00  0.00     0.252 C 
ATOM     51  C   LIG d   1       7.263  -4.837  -5.794  0.00  0.00     0.003 C 
ATOM     52  O   LIG d   1       8.701  -3.149  -5.313  0.00  0.00    -0.268 OA
ATOM     53  C   LIG d   1       5.991  -5.321  -5.687  0.00  0.00    -0.055 C 
ATOM     54  H   LIG d   1       8.011  -5.383  -6.349  0.00  0.00     0.067 H 
ATOM     55  C   LIG d   1       5.043  -4.577  -4.978  0.00  0.00    -0.042 C 
ATOM     56  H   LIG d   1       5.722  -6.263  -6.142  0.00  0.00     0.062 H 
ATOM     57  H   LIG d   1       4.027  -4.937  -4.903  0.00  0.00     0.064 H 
ENDBRANCH  28  31
ENDBRANCH   1  28
BRANCH   7  58
ATOM     58  C   LIG d   1       2.922  -1.063 -10.708  0.00  0.00     0.045 A 
ATOM     59  C   LIG d   1       1.597  -0.647 -10.691  0.00  0.00    -0.040 A 
ATOM     60  C   LIG d   1       0.686  -1.210 -11.564  0.00  0.00    -0.060 A 
ATOM     61  H   LIG d   1       1.280   0.119  -9.999  0.00  0.00     0.064 H 
ATOM     62  C   LIG d   1       1.090  -2.195 -12.447  0.00  0.00    -0.062 A 
ATOM     63  H   LIG d   1      -0.343  -0.884 -11.554  0.00  0.00     0.062 H 
ATOM     64  C   LIG d   1       2.407  -2.616 -12.462  0.00  0.00    -0.060 A 
ATOM     65  H   LIG d   1       0.375  -2.637 -13.125  0.00  0.00     0.062 H 
ATOM     66  C   LIG d   1       3.324  -2.053 -11.596  0.00  0.00    -0.040 A 
ATOM     67  H   LIG d   1       2.720  -3.385 -13.153  0.00  0.00     0.062 H 
ATOM     68  H   LIG d   1       4.353  -2.381 -11.609  0.00  0.00     0.064 H 
ENDBRANCH   7  58
TORSDOF 6
ENDMDL
