MODEL 1
REMARK VINA RESULT:      -7.8      0.000      0.000
REMARK  5 active torsions:
REMARK  status: ('A' for Active; 'I' for Inactive)
REMARK    1  A    between atoms: C_4  and  C_7 
REMARK    2  A    between atoms: C_8  and  C_18 
REMARK    3  A    between atoms: N_10  and  C_12 
REMARK    4  A    between atoms: C_19  and  C_20 
REMARK    5  A    between atoms: C_20  and  C_22 
ROOT
ATOM      1  C   LIG d   1       6.635  -2.148  -3.733  0.00  0.00     0.100 A 
ATOM      2  C   LIG d   1       6.410  -2.823  -5.018  0.00  0.00     0.021 A 
ATOM      3  C   LIG d   1       7.416  -3.764  -5.143  0.00  0.00     0.039 A 
ATOM      4  N   LIG d   1       8.189  -3.689  -4.045  0.00  0.00    -0.239 N 
ATOM      5  N   LIG d   1       7.697  -2.699  -3.190  0.00  0.00    -0.166 NA
ATOM      6  H   LIG d   1       7.556  -4.438  -5.975  0.00  0.00     0.084 H 
ENDROOT
BRANCH   2   7
ATOM      7  C   LIG d   1       5.336  -2.550  -5.978  0.00  0.00    -0.047 C 
ATOM      8  C   LIG d   1       5.386  -1.439  -6.751  0.00  0.00    -0.014 C 
ATOM      9  H   LIG d   1       6.218  -0.756  -6.662  0.00  0.00     0.066 H 
ATOM     10  H   LIG d   1       4.504  -3.232  -6.066  0.00  0.00     0.063 H 
BRANCH   8  11
ATOM     11  C   LIG d   1       4.347  -1.171  -7.673  0.00  0.00     0.186 C 
ATOM     12  O   LIG d   1       3.591  -2.063  -8.015  0.00  0.00    -0.287 OA
BRANCH  11  13
ATOM     13  C   LIG d   1       4.179   0.192  -8.222  0.00  0.00     0.022 A 
ATOM     14  C   LIG d   1       5.289   0.912  -8.665  0.00  0.00    -0.051 A 
ATOM     15  C   LIG d   1       5.126   2.183  -9.177  0.00  0.00    -0.061 A 
ATOM     16  H   LIG d   1       6.276   0.475  -8.608  0.00  0.00     0.062 H 
ATOM     17  C   LIG d   1       3.863   2.744  -9.251  0.00  0.00    -0.062 A 
ATOM     18  H   LIG d   1       5.985   2.741  -9.519  0.00  0.00     0.062 H 
ATOM     19  C   LIG d   1       2.757   2.036  -8.814  0.00  0.00    -0.061 A 
ATOM     20  H   LIG d   1       3.740   3.739  -9.652  0.00  0.00     0.062 H 
ATOM     21  C   LIG d   1       2.907   0.763  -8.306  0.00  0.00    -0.051 A 
ATOM     22  H   LIG d   1       1.775   2.480  -8.875  0.00  0.00     0.062 H 
ATOM     23  H   LIG d   1       2.042   0.209  -7.970  0.00  0.00     0.062 H 
ENDBRANCH  11  13
ENDBRANCH   8  11
ENDBRANCH   2   7
BRANCH   1  24
ATOM     24  C   LIG d   1       5.816  -1.055  -3.157  0.00  0.00     0.003 A 
ATOM     25  C   LIG d   1       4.631  -1.349  -2.482  0.00  0.00    -0.052 A 
ATOM     26  C   LIG d   1       3.874  -0.327  -1.948  0.00  0.00    -0.061 A 
ATOM     27  H   LIG d   1       4.308  -2.373  -2.379  0.00  0.00     0.062 H 
ATOM     28  C   LIG d   1       4.288   0.987  -2.080  0.00  0.00    -0.062 A 
ATOM     29  H   LIG d   1       2.956  -0.553  -1.425  0.00  0.00     0.062 H 
ATOM     30  C   LIG d   1       5.462   1.284  -2.748  0.00  0.00    -0.061 A 
ATOM     31  H   LIG d   1       3.691   1.783  -1.660  0.00  0.00     0.062 H 
ATOM     32  C   LIG d   1       6.230   0.270  -3.282  0.00  0.00    -0.052 A 
ATOM     33  H   LIG d   1       5.780   2.311  -2.849  0.00  0.00     0.062 H 
ATOM     34  H   LIG d   1       7.150   0.503  -3.800  0.00  0.00     0.062 H 
ENDBRANCH   1  24
BRANCH   4  35
ATOM     35  C   LIG d   1       9.316  -4.482  -3.796  0.00  0.00     0.065 A 
ATOM     36  C   LIG d   1      10.534  -3.886  -3.496  0.00  0.00    -0.036 A 
ATOM     37  C   LIG d   1      11.644  -4.670  -3.251  0.00  0.00    -0.060 A 
ATOM     38  H   LIG d   1      10.613  -2.809  -3.454  0.00  0.00     0.064 H 
ATOM     39  C   LIG d   1      11.543  -6.049  -3.305  0.00  0.00    -0.062 A 
ATOM     40  H   LIG d   1      12.591  -4.207  -3.016  0.00  0.00     0.062 H 
ATOM     41  C   LIG d   1      10.332  -6.646  -3.604  0.00  0.00    -0.060 A 
ATOM     42  H   LIG d   1      12.412  -6.660  -3.112  0.00  0.00     0.062 H 
ATOM     43  C   LIG d   1       9.218  -5.866  -3.844  0.00  0.00    -0.036 A 
ATOM     44  H   LIG d   1      10.256  -7.722  -3.644  0.00  0.00     0.062 H 
ATOM     45  H   LIG d   1       8.271  -6.333  -4.073  0.00  0.00     0.064 H 
ENDBRANCH   4  35
TORSDOF 5
ENDMDL
MODEL 2
REMARK VINA RESULT:      -7.6      3.755      8.023
REMARK  5 active torsions:
REMARK  status: ('A' for Active; 'I' for Inactive)
REMARK    1  A    between atoms: C_4  and  C_7 
REMARK    2  A    between atoms: C_8  and  C_18 
REMARK    3  A    between atoms: N_10  and  C_12 
REMARK    4  A    between atoms: C_19  and  C_20 
REMARK    5  A    between atoms: C_20  and  C_22 
ROOT
ATOM      1  C   LIG d   1       4.185  -2.360  -8.475  0.00  0.00     0.100 A 
ATOM      2  C   LIG d   1       3.962  -0.916  -8.335  0.00  0.00     0.021 A 
ATOM      3  C   LIG d   1       3.762  -0.428  -9.614  0.00  0.00     0.039 A 
ATOM      4  N   LIG d   1       3.846  -1.465 -10.467  0.00  0.00    -0.239 N 
ATOM      5  N   LIG d   1       4.101  -2.640  -9.756  0.00  0.00    -0.166 NA
ATOM      6  H   LIG d   1       3.573   0.602  -9.879  0.00  0.00     0.084 H 
ENDROOT
BRANCH   2   7
ATOM      7  C   LIG d   1       3.959  -0.144  -7.089  0.00  0.00    -0.047 C 
ATOM      8  C   LIG d   1       2.831  -0.069  -6.342  0.00  0.00    -0.014 C 
ATOM      9  H   LIG d   1       1.935  -0.579  -6.663  0.00  0.00     0.066 H 
ATOM     10  H   LIG d   1       4.854   0.368  -6.768  0.00  0.00     0.063 H 
BRANCH   8  11
ATOM     11  C   LIG d   1       2.826   0.682  -5.142  0.00  0.00     0.186 C 
ATOM     12  O   LIG d   1       2.351   1.803  -5.126  0.00  0.00    -0.287 OA
BRANCH  11  13
ATOM     13  C   LIG d   1       3.397   0.103  -3.906  0.00  0.00     0.022 A 
ATOM     14  C   LIG d   1       3.957   0.936  -2.936  0.00  0.00    -0.051 A 
ATOM     15  C   LIG d   1       4.488   0.391  -1.785  0.00  0.00    -0.061 A 
ATOM     16  H   LIG d   1       3.974   2.006  -3.085  0.00  0.00     0.062 H 
ATOM     17  C   LIG d   1       4.467  -0.979  -1.593  0.00  0.00    -0.062 A 
ATOM     18  H   LIG d   1       4.921   1.035  -1.034  0.00  0.00     0.062 H 
ATOM     19  C   LIG d   1       3.914  -1.811  -2.550  0.00  0.00    -0.061 A 
ATOM     20  H   LIG d   1       4.884  -1.401  -0.690  0.00  0.00     0.062 H 
ATOM     21  C   LIG d   1       3.374  -1.277  -3.702  0.00  0.00    -0.051 A 
ATOM     22  H   LIG d   1       3.900  -2.879  -2.393  0.00  0.00     0.062 H 
ATOM     23  H   LIG d   1       2.938  -1.927  -4.447  0.00  0.00     0.062 H 
ENDBRANCH  11  13
ENDBRANCH   8  11
ENDBRANCH   2   7
BRANCH   1  24
ATOM     24  C   LIG d   1       4.451  -3.322  -7.378  0.00  0.00     0.003 A 
ATOM     25  C   LIG d   1       5.339  -2.988  -6.356  0.00  0.00    -0.052 A 
ATOM     26  C   LIG d   1       5.582  -3.886  -5.337  0.00  0.00    -0.061 A 
ATOM     27  H   LIG d   1       5.834  -2.028  -6.361  0.00  0.00     0.062 H 
ATOM     28  C   LIG d   1       4.948  -5.116  -5.330  0.00  0.00    -0.062 A 
ATOM     29  H   LIG d   1       6.269  -3.629  -4.545  0.00  0.00     0.062 H 
ATOM     30  C   LIG d   1       4.067  -5.452  -6.341  0.00  0.00    -0.061 A 
ATOM     31  H   LIG d   1       5.142  -5.816  -4.530  0.00  0.00     0.062 H 
ATOM     32  C   LIG d   1       3.811  -4.560  -7.362  0.00  0.00    -0.052 A 
ATOM     33  H   LIG d   1       3.575  -6.414  -6.330  0.00  0.00     0.062 H 
ATOM     34  H   LIG d   1       3.119  -4.821  -8.149  0.00  0.00     0.062 H 
ENDBRANCH   1  24
BRANCH   4  35
ATOM     35  C   LIG d   1       3.699  -1.378 -11.857  0.00  0.00     0.065 A 
ATOM     36  C   LIG d   1       2.654  -2.039 -12.489  0.00  0.00    -0.036 A 
ATOM     37  C   LIG d   1       2.510  -1.951 -13.860  0.00  0.00    -0.060 A 
ATOM     38  H   LIG d   1       1.952  -2.621 -11.908  0.00  0.00     0.064 H 
ATOM     39  C   LIG d   1       3.407  -1.206 -14.604  0.00  0.00    -0.062 A 
ATOM     40  H   LIG d   1       1.696  -2.464 -14.351  0.00  0.00     0.062 H 
ATOM     41  C   LIG d   1       4.450  -0.547 -13.978  0.00  0.00    -0.060 A 
ATOM     42  H   LIG d   1       3.293  -1.139 -15.675  0.00  0.00     0.062 H 
ATOM     43  C   LIG d   1       4.595  -0.627 -12.607  0.00  0.00    -0.036 A 
ATOM     44  H   LIG d   1       5.148   0.034 -14.561  0.00  0.00     0.062 H 
ATOM     45  H   LIG d   1       5.406  -0.108 -12.118  0.00  0.00     0.064 H 
ENDBRANCH   4  35
TORSDOF 5
ENDMDL
MODEL 3
REMARK VINA RESULT:      -7.5      3.700      7.173
REMARK  5 active torsions:
REMARK  status: ('A' for Active; 'I' for Inactive)
REMARK    1  A    between atoms: C_4  and  C_7 
REMARK    2  A    between atoms: C_8  and  C_18 
REMARK    3  A    between atoms: N_10  and  C_12 
REMARK    4  A    between atoms: C_19  and  C_20 
REMARK    5  A    between atoms: C_20  and  C_22 
ROOT
ATOM      1  C   LIG d   1       3.669  -1.855  -8.684  0.00  0.00     0.100 A 
ATOM      2  C   LIG d   1       4.363  -2.466  -7.544  0.00  0.00     0.021 A 
ATOM      3  C   LIG d   1       4.159  -3.830  -7.650  0.00  0.00     0.039 A 
ATOM      4  N   LIG d   1       3.416  -4.050  -8.750  0.00  0.00    -0.239 N 
ATOM      5  N   LIG d   1       3.127  -2.834  -9.373  0.00  0.00    -0.166 NA
ATOM      6  H   LIG d   1       4.530  -4.584  -6.971  0.00  0.00     0.084 H 
ENDROOT
BRANCH   2   7
ATOM      7  C   LIG d   1       5.117  -1.769  -6.498  0.00  0.00    -0.047 C 
ATOM      8  C   LIG d   1       5.850  -2.476  -5.605  0.00  0.00    -0.014 C 
ATOM      9  H   LIG d   1       5.882  -3.554  -5.665  0.00  0.00     0.066 H 
ATOM     10  H   LIG d   1       5.085  -0.691  -6.436  0.00  0.00     0.063 H 
BRANCH   8  11
ATOM     11  C   LIG d   1       6.573  -1.803  -4.591  0.00  0.00     0.186 C 
ATOM     12  O   LIG d   1       7.785  -1.913  -4.532  0.00  0.00    -0.287 OA
BRANCH  11  13
ATOM     13  C   LIG d   1       5.857  -0.966  -3.604  0.00  0.00     0.022 A 
ATOM     14  C   LIG d   1       6.046   0.416  -3.588  0.00  0.00    -0.051 A 
ATOM     15  C   LIG d   1       5.375   1.192  -2.665  0.00  0.00    -0.061 A 
ATOM     16  H   LIG d   1       6.715   0.879  -4.299  0.00  0.00     0.062 H 
ATOM     17  C   LIG d   1       4.517   0.600  -1.755  0.00  0.00    -0.062 A 
ATOM     18  H   LIG d   1       5.520   2.261  -2.653  0.00  0.00     0.062 H 
ATOM     19  C   LIG d   1       4.325  -0.770  -1.764  0.00  0.00    -0.061 A 
ATOM     20  H   LIG d   1       3.994   1.211  -1.034  0.00  0.00     0.062 H 
ATOM     21  C   LIG d   1       4.986  -1.555  -2.686  0.00  0.00    -0.051 A 
ATOM     22  H   LIG d   1       3.654  -1.225  -1.051  0.00  0.00     0.062 H 
ATOM     23  H   LIG d   1       4.831  -2.625  -2.696  0.00  0.00     0.062 H 
ENDBRANCH  11  13
ENDBRANCH   8  11
ENDBRANCH   2   7
BRANCH   1  24
ATOM     24  C   LIG d   1       3.595  -0.409  -8.999  0.00  0.00     0.003 A 
ATOM     25  C   LIG d   1       2.864   0.450  -8.178  0.00  0.00    -0.052 A 
ATOM     26  C   LIG d   1       2.800   1.796  -8.476  0.00  0.00    -0.061 A 
ATOM     27  H   LIG d   1       2.350   0.062  -7.312  0.00  0.00     0.062 H 
ATOM     28  C   LIG d   1       3.458   2.293  -9.587  0.00  0.00    -0.062 A 
ATOM     29  H   LIG d   1       2.234   2.461  -7.842  0.00  0.00     0.062 H 
ATOM     30  C   LIG d   1       4.185   1.446 -10.404  0.00  0.00    -0.061 A 
ATOM     31  H   LIG d   1       3.404   3.347  -9.816  0.00  0.00     0.062 H 
ATOM     32  C   LIG d   1       4.261   0.100 -10.113  0.00  0.00    -0.052 A 
ATOM     33  H   LIG d   1       4.697   1.840 -11.270  0.00  0.00     0.062 H 
ATOM     34  H   LIG d   1       4.833  -0.560 -10.749  0.00  0.00     0.062 H 
ENDBRANCH   1  24
BRANCH   4  35
ATOM     35  C   LIG d   1       2.996  -5.308  -9.200  0.00  0.00     0.065 A 
ATOM     36  C   LIG d   1       3.712  -6.446  -8.852  0.00  0.00    -0.036 A 
ATOM     37  C   LIG d   1       3.296  -7.686  -9.296  0.00  0.00    -0.060 A 
ATOM     38  H   LIG d   1       4.595  -6.361  -8.234  0.00  0.00     0.064 H 
ATOM     39  C   LIG d   1       2.167  -7.795 -10.088  0.00  0.00    -0.062 A 
ATOM     40  H   LIG d   1       3.853  -8.571  -9.025  0.00  0.00     0.062 H 
ATOM     41  C   LIG d   1       1.452  -6.664 -10.436  0.00  0.00    -0.060 A 
ATOM     42  H   LIG d   1       1.844  -8.764 -10.434  0.00  0.00     0.062 H 
ATOM     43  C   LIG d   1       1.860  -5.422  -9.990  0.00  0.00    -0.036 A 
ATOM     44  H   LIG d   1       0.570  -6.752 -11.053  0.00  0.00     0.062 H 
ATOM     45  H   LIG d   1       1.298  -4.540 -10.259  0.00  0.00     0.064 H 
ENDBRANCH   4  35
TORSDOF 5
ENDMDL
MODEL 4
REMARK VINA RESULT:      -7.3      2.419      3.334
REMARK  5 active torsions:
REMARK  status: ('A' for Active; 'I' for Inactive)
REMARK    1  A    between atoms: C_4  and  C_7 
REMARK    2  A    between atoms: C_8  and  C_18 
REMARK    3  A    between atoms: N_10  and  C_12 
REMARK    4  A    between atoms: C_19  and  C_20 
REMARK    5  A    between atoms: C_20  and  C_22 
ROOT
ATOM      1  C   LIG d   1       4.992  -2.300  -4.733  0.00  0.00     0.100 A 
ATOM      2  C   LIG d   1       4.954  -2.333  -6.201  0.00  0.00     0.021 A 
ATOM      3  C   LIG d   1       5.281  -3.625  -6.570  0.00  0.00     0.039 A 
ATOM      4  N   LIG d   1       5.497  -4.331  -5.445  0.00  0.00    -0.239 N 
ATOM      5  N   LIG d   1       5.313  -3.509  -4.331  0.00  0.00    -0.166 NA
ATOM      6  H   LIG d   1       5.351  -4.000  -7.580  0.00  0.00     0.084 H 
ENDROOT
BRANCH   2   7
ATOM      7  C   LIG d   1       4.638  -1.216  -7.096  0.00  0.00    -0.047 C 
ATOM      8  C   LIG d   1       3.487  -0.520  -6.931  0.00  0.00    -0.014 C 
ATOM      9  H   LIG d   1       2.805  -0.786  -6.137  0.00  0.00     0.066 H 
ATOM     10  H   LIG d   1       5.320  -0.950  -7.891  0.00  0.00     0.063 H 
BRANCH   8  11
ATOM     11  C   LIG d   1       3.179   0.554  -7.799  0.00  0.00     0.186 C 
ATOM     12  O   LIG d   1       2.925   1.654  -7.341  0.00  0.00    -0.287 OA
BRANCH  11  13
ATOM     13  C   LIG d   1       3.164   0.341  -9.263  0.00  0.00     0.022 A 
ATOM     14  C   LIG d   1       4.131   0.945 -10.069  0.00  0.00    -0.051 A 
ATOM     15  C   LIG d   1       4.113   0.742 -11.433  0.00  0.00    -0.061 A 
ATOM     16  H   LIG d   1       4.894   1.568  -9.625  0.00  0.00     0.062 H 
ATOM     17  C   LIG d   1       3.138  -0.057 -12.003  0.00  0.00    -0.062 A 
ATOM     18  H   LIG d   1       4.860   1.208 -12.057  0.00  0.00     0.062 H 
ATOM     19  C   LIG d   1       2.176  -0.658 -11.210  0.00  0.00    -0.061 A 
ATOM     20  H   LIG d   1       3.127  -0.212 -13.072  0.00  0.00     0.062 H 
ATOM     21  C   LIG d   1       2.187  -0.468  -9.844  0.00  0.00    -0.051 A 
ATOM     22  H   LIG d   1       1.418  -1.281 -11.662  0.00  0.00     0.062 H 
ATOM     23  H   LIG d   1       1.439  -0.942  -9.226  0.00  0.00     0.062 H 
ENDBRANCH  11  13
ENDBRANCH   8  11
ENDBRANCH   2   7
BRANCH   1  24
ATOM     24  C   LIG d   1       4.718  -1.127  -3.870  0.00  0.00     0.003 A 
ATOM     25  C   LIG d   1       5.722  -0.191  -3.623  0.00  0.00    -0.052 A 
ATOM     26  C   LIG d   1       5.460   0.900  -2.819  0.00  0.00    -0.061 A 
ATOM     27  H   LIG d   1       6.701  -0.318  -4.060  0.00  0.00     0.062 H 
ATOM     28  C   LIG d   1       4.206   1.065  -2.258  0.00  0.00    -0.062 A 
ATOM     29  H   LIG d   1       6.237   1.626  -2.627  0.00  0.00     0.062 H 
ATOM     30  C   LIG d   1       3.207   0.139  -2.500  0.00  0.00    -0.061 A 
ATOM     31  H   LIG d   1       4.007   1.920  -1.629  0.00  0.00     0.062 H 
ATOM     32  C   LIG d   1       3.455  -0.952  -3.307  0.00  0.00    -0.052 A 
ATOM     33  H   LIG d   1       2.230   0.273  -2.060  0.00  0.00     0.062 H 
ATOM     34  H   LIG d   1       2.673  -1.672  -3.499  0.00  0.00     0.062 H 
ENDBRANCH   1  24
BRANCH   4  35
ATOM     35  C   LIG d   1       5.853  -5.685  -5.400  0.00  0.00     0.065 A 
ATOM     36  C   LIG d   1       4.873  -6.665  -5.496  0.00  0.00    -0.036 A 
ATOM     37  C   LIG d   1       5.225  -7.999  -5.452  0.00  0.00    -0.060 A 
ATOM     38  H   LIG d   1       3.835  -6.383  -5.606  0.00  0.00     0.064 H 
ATOM     39  C   LIG d   1       6.553  -8.361  -5.312  0.00  0.00    -0.062 A 
ATOM     40  H   LIG d   1       4.463  -8.761  -5.528  0.00  0.00     0.062 H 
ATOM     41  C   LIG d   1       7.531  -7.388  -5.215  0.00  0.00    -0.060 A 
ATOM     42  H   LIG d   1       6.826  -9.404  -5.278  0.00  0.00     0.062 H 
ATOM     43  C   LIG d   1       7.185  -6.052  -5.265  0.00  0.00    -0.036 A 
ATOM     44  H   LIG d   1       8.567  -7.673  -5.107  0.00  0.00     0.062 H 
ATOM     45  H   LIG d   1       7.950  -5.293  -5.194  0.00  0.00     0.064 H 
ENDBRANCH   4  35
TORSDOF 5
ENDMDL
MODEL 5
REMARK VINA RESULT:      -7.3      1.552      2.426
REMARK  5 active torsions:
REMARK  status: ('A' for Active; 'I' for Inactive)
REMARK    1  A    between atoms: C_4  and  C_7 
REMARK    2  A    between atoms: C_8  and  C_18 
REMARK    3  A    between atoms: N_10  and  C_12 
REMARK    4  A    between atoms: C_19  and  C_20 
REMARK    5  A    between atoms: C_20  and  C_22 
ROOT
ATOM      1  C   LIG d   1       6.371  -1.659  -3.937  0.00  0.00     0.100 A 
ATOM      2  C   LIG d   1       6.681  -1.810  -5.365  0.00  0.00     0.021 A 
ATOM      3  C   LIG d   1       7.608  -2.832  -5.454  0.00  0.00     0.039 A 
ATOM      4  N   LIG d   1       7.849  -3.279  -4.209  0.00  0.00    -0.239 N 
ATOM      5  N   LIG d   1       7.083  -2.555  -3.292  0.00  0.00    -0.166 NA
ATOM      6  H   LIG d   1       8.058  -3.204  -6.363  0.00  0.00     0.084 H 
ENDROOT
BRANCH   2   7
ATOM      7  C   LIG d   1       6.123  -1.028  -6.472  0.00  0.00    -0.047 C 
ATOM      8  C   LIG d   1       4.785  -1.013  -6.684  0.00  0.00    -0.014 C 
ATOM      9  H   LIG d   1       4.129  -1.575  -6.035  0.00  0.00     0.066 H 
ATOM     10  H   LIG d   1       6.779  -0.467  -7.122  0.00  0.00     0.063 H 
BRANCH   8  11
ATOM     11  C   LIG d   1       4.247  -0.264  -7.757  0.00  0.00     0.186 C 
ATOM     12  O   LIG d   1       4.594   0.891  -7.928  0.00  0.00    -0.287 OA
BRANCH  11  13
ATOM     13  C   LIG d   1       3.262  -0.883  -8.671  0.00  0.00     0.022 A 
ATOM     14  C   LIG d   1       3.306  -2.255  -8.923  0.00  0.00    -0.051 A 
ATOM     15  C   LIG d   1       2.384  -2.827  -9.777  0.00  0.00    -0.061 A 
ATOM     16  H   LIG d   1       4.058  -2.869  -8.450  0.00  0.00     0.062 H 
ATOM     17  C   LIG d   1       1.420  -2.042 -10.382  0.00  0.00    -0.062 A 
ATOM     18  H   LIG d   1       2.417  -3.888  -9.972  0.00  0.00     0.062 H 
ATOM     19  C   LIG d   1       1.371  -0.681 -10.137  0.00  0.00    -0.061 A 
ATOM     20  H   LIG d   1       0.700  -2.494 -11.050  0.00  0.00     0.062 H 
ATOM     21  C   LIG d   1       2.282  -0.099  -9.282  0.00  0.00    -0.051 A 
ATOM     22  H   LIG d   1       0.614  -0.075 -10.614  0.00  0.00     0.062 H 
ATOM     23  H   LIG d   1       2.240   0.963  -9.088  0.00  0.00     0.062 H 
ENDBRANCH  11  13
ENDBRANCH   8  11
ENDBRANCH   2   7
BRANCH   1  24
ATOM     24  C   LIG d   1       5.430  -0.682  -3.338  0.00  0.00     0.003 A 
ATOM     25  C   LIG d   1       5.844   0.627  -3.091  0.00  0.00    -0.052 A 
ATOM     26  C   LIG d   1       4.964   1.531  -2.534  0.00  0.00    -0.061 A 
ATOM     27  H   LIG d   1       6.850   0.931  -3.336  0.00  0.00     0.062 H 
ATOM     28  C   LIG d   1       3.674   1.142  -2.220  0.00  0.00    -0.062 A 
ATOM     29  H   LIG d   1       5.283   2.545  -2.342  0.00  0.00     0.062 H 
ATOM     30  C   LIG d   1       3.258  -0.155  -2.463  0.00  0.00    -0.061 A 
ATOM     31  H   LIG d   1       2.989   1.854  -1.783  0.00  0.00     0.062 H 
ATOM     32  C   LIG d   1       4.127  -1.067  -3.025  0.00  0.00    -0.052 A 
ATOM     33  H   LIG d   1       2.250  -0.453  -2.215  0.00  0.00     0.062 H 
ATOM     34  H   LIG d   1       3.801  -2.078  -3.219  0.00  0.00     0.062 H 
ENDBRANCH   1  24
BRANCH   4  35
ATOM     35  C   LIG d   1       8.735  -4.314  -3.881  0.00  0.00     0.065 A 
ATOM     36  C   LIG d   1       8.810  -5.445  -4.684  0.00  0.00    -0.036 A 
ATOM     37  C   LIG d   1       9.684  -6.464  -4.360  0.00  0.00    -0.060 A 
ATOM     38  H   LIG d   1       8.184  -5.528  -5.562  0.00  0.00     0.064 H 
ATOM     39  C   LIG d   1      10.484  -6.359  -3.237  0.00  0.00    -0.062 A 
ATOM     40  H   LIG d   1       9.743  -7.343  -4.985  0.00  0.00     0.062 H 
ATOM     41  C   LIG d   1      10.412  -5.234  -2.435  0.00  0.00    -0.060 A 
ATOM     42  H   LIG d   1      11.167  -7.156  -2.986  0.00  0.00     0.062 H 
ATOM     43  C   LIG d   1       9.544  -4.209  -2.758  0.00  0.00    -0.036 A 
ATOM     44  H   LIG d   1      11.039  -5.154  -1.560  0.00  0.00     0.062 H 
ATOM     45  H   LIG d   1       9.491  -3.329  -2.134  0.00  0.00     0.064 H 
ENDBRANCH   4  35
TORSDOF 5
ENDMDL
MODEL 6
REMARK VINA RESULT:      -7.2      3.664      5.266
REMARK  5 active torsions:
REMARK  status: ('A' for Active; 'I' for Inactive)
REMARK    1  A    between atoms: C_4  and  C_7 
REMARK    2  A    between atoms: C_8  and  C_18 
REMARK    3  A    between atoms: N_10  and  C_12 
REMARK    4  A    between atoms: C_19  and  C_20 
REMARK    5  A    between atoms: C_20  and  C_22 
ROOT
ATOM      1  C   LIG d   1       6.591   0.677  -3.984  0.00  0.00     0.100 A 
ATOM      2  C   LIG d   1       7.211   0.452  -5.296  0.00  0.00     0.021 A 
ATOM      3  C   LIG d   1       8.272   1.335  -5.381  0.00  0.00     0.039 A 
ATOM      4  N   LIG d   1       8.315   2.038  -4.235  0.00  0.00    -0.239 N 
ATOM      5  N   LIG d   1       7.284   1.622  -3.389  0.00  0.00    -0.166 NA
ATOM      6  H   LIG d   1       8.945   1.441  -6.219  0.00  0.00     0.084 H 
ENDROOT
BRANCH   2   7
ATOM      7  C   LIG d   1       6.785  -0.513  -6.314  0.00  0.00    -0.047 C 
ATOM      8  C   LIG d   1       5.579  -0.375  -6.915  0.00  0.00    -0.014 C 
ATOM      9  H   LIG d   1       4.932   0.447  -6.647  0.00  0.00     0.066 H 
ATOM     10  H   LIG d   1       7.431  -1.336  -6.583  0.00  0.00     0.063 H 
BRANCH   8  11
ATOM     11  C   LIG d   1       5.165  -1.309  -7.894  0.00  0.00     0.186 C 
ATOM     12  O   LIG d   1       5.863  -2.274  -8.150  0.00  0.00    -0.287 OA
BRANCH  11  13
ATOM     13  C   LIG d   1       3.883  -1.115  -8.607  0.00  0.00     0.022 A 
ATOM     14  C   LIG d   1       3.196  -2.213  -9.127  0.00  0.00    -0.051 A 
ATOM     15  C   LIG d   1       2.001  -2.025  -9.790  0.00  0.00    -0.061 A 
ATOM     16  H   LIG d   1       3.599  -3.209  -9.009  0.00  0.00     0.062 H 
ATOM     17  C   LIG d   1       1.484  -0.751  -9.941  0.00  0.00    -0.062 A 
ATOM     18  H   LIG d   1       1.469  -2.874 -10.192  0.00  0.00     0.062 H 
ATOM     19  C   LIG d   1       2.160   0.343  -9.429  0.00  0.00    -0.061 A 
ATOM     20  H   LIG d   1       0.548  -0.609 -10.462  0.00  0.00     0.062 H 
ATOM     21  C   LIG d   1       3.352   0.167  -8.758  0.00  0.00    -0.051 A 
ATOM     22  H   LIG d   1       1.750   1.335  -9.550  0.00  0.00     0.062 H 
ATOM     23  H   LIG d   1       3.877   1.021  -8.355  0.00  0.00     0.062 H 
ENDBRANCH  11  13
ENDBRANCH   8  11
ENDBRANCH   2   7
BRANCH   1  24
ATOM     24  C   LIG d   1       5.410  -0.030  -3.434  0.00  0.00     0.003 A 
ATOM     25  C   LIG d   1       4.196   0.641  -3.292  0.00  0.00    -0.052 A 
ATOM     26  C   LIG d   1       3.100  -0.022  -2.780  0.00  0.00    -0.061 A 
ATOM     27  H   LIG d   1       4.114   1.678  -3.583  0.00  0.00     0.062 H 
ATOM     28  C   LIG d   1       3.205  -1.350  -2.406  0.00  0.00    -0.062 A 
ATOM     29  H   LIG d   1       2.160   0.497  -2.670  0.00  0.00     0.062 H 
ATOM     30  C   LIG d   1       4.407  -2.021  -2.544  0.00  0.00    -0.061 A 
ATOM     31  H   LIG d   1       2.344  -1.865  -2.005  0.00  0.00     0.062 H 
ATOM     32  C   LIG d   1       5.508  -1.370  -3.060  0.00  0.00    -0.052 A 
ATOM     33  H   LIG d   1       4.482  -3.058  -2.251  0.00  0.00     0.062 H 
ATOM     34  H   LIG d   1       6.445  -1.895  -3.172  0.00  0.00     0.062 H 
ENDBRANCH   1  24
BRANCH   4  35
ATOM     35  C   LIG d   1       9.252   3.035  -3.936  0.00  0.00     0.065 A 
ATOM     36  C   LIG d   1      10.194   2.827  -2.938  0.00  0.00    -0.036 A 
ATOM     37  C   LIG d   1      11.118   3.811  -2.645  0.00  0.00    -0.060 A 
ATOM     38  H   LIG d   1      10.205   1.895  -2.390  0.00  0.00     0.064 H 
ATOM     39  C   LIG d   1      11.105   5.004  -3.345  0.00  0.00    -0.062 A 
ATOM     40  H   LIG d   1      11.852   3.649  -1.869  0.00  0.00     0.062 H 
ATOM     41  C   LIG d   1      10.167   5.215  -4.340  0.00  0.00    -0.060 A 
ATOM     42  H   LIG d   1      11.827   5.771  -3.115  0.00  0.00     0.062 H 
ATOM     43  C   LIG d   1       9.245   4.231  -4.641  0.00  0.00    -0.036 A 
ATOM     44  H   LIG d   1      10.160   6.146  -4.886  0.00  0.00     0.062 H 
ATOM     45  H   LIG d   1       8.516   4.395  -5.421  0.00  0.00     0.064 H 
ENDBRANCH   4  35
TORSDOF 5
ENDMDL
MODEL 7
REMARK VINA RESULT:      -7.2      4.168      7.949
REMARK  5 active torsions:
REMARK  status: ('A' for Active; 'I' for Inactive)
REMARK    1  A    between atoms: C_4  and  C_7 
REMARK    2  A    between atoms: C_8  and  C_18 
REMARK    3  A    between atoms: N_10  and  C_12 
REMARK    4  A    between atoms: C_19  and  C_20 
REMARK    5  A    between atoms: C_20  and  C_22 
ROOT
ATOM      1  C   LIG d   1       3.082  -1.725  -9.384  0.00  0.00     0.100 A 
ATOM      2  C   LIG d   1       3.863  -2.662  -8.567  0.00  0.00     0.021 A 
ATOM      3  C   LIG d   1       3.414  -3.929  -8.891  0.00  0.00     0.039 A 
ATOM      4  N   LIG d   1       2.452  -3.798  -9.823  0.00  0.00    -0.239 N 
ATOM      5  N   LIG d   1       2.263  -2.445 -10.116  0.00  0.00    -0.166 NA
ATOM      6  H   LIG d   1       3.772  -4.857  -8.471  0.00  0.00     0.084 H 
ENDROOT
BRANCH   2   7
ATOM      7  C   LIG d   1       4.907  -2.320  -7.596  0.00  0.00    -0.047 C 
ATOM      8  C   LIG d   1       4.616  -2.285  -6.273  0.00  0.00    -0.014 C 
ATOM      9  H   LIG d   1       3.616  -2.512  -5.933  0.00  0.00     0.066 H 
ATOM     10  H   LIG d   1       5.907  -2.093  -7.934  0.00  0.00     0.063 H 
BRANCH   8  11
ATOM     11  C   LIG d   1       5.622  -1.950  -5.336  0.00  0.00     0.186 C 
ATOM     12  O   LIG d   1       6.782  -2.250  -5.553  0.00  0.00    -0.287 OA
BRANCH  11  13
ATOM     13  C   LIG d   1       5.264  -1.234  -4.091  0.00  0.00     0.022 A 
ATOM     14  C   LIG d   1       5.734   0.061  -3.867  0.00  0.00    -0.051 A 
ATOM     15  C   LIG d   1       5.397   0.723  -2.705  0.00  0.00    -0.061 A 
ATOM     16  H   LIG d   1       6.360   0.544  -4.603  0.00  0.00     0.062 H 
ATOM     17  C   LIG d   1       4.595   0.105  -1.762  0.00  0.00    -0.062 A 
ATOM     18  H   LIG d   1       5.760   1.725  -2.531  0.00  0.00     0.062 H 
ATOM     19  C   LIG d   1       4.125  -1.179  -1.977  0.00  0.00    -0.061 A 
ATOM     20  H   LIG d   1       4.333   0.628  -0.853  0.00  0.00     0.062 H 
ATOM     21  C   LIG d   1       4.450  -1.849  -3.138  0.00  0.00    -0.051 A 
ATOM     22  H   LIG d   1       3.499  -1.655  -1.237  0.00  0.00     0.062 H 
ATOM     23  H   LIG d   1       4.079  -2.849  -3.307  0.00  0.00     0.062 H 
ENDBRANCH  11  13
ENDBRANCH   8  11
ENDBRANCH   2   7
BRANCH   1  24
ATOM     24  C   LIG d   1       3.198  -0.247  -9.385  0.00  0.00     0.003 A 
ATOM     25  C   LIG d   1       2.722   0.493  -8.303  0.00  0.00    -0.052 A 
ATOM     26  C   LIG d   1       2.833   1.868  -8.309  0.00  0.00    -0.061 A 
ATOM     27  H   LIG d   1       2.268  -0.009  -7.462  0.00  0.00     0.062 H 
ATOM     28  C   LIG d   1       3.415   2.513  -9.386  0.00  0.00    -0.062 A 
ATOM     29  H   LIG d   1       2.465   2.442  -7.472  0.00  0.00     0.062 H 
ATOM     30  C   LIG d   1       3.888   1.784 -10.462  0.00  0.00    -0.061 A 
ATOM     31  H   LIG d   1       3.499   3.590  -9.387  0.00  0.00     0.062 H 
ATOM     32  C   LIG d   1       3.788   0.408 -10.465  0.00  0.00    -0.052 A 
ATOM     33  H   LIG d   1       4.341   2.293 -11.300  0.00  0.00     0.062 H 
ATOM     34  H   LIG d   1       4.162  -0.161 -11.304  0.00  0.00     0.062 H 
ENDBRANCH   1  24
BRANCH   4  35
ATOM     35  C   LIG d   1       1.748  -4.857 -10.408  0.00  0.00     0.065 A 
ATOM     36  C   LIG d   1       0.970  -4.636 -11.537  0.00  0.00    -0.036 A 
ATOM     37  C   LIG d   1       0.277  -5.682 -12.113  0.00  0.00    -0.060 A 
ATOM     38  H   LIG d   1       0.907  -3.645 -11.965  0.00  0.00     0.064 H 
ATOM     39  C   LIG d   1       0.356  -6.950 -11.566  0.00  0.00    -0.062 A 
ATOM     40  H   LIG d   1      -0.328  -5.510 -12.992  0.00  0.00     0.062 H 
ATOM     41  C   LIG d   1       1.130  -7.175 -10.442  0.00  0.00    -0.060 A 
ATOM     42  H   LIG d   1      -0.186  -7.766 -12.019  0.00  0.00     0.062 H 
ATOM     43  C   LIG d   1       1.830  -6.132  -9.865  0.00  0.00    -0.036 A 
ATOM     44  H   LIG d   1       1.192  -8.165 -10.018  0.00  0.00     0.062 H 
ATOM     45  H   LIG d   1       2.437  -6.309  -8.990  0.00  0.00     0.064 H 
ENDBRANCH   4  35
TORSDOF 5
ENDMDL
MODEL 8
REMARK VINA RESULT:      -7.1      5.922      9.107
REMARK  5 active torsions:
REMARK  status: ('A' for Active; 'I' for Inactive)
REMARK    1  A    between atoms: C_4  and  C_7 
REMARK    2  A    between atoms: C_8  and  C_18 
REMARK    3  A    between atoms: N_10  and  C_12 
REMARK    4  A    between atoms: C_19  and  C_20 
REMARK    5  A    between atoms: C_20  and  C_22 
ROOT
ATOM      1  C   LIG d   1       9.935   4.954  -4.799  0.00  0.00     0.100 A 
ATOM      2  C   LIG d   1       9.641   3.861  -3.864  0.00  0.00     0.021 A 
ATOM      3  C   LIG d   1       9.925   4.345  -2.599  0.00  0.00     0.039 A 
ATOM      4  N   LIG d   1      10.349   5.614  -2.730  0.00  0.00    -0.239 N 
ATOM      5  N   LIG d   1      10.346   5.974  -4.080  0.00  0.00    -0.166 NA
ATOM      6  H   LIG d   1       9.825   3.799  -1.673  0.00  0.00     0.084 H 
ENDROOT
BRANCH   2   7
ATOM      7  C   LIG d   1       9.149   2.523  -4.204  0.00  0.00    -0.047 C 
ATOM      8  C   LIG d   1       7.921   2.127  -3.792  0.00  0.00    -0.014 C 
ATOM      9  H   LIG d   1       7.302   2.799  -3.216  0.00  0.00     0.066 H 
ATOM     10  H   LIG d   1       9.768   1.850  -4.779  0.00  0.00     0.063 H 
BRANCH   8  11
ATOM     11  C   LIG d   1       7.449   0.833  -4.115  0.00  0.00     0.186 C 
ATOM     12  O   LIG d   1       7.961   0.207  -5.025  0.00  0.00    -0.287 OA
BRANCH  11  13
ATOM     13  C   LIG d   1       6.332   0.240  -3.346  0.00  0.00     0.022 A 
ATOM     14  C   LIG d   1       6.148  -1.144  -3.332  0.00  0.00    -0.051 A 
ATOM     15  C   LIG d   1       5.105  -1.691  -2.612  0.00  0.00    -0.061 A 
ATOM     16  H   LIG d   1       6.822  -1.785  -3.881  0.00  0.00     0.062 H 
ATOM     17  C   LIG d   1       4.242  -0.870  -1.908  0.00  0.00    -0.062 A 
ATOM     18  H   LIG d   1       4.963  -2.761  -2.600  0.00  0.00     0.062 H 
ATOM     19  C   LIG d   1       4.419   0.502  -1.919  0.00  0.00    -0.061 A 
ATOM     20  H   LIG d   1       3.427  -1.303  -1.347  0.00  0.00     0.062 H 
ATOM     21  C   LIG d   1       5.461   1.061  -2.628  0.00  0.00    -0.051 A 
ATOM     22  H   LIG d   1       3.741   1.137  -1.366  0.00  0.00     0.062 H 
ATOM     23  H   LIG d   1       5.600   2.132  -2.632  0.00  0.00     0.062 H 
ENDBRANCH  11  13
ENDBRANCH   8  11
ENDBRANCH   2   7
BRANCH   1  24
ATOM     24  C   LIG d   1       9.791   4.915  -6.274  0.00  0.00     0.003 A 
ATOM     25  C   LIG d   1       9.679   3.692  -6.933  0.00  0.00    -0.052 A 
ATOM     26  C   LIG d   1       9.545   3.662  -8.307  0.00  0.00    -0.061 A 
ATOM     27  H   LIG d   1       9.696   2.770  -6.371  0.00  0.00     0.062 H 
ATOM     28  C   LIG d   1       9.523   4.842  -9.028  0.00  0.00    -0.062 A 
ATOM     29  H   LIG d   1       9.458   2.715  -8.818  0.00  0.00     0.062 H 
ATOM     30  C   LIG d   1       9.634   6.058  -8.379  0.00  0.00    -0.061 A 
ATOM     31  H   LIG d   1       9.419   4.813 -10.103  0.00  0.00     0.062 H 
ATOM     32  C   LIG d   1       9.763   6.101  -7.006  0.00  0.00    -0.052 A 
ATOM     33  H   LIG d   1       9.616   6.976  -8.948  0.00  0.00     0.062 H 
ATOM     34  H   LIG d   1       9.844   7.052  -6.499  0.00  0.00     0.062 H 
ENDBRANCH   1  24
BRANCH   4  35
ATOM     35  C   LIG d   1      10.735   6.448  -1.673  0.00  0.00     0.065 A 
ATOM     36  C   LIG d   1      11.145   7.750  -1.928  0.00  0.00    -0.036 A 
ATOM     37  C   LIG d   1      11.524   8.571  -0.885  0.00  0.00    -0.060 A 
ATOM     38  H   LIG d   1      11.167   8.121  -2.943  0.00  0.00     0.064 H 
ATOM     39  C   LIG d   1      11.497   8.097   0.415  0.00  0.00    -0.062 A 
ATOM     40  H   LIG d   1      11.842   9.584  -1.083  0.00  0.00     0.062 H 
ATOM     41  C   LIG d   1      11.089   6.801   0.672  0.00  0.00    -0.060 A 
ATOM     42  H   LIG d   1      11.793   8.740   1.229  0.00  0.00     0.062 H 
ATOM     43  C   LIG d   1      10.703   5.977  -0.368  0.00  0.00    -0.036 A 
ATOM     44  H   LIG d   1      11.068   6.434   1.687  0.00  0.00     0.062 H 
ATOM     45  H   LIG d   1      10.381   4.967  -0.165  0.00  0.00     0.064 H 
ENDBRANCH   4  35
TORSDOF 5
ENDMDL
MODEL 9
REMARK VINA RESULT:      -7.1      3.251      4.048
REMARK  5 active torsions:
REMARK  status: ('A' for Active; 'I' for Inactive)
REMARK    1  A    between atoms: C_4  and  C_7 
REMARK    2  A    between atoms: C_8  and  C_18 
REMARK    3  A    between atoms: N_10  and  C_12 
REMARK    4  A    between atoms: C_19  and  C_20 
REMARK    5  A    between atoms: C_20  and  C_22 
ROOT
ATOM      1  C   LIG d   1       4.596  -2.984  -5.007  0.00  0.00     0.100 A 
ATOM      2  C   LIG d   1       4.777  -2.744  -6.444  0.00  0.00     0.021 A 
ATOM      3  C   LIG d   1       4.822  -3.990  -7.043  0.00  0.00     0.039 A 
ATOM      4  N   LIG d   1       4.678  -4.916  -6.078  0.00  0.00    -0.239 N 
ATOM      5  N   LIG d   1       4.537  -4.286  -4.839  0.00  0.00    -0.166 NA
ATOM      6  H   LIG d   1       4.950  -4.184  -8.098  0.00  0.00     0.084 H 
ENDROOT
BRANCH   2   7
ATOM      7  C   LIG d   1       4.893  -1.443  -7.109  0.00  0.00    -0.047 C 
ATOM      8  C   LIG d   1       6.066  -0.767  -7.073  0.00  0.00    -0.014 C 
ATOM      9  H   LIG d   1       6.917  -1.187  -6.557  0.00  0.00     0.066 H 
ATOM     10  H   LIG d   1       4.043  -1.022  -7.625  0.00  0.00     0.063 H 
BRANCH   8  11
ATOM     11  C   LIG d   1       6.177   0.492  -7.710  0.00  0.00     0.186 C 
ATOM     12  O   LIG d   1       6.956   1.326  -7.283  0.00  0.00    -0.287 OA
BRANCH  11  13
ATOM     13  C   LIG d   1       5.346   0.797  -8.896  0.00  0.00     0.022 A 
ATOM     14  C   LIG d   1       4.416   1.837  -8.853  0.00  0.00    -0.051 A 
ATOM     15  C   LIG d   1       3.645   2.116  -9.962  0.00  0.00    -0.061 A 
ATOM     16  H   LIG d   1       4.302   2.423  -7.953  0.00  0.00     0.062 H 
ATOM     17  C   LIG d   1       3.792   1.367 -11.116  0.00  0.00    -0.062 A 
ATOM     18  H   LIG d   1       2.926   2.921  -9.929  0.00  0.00     0.062 H 
ATOM     19  C   LIG d   1       4.712   0.334 -11.166  0.00  0.00    -0.061 A 
ATOM     20  H   LIG d   1       3.185   1.589 -11.982  0.00  0.00     0.062 H 
ATOM     21  C   LIG d   1       5.492   0.049 -10.066  0.00  0.00    -0.051 A 
ATOM     22  H   LIG d   1       4.820  -0.247 -12.070  0.00  0.00     0.062 H 
ATOM     23  H   LIG d   1       6.214  -0.754 -10.108  0.00  0.00     0.062 H 
ENDBRANCH  11  13
ENDBRANCH   8  11
ENDBRANCH   2   7
BRANCH   1  24
ATOM     24  C   LIG d   1       4.495  -1.953  -3.946  0.00  0.00     0.003 A 
ATOM     25  C   LIG d   1       3.246  -1.475  -3.552  0.00  0.00    -0.052 A 
ATOM     26  C   LIG d   1       3.159  -0.516  -2.564  0.00  0.00    -0.061 A 
ATOM     27  H   LIG d   1       2.349  -1.855  -4.017  0.00  0.00     0.062 H 
ATOM     28  C   LIG d   1       4.307  -0.027  -1.966  0.00  0.00    -0.062 A 
ATOM     29  H   LIG d   1       2.192  -0.145  -2.257  0.00  0.00     0.062 H 
ATOM     30  C   LIG d   1       5.549  -0.498  -2.354  0.00  0.00    -0.061 A 
ATOM     31  H   LIG d   1       4.234   0.724  -1.194  0.00  0.00     0.062 H 
ATOM     32  C   LIG d   1       5.649  -1.461  -3.337  0.00  0.00    -0.052 A 
ATOM     33  H   LIG d   1       6.442  -0.113  -1.884  0.00  0.00     0.062 H 
ATOM     34  H   LIG d   1       6.618  -1.831  -3.636  0.00  0.00     0.062 H 
ENDBRANCH   1  24
BRANCH   4  35
ATOM     35  C   LIG d   1       4.670  -6.301  -6.285  0.00  0.00     0.065 A 
ATOM     36  C   LIG d   1       4.328  -6.816  -7.528  0.00  0.00    -0.036 A 
ATOM     37  C   LIG d   1       4.322  -8.182  -7.731  0.00  0.00    -0.060 A 
ATOM     38  H   LIG d   1       4.066  -6.149  -8.337  0.00  0.00     0.064 H 
ATOM     39  C   LIG d   1       4.656  -9.038  -6.696  0.00  0.00    -0.062 A 
ATOM     40  H   LIG d   1       4.056  -8.583  -8.698  0.00  0.00     0.062 H 
ATOM     41  C   LIG d   1       4.998  -8.528  -5.457  0.00  0.00    -0.060 A 
ATOM     42  H   LIG d   1       4.651 -10.105  -6.857  0.00  0.00     0.062 H 
ATOM     43  C   LIG d   1       5.011  -7.162  -5.251  0.00  0.00    -0.036 A 
ATOM     44  H   LIG d   1       5.260  -9.197  -4.651  0.00  0.00     0.062 H 
ATOM     45  H   LIG d   1       5.282  -6.764  -4.284  0.00  0.00     0.064 H 
ENDBRANCH   4  35
TORSDOF 5
ENDMDL
MODEL 10
REMARK VINA RESULT:      -7.0      1.866      2.595
REMARK  5 active torsions:
REMARK  status: ('A' for Active; 'I' for Inactive)
REMARK    1  A    between atoms: C_4  and  C_7 
REMARK    2  A    between atoms: C_8  and  C_18 
REMARK    3  A    between atoms: N_10  and  C_12 
REMARK    4  A    between atoms: C_19  and  C_20 
REMARK    5  A    between atoms: C_20  and  C_22 
ROOT
ATOM      1  C   LIG d   1       5.935  -1.688  -4.448  0.00  0.00     0.100 A 
ATOM      2  C   LIG d   1       6.396  -1.548  -5.835  0.00  0.00     0.021 A 
ATOM      3  C   LIG d   1       7.094  -2.706  -6.131  0.00  0.00     0.039 A 
ATOM      4  N   LIG d   1       7.067  -3.492  -5.040  0.00  0.00    -0.239 N 
ATOM      5  N   LIG d   1       6.352  -2.858  -4.021  0.00  0.00    -0.166 NA
ATOM      6  H   LIG d   1       7.574  -2.935  -7.070  0.00  0.00     0.084 H 
ENDROOT
BRANCH   2   7
ATOM      7  C   LIG d   1       6.167  -0.407  -6.726  0.00  0.00    -0.047 C 
ATOM      8  C   LIG d   1       7.208   0.159  -7.382  0.00  0.00    -0.014 C 
ATOM      9  H   LIG d   1       8.206  -0.233  -7.252  0.00  0.00     0.066 H 
ATOM     10  H   LIG d   1       5.170  -0.014  -6.856  0.00  0.00     0.063 H 
BRANCH   8  11
ATOM     11  C   LIG d   1       6.989   1.265  -8.237  0.00  0.00     0.186 C 
ATOM     12  O   LIG d   1       7.726   2.233  -8.183  0.00  0.00    -0.287 OA
BRANCH  11  13
ATOM     13  C   LIG d   1       5.864   1.246  -9.198  0.00  0.00     0.022 A 
ATOM     14  C   LIG d   1       4.837   2.185  -9.094  0.00  0.00    -0.051 A 
ATOM     15  C   LIG d   1       3.790   2.162  -9.993  0.00  0.00    -0.061 A 
ATOM     16  H   LIG d   1       4.862   2.931  -8.312  0.00  0.00     0.062 H 
ATOM     17  C   LIG d   1       3.758   1.209 -10.995  0.00  0.00    -0.062 A 
ATOM     18  H   LIG d   1       2.996   2.889  -9.914  0.00  0.00     0.062 H 
ATOM     19  C   LIG d   1       4.772   0.274 -11.104  0.00  0.00    -0.061 A 
ATOM     20  H   LIG d   1       2.936   1.195 -11.697  0.00  0.00     0.062 H 
ATOM     21  C   LIG d   1       5.826   0.290 -10.215  0.00  0.00    -0.051 A 
ATOM     22  H   LIG d   1       4.740  -0.467 -11.889  0.00  0.00     0.062 H 
ATOM     23  H   LIG d   1       6.620  -0.437 -10.304  0.00  0.00     0.062 H 
ENDBRANCH  11  13
ENDBRANCH   8  11
ENDBRANCH   2   7
BRANCH   1  24
ATOM     24  C   LIG d   1       5.146  -0.698  -3.677  0.00  0.00     0.003 A 
ATOM     25  C   LIG d   1       5.773   0.422  -3.130  0.00  0.00    -0.052 A 
ATOM     26  C   LIG d   1       5.033   1.341  -2.414  0.00  0.00    -0.061 A 
ATOM     27  H   LIG d   1       6.833   0.570  -3.267  0.00  0.00     0.062 H 
ATOM     28  C   LIG d   1       3.674   1.153  -2.237  0.00  0.00    -0.062 A 
ATOM     29  H   LIG d   1       5.517   2.208  -1.990  0.00  0.00     0.062 H 
ATOM     30  C   LIG d   1       3.048   0.044  -2.777  0.00  0.00    -0.061 A 
ATOM     31  H   LIG d   1       3.100   1.875  -1.675  0.00  0.00     0.062 H 
ATOM     32  C   LIG d   1       3.776  -0.879  -3.500  0.00  0.00    -0.052 A 
ATOM     33  H   LIG d   1       1.987  -0.098  -2.636  0.00  0.00     0.062 H 
ATOM     34  H   LIG d   1       3.285  -1.742  -3.926  0.00  0.00     0.062 H 
ENDBRANCH   1  24
BRANCH   4  35
ATOM     35  C   LIG d   1       7.665  -4.755  -4.942  0.00  0.00     0.065 A 
ATOM     36  C   LIG d   1       8.817  -4.922  -4.185  0.00  0.00    -0.036 A 
ATOM     37  C   LIG d   1       9.405  -6.168  -4.089  0.00  0.00    -0.060 A 
ATOM     38  H   LIG d   1       9.253  -4.077  -3.670  0.00  0.00     0.064 H 
ATOM     39  C   LIG d   1       8.848  -7.249  -4.747  0.00  0.00    -0.062 A 
ATOM     40  H   LIG d   1      10.301  -6.298  -3.499  0.00  0.00     0.062 H 
ATOM     41  C   LIG d   1       7.700  -7.086  -5.503  0.00  0.00    -0.060 A 
ATOM     42  H   LIG d   1       9.309  -8.222  -4.671  0.00  0.00     0.062 H 
ATOM     43  C   LIG d   1       7.105  -5.843  -5.597  0.00  0.00    -0.036 A 
ATOM     44  H   LIG d   1       7.267  -7.932  -6.014  0.00  0.00     0.062 H 
ATOM     45  H   LIG d   1       6.207  -5.718  -6.183  0.00  0.00     0.064 H 
ENDBRANCH   4  35
TORSDOF 5
ENDMDL
