MODEL 1
REMARK VINA RESULT:      -5.6      0.000      0.000
REMARK  5 active torsions:
REMARK  status: ('A' for Active; 'I' for Inactive)
REMARK    1  A    between atoms: C_3  and  C_9 
REMARK    2  A    between atoms: C_5  and  C_7 
REMARK    3  A    between atoms: C_9  and  CA_10 
REMARK    4  A    between atoms: CA_10  and  C_12 
REMARK    5  A    between atoms: CA_10  and  N_24 
ROOT
ATOM      1  C   LIG d   1       7.286  -2.801  -4.148  0.00  0.00    -0.061 A 
ATOM      2  C   LIG d   1       6.421  -1.994  -3.431  0.00  0.00    -0.058 A 
ATOM      3  C   LIG d   1       5.056  -2.216  -3.481  0.00  0.00    -0.041 A 
ATOM      4  C   LIG d   1       4.549  -3.244  -4.250  0.00  0.00    -0.050 A 
ATOM      5  C   LIG d   1       5.417  -4.066  -4.970  0.00  0.00    -0.002 A 
ATOM      6  C   LIG d   1       6.793  -3.833  -4.919  0.00  0.00    -0.053 A 
ATOM      7  H   LIG d   1       8.350  -2.621  -4.104  0.00  0.00     0.062 H 
ATOM      8  H   LIG d   1       6.812  -1.187  -2.828  0.00  0.00     0.062 H 
ATOM      9  H   LIG d   1       3.484  -3.416  -4.289  0.00  0.00     0.063 H 
ATOM     10  H   LIG d   1       7.470  -4.461  -5.478  0.00  0.00     0.062 H 
ENDROOT
BRANCH   3  11
ATOM     11  C   LIG d   1       4.121  -1.332  -2.697  0.00  0.00     0.021 C 
ATOM     12  H   LIG d   1       3.276  -1.921  -2.341  0.00  0.00     0.037 H 
ATOM     13  H   LIG d   1       4.653  -0.907  -1.845  0.00  0.00     0.037 H 
BRANCH  11  14
ATOM     14  CA  LIG d   1       3.614  -0.203  -3.596  0.00  0.00     0.020 C 
ATOM     15  HA  LIG d   1       4.214  -0.165  -4.505  0.00  0.00     0.092 H 
BRANCH  14  16
ATOM     16  C   LIG d   1       3.728   1.110  -2.866  0.00  0.00     0.090 C 
ATOM     17  O   LIG d   1       3.505   2.146  -3.447  0.00  0.00    -0.544 OA
ATOM     18  OXT LIG d   1       4.077   1.131  -1.570  0.00  0.00    -0.544 OA
ENDBRANCH  14  16
BRANCH  14  19
ATOM     19  N   LIG d   1       2.211  -0.472  -3.957  0.00  0.00     0.225 N 
ATOM     20  H1  LIG d   1       1.946  -1.409  -3.655  0.00  0.00     0.200 HD
ATOM     21  H2  LIG d   1       1.599   0.212  -3.514  0.00  0.00     0.200 HD
ATOM     22  H3  LIG d   1       2.105  -0.405  -4.976  0.00  0.00     0.200 HD
ENDBRANCH  14  19
ENDBRANCH  11  14
ENDBRANCH   3  11
BRANCH   5  23
ATOM     23  C   LIG d   1       4.882  -5.172  -5.790  0.00  0.00     0.072 C 
ATOM     24  O   LIG d   1       5.643  -5.922  -6.369  0.00  0.00    -0.545 OA
ATOM     25  O   LIG d   1       3.551  -5.351  -5.894  0.00  0.00    -0.545 OA
ENDBRANCH   5  23
TORSDOF 5
ENDMDL
MODEL 2
REMARK VINA RESULT:      -5.4      2.003      5.741
REMARK  5 active torsions:
REMARK  status: ('A' for Active; 'I' for Inactive)
REMARK    1  A    between atoms: C_3  and  C_9 
REMARK    2  A    between atoms: C_5  and  C_7 
REMARK    3  A    between atoms: C_9  and  CA_10 
REMARK    4  A    between atoms: CA_10  and  C_12 
REMARK    5  A    between atoms: CA_10  and  N_24 
ROOT
ATOM      1  C   LIG d   1       3.771  -2.094  -2.260  0.00  0.00    -0.061 A 
ATOM      2  C   LIG d   1       4.371  -2.873  -3.234  0.00  0.00    -0.058 A 
ATOM      3  C   LIG d   1       4.606  -2.354  -4.495  0.00  0.00    -0.041 A 
ATOM      4  C   LIG d   1       4.241  -1.056  -4.789  0.00  0.00    -0.050 A 
ATOM      5  C   LIG d   1       3.641  -0.264  -3.809  0.00  0.00    -0.002 A 
ATOM      6  C   LIG d   1       3.403  -0.795  -2.540  0.00  0.00    -0.053 A 
ATOM      7  H   LIG d   1       3.591  -2.505  -1.277  0.00  0.00     0.062 H 
ATOM      8  H   LIG d   1       4.658  -3.889  -3.008  0.00  0.00     0.062 H 
ATOM      9  H   LIG d   1       4.424  -0.653  -5.774  0.00  0.00     0.063 H 
ATOM     10  H   LIG d   1       2.934  -0.189  -1.779  0.00  0.00     0.062 H 
ENDROOT
BRANCH   3  11
ATOM     11  C   LIG d   1       5.260  -3.209  -5.549  0.00  0.00     0.021 C 
ATOM     12  H   LIG d   1       6.089  -2.663  -5.998  0.00  0.00     0.037 H 
ATOM     13  H   LIG d   1       5.633  -4.126  -5.092  0.00  0.00     0.037 H 
BRANCH  11  14
ATOM     14  CA  LIG d   1       4.234  -3.559  -6.629  0.00  0.00     0.020 C 
ATOM     15  HA  LIG d   1       3.336  -2.957  -6.486  0.00  0.00     0.092 H 
BRANCH  14  16
ATOM     16  C   LIG d   1       3.879  -5.020  -6.530  0.00  0.00     0.090 C 
ATOM     17  O   LIG d   1       3.475  -5.611  -7.504  0.00  0.00    -0.544 OA
ATOM     18  OXT LIG d   1       4.011  -5.666  -5.361  0.00  0.00    -0.544 OA
ENDBRANCH  14  16
BRANCH  14  19
ATOM     19  N   LIG d   1       4.809  -3.257  -7.952  0.00  0.00     0.225 N 
ATOM     20  H1  LIG d   1       5.705  -3.729  -8.059  0.00  0.00     0.200 HD
ATOM     21  H2  LIG d   1       4.174  -3.563  -8.687  0.00  0.00     0.200 HD
ATOM     22  H3  LIG d   1       4.952  -2.243  -8.034  0.00  0.00     0.200 HD
ENDBRANCH  14  19
ENDBRANCH  11  14
ENDBRANCH   3  11
BRANCH   5  23
ATOM     23  C   LIG d   1       3.254   1.129  -4.116  0.00  0.00     0.072 C 
ATOM     24  O   LIG d   1       3.584   2.029  -3.370  0.00  0.00    -0.545 OA
ATOM     25  O   LIG d   1       2.537   1.400  -5.223  0.00  0.00    -0.545 OA
ENDBRANCH   5  23
TORSDOF 5
ENDMDL
MODEL 3
REMARK VINA RESULT:      -5.2      2.533      5.512
REMARK  5 active torsions:
REMARK  status: ('A' for Active; 'I' for Inactive)
REMARK    1  A    between atoms: C_3  and  C_9 
REMARK    2  A    between atoms: C_5  and  C_7 
REMARK    3  A    between atoms: C_9  and  CA_10 
REMARK    4  A    between atoms: CA_10  and  C_12 
REMARK    5  A    between atoms: CA_10  and  N_24 
ROOT
ATOM      1  C   LIG d   1       4.302  -0.524  -1.783  0.00  0.00    -0.061 A 
ATOM      2  C   LIG d   1       4.090  -1.776  -2.333  0.00  0.00    -0.058 A 
ATOM      3  C   LIG d   1       4.775  -2.162  -3.473  0.00  0.00    -0.041 A 
ATOM      4  C   LIG d   1       5.672  -1.298  -4.067  0.00  0.00    -0.050 A 
ATOM      5  C   LIG d   1       5.894  -0.036  -3.513  0.00  0.00    -0.002 A 
ATOM      6  C   LIG d   1       5.196   0.348  -2.367  0.00  0.00    -0.053 A 
ATOM      7  H   LIG d   1       3.764  -0.230  -0.894  0.00  0.00     0.062 H 
ATOM      8  H   LIG d   1       3.389  -2.455  -1.872  0.00  0.00     0.062 H 
ATOM      9  H   LIG d   1       6.205  -1.600  -4.957  0.00  0.00     0.063 H 
ATOM     10  H   LIG d   1       5.360   1.325  -1.936  0.00  0.00     0.062 H 
ENDROOT
BRANCH   3  11
ATOM     11  C   LIG d   1       4.538  -3.526  -4.065  0.00  0.00     0.021 C 
ATOM     12  H   LIG d   1       4.967  -4.286  -3.413  0.00  0.00     0.037 H 
ATOM     13  H   LIG d   1       3.466  -3.697  -4.166  0.00  0.00     0.037 H 
BRANCH  11  14
ATOM     14  CA  LIG d   1       5.199  -3.605  -5.443  0.00  0.00     0.020 C 
ATOM     15  HA  LIG d   1       5.485  -2.604  -5.766  0.00  0.00     0.092 H 
BRANCH  14  16
ATOM     16  C   LIG d   1       4.227  -4.193  -6.433  0.00  0.00     0.090 C 
ATOM     17  O   LIG d   1       4.118  -3.706  -7.534  0.00  0.00    -0.544 OA
ATOM     18  OXT LIG d   1       3.482  -5.256  -6.094  0.00  0.00    -0.544 OA
ENDBRANCH  14  16
BRANCH  14  19
ATOM     19  N   LIG d   1       6.407  -4.443  -5.347  0.00  0.00     0.225 N 
ATOM     20  H1  LIG d   1       6.546  -4.747  -4.385  0.00  0.00     0.200 HD
ATOM     21  H2  LIG d   1       6.314  -5.259  -5.951  0.00  0.00     0.200 HD
ATOM     22  H3  LIG d   1       7.222  -3.896  -5.648  0.00  0.00     0.200 HD
ENDBRANCH  14  19
ENDBRANCH  11  14
ENDBRANCH   3  11
BRANCH   5  23
ATOM     23  C   LIG d   1       6.858   0.890  -4.141  0.00  0.00     0.072 C 
ATOM     24  O   LIG d   1       6.997   0.896  -5.348  0.00  0.00    -0.545 OA
ATOM     25  O   LIG d   1       7.581   1.730  -3.376  0.00  0.00    -0.545 OA
ENDBRANCH   5  23
TORSDOF 5
ENDMDL
MODEL 4
REMARK VINA RESULT:      -5.1      3.297      5.270
REMARK  5 active torsions:
REMARK  status: ('A' for Active; 'I' for Inactive)
REMARK    1  A    between atoms: C_3  and  C_9 
REMARK    2  A    between atoms: C_5  and  C_7 
REMARK    3  A    between atoms: C_9  and  CA_10 
REMARK    4  A    between atoms: CA_10  and  C_12 
REMARK    5  A    between atoms: CA_10  and  N_24 
ROOT
ATOM      1  C   LIG d   1       3.387  -1.599  -2.378  0.00  0.00    -0.061 A 
ATOM      2  C   LIG d   1       4.754  -1.804  -2.437  0.00  0.00    -0.058 A 
ATOM      3  C   LIG d   1       5.501  -1.243  -3.458  0.00  0.00    -0.041 A 
ATOM      4  C   LIG d   1       4.884  -0.476  -4.425  0.00  0.00    -0.050 A 
ATOM      5  C   LIG d   1       3.506  -0.260  -4.368  0.00  0.00    -0.002 A 
ATOM      6  C   LIG d   1       2.758  -0.834  -3.338  0.00  0.00    -0.053 A 
ATOM      7  H   LIG d   1       2.810  -2.041  -1.578  0.00  0.00     0.062 H 
ATOM      8  H   LIG d   1       5.241  -2.404  -1.682  0.00  0.00     0.062 H 
ATOM      9  H   LIG d   1       5.468  -0.039  -5.222  0.00  0.00     0.063 H 
ATOM     10  H   LIG d   1       1.691  -0.676  -3.291  0.00  0.00     0.062 H 
ENDROOT
BRANCH   3  11
ATOM     11  C   LIG d   1       6.989  -1.471  -3.514  0.00  0.00     0.021 C 
ATOM     12  H   LIG d   1       7.419  -1.306  -2.527  0.00  0.00     0.037 H 
ATOM     13  H   LIG d   1       7.187  -2.496  -3.830  0.00  0.00     0.037 H 
BRANCH  11  14
ATOM     14  CA  LIG d   1       7.616  -0.498  -4.514  0.00  0.00     0.020 C 
ATOM     15  HA  LIG d   1       6.842  -0.103  -5.171  0.00  0.00     0.092 H 
BRANCH  14  16
ATOM     16  C   LIG d   1       8.650  -1.223  -5.338  0.00  0.00     0.090 C 
ATOM     17  O   LIG d   1       8.349  -2.232  -5.932  0.00  0.00    -0.544 OA
ATOM     18  OXT LIG d   1       9.903  -0.748  -5.412  0.00  0.00    -0.544 OA
ENDBRANCH  14  16
BRANCH  14  19
ATOM     19  N   LIG d   1       8.235   0.615  -3.774  0.00  0.00     0.225 N 
ATOM     20  H1  LIG d   1       7.694   1.468  -3.910  0.00  0.00     0.200 HD
ATOM     21  H2  LIG d   1       8.276   0.394  -2.780  0.00  0.00     0.200 HD
ATOM     22  H3  LIG d   1       9.189   0.764  -4.123  0.00  0.00     0.200 HD
ENDBRANCH  14  19
ENDBRANCH  11  14
ENDBRANCH   3  11
BRANCH   5  23
ATOM     23  C   LIG d   1       2.841   0.565  -5.397  0.00  0.00     0.072 C 
ATOM     24  O   LIG d   1       2.463   1.687  -5.125  0.00  0.00    -0.545 OA
ATOM     25  O   LIG d   1       2.656   0.074  -6.638  0.00  0.00    -0.545 OA
ENDBRANCH   5  23
TORSDOF 5
ENDMDL
MODEL 5
REMARK VINA RESULT:      -5.0      2.227      2.896
REMARK  5 active torsions:
REMARK  status: ('A' for Active; 'I' for Inactive)
REMARK    1  A    between atoms: C_3  and  C_9 
REMARK    2  A    between atoms: C_5  and  C_7 
REMARK    3  A    between atoms: C_9  and  CA_10 
REMARK    4  A    between atoms: CA_10  and  C_12 
REMARK    5  A    between atoms: CA_10  and  N_24 
ROOT
ATOM      1  C   LIG d   1       5.370  -3.937  -4.992  0.00  0.00    -0.061 A 
ATOM      2  C   LIG d   1       4.702  -3.113  -4.103  0.00  0.00    -0.058 A 
ATOM      3  C   LIG d   1       5.400  -2.177  -3.360  0.00  0.00    -0.041 A 
ATOM      4  C   LIG d   1       6.768  -2.061  -3.500  0.00  0.00    -0.050 A 
ATOM      5  C   LIG d   1       7.446  -2.885  -4.400  0.00  0.00    -0.002 A 
ATOM      6  C   LIG d   1       6.737  -3.830  -5.142  0.00  0.00    -0.053 A 
ATOM      7  H   LIG d   1       4.819  -4.665  -5.568  0.00  0.00     0.062 H 
ATOM      8  H   LIG d   1       3.632  -3.200  -3.989  0.00  0.00     0.062 H 
ATOM      9  H   LIG d   1       7.311  -1.330  -2.919  0.00  0.00     0.063 H 
ATOM     10  H   LIG d   1       7.256  -4.474  -5.837  0.00  0.00     0.062 H 
ENDROOT
BRANCH   3  11
ATOM     11  C   LIG d   1       4.664  -1.284  -2.394  0.00  0.00     0.021 C 
ATOM     12  H   LIG d   1       3.988  -1.885  -1.787  0.00  0.00     0.037 H 
ATOM     13  H   LIG d   1       5.382  -0.780  -1.747  0.00  0.00     0.037 H 
BRANCH  11  14
ATOM     14  CA  LIG d   1       3.860  -0.243  -3.174  0.00  0.00     0.020 C 
ATOM     15  HA  LIG d   1       4.161  -0.262  -4.222  0.00  0.00     0.092 H 
BRANCH  14  16
ATOM     16  C   LIG d   1       4.125   1.127  -2.603  0.00  0.00     0.090 C 
ATOM     17  O   LIG d   1       3.760   2.112  -3.201  0.00  0.00    -0.544 OA
ATOM     18  OXT LIG d   1       4.765   1.253  -1.430  0.00  0.00    -0.544 OA
ENDBRANCH  14  16
BRANCH  14  19
ATOM     19  N   LIG d   1       2.428  -0.573  -3.078  0.00  0.00     0.225 N 
ATOM     20  H1  LIG d   1       1.883   0.062  -3.659  0.00  0.00     0.200 HD
ATOM     21  H2  LIG d   1       2.270  -1.533  -3.385  0.00  0.00     0.200 HD
ATOM     22  H3  LIG d   1       2.125  -0.480  -2.102  0.00  0.00     0.200 HD
ENDBRANCH  14  19
ENDBRANCH  11  14
ENDBRANCH   3  11
BRANCH   5  23
ATOM     23  C   LIG d   1       8.909  -2.761  -4.559  0.00  0.00     0.072 C 
ATOM     24  O   LIG d   1       9.387  -1.740  -5.013  0.00  0.00    -0.545 OA
ATOM     25  O   LIG d   1       9.714  -3.780  -4.202  0.00  0.00    -0.545 OA
ENDBRANCH   5  23
TORSDOF 5
ENDMDL
MODEL 6
REMARK VINA RESULT:      -4.8      3.195      5.300
REMARK  5 active torsions:
REMARK  status: ('A' for Active; 'I' for Inactive)
REMARK    1  A    between atoms: C_3  and  C_9 
REMARK    2  A    between atoms: C_5  and  C_7 
REMARK    3  A    between atoms: C_9  and  CA_10 
REMARK    4  A    between atoms: CA_10  and  C_12 
REMARK    5  A    between atoms: CA_10  and  N_24 
ROOT
ATOM      1  C   LIG d   1       4.835  -2.689  -3.593  0.00  0.00    -0.061 A 
ATOM      2  C   LIG d   1       4.665  -2.569  -4.960  0.00  0.00    -0.058 A 
ATOM      3  C   LIG d   1       4.453  -1.326  -5.531  0.00  0.00    -0.041 A 
ATOM      4  C   LIG d   1       4.407  -0.199  -4.737  0.00  0.00    -0.050 A 
ATOM      5  C   LIG d   1       4.584  -0.312  -3.357  0.00  0.00    -0.002 A 
ATOM      6  C   LIG d   1       4.793  -1.570  -2.787  0.00  0.00    -0.053 A 
ATOM      7  H   LIG d   1       5.001  -3.662  -3.154  0.00  0.00     0.062 H 
ATOM      8  H   LIG d   1       4.700  -3.449  -5.586  0.00  0.00     0.062 H 
ATOM      9  H   LIG d   1       4.240   0.771  -5.183  0.00  0.00     0.063 H 
ATOM     10  H   LIG d   1       4.926  -1.666  -1.720  0.00  0.00     0.062 H 
ENDROOT
BRANCH   3  11
ATOM     11  C   LIG d   1       4.268  -1.205  -7.021  0.00  0.00     0.021 C 
ATOM     12  H   LIG d   1       5.174  -1.535  -7.528  0.00  0.00     0.037 H 
ATOM     13  H   LIG d   1       3.430  -1.827  -7.335  0.00  0.00     0.037 H 
BRANCH  11  14
ATOM     14  CA  LIG d   1       3.984   0.254  -7.382  0.00  0.00     0.020 C 
ATOM     15  HA  LIG d   1       3.752   0.814  -6.476  0.00  0.00     0.092 H 
BRANCH  14  16
ATOM     16  C   LIG d   1       2.810   0.318  -8.326  0.00  0.00     0.090 C 
ATOM     17  O   LIG d   1       2.194  -0.687  -8.592  0.00  0.00    -0.544 OA
ATOM     18  OXT LIG d   1       2.449   1.490  -8.870  0.00  0.00    -0.544 OA
ENDBRANCH  14  16
BRANCH  14  19
ATOM     19  N   LIG d   1       5.183   0.834  -8.012  0.00  0.00     0.225 N 
ATOM     20  H1  LIG d   1       5.062   0.874  -9.022  0.00  0.00     0.200 HD
ATOM     21  H2  LIG d   1       5.347   1.773  -7.651  0.00  0.00     0.200 HD
ATOM     22  H3  LIG d   1       5.996   0.245  -7.794  0.00  0.00     0.200 HD
ENDBRANCH  14  19
ENDBRANCH  11  14
ENDBRANCH   3  11
BRANCH   5  23
ATOM     23  C   LIG d   1       4.543   0.892  -2.502  0.00  0.00     0.072 C 
ATOM     24  O   LIG d   1       5.575   1.457  -2.199  0.00  0.00    -0.545 OA
ATOM     25  O   LIG d   1       3.361   1.363  -2.060  0.00  0.00    -0.545 OA
ENDBRANCH   5  23
TORSDOF 5
ENDMDL
MODEL 7
REMARK VINA RESULT:      -4.7      4.825      6.475
REMARK  5 active torsions:
REMARK  status: ('A' for Active; 'I' for Inactive)
REMARK    1  A    between atoms: C_3  and  C_9 
REMARK    2  A    between atoms: C_5  and  C_7 
REMARK    3  A    between atoms: C_9  and  CA_10 
REMARK    4  A    between atoms: CA_10  and  C_12 
REMARK    5  A    between atoms: CA_10  and  N_24 
ROOT
ATOM      1  C   LIG d   1       4.633  -1.729  -6.571  0.00  0.00    -0.061 A 
ATOM      2  C   LIG d   1       4.020  -1.189  -7.687  0.00  0.00    -0.058 A 
ATOM      3  C   LIG d   1       3.134  -0.134  -7.556  0.00  0.00    -0.041 A 
ATOM      4  C   LIG d   1       2.854   0.383  -6.308  0.00  0.00    -0.050 A 
ATOM      5  C   LIG d   1       3.473  -0.153  -5.178  0.00  0.00    -0.002 A 
ATOM      6  C   LIG d   1       4.363  -1.220  -5.317  0.00  0.00    -0.053 A 
ATOM      7  H   LIG d   1       5.324  -2.552  -6.681  0.00  0.00     0.062 H 
ATOM      8  H   LIG d   1       4.236  -1.591  -8.666  0.00  0.00     0.062 H 
ATOM      9  H   LIG d   1       2.161   1.206  -6.206  0.00  0.00     0.063 H 
ATOM     10  H   LIG d   1       4.842  -1.643  -4.447  0.00  0.00     0.062 H 
ENDROOT
BRANCH   3  11
ATOM     11  C   LIG d   1       2.471   0.447  -8.778  0.00  0.00     0.021 C 
ATOM     12  H   LIG d   1       1.466   0.782  -8.522  0.00  0.00     0.037 H 
ATOM     13  H   LIG d   1       3.055   1.294  -9.139  0.00  0.00     0.037 H 
BRANCH  11  14
ATOM     14  CA  LIG d   1       2.391  -0.621  -9.870  0.00  0.00     0.020 C 
ATOM     15  HA  LIG d   1       2.899  -1.524  -9.533  0.00  0.00     0.092 H 
BRANCH  14  16
ATOM     16  C   LIG d   1       3.056  -0.109 -11.122  0.00  0.00     0.090 C 
ATOM     17  O   LIG d   1       2.941  -0.719 -12.159  0.00  0.00    -0.544 OA
ATOM     18  OXT LIG d   1       3.776   1.024 -11.086  0.00  0.00    -0.544 OA
ENDBRANCH  14  16
BRANCH  14  19
ATOM     19  N   LIG d   1       0.975  -0.934 -10.130  0.00  0.00     0.225 N 
ATOM     20  H1  LIG d   1       0.694  -1.753  -9.593  0.00  0.00     0.200 HD
ATOM     21  H2  LIG d   1       0.389  -0.141  -9.871  0.00  0.00     0.200 HD
ATOM     22  H3  LIG d   1       0.850  -1.129 -11.130  0.00  0.00     0.200 HD
ENDBRANCH  14  19
ENDBRANCH  11  14
ENDBRANCH   3  11
BRANCH   5  23
ATOM     23  C   LIG d   1       3.183   0.401  -3.840  0.00  0.00     0.072 C 
ATOM     24  O   LIG d   1       2.693  -0.307  -2.982  0.00  0.00    -0.545 OA
ATOM     25  O   LIG d   1       3.463   1.691  -3.569  0.00  0.00    -0.545 OA
ENDBRANCH   5  23
TORSDOF 5
ENDMDL
MODEL 8
REMARK VINA RESULT:      -4.7      3.481      5.163
REMARK  5 active torsions:
REMARK  status: ('A' for Active; 'I' for Inactive)
REMARK    1  A    between atoms: C_3  and  C_9 
REMARK    2  A    between atoms: C_5  and  C_7 
REMARK    3  A    between atoms: C_9  and  CA_10 
REMARK    4  A    between atoms: CA_10  and  C_12 
REMARK    5  A    between atoms: CA_10  and  N_24 
ROOT
ATOM      1  C   LIG d   1       8.351  -0.996  -5.006  0.00  0.00    -0.061 A 
ATOM      2  C   LIG d   1       7.190  -1.310  -4.323  0.00  0.00    -0.058 A 
ATOM      3  C   LIG d   1       6.551  -0.352  -3.556  0.00  0.00    -0.041 A 
ATOM      4  C   LIG d   1       7.070   0.923  -3.466  0.00  0.00    -0.050 A 
ATOM      5  C   LIG d   1       8.238   1.248  -4.158  0.00  0.00    -0.002 A 
ATOM      6  C   LIG d   1       8.881   0.276  -4.926  0.00  0.00    -0.053 A 
ATOM      7  H   LIG d   1       8.845  -1.748  -5.603  0.00  0.00     0.062 H 
ATOM      8  H   LIG d   1       6.780  -2.307  -4.390  0.00  0.00     0.062 H 
ATOM      9  H   LIG d   1       6.571   1.670  -2.866  0.00  0.00     0.063 H 
ATOM     10  H   LIG d   1       9.787   0.519  -5.460  0.00  0.00     0.062 H 
ENDROOT
BRANCH   3  11
ATOM     11  C   LIG d   1       5.287  -0.703  -2.815  0.00  0.00     0.021 C 
ATOM     12  H   LIG d   1       5.327  -1.746  -2.501  0.00  0.00     0.037 H 
ATOM     13  H   LIG d   1       5.191  -0.064  -1.937  0.00  0.00     0.037 H 
BRANCH  11  14
ATOM     14  CA  LIG d   1       4.082  -0.492  -3.734  0.00  0.00     0.020 C 
ATOM     15  HA  LIG d   1       4.419  -0.449  -4.770  0.00  0.00     0.092 H 
BRANCH  14  16
ATOM     16  C   LIG d   1       3.397   0.801  -3.375  0.00  0.00     0.090 C 
ATOM     17  O   LIG d   1       3.307   1.135  -2.217  0.00  0.00    -0.544 OA
ATOM     18  OXT LIG d   1       2.886   1.582  -4.340  0.00  0.00    -0.544 OA
ENDBRANCH  14  16
BRANCH  14  19
ATOM     19  N   LIG d   1       3.156  -1.628  -3.577  0.00  0.00     0.225 N 
ATOM     20  H1  LIG d   1       2.564  -1.485  -2.761  0.00  0.00     0.200 HD
ATOM     21  H2  LIG d   1       2.572  -1.719  -4.408  0.00  0.00     0.200 HD
ATOM     22  H3  LIG d   1       3.698  -2.491  -3.453  0.00  0.00     0.200 HD
ENDBRANCH  14  19
ENDBRANCH  11  14
ENDBRANCH   3  11
BRANCH   5  23
ATOM     23  C   LIG d   1       8.796   2.613  -4.071  0.00  0.00     0.072 C 
ATOM     24  O   LIG d   1       9.241   3.022  -3.017  0.00  0.00    -0.545 OA
ATOM     25  O   LIG d   1       8.813   3.404  -5.161  0.00  0.00    -0.545 OA
ENDBRANCH   5  23
TORSDOF 5
ENDMDL
MODEL 9
REMARK VINA RESULT:      -4.6      1.819      5.428
REMARK  5 active torsions:
REMARK  status: ('A' for Active; 'I' for Inactive)
REMARK    1  A    between atoms: C_3  and  C_9 
REMARK    2  A    between atoms: C_5  and  C_7 
REMARK    3  A    between atoms: C_9  and  CA_10 
REMARK    4  A    between atoms: CA_10  and  C_12 
REMARK    5  A    between atoms: CA_10  and  N_24 
ROOT
ATOM      1  C   LIG d   1       7.129   0.304  -3.661  0.00  0.00    -0.061 A 
ATOM      2  C   LIG d   1       7.213  -0.872  -4.384  0.00  0.00    -0.058 A 
ATOM      3  C   LIG d   1       6.098  -1.678  -4.537  0.00  0.00    -0.041 A 
ATOM      4  C   LIG d   1       4.896  -1.312  -3.967  0.00  0.00    -0.050 A 
ATOM      5  C   LIG d   1       4.803  -0.124  -3.241  0.00  0.00    -0.002 A 
ATOM      6  C   LIG d   1       5.933   0.682  -3.086  0.00  0.00    -0.053 A 
ATOM      7  H   LIG d   1       8.003   0.928  -3.545  0.00  0.00     0.062 H 
ATOM      8  H   LIG d   1       8.152  -1.162  -4.832  0.00  0.00     0.062 H 
ATOM      9  H   LIG d   1       4.027  -1.943  -4.086  0.00  0.00     0.063 H 
ATOM     10  H   LIG d   1       5.870   1.600  -2.522  0.00  0.00     0.062 H 
ENDROOT
BRANCH   3  11
ATOM     11  C   LIG d   1       6.199  -2.957  -5.326  0.00  0.00     0.021 C 
ATOM     12  H   LIG d   1       6.603  -2.744  -6.315  0.00  0.00     0.037 H 
ATOM     13  H   LIG d   1       6.858  -3.653  -4.806  0.00  0.00     0.037 H 
BRANCH  11  14
ATOM     14  CA  LIG d   1       4.808  -3.580  -5.467  0.00  0.00     0.020 C 
ATOM     15  HA  LIG d   1       4.162  -3.209  -4.672  0.00  0.00     0.092 H 
BRANCH  14  16
ATOM     16  C   LIG d   1       4.917  -5.079  -5.366  0.00  0.00     0.090 C 
ATOM     17  O   LIG d   1       3.940  -5.739  -5.098  0.00  0.00    -0.544 OA
ATOM     18  OXT LIG d   1       6.098  -5.683  -5.574  0.00  0.00    -0.544 OA
ENDBRANCH  14  16
BRANCH  14  19
ATOM     19  N   LIG d   1       4.240  -3.191  -6.770  0.00  0.00     0.225 N 
ATOM     20  H1  LIG d   1       4.613  -2.288  -7.058  0.00  0.00     0.200 HD
ATOM     21  H2  LIG d   1       4.467  -3.892  -7.473  0.00  0.00     0.200 HD
ATOM     22  H3  LIG d   1       3.219  -3.120  -6.685  0.00  0.00     0.200 HD
ENDBRANCH  14  19
ENDBRANCH  11  14
ENDBRANCH   3  11
BRANCH   5  23
ATOM     23  C   LIG d   1       3.518   0.276  -2.634  0.00  0.00     0.072 C 
ATOM     24  O   LIG d   1       3.449   1.294  -1.973  0.00  0.00    -0.545 OA
ATOM     25  O   LIG d   1       2.422  -0.486  -2.813  0.00  0.00    -0.545 OA
ENDBRANCH   5  23
TORSDOF 5
ENDMDL
MODEL 10
REMARK VINA RESULT:      -4.6      4.960      5.654
REMARK  5 active torsions:
REMARK  status: ('A' for Active; 'I' for Inactive)
REMARK    1  A    between atoms: C_3  and  C_9 
REMARK    2  A    between atoms: C_5  and  C_7 
REMARK    3  A    between atoms: C_9  and  CA_10 
REMARK    4  A    between atoms: CA_10  and  C_12 
REMARK    5  A    between atoms: CA_10  and  N_24 
ROOT
ATOM      1  C   LIG d   1       3.665   1.594 -10.158  0.00  0.00    -0.061 A 
ATOM      2  C   LIG d   1       3.471   1.826  -8.808  0.00  0.00    -0.058 A 
ATOM      3  C   LIG d   1       2.862   0.868  -8.016  0.00  0.00    -0.041 A 
ATOM      4  C   LIG d   1       2.442  -0.324  -8.571  0.00  0.00    -0.050 A 
ATOM      5  C   LIG d   1       2.641  -0.566  -9.931  0.00  0.00    -0.002 A 
ATOM      6  C   LIG d   1       3.251   0.406 -10.725  0.00  0.00    -0.053 A 
ATOM      7  H   LIG d   1       4.141   2.346 -10.770  0.00  0.00     0.062 H 
ATOM      8  H   LIG d   1       3.798   2.757  -8.370  0.00  0.00     0.062 H 
ATOM      9  H   LIG d   1       1.966  -1.070  -7.952  0.00  0.00     0.063 H 
ATOM     10  H   LIG d   1       3.404   0.228 -11.779  0.00  0.00     0.062 H 
ENDROOT
BRANCH   3  11
ATOM     11  C   LIG d   1       2.655   1.128  -6.547  0.00  0.00     0.021 C 
ATOM     12  H   LIG d   1       3.116   2.078  -6.277  0.00  0.00     0.037 H 
ATOM     13  H   LIG d   1       1.586   1.170  -6.333  0.00  0.00     0.037 H 
BRANCH  11  14
ATOM     14  CA  LIG d   1       3.294   0.001  -5.735  0.00  0.00     0.020 C 
ATOM     15  HA  LIG d   1       2.886  -0.957  -6.058  0.00  0.00     0.092 H 
BRANCH  14  16
ATOM     16  C   LIG d   1       2.996   0.205  -4.271  0.00  0.00     0.090 C 
ATOM     17  O   LIG d   1       2.386  -0.638  -3.656  0.00  0.00    -0.544 OA
ATOM     18  OXT LIG d   1       3.405   1.323  -3.651  0.00  0.00    -0.544 OA
ENDBRANCH  14  16
BRANCH  14  19
ATOM     19  N   LIG d   1       4.749   0.007  -5.970  0.00  0.00     0.225 N 
ATOM     20  H1  LIG d   1       5.002   0.788  -6.573  0.00  0.00     0.200 HD
ATOM     21  H2  LIG d   1       5.245   0.089  -5.083  0.00  0.00     0.200 HD
ATOM     22  H3  LIG d   1       5.021  -0.872  -6.426  0.00  0.00     0.200 HD
ENDBRANCH  14  19
ENDBRANCH  11  14
ENDBRANCH   3  11
BRANCH   5  23
ATOM     23  C   LIG d   1       2.200  -1.843 -10.529  0.00  0.00     0.072 C 
ATOM     24  O   LIG d   1       1.241  -2.430 -10.069  0.00  0.00    -0.545 OA
ATOM     25  O   LIG d   1       2.860  -2.355 -11.586  0.00  0.00    -0.545 OA
ENDBRANCH   5  23
TORSDOF 5
ENDMDL
