MODEL 1
REMARK VINA RESULT:      -4.4      0.000      0.000
REMARK  15 active torsions:
REMARK  status: ('A' for Active; 'I' for Inactive)
REMARK    1  A    between atoms: C_1  and  C_2 
REMARK    2  A    between atoms: C_2  and  O_3 
REMARK    3  A    between atoms: O_3  and  C_4 
REMARK    4  A    between atoms: C_4  and  C_6 
REMARK    5  A    between atoms: C_6  and  C_7 
REMARK    6  A    between atoms: C_7  and  C_9 
REMARK    7  A    between atoms: C_7  and  S_14 
REMARK    8  A    between atoms: C_9  and  O_11 
REMARK    9  A    between atoms: O_11  and  C_12 
REMARK   10  A    between atoms: C_12  and  C_13 
REMARK   11  A    between atoms: S_14  and  P_15 
REMARK   12  A    between atoms: P_15  and  O_17 
REMARK   13  A    between atoms: P_15  and  O_19 
REMARK   14  A    between atoms: O_17  and  C_18 
REMARK   15  A    between atoms: O_19  and  C_20 
ROOT
ATOM      1  C   LIG d   1       3.696  -0.288  -4.989  0.00  0.00     0.121 C 
ATOM      2  H   LIG d   1       4.179   0.680  -4.855  0.00  0.00     0.054 H 
ENDROOT
BRANCH   1   3
ATOM      3  C   LIG d   1       2.424  -0.111  -5.821  0.00  0.00     0.067 C 
ATOM      4  H   LIG d   1       1.821   0.690  -5.397  0.00  0.00     0.039 H 
ATOM      5  H   LIG d   1       1.853  -1.040  -5.813  0.00  0.00     0.039 H 
BRANCH   3   6
ATOM      6  C   LIG d   1       2.797   0.236  -7.240  0.00  0.00     0.309 C 
ATOM      7  O   LIG d   1       2.516  -0.520  -8.140  0.00  0.00    -0.251 OA
BRANCH   6   8
ATOM      8  O   LIG d   1       3.441   1.384  -7.502  0.00  0.00    -0.465 OA
BRANCH   8   9
ATOM      9  C   LIG d   1       2.969   2.154  -8.610  0.00  0.00     0.090 C 
ATOM     10  H   LIG d   1       2.337   2.964  -8.246  0.00  0.00     0.069 H 
ATOM     11  H   LIG d   1       2.391   1.514  -9.277  0.00  0.00     0.069 H 
BRANCH   9  12
ATOM     12  C   LIG d   1       4.161   2.738  -9.370  0.00  0.00    -0.031 C 
ATOM     13  H   LIG d   1       5.079   2.532  -8.819  0.00  0.00     0.026 H 
ATOM     14  H   LIG d   1       4.220   2.284 -10.359  0.00  0.00     0.026 H 
ATOM     15  H   LIG d   1       4.034   3.816  -9.471  0.00  0.00     0.026 H 
ENDBRANCH   9  12
ENDBRANCH   8   9
ENDBRANCH   6   8
ENDBRANCH   3   6
ENDBRANCH   1   3
BRANCH   1  16
ATOM     16  C   LIG d   1       3.338  -0.862  -3.643  0.00  0.00     0.321 C 
ATOM     17  O   LIG d   1       3.512  -2.036  -3.421  0.00  0.00    -0.250 OA
BRANCH  16  18
ATOM     18  O   LIG d   1       2.827  -0.067  -2.689  0.00  0.00    -0.464 OA
BRANCH  18  19
ATOM     19  C   LIG d   1       3.516   1.156  -2.426  0.00  0.00     0.090 C 
ATOM     20  H   LIG d   1       3.821   1.612  -3.368  0.00  0.00     0.069 H 
ATOM     21  H   LIG d   1       2.854   1.839  -1.891  0.00  0.00     0.069 H 
BRANCH  19  22
ATOM     22  C   LIG d   1       4.753   0.872  -1.572  0.00  0.00    -0.031 C 
ATOM     23  H   LIG d   1       4.580   1.221  -0.554  0.00  0.00     0.026 H 
ATOM     24  H   LIG d   1       4.948  -0.200  -1.560  0.00  0.00     0.026 H 
ATOM     25  H   LIG d   1       5.613   1.394  -1.993  0.00  0.00     0.026 H 
ENDBRANCH  19  22
ENDBRANCH  18  19
ENDBRANCH  16  18
ENDBRANCH   1  16
BRANCH   1  26
ATOM     26  S   LIG d   1       4.828  -1.416  -5.846  0.00  0.00    -0.059 SA
BRANCH  26  27
ATOM     27  P   LIG d   1       6.740  -0.555  -5.541  0.00  0.00     0.229 P 
ATOM     28  S   LIG d   1       7.823  -1.757  -4.616  0.00  0.00     0.003 SA
BRANCH  27  29
ATOM     29  O   LIG d   1       7.410  -0.215  -6.965  0.00  0.00    -0.327 OA
BRANCH  29  30
ATOM     30  C   LIG d   1       6.965   0.858  -7.798  0.00  0.00     0.044 C 
ATOM     31  H   LIG d   1       5.876   0.911  -7.770  0.00  0.00     0.053 H 
ATOM     32  H   LIG d   1       7.384   1.797  -7.435  0.00  0.00     0.053 H 
ATOM     33  H   LIG d   1       7.295   0.684  -8.822  0.00  0.00     0.053 H 
ENDBRANCH  29  30
ENDBRANCH  27  29
BRANCH  27  34
ATOM     34  O   LIG d   1       6.588   0.800  -4.684  0.00  0.00    -0.327 OA
BRANCH  34  35
ATOM     35  C   LIG d   1       7.651   1.349  -3.902  0.00  0.00     0.044 C 
ATOM     36  H   LIG d   1       7.652   0.888  -2.915  0.00  0.00     0.053 H 
ATOM     37  H   LIG d   1       8.604   1.154  -4.395  0.00  0.00     0.053 H 
ATOM     38  H   LIG d   1       7.509   2.425  -3.801  0.00  0.00     0.053 H 
ENDBRANCH  34  35
ENDBRANCH  27  34
ENDBRANCH  26  27
ENDBRANCH   1  26
TORSDOF 15
ENDMDL
MODEL 2
REMARK VINA RESULT:      -4.3      1.928      2.579
REMARK  15 active torsions:
REMARK  status: ('A' for Active; 'I' for Inactive)
REMARK    1  A    between atoms: C_1  and  C_2 
REMARK    2  A    between atoms: C_2  and  O_3 
REMARK    3  A    between atoms: O_3  and  C_4 
REMARK    4  A    between atoms: C_4  and  C_6 
REMARK    5  A    between atoms: C_6  and  C_7 
REMARK    6  A    between atoms: C_7  and  C_9 
REMARK    7  A    between atoms: C_7  and  S_14 
REMARK    8  A    between atoms: C_9  and  O_11 
REMARK    9  A    between atoms: O_11  and  C_12 
REMARK   10  A    between atoms: C_12  and  C_13 
REMARK   11  A    between atoms: S_14  and  P_15 
REMARK   12  A    between atoms: P_15  and  O_17 
REMARK   13  A    between atoms: P_15  and  O_19 
REMARK   14  A    between atoms: O_17  and  C_18 
REMARK   15  A    between atoms: O_19  and  C_20 
ROOT
ATOM      1  C   LIG d   1       3.712  -0.007  -6.361  0.00  0.00     0.121 C 
ATOM      2  H   LIG d   1       4.407   0.806  -6.572  0.00  0.00     0.054 H 
ENDROOT
BRANCH   1   3
ATOM      3  C   LIG d   1       2.695  -0.115  -7.499  0.00  0.00     0.067 C 
ATOM      4  H   LIG d   1       1.686  -0.068  -7.091  0.00  0.00     0.039 H 
ATOM      5  H   LIG d   1       2.833  -1.063  -8.020  0.00  0.00     0.039 H 
BRANCH   3   6
ATOM      6  C   LIG d   1       2.901   1.023  -8.466  0.00  0.00     0.309 C 
ATOM      7  O   LIG d   1       3.136   2.133  -8.051  0.00  0.00    -0.251 OA
BRANCH   6   8
ATOM      8  O   LIG d   1       2.821   0.802  -9.787  0.00  0.00    -0.465 OA
BRANCH   8   9
ATOM      9  C   LIG d   1       3.885   1.312 -10.595  0.00  0.00     0.090 C 
ATOM     10  H   LIG d   1       4.774   1.449  -9.980  0.00  0.00     0.069 H 
ATOM     11  H   LIG d   1       3.588   2.270 -11.023  0.00  0.00     0.069 H 
BRANCH   9  12
ATOM     12  C   LIG d   1       4.190   0.322 -11.721  0.00  0.00    -0.031 C 
ATOM     13  H   LIG d   1       4.267   0.860 -12.666  0.00  0.00     0.026 H 
ATOM     14  H   LIG d   1       5.132  -0.186 -11.514  0.00  0.00     0.026 H 
ATOM     15  H   LIG d   1       3.387  -0.412 -11.786  0.00  0.00     0.026 H 
ENDBRANCH   9  12
ENDBRANCH   8   9
ENDBRANCH   6   8
ENDBRANCH   3   6
ENDBRANCH   1   3
BRANCH   1  16
ATOM     16  C   LIG d   1       2.990   0.273  -5.068  0.00  0.00     0.321 C 
ATOM     17  O   LIG d   1       2.662   1.402  -4.792  0.00  0.00    -0.250 OA
BRANCH  16  18
ATOM     18  O   LIG d   1       2.712  -0.733  -4.223  0.00  0.00    -0.464 OA
BRANCH  18  19
ATOM     19  C   LIG d   1       3.089  -0.555  -2.857  0.00  0.00     0.090 C 
ATOM     20  H   LIG d   1       3.771   0.292  -2.775  0.00  0.00     0.069 H 
ATOM     21  H   LIG d   1       2.200  -0.364  -2.256  0.00  0.00     0.069 H 
BRANCH  19  22
ATOM     22  C   LIG d   1       3.784  -1.821  -2.351  0.00  0.00    -0.031 C 
ATOM     23  H   LIG d   1       4.145  -1.656  -1.335  0.00  0.00     0.026 H 
ATOM     24  H   LIG d   1       3.077  -2.650  -2.354  0.00  0.00     0.026 H 
ATOM     25  H   LIG d   1       4.626  -2.058  -3.001  0.00  0.00     0.026 H 
ENDBRANCH  19  22
ENDBRANCH  18  19
ENDBRANCH  16  18
ENDBRANCH   1  16
BRANCH   1  26
ATOM     26  S   LIG d   1       4.628  -1.566  -6.217  0.00  0.00    -0.059 SA
BRANCH  26  27
ATOM     27  P   LIG d   1       6.480  -0.996  -5.358  0.00  0.00     0.229 P 
ATOM     28  S   LIG d   1       7.827  -1.131  -6.638  0.00  0.00     0.003 SA
BRANCH  27  29
ATOM     29  O   LIG d   1       6.384   0.525  -4.838  0.00  0.00    -0.327 OA
BRANCH  29  30
ATOM     30  C   LIG d   1       6.510   0.886  -3.460  0.00  0.00     0.044 C 
ATOM     31  H   LIG d   1       6.670  -0.013  -2.863  0.00  0.00     0.053 H 
ATOM     32  H   LIG d   1       7.357   1.560  -3.337  0.00  0.00     0.053 H 
ATOM     33  H   LIG d   1       5.598   1.384  -3.131  0.00  0.00     0.053 H 
ENDBRANCH  29  30
ENDBRANCH  27  29
BRANCH  27  34
ATOM     34  O   LIG d   1       6.818  -1.966  -4.118  0.00  0.00    -0.327 OA
BRANCH  34  35
ATOM     35  C   LIG d   1       7.887  -2.914  -4.141  0.00  0.00     0.044 C 
ATOM     36  H   LIG d   1       7.892  -3.477  -3.208  0.00  0.00     0.053 H 
ATOM     37  H   LIG d   1       7.747  -3.599  -4.978  0.00  0.00     0.053 H 
ATOM     38  H   LIG d   1       8.835  -2.390  -4.255  0.00  0.00     0.053 H 
ENDBRANCH  34  35
ENDBRANCH  27  34
ENDBRANCH  26  27
ENDBRANCH   1  26
TORSDOF 15
ENDMDL
MODEL 3
REMARK VINA RESULT:      -4.2      2.599      4.815
REMARK  15 active torsions:
REMARK  status: ('A' for Active; 'I' for Inactive)
REMARK    1  A    between atoms: C_1  and  C_2 
REMARK    2  A    between atoms: C_2  and  O_3 
REMARK    3  A    between atoms: O_3  and  C_4 
REMARK    4  A    between atoms: C_4  and  C_6 
REMARK    5  A    between atoms: C_6  and  C_7 
REMARK    6  A    between atoms: C_7  and  C_9 
REMARK    7  A    between atoms: C_7  and  S_14 
REMARK    8  A    between atoms: C_9  and  O_11 
REMARK    9  A    between atoms: O_11  and  C_12 
REMARK   10  A    between atoms: C_12  and  C_13 
REMARK   11  A    between atoms: S_14  and  P_15 
REMARK   12  A    between atoms: P_15  and  O_17 
REMARK   13  A    between atoms: P_15  and  O_19 
REMARK   14  A    between atoms: O_17  and  C_18 
REMARK   15  A    between atoms: O_19  and  C_20 
ROOT
ATOM      1  C   LIG d   1       3.701   0.242  -6.092  0.00  0.00     0.121 C 
ATOM      2  H   LIG d   1       4.188   1.214  -6.006  0.00  0.00     0.054 H 
ENDROOT
BRANCH   1   3
ATOM      3  C   LIG d   1       2.607   0.126  -5.029  0.00  0.00     0.067 C 
ATOM      4  H   LIG d   1       2.360  -0.924  -4.875  0.00  0.00     0.039 H 
ATOM      5  H   LIG d   1       1.719   0.664  -5.361  0.00  0.00     0.039 H 
BRANCH   3   6
ATOM      6  C   LIG d   1       3.099   0.722  -3.735  0.00  0.00     0.309 C 
ATOM      7  O   LIG d   1       3.629   1.808  -3.733  0.00  0.00    -0.251 OA
BRANCH   6   8
ATOM      8  O   LIG d   1       2.950   0.045  -2.585  0.00  0.00    -0.465 OA
BRANCH   8   9
ATOM      9  C   LIG d   1       4.094  -0.653  -2.090  0.00  0.00     0.090 C 
ATOM     10  H   LIG d   1       4.211  -0.451  -1.025  0.00  0.00     0.069 H 
ATOM     11  H   LIG d   1       4.983  -0.317  -2.623  0.00  0.00     0.069 H 
BRANCH   9  12
ATOM     12  C   LIG d   1       3.907  -2.157  -2.306  0.00  0.00    -0.031 C 
ATOM     13  H   LIG d   1       4.863  -2.664  -2.173  0.00  0.00     0.026 H 
ATOM     14  H   LIG d   1       3.187  -2.541  -1.584  0.00  0.00     0.026 H 
ATOM     15  H   LIG d   1       3.539  -2.335  -3.317  0.00  0.00     0.026 H 
ENDBRANCH   9  12
ENDBRANCH   8   9
ENDBRANCH   6   8
ENDBRANCH   3   6
ENDBRANCH   1   3
BRANCH   1  16
ATOM     16  C   LIG d   1       4.719  -0.850  -5.886  0.00  0.00     0.321 C 
ATOM     17  O   LIG d   1       4.356  -1.987  -5.705  0.00  0.00    -0.250 OA
BRANCH  16  18
ATOM     18  O   LIG d   1       6.030  -0.558  -5.904  0.00  0.00    -0.464 OA
BRANCH  18  19
ATOM     19  C   LIG d   1       6.594  -0.038  -4.699  0.00  0.00     0.090 C 
ATOM     20  H   LIG d   1       7.328   0.730  -4.942  0.00  0.00     0.069 H 
ATOM     21  H   LIG d   1       5.805   0.395  -4.084  0.00  0.00     0.069 H 
BRANCH  19  22
ATOM     22  C   LIG d   1       7.277  -1.170  -3.927  0.00  0.00    -0.031 C 
ATOM     23  H   LIG d   1       6.693  -2.084  -4.031  0.00  0.00     0.026 H 
ATOM     24  H   LIG d   1       8.278  -1.331  -4.327  0.00  0.00     0.026 H 
ATOM     25  H   LIG d   1       7.345  -0.901  -2.873  0.00  0.00     0.026 H 
ENDBRANCH  19  22
ENDBRANCH  18  19
ENDBRANCH  16  18
ENDBRANCH   1  16
BRANCH   1  26
ATOM     26  S   LIG d   1       2.964   0.078  -7.741  0.00  0.00    -0.059 SA
BRANCH  26  27
ATOM     27  P   LIG d   1       4.546   0.571  -9.062  0.00  0.00     0.229 P 
ATOM     28  S   LIG d   1       3.841   1.244 -10.651  0.00  0.00     0.003 SA
BRANCH  27  29
ATOM     29  O   LIG d   1       5.489   1.683  -8.379  0.00  0.00    -0.327 OA
BRANCH  29  30
ATOM     30  C   LIG d   1       6.892   1.776  -8.634  0.00  0.00     0.044 C 
ATOM     31  H   LIG d   1       7.100   2.690  -9.191  0.00  0.00     0.053 H 
ATOM     32  H   LIG d   1       7.432   1.795  -7.687  0.00  0.00     0.053 H 
ATOM     33  H   LIG d   1       7.213   0.913  -9.217  0.00  0.00     0.053 H 
ENDBRANCH  29  30
ENDBRANCH  27  29
BRANCH  27  34
ATOM     34  O   LIG d   1       5.414  -0.748  -9.376  0.00  0.00    -0.327 OA
BRANCH  34  35
ATOM     35  C   LIG d   1       5.748  -1.161 -10.703  0.00  0.00     0.044 C 
ATOM     36  H   LIG d   1       5.875  -2.244 -10.724  0.00  0.00     0.053 H 
ATOM     37  H   LIG d   1       4.948  -0.875 -11.385  0.00  0.00     0.053 H 
ATOM     38  H   LIG d   1       6.677  -0.680 -11.010  0.00  0.00     0.053 H 
ENDBRANCH  34  35
ENDBRANCH  27  34
ENDBRANCH  26  27
ENDBRANCH   1  26
TORSDOF 15
ENDMDL
MODEL 4
REMARK VINA RESULT:      -4.1      2.405      4.835
REMARK  15 active torsions:
REMARK  status: ('A' for Active; 'I' for Inactive)
REMARK    1  A    between atoms: C_1  and  C_2 
REMARK    2  A    between atoms: C_2  and  O_3 
REMARK    3  A    between atoms: O_3  and  C_4 
REMARK    4  A    between atoms: C_4  and  C_6 
REMARK    5  A    between atoms: C_6  and  C_7 
REMARK    6  A    between atoms: C_7  and  C_9 
REMARK    7  A    between atoms: C_7  and  S_14 
REMARK    8  A    between atoms: C_9  and  O_11 
REMARK    9  A    between atoms: O_11  and  C_12 
REMARK   10  A    between atoms: C_12  and  C_13 
REMARK   11  A    between atoms: S_14  and  P_15 
REMARK   12  A    between atoms: P_15  and  O_17 
REMARK   13  A    between atoms: P_15  and  O_19 
REMARK   14  A    between atoms: O_17  and  C_18 
REMARK   15  A    between atoms: O_19  and  C_20 
ROOT
ATOM      1  C   LIG d   1       5.292  -0.328  -5.728  0.00  0.00     0.121 C 
ATOM      2  H   LIG d   1       5.149   0.745  -5.856  0.00  0.00     0.054 H 
ENDROOT
BRANCH   1   3
ATOM      3  C   LIG d   1       4.067  -0.926  -5.035  0.00  0.00     0.067 C 
ATOM      4  H   LIG d   1       4.388  -1.542  -4.196  0.00  0.00     0.039 H 
ATOM      5  H   LIG d   1       3.510  -1.539  -5.744  0.00  0.00     0.039 H 
BRANCH   3   6
ATOM      6  C   LIG d   1       3.182   0.186  -4.532  0.00  0.00     0.309 C 
ATOM      7  O   LIG d   1       2.697   0.971  -5.311  0.00  0.00    -0.251 OA
BRANCH   6   8
ATOM      8  O   LIG d   1       2.936   0.305  -3.218  0.00  0.00    -0.465 OA
BRANCH   8   9
ATOM      9  C   LIG d   1       3.596   1.368  -2.527  0.00  0.00     0.090 C 
ATOM     10  H   LIG d   1       2.869   1.920  -1.931  0.00  0.00     0.069 H 
ATOM     11  H   LIG d   1       4.057   2.040  -3.251  0.00  0.00     0.069 H 
BRANCH   9  12
ATOM     12  C   LIG d   1       4.675   0.789  -1.610  0.00  0.00    -0.031 C 
ATOM     13  H   LIG d   1       5.097   1.586  -0.998  0.00  0.00     0.026 H 
ATOM     14  H   LIG d   1       4.233   0.029  -0.964  0.00  0.00     0.026 H 
ATOM     15  H   LIG d   1       5.462   0.339  -2.214  0.00  0.00     0.026 H 
ENDBRANCH   9  12
ENDBRANCH   8   9
ENDBRANCH   6   8
ENDBRANCH   3   6
ENDBRANCH   1   3
BRANCH   1  16
ATOM     16  C   LIG d   1       6.516  -0.575  -4.885  0.00  0.00     0.321 C 
ATOM     17  O   LIG d   1       7.561  -0.037  -5.165  0.00  0.00    -0.250 OA
BRANCH  16  18
ATOM     18  O   LIG d   1       6.446  -1.393  -3.823  0.00  0.00    -0.464 OA
BRANCH  18  19
ATOM     19  C   LIG d   1       7.435  -2.420  -3.729  0.00  0.00     0.090 C 
ATOM     20  H   LIG d   1       8.406  -2.019  -4.021  0.00  0.00     0.069 H 
ATOM     21  H   LIG d   1       7.486  -2.783  -2.702  0.00  0.00     0.069 H 
BRANCH  19  22
ATOM     22  C   LIG d   1       7.059  -3.575  -4.659  0.00  0.00    -0.031 C 
ATOM     23  H   LIG d   1       6.977  -3.206  -5.682  0.00  0.00     0.026 H 
ATOM     24  H   LIG d   1       7.829  -4.345  -4.612  0.00  0.00     0.026 H 
ATOM     25  H   LIG d   1       6.103  -3.996  -4.347  0.00  0.00     0.026 H 
ENDBRANCH  19  22
ENDBRANCH  18  19
ENDBRANCH  16  18
ENDBRANCH   1  16
BRANCH   1  26
ATOM     26  S   LIG d   1       5.509  -1.107  -7.352  0.00  0.00    -0.059 SA
BRANCH  26  27
ATOM     27  P   LIG d   1       4.227  -0.002  -8.627  0.00  0.00     0.229 P 
ATOM     28  S   LIG d   1       4.717  -0.289 -10.402  0.00  0.00     0.003 SA
BRANCH  27  29
ATOM     29  O   LIG d   1       2.706  -0.483  -8.407  0.00  0.00    -0.327 OA
BRANCH  29  30
ATOM     30  C   LIG d   1       1.799  -0.717  -9.487  0.00  0.00     0.044 C 
ATOM     31  H   LIG d   1       0.802  -0.381  -9.202  0.00  0.00     0.053 H 
ATOM     32  H   LIG d   1       2.132  -0.165 -10.366  0.00  0.00     0.053 H 
ATOM     33  H   LIG d   1       1.774  -1.782  -9.715  0.00  0.00     0.053 H 
ENDBRANCH  29  30
ENDBRANCH  27  29
BRANCH  27  34
ATOM     34  O   LIG d   1       4.348   1.566  -8.283  0.00  0.00    -0.327 OA
BRANCH  34  35
ATOM     35  C   LIG d   1       4.156   2.593  -9.258  0.00  0.00     0.044 C 
ATOM     36  H   LIG d   1       3.449   2.249 -10.013  0.00  0.00     0.053 H 
ATOM     37  H   LIG d   1       3.764   3.487  -8.773  0.00  0.00     0.053 H 
ATOM     38  H   LIG d   1       5.109   2.826  -9.733  0.00  0.00     0.053 H 
ENDBRANCH  34  35
ENDBRANCH  27  34
ENDBRANCH  26  27
ENDBRANCH   1  26
TORSDOF 15
ENDMDL
MODEL 5
REMARK VINA RESULT:      -4.0      2.629      5.139
REMARK  15 active torsions:
REMARK  status: ('A' for Active; 'I' for Inactive)
REMARK    1  A    between atoms: C_1  and  C_2 
REMARK    2  A    between atoms: C_2  and  O_3 
REMARK    3  A    between atoms: O_3  and  C_4 
REMARK    4  A    between atoms: C_4  and  C_6 
REMARK    5  A    between atoms: C_6  and  C_7 
REMARK    6  A    between atoms: C_7  and  C_9 
REMARK    7  A    between atoms: C_7  and  S_14 
REMARK    8  A    between atoms: C_9  and  O_11 
REMARK    9  A    between atoms: O_11  and  C_12 
REMARK   10  A    between atoms: C_12  and  C_13 
REMARK   11  A    between atoms: S_14  and  P_15 
REMARK   12  A    between atoms: P_15  and  O_17 
REMARK   13  A    between atoms: P_15  and  O_19 
REMARK   14  A    between atoms: O_17  and  C_18 
REMARK   15  A    between atoms: O_19  and  C_20 
ROOT
ATOM      1  C   LIG d   1       5.963  -1.254  -4.895  0.00  0.00     0.121 C 
ATOM      2  H   LIG d   1       6.582  -0.727  -5.623  0.00  0.00     0.054 H 
ENDROOT
BRANCH   1   3
ATOM      3  C   LIG d   1       6.319  -0.778  -3.486  0.00  0.00     0.067 C 
ATOM      4  H   LIG d   1       7.283  -1.194  -3.194  0.00  0.00     0.039 H 
ATOM      5  H   LIG d   1       5.552  -1.111  -2.785  0.00  0.00     0.039 H 
BRANCH   3   6
ATOM      6  C   LIG d   1       6.395   0.727  -3.468  0.00  0.00     0.309 C 
ATOM      7  O   LIG d   1       6.953   1.315  -4.364  0.00  0.00    -0.251 OA
BRANCH   6   8
ATOM      8  O   LIG d   1       5.842   1.414  -2.456  0.00  0.00    -0.465 OA
BRANCH   8   9
ATOM      9  C   LIG d   1       4.705   0.828  -1.819  0.00  0.00     0.090 C 
ATOM     10  H   LIG d   1       4.730   1.053  -0.752  0.00  0.00     0.069 H 
ATOM     11  H   LIG d   1       4.724  -0.252  -1.963  0.00  0.00     0.069 H 
BRANCH   9  12
ATOM     12  C   LIG d   1       3.425   1.402  -2.431  0.00  0.00    -0.031 C 
ATOM     13  H   LIG d   1       3.237   0.923  -3.393  0.00  0.00     0.026 H 
ATOM     14  H   LIG d   1       2.586   1.216  -1.761  0.00  0.00     0.026 H 
ATOM     15  H   LIG d   1       3.543   2.475  -2.578  0.00  0.00     0.026 H 
ENDBRANCH   9  12
ENDBRANCH   8   9
ENDBRANCH   6   8
ENDBRANCH   3   6
ENDBRANCH   1   3
BRANCH   1  16
ATOM     16  C   LIG d   1       6.213  -2.736  -5.003  0.00  0.00     0.321 C 
ATOM     17  O   LIG d   1       7.025  -3.266  -4.282  0.00  0.00    -0.250 OA
BRANCH  16  18
ATOM     18  O   LIG d   1       5.533  -3.468  -5.900  0.00  0.00    -0.464 OA
BRANCH  18  19
ATOM     19  C   LIG d   1       4.947  -4.684  -5.433  0.00  0.00     0.090 C 
ATOM     20  H   LIG d   1       5.732  -5.412  -5.227  0.00  0.00     0.069 H 
ATOM     21  H   LIG d   1       4.384  -4.489  -4.519  0.00  0.00     0.069 H 
BRANCH  19  22
ATOM     22  C   LIG d   1       4.004  -5.239  -6.503  0.00  0.00    -0.031 C 
ATOM     23  H   LIG d   1       3.052  -5.507  -6.045  0.00  0.00     0.026 H 
ATOM     24  H   LIG d   1       3.838  -4.482  -7.270  0.00  0.00     0.026 H 
ATOM     25  H   LIG d   1       4.450  -6.124  -6.956  0.00  0.00     0.026 H 
ENDBRANCH  19  22
ENDBRANCH  18  19
ENDBRANCH  16  18
ENDBRANCH   1  16
BRANCH   1  26
ATOM     26  S   LIG d   1       4.213  -0.910  -5.227  0.00  0.00    -0.059 SA
BRANCH  26  27
ATOM     27  P   LIG d   1       4.213  -0.086  -7.179  0.00  0.00     0.229 P 
ATOM     28  S   LIG d   1       3.850  -1.427  -8.420  0.00  0.00     0.003 SA
BRANCH  27  29
ATOM     29  O   LIG d   1       3.084   1.058  -7.279  0.00  0.00    -0.327 OA
BRANCH  29  30
ATOM     30  C   LIG d   1       2.908   1.879  -8.435  0.00  0.00     0.044 C 
ATOM     31  H   LIG d   1       3.884   2.141  -8.846  0.00  0.00     0.053 H 
ATOM     32  H   LIG d   1       2.333   1.334  -9.184  0.00  0.00     0.053 H 
ATOM     33  H   LIG d   1       2.374   2.788  -8.158  0.00  0.00     0.053 H 
ENDBRANCH  29  30
ENDBRANCH  27  29
BRANCH  27  34
ATOM     34  O   LIG d   1       5.656   0.558  -7.491  0.00  0.00    -0.327 OA
BRANCH  34  35
ATOM     35  C   LIG d   1       6.493   0.110  -8.559  0.00  0.00     0.044 C 
ATOM     36  H   LIG d   1       7.192  -0.637  -8.184  0.00  0.00     0.053 H 
ATOM     37  H   LIG d   1       5.876  -0.330  -9.344  0.00  0.00     0.053 H 
ATOM     38  H   LIG d   1       7.048   0.956  -8.965  0.00  0.00     0.053 H 
ENDBRANCH  34  35
ENDBRANCH  27  34
ENDBRANCH  26  27
ENDBRANCH   1  26
TORSDOF 15
ENDMDL
MODEL 6
REMARK VINA RESULT:      -4.0      1.979      5.229
REMARK  15 active torsions:
REMARK  status: ('A' for Active; 'I' for Inactive)
REMARK    1  A    between atoms: C_1  and  C_2 
REMARK    2  A    between atoms: C_2  and  O_3 
REMARK    3  A    between atoms: O_3  and  C_4 
REMARK    4  A    between atoms: C_4  and  C_6 
REMARK    5  A    between atoms: C_6  and  C_7 
REMARK    6  A    between atoms: C_7  and  C_9 
REMARK    7  A    between atoms: C_7  and  S_14 
REMARK    8  A    between atoms: C_9  and  O_11 
REMARK    9  A    between atoms: O_11  and  C_12 
REMARK   10  A    between atoms: C_12  and  C_13 
REMARK   11  A    between atoms: S_14  and  P_15 
REMARK   12  A    between atoms: P_15  and  O_17 
REMARK   13  A    between atoms: P_15  and  O_19 
REMARK   14  A    between atoms: O_17  and  C_18 
REMARK   15  A    between atoms: O_19  and  C_20 
ROOT
ATOM      1  C   LIG d   1       5.674  -0.778  -5.438  0.00  0.00     0.121 C 
ATOM      2  H   LIG d   1       5.085   0.001  -4.953  0.00  0.00     0.054 H 
ENDROOT
BRANCH   1   3
ATOM      3  C   LIG d   1       5.919  -1.920  -4.450  0.00  0.00     0.067 C 
ATOM      4  H   LIG d   1       6.638  -1.601  -3.696  0.00  0.00     0.039 H 
ATOM      5  H   LIG d   1       6.313  -2.785  -4.985  0.00  0.00     0.039 H 
BRANCH   3   6
ATOM      6  C   LIG d   1       4.621  -2.293  -3.782  0.00  0.00     0.309 C 
ATOM      7  O   LIG d   1       4.219  -3.431  -3.836  0.00  0.00    -0.251 OA
BRANCH   6   8
ATOM      8  O   LIG d   1       3.911  -1.360  -3.128  0.00  0.00    -0.465 OA
BRANCH   8   9
ATOM      9  C   LIG d   1       4.399  -0.953  -1.848  0.00  0.00     0.090 C 
ATOM     10  H   LIG d   1       5.382  -1.393  -1.678  0.00  0.00     0.069 H 
ATOM     11  H   LIG d   1       3.711  -1.289  -1.073  0.00  0.00     0.069 H 
BRANCH   9  12
ATOM     12  C   LIG d   1       4.509   0.573  -1.806  0.00  0.00    -0.031 C 
ATOM     13  H   LIG d   1       3.510   1.008  -1.791  0.00  0.00     0.026 H 
ATOM     14  H   LIG d   1       5.051   0.874  -0.910  0.00  0.00     0.026 H 
ATOM     15  H   LIG d   1       5.044   0.923  -2.689  0.00  0.00     0.026 H 
ENDBRANCH   9  12
ENDBRANCH   8   9
ENDBRANCH   6   8
ENDBRANCH   3   6
ENDBRANCH   1   3
BRANCH   1  16
ATOM     16  C   LIG d   1       6.996  -0.206  -5.881  0.00  0.00     0.321 C 
ATOM     17  O   LIG d   1       7.930  -0.940  -6.097  0.00  0.00    -0.250 OA
BRANCH  16  18
ATOM     18  O   LIG d   1       7.135   1.121  -6.036  0.00  0.00    -0.464 OA
BRANCH  18  19
ATOM     19  C   LIG d   1       8.200   1.749  -5.321  0.00  0.00     0.090 C 
ATOM     20  H   LIG d   1       9.119   1.179  -5.463  0.00  0.00     0.069 H 
ATOM     21  H   LIG d   1       8.341   2.764  -5.696  0.00  0.00     0.069 H 
BRANCH  19  22
ATOM     22  C   LIG d   1       7.854   1.800  -3.832  0.00  0.00    -0.031 C 
ATOM     23  H   LIG d   1       6.888   1.322  -3.667  0.00  0.00     0.026 H 
ATOM     24  H   LIG d   1       8.621   1.275  -3.262  0.00  0.00     0.026 H 
ATOM     25  H   LIG d   1       7.805   2.839  -3.505  0.00  0.00     0.026 H 
ENDBRANCH  19  22
ENDBRANCH  18  19
ENDBRANCH  16  18
ENDBRANCH   1  16
BRANCH   1  26
ATOM     26  S   LIG d   1       4.773  -1.408  -6.881  0.00  0.00    -0.059 SA
BRANCH  26  27
ATOM     27  P   LIG d   1       3.314   0.080  -7.265  0.00  0.00     0.229 P 
ATOM     28  S   LIG d   1       2.431   0.508  -5.681  0.00  0.00     0.003 SA
BRANCH  27  29
ATOM     29  O   LIG d   1       4.031   1.397  -7.852  0.00  0.00    -0.327 OA
BRANCH  29  30
ATOM     30  C   LIG d   1       3.851   1.847  -9.196  0.00  0.00     0.044 C 
ATOM     31  H   LIG d   1       2.786   1.870  -9.432  0.00  0.00     0.053 H 
ATOM     32  H   LIG d   1       4.268   2.849  -9.303  0.00  0.00     0.053 H 
ATOM     33  H   LIG d   1       4.360   1.167  -9.879  0.00  0.00     0.053 H 
ENDBRANCH  29  30
ENDBRANCH  27  29
BRANCH  27  34
ATOM     34  O   LIG d   1       2.251  -0.475  -8.339  0.00  0.00    -0.327 OA
BRANCH  34  35
ATOM     35  C   LIG d   1       2.520  -1.584  -9.198  0.00  0.00     0.044 C 
ATOM     36  H   LIG d   1       3.598  -1.713  -9.298  0.00  0.00     0.053 H 
ATOM     37  H   LIG d   1       2.085  -2.488  -8.772  0.00  0.00     0.053 H 
ATOM     38  H   LIG d   1       2.084  -1.399 -10.180  0.00  0.00     0.053 H 
ENDBRANCH  34  35
ENDBRANCH  27  34
ENDBRANCH  26  27
ENDBRANCH   1  26
TORSDOF 15
ENDMDL
MODEL 7
REMARK VINA RESULT:      -4.0      2.060      4.036
REMARK  15 active torsions:
REMARK  status: ('A' for Active; 'I' for Inactive)
REMARK    1  A    between atoms: C_1  and  C_2 
REMARK    2  A    between atoms: C_2  and  O_3 
REMARK    3  A    between atoms: O_3  and  C_4 
REMARK    4  A    between atoms: C_4  and  C_6 
REMARK    5  A    between atoms: C_6  and  C_7 
REMARK    6  A    between atoms: C_7  and  C_9 
REMARK    7  A    between atoms: C_7  and  S_14 
REMARK    8  A    between atoms: C_9  and  O_11 
REMARK    9  A    between atoms: O_11  and  C_12 
REMARK   10  A    between atoms: C_12  and  C_13 
REMARK   11  A    between atoms: S_14  and  P_15 
REMARK   12  A    between atoms: P_15  and  O_17 
REMARK   13  A    between atoms: P_15  and  O_19 
REMARK   14  A    between atoms: O_17  and  C_18 
REMARK   15  A    between atoms: O_19  and  C_20 
ROOT
ATOM      1  C   LIG d   1       4.337  -0.792  -5.739  0.00  0.00     0.121 C 
ATOM      2  H   LIG d   1       4.977   0.038  -5.436  0.00  0.00     0.054 H 
ENDROOT
BRANCH   1   3
ATOM      3  C   LIG d   1       2.871  -0.385  -5.586  0.00  0.00     0.067 C 
ATOM      4  H   LIG d   1       2.299  -1.226  -5.195  0.00  0.00     0.039 H 
ATOM      5  H   LIG d   1       2.471  -0.094  -6.558  0.00  0.00     0.039 H 
BRANCH   3   6
ATOM      6  C   LIG d   1       2.769   0.779  -4.633  0.00  0.00     0.309 C 
ATOM      7  O   LIG d   1       2.525   1.884  -5.055  0.00  0.00    -0.251 OA
BRANCH   6   8
ATOM      8  O   LIG d   1       2.950   0.586  -3.317  0.00  0.00    -0.465 OA
BRANCH   8   9
ATOM      9  C   LIG d   1       3.777   1.529  -2.632  0.00  0.00     0.090 C 
ATOM     10  H   LIG d   1       3.150   2.283  -2.155  0.00  0.00     0.069 H 
ATOM     11  H   LIG d   1       4.446   2.012  -3.345  0.00  0.00     0.069 H 
BRANCH   9  12
ATOM     12  C   LIG d   1       4.603   0.805  -1.567  0.00  0.00    -0.031 C 
ATOM     13  H   LIG d   1       5.084  -0.067  -2.012  0.00  0.00     0.026 H 
ATOM     14  H   LIG d   1       5.364   1.480  -1.176  0.00  0.00     0.026 H 
ATOM     15  H   LIG d   1       3.949   0.485  -0.757  0.00  0.00     0.026 H 
ENDBRANCH   9  12
ENDBRANCH   8   9
ENDBRANCH   6   8
ENDBRANCH   3   6
ENDBRANCH   1   3
BRANCH   1  16
ATOM     16  C   LIG d   1       4.620  -1.987  -4.866  0.00  0.00     0.321 C 
ATOM     17  O   LIG d   1       4.234  -3.082  -5.198  0.00  0.00    -0.250 OA
BRANCH  16  18
ATOM     18  O   LIG d   1       5.302  -1.835  -3.719  0.00  0.00    -0.464 OA
BRANCH  18  19
ATOM     19  C   LIG d   1       6.728  -1.860  -3.804  0.00  0.00     0.090 C 
ATOM     20  H   LIG d   1       7.132  -2.440  -2.974  0.00  0.00     0.069 H 
ATOM     21  H   LIG d   1       7.028  -2.319  -4.747  0.00  0.00     0.069 H 
BRANCH  19  22
ATOM     22  C   LIG d   1       7.268  -0.430  -3.740  0.00  0.00    -0.031 C 
ATOM     23  H   LIG d   1       7.648  -0.230  -2.738  0.00  0.00     0.026 H 
ATOM     24  H   LIG d   1       8.074  -0.312  -4.464  0.00  0.00     0.026 H 
ATOM     25  H   LIG d   1       6.466   0.272  -3.970  0.00  0.00     0.026 H 
ENDBRANCH  19  22
ENDBRANCH  18  19
ENDBRANCH  16  18
ENDBRANCH   1  16
BRANCH   1  26
ATOM     26  S   LIG d   1       4.672  -1.214  -7.471  0.00  0.00    -0.059 SA
BRANCH  26  27
ATOM     27  P   LIG d   1       5.222   0.632  -8.353  0.00  0.00     0.229 P 
ATOM     28  S   LIG d   1       5.641   0.363 -10.148  0.00  0.00     0.003 SA
BRANCH  27  29
ATOM     29  O   LIG d   1       3.996   1.669  -8.237  0.00  0.00    -0.327 OA
BRANCH  29  30
ATOM     30  C   LIG d   1       2.729   1.448  -8.862  0.00  0.00     0.044 C 
ATOM     31  H   LIG d   1       2.840   0.709  -9.655  0.00  0.00     0.053 H 
ATOM     32  H   LIG d   1       2.018   1.083  -8.121  0.00  0.00     0.053 H 
ATOM     33  H   LIG d   1       2.364   2.384  -9.285  0.00  0.00     0.053 H 
ENDBRANCH  29  30
ENDBRANCH  27  29
BRANCH  27  34
ATOM     34  O   LIG d   1       6.505   1.233  -7.587  0.00  0.00    -0.327 OA
BRANCH  34  35
ATOM     35  C   LIG d   1       7.715   0.496  -7.402  0.00  0.00     0.044 C 
ATOM     36  H   LIG d   1       7.732   0.072  -6.397  0.00  0.00     0.053 H 
ATOM     37  H   LIG d   1       7.767  -0.308  -8.136  0.00  0.00     0.053 H 
ATOM     38  H   LIG d   1       8.569   1.161  -7.530  0.00  0.00     0.053 H 
ENDBRANCH  34  35
ENDBRANCH  27  34
ENDBRANCH  26  27
ENDBRANCH   1  26
TORSDOF 15
ENDMDL
MODEL 8
REMARK VINA RESULT:      -4.0      2.071      4.759
REMARK  15 active torsions:
REMARK  status: ('A' for Active; 'I' for Inactive)
REMARK    1  A    between atoms: C_1  and  C_2 
REMARK    2  A    between atoms: C_2  and  O_3 
REMARK    3  A    between atoms: O_3  and  C_4 
REMARK    4  A    between atoms: C_4  and  C_6 
REMARK    5  A    between atoms: C_6  and  C_7 
REMARK    6  A    between atoms: C_7  and  C_9 
REMARK    7  A    between atoms: C_7  and  S_14 
REMARK    8  A    between atoms: C_9  and  O_11 
REMARK    9  A    between atoms: O_11  and  C_12 
REMARK   10  A    between atoms: C_12  and  C_13 
REMARK   11  A    between atoms: S_14  and  P_15 
REMARK   12  A    between atoms: P_15  and  O_17 
REMARK   13  A    between atoms: P_15  and  O_19 
REMARK   14  A    between atoms: O_17  and  C_18 
REMARK   15  A    between atoms: O_19  and  C_20 
ROOT
ATOM      1  C   LIG d   1       6.011  -0.224  -4.459  0.00  0.00     0.121 C 
ATOM      2  H   LIG d   1       4.981   0.092  -4.629  0.00  0.00     0.054 H 
ENDROOT
BRANCH   1   3
ATOM      3  C   LIG d   1       6.018  -1.520  -3.647  0.00  0.00     0.067 C 
ATOM      4  H   LIG d   1       6.633  -1.389  -2.757  0.00  0.00     0.039 H 
ATOM      5  H   LIG d   1       6.427  -2.328  -4.255  0.00  0.00     0.039 H 
BRANCH   3   6
ATOM      6  C   LIG d   1       4.609  -1.865  -3.238  0.00  0.00     0.309 C 
ATOM      7  O   LIG d   1       4.173  -2.972  -3.445  0.00  0.00    -0.251 OA
BRANCH   6   8
ATOM      8  O   LIG d   1       3.838  -0.940  -2.645  0.00  0.00    -0.465 OA
BRANCH   8   9
ATOM      9  C   LIG d   1       2.514  -0.774  -3.157  0.00  0.00     0.090 C 
ATOM     10  H   LIG d   1       1.875  -0.351  -2.381  0.00  0.00     0.069 H 
ATOM     11  H   LIG d   1       2.120  -1.742  -3.465  0.00  0.00     0.069 H 
BRANCH   9  12
ATOM     12  C   LIG d   1       2.547   0.170  -4.361  0.00  0.00    -0.031 C 
ATOM     13  H   LIG d   1       2.907  -0.371  -5.236  0.00  0.00     0.026 H 
ATOM     14  H   LIG d   1       1.543   0.548  -4.554  0.00  0.00     0.026 H 
ATOM     15  H   LIG d   1       3.216   1.004  -4.150  0.00  0.00     0.026 H 
ENDBRANCH   9  12
ENDBRANCH   8   9
ENDBRANCH   6   8
ENDBRANCH   3   6
ENDBRANCH   1   3
BRANCH   1  16
ATOM     16  C   LIG d   1       6.746   0.849  -3.699  0.00  0.00     0.321 C 
ATOM     17  O   LIG d   1       6.132   1.640  -3.024  0.00  0.00    -0.250 OA
BRANCH  16  18
ATOM     18  O   LIG d   1       8.085   0.926  -3.771  0.00  0.00    -0.464 OA
BRANCH  18  19
ATOM     19  C   LIG d   1       8.662   2.233  -3.743  0.00  0.00     0.090 C 
ATOM     20  H   LIG d   1       8.023   2.900  -3.163  0.00  0.00     0.069 H 
ATOM     21  H   LIG d   1       9.649   2.185  -3.283  0.00  0.00     0.069 H 
BRANCH  19  22
ATOM     22  C   LIG d   1       8.791   2.764  -5.172  0.00  0.00    -0.031 C 
ATOM     23  H   LIG d   1       9.580   3.514  -5.211  0.00  0.00     0.026 H 
ATOM     24  H   LIG d   1       9.037   1.942  -5.845  0.00  0.00     0.026 H 
ATOM     25  H   LIG d   1       7.846   3.215  -5.479  0.00  0.00     0.026 H 
ENDBRANCH  19  22
ENDBRANCH  18  19
ENDBRANCH  16  18
ENDBRANCH   1  16
BRANCH   1  26
ATOM     26  S   LIG d   1       6.829  -0.504  -6.054  0.00  0.00    -0.059 SA
BRANCH  26  27
ATOM     27  P   LIG d   1       5.227  -0.666  -7.432  0.00  0.00     0.229 P 
ATOM     28  S   LIG d   1       5.901  -1.046  -9.126  0.00  0.00     0.003 SA
BRANCH  27  29
ATOM     29  O   LIG d   1       4.238  -1.850  -6.969  0.00  0.00    -0.327 OA
BRANCH  29  30
ATOM     30  C   LIG d   1       4.621  -3.227  -6.968  0.00  0.00     0.044 C 
ATOM     31  H   LIG d   1       4.114  -3.745  -6.154  0.00  0.00     0.053 H 
ATOM     32  H   LIG d   1       4.342  -3.682  -7.919  0.00  0.00     0.053 H 
ATOM     33  H   LIG d   1       5.700  -3.304  -6.832  0.00  0.00     0.053 H 
ENDBRANCH  29  30
ENDBRANCH  27  29
BRANCH  27  34
ATOM     34  O   LIG d   1       4.414   0.724  -7.476  0.00  0.00    -0.327 OA
BRANCH  34  35
ATOM     35  C   LIG d   1       3.108   0.843  -8.045  0.00  0.00     0.044 C 
ATOM     36  H   LIG d   1       3.165   1.423  -8.966  0.00  0.00     0.053 H 
ATOM     37  H   LIG d   1       2.716  -0.150  -8.266  0.00  0.00     0.053 H 
ATOM     38  H   LIG d   1       2.449   1.346  -7.338  0.00  0.00     0.053 H 
ENDBRANCH  34  35
ENDBRANCH  27  34
ENDBRANCH  26  27
ENDBRANCH   1  26
TORSDOF 15
ENDMDL
MODEL 9
REMARK VINA RESULT:      -4.0      1.629      2.057
REMARK  15 active torsions:
REMARK  status: ('A' for Active; 'I' for Inactive)
REMARK    1  A    between atoms: C_1  and  C_2 
REMARK    2  A    between atoms: C_2  and  O_3 
REMARK    3  A    between atoms: O_3  and  C_4 
REMARK    4  A    between atoms: C_4  and  C_6 
REMARK    5  A    between atoms: C_6  and  C_7 
REMARK    6  A    between atoms: C_7  and  C_9 
REMARK    7  A    between atoms: C_7  and  S_14 
REMARK    8  A    between atoms: C_9  and  O_11 
REMARK    9  A    between atoms: O_11  and  C_12 
REMARK   10  A    between atoms: C_12  and  C_13 
REMARK   11  A    between atoms: S_14  and  P_15 
REMARK   12  A    between atoms: P_15  and  O_17 
REMARK   13  A    between atoms: P_15  and  O_19 
REMARK   14  A    between atoms: O_17  and  C_18 
REMARK   15  A    between atoms: O_19  and  C_20 
ROOT
ATOM      1  C   LIG d   1       4.635  -0.622  -5.079  0.00  0.00     0.121 C 
ATOM      2  H   LIG d   1       4.820   0.452  -5.062  0.00  0.00     0.054 H 
ENDROOT
BRANCH   1   3
ATOM      3  C   LIG d   1       3.999  -1.008  -6.416  0.00  0.00     0.067 C 
ATOM      4  H   LIG d   1       3.139  -1.653  -6.237  0.00  0.00     0.039 H 
ATOM      5  H   LIG d   1       4.731  -1.539  -7.026  0.00  0.00     0.039 H 
BRANCH   3   6
ATOM      6  C   LIG d   1       3.554   0.238  -7.138  0.00  0.00     0.309 C 
ATOM      7  O   LIG d   1       3.035   1.140  -6.524  0.00  0.00    -0.251 OA
BRANCH   6   8
ATOM      8  O   LIG d   1       3.732   0.343  -8.464  0.00  0.00    -0.465 OA
BRANCH   8   9
ATOM      9  C   LIG d   1       4.501   1.455  -8.928  0.00  0.00     0.090 C 
ATOM     10  H   LIG d   1       5.348   1.092  -9.511  0.00  0.00     0.069 H 
ATOM     11  H   LIG d   1       4.866   2.026  -8.075  0.00  0.00     0.069 H 
BRANCH   9  12
ATOM     12  C   LIG d   1       3.625   2.352  -9.805  0.00  0.00    -0.031 C 
ATOM     13  H   LIG d   1       3.146   3.110  -9.185  0.00  0.00     0.026 H 
ATOM     14  H   LIG d   1       4.242   2.837 -10.561  0.00  0.00     0.026 H 
ATOM     15  H   LIG d   1       2.861   1.747 -10.293  0.00  0.00     0.026 H 
ENDBRANCH   9  12
ENDBRANCH   8   9
ENDBRANCH   6   8
ENDBRANCH   3   6
ENDBRANCH   1   3
BRANCH   1  16
ATOM     16  C   LIG d   1       3.700  -0.988  -3.955  0.00  0.00     0.321 C 
ATOM     17  O   LIG d   1       3.594  -2.140  -3.608  0.00  0.00    -0.250 OA
BRANCH  16  18
ATOM     18  O   LIG d   1       2.984  -0.033  -3.339  0.00  0.00    -0.464 OA
BRANCH  18  19
ATOM     19  C   LIG d   1       3.682   1.152  -2.952  0.00  0.00     0.090 C 
ATOM     20  H   LIG d   1       4.324   1.480  -3.770  0.00  0.00     0.069 H 
ATOM     21  H   LIG d   1       2.963   1.938  -2.718  0.00  0.00     0.069 H 
BRANCH  19  22
ATOM     22  C   LIG d   1       4.536   0.859  -1.717  0.00  0.00    -0.031 C 
ATOM     23  H   LIG d   1       5.564   0.665  -2.024  0.00  0.00     0.026 H 
ATOM     24  H   LIG d   1       4.513   1.718  -1.047  0.00  0.00     0.026 H 
ATOM     25  H   LIG d   1       4.140  -0.016  -1.201  0.00  0.00     0.026 H 
ENDBRANCH  19  22
ENDBRANCH  18  19
ENDBRANCH  16  18
ENDBRANCH   1  16
BRANCH   1  26
ATOM     26  S   LIG d   1       6.203  -1.510  -4.874  0.00  0.00    -0.059 SA
BRANCH  26  27
ATOM     27  P   LIG d   1       7.655  -0.174  -5.648  0.00  0.00     0.229 P 
ATOM     28  S   LIG d   1       7.625  -0.234  -7.510  0.00  0.00     0.003 SA
BRANCH  27  29
ATOM     29  O   LIG d   1       7.324   1.323  -5.154  0.00  0.00    -0.327 OA
BRANCH  29  30
ATOM     30  C   LIG d   1       7.616   1.789  -3.834  0.00  0.00     0.044 C 
ATOM     31  H   LIG d   1       8.132   1.005  -3.279  0.00  0.00     0.053 H 
ATOM     32  H   LIG d   1       8.252   2.672  -3.894  0.00  0.00     0.053 H 
ATOM     33  H   LIG d   1       6.687   2.044  -3.325  0.00  0.00     0.053 H 
ENDBRANCH  29  30
ENDBRANCH  27  29
BRANCH  27  34
ATOM     34  O   LIG d   1       9.114  -0.602  -5.119  0.00  0.00    -0.327 OA
BRANCH  34  35
ATOM     35  C   LIG d   1      10.040  -1.348  -5.912  0.00  0.00     0.044 C 
ATOM     36  H   LIG d   1       9.689  -2.376  -6.008  0.00  0.00     0.053 H 
ATOM     37  H   LIG d   1      10.118  -0.897  -6.901  0.00  0.00     0.053 H 
ATOM     38  H   LIG d   1      11.018  -1.342  -5.430  0.00  0.00     0.053 H 
ENDBRANCH  34  35
ENDBRANCH  27  34
ENDBRANCH  26  27
ENDBRANCH   1  26
TORSDOF 15
ENDMDL
MODEL 10
REMARK VINA RESULT:      -3.8      3.203      5.379
REMARK  15 active torsions:
REMARK  status: ('A' for Active; 'I' for Inactive)
REMARK    1  A    between atoms: C_1  and  C_2 
REMARK    2  A    between atoms: C_2  and  O_3 
REMARK    3  A    between atoms: O_3  and  C_4 
REMARK    4  A    between atoms: C_4  and  C_6 
REMARK    5  A    between atoms: C_6  and  C_7 
REMARK    6  A    between atoms: C_7  and  C_9 
REMARK    7  A    between atoms: C_7  and  S_14 
REMARK    8  A    between atoms: C_9  and  O_11 
REMARK    9  A    between atoms: O_11  and  C_12 
REMARK   10  A    between atoms: C_12  and  C_13 
REMARK   11  A    between atoms: S_14  and  P_15 
REMARK   12  A    between atoms: P_15  and  O_17 
REMARK   13  A    between atoms: P_15  and  O_19 
REMARK   14  A    between atoms: O_17  and  C_18 
REMARK   15  A    between atoms: O_19  and  C_20 
ROOT
ATOM      1  C   LIG d   1       4.575  -1.697  -5.907  0.00  0.00     0.121 C 
ATOM      2  H   LIG d   1       3.819  -2.466  -5.741  0.00  0.00     0.054 H 
ENDROOT
BRANCH   1   3
ATOM      3  C   LIG d   1       5.251  -1.352  -4.579  0.00  0.00     0.067 C 
ATOM      4  H   LIG d   1       5.191  -0.278  -4.409  0.00  0.00     0.039 H 
ATOM      5  H   LIG d   1       6.298  -1.657  -4.614  0.00  0.00     0.039 H 
BRANCH   3   6
ATOM      6  C   LIG d   1       4.554  -2.079  -3.458  0.00  0.00     0.309 C 
ATOM      7  O   LIG d   1       4.192  -3.221  -3.611  0.00  0.00    -0.251 OA
BRANCH   6   8
ATOM      8  O   LIG d   1       4.335  -1.456  -2.289  0.00  0.00    -0.465 OA
BRANCH   8   9
ATOM      9  C   LIG d   1       3.679  -0.187  -2.344  0.00  0.00     0.090 C 
ATOM     10  H   LIG d   1       2.727  -0.248  -1.817  0.00  0.00     0.069 H 
ATOM     11  H   LIG d   1       3.502   0.086  -3.384  0.00  0.00     0.069 H 
BRANCH   9  12
ATOM     12  C   LIG d   1       4.562   0.873  -1.681  0.00  0.00    -0.031 C 
ATOM     13  H   LIG d   1       4.988   0.468  -0.763  0.00  0.00     0.026 H 
ATOM     14  H   LIG d   1       5.365   1.154  -2.362  0.00  0.00     0.026 H 
ATOM     15  H   LIG d   1       3.960   1.751  -1.446  0.00  0.00     0.026 H 
ENDBRANCH   9  12
ENDBRANCH   8   9
ENDBRANCH   6   8
ENDBRANCH   3   6
ENDBRANCH   1   3
BRANCH   1  16
ATOM     16  C   LIG d   1       3.921  -0.464  -6.473  0.00  0.00     0.321 C 
ATOM     17  O   LIG d   1       3.606   0.443  -5.741  0.00  0.00    -0.250 OA
BRANCH  16  18
ATOM     18  O   LIG d   1       3.687  -0.373  -7.793  0.00  0.00    -0.464 OA
BRANCH  18  19
ATOM     19  C   LIG d   1       4.065   0.847  -8.435  0.00  0.00     0.090 C 
ATOM     20  H   LIG d   1       4.619   1.471  -7.734  0.00  0.00     0.069 H 
ATOM     21  H   LIG d   1       4.694   0.624  -9.298  0.00  0.00     0.069 H 
BRANCH  19  22
ATOM     22  C   LIG d   1       2.809   1.588  -8.898  0.00  0.00    -0.031 C 
ATOM     23  H   LIG d   1       3.094   2.410  -9.555  0.00  0.00     0.026 H 
ATOM     24  H   LIG d   1       2.158   0.901  -9.438  0.00  0.00     0.026 H 
ATOM     25  H   LIG d   1       2.281   1.984  -8.030  0.00  0.00     0.026 H 
ENDBRANCH  19  22
ENDBRANCH  18  19
ENDBRANCH  16  18
ENDBRANCH   1  16
BRANCH   1  26
ATOM     26  S   LIG d   1       5.817  -2.313  -7.077  0.00  0.00    -0.059 SA
BRANCH  26  27
ATOM     27  P   LIG d   1       5.739  -4.419  -6.848  0.00  0.00     0.229 P 
ATOM     28  S   LIG d   1       3.961  -4.976  -6.836  0.00  0.00     0.003 SA
BRANCH  27  29
ATOM     29  O   LIG d   1       6.513  -5.121  -8.073  0.00  0.00    -0.327 OA
BRANCH  29  30
ATOM     30  C   LIG d   1       6.627  -6.540  -8.210  0.00  0.00     0.044 C 
ATOM     31  H   LIG d   1       5.632  -6.983  -8.231  0.00  0.00     0.053 H 
ATOM     32  H   LIG d   1       7.149  -6.774  -9.138  0.00  0.00     0.053 H 
ATOM     33  H   LIG d   1       7.188  -6.942  -7.367  0.00  0.00     0.053 H 
ENDBRANCH  29  30
ENDBRANCH  27  29
BRANCH  27  34
ATOM     34  O   LIG d   1       6.442  -4.835  -5.461  0.00  0.00    -0.327 OA
BRANCH  34  35
ATOM     35  C   LIG d   1       7.600  -4.173  -4.947  0.00  0.00     0.044 C 
ATOM     36  H   LIG d   1       7.336  -3.637  -4.035  0.00  0.00     0.053 H 
ATOM     37  H   LIG d   1       8.371  -4.911  -4.724  0.00  0.00     0.053 H 
ATOM     38  H   LIG d   1       7.974  -3.468  -5.689  0.00  0.00     0.053 H 
ENDBRANCH  34  35
ENDBRANCH  27  34
ENDBRANCH  26  27
ENDBRANCH   1  26
TORSDOF 15
ENDMDL
