MODEL 1
REMARK VINA RESULT:      -6.2      0.000      0.000
REMARK  14 active torsions:
REMARK  status: ('A' for Active; 'I' for Inactive)
REMARK    1  A    between atoms: C_1  and  C_2 
REMARK    2  A    between atoms: C_2  and  C_4 
REMARK    3  A    between atoms: C_2  and  N_62 
REMARK    4  A    between atoms: C_4  and  N_60 
REMARK    5  A    between atoms: C_5  and  C_6 
REMARK    6  A    between atoms: C_5  and  C_17 
REMARK    7  A    between atoms: C_5  and  N_60 
REMARK    8  A    between atoms: C_11  and  C_12 
REMARK    9  A    between atoms: C_11  and  C_13 
REMARK   10  A    between atoms: C_18  and  C_19 
REMARK   11  A    between atoms: C_18  and  C_30 
REMARK   12  A    between atoms: C_18  and  N_62 
REMARK   13  A    between atoms: C_24  and  C_25 
REMARK   14  A    between atoms: C_24  and  C_26 
ROOT
ATOM      1  C   LIG d   1       8.915   0.438  -5.917  0.00  0.00     0.208 C 
ATOM      2  H   LIG d   1       9.991   0.398  -6.085  0.00  0.00     0.113 H 
ENDROOT
BRANCH   1   3
ATOM      3  C   LIG d   1       8.436   1.886  -6.020  0.00  0.00     0.004 C 
ATOM      4  H   LIG d   1       7.653   1.957  -6.776  0.00  0.00     0.030 H 
ATOM      5  H   LIG d   1       8.041   2.209  -5.057  0.00  0.00     0.030 H 
ATOM      6  H   LIG d   1       9.272   2.527  -6.302  0.00  0.00     0.030 H 
ENDBRANCH   1   3
BRANCH   1   7
ATOM      7  C   LIG d   1       8.202  -0.412  -6.971  0.00  0.00     0.204 C 
ATOM      8  H   LIG d   1       7.760  -1.286  -6.495  0.00  0.00     0.109 H 
ATOM      9  H   LIG d   1       8.922  -0.733  -7.725  0.00  0.00     0.109 H 
BRANCH   7  10
ATOM     10  N   LIG d   1       7.138   0.452  -7.589  0.00  0.00    -0.242 N 
ATOM     11  H   LIG d   1       7.269   1.470  -7.643  0.00  0.00     0.445 HD
BRANCH  10  12
ATOM     12  C   LIG d   1       5.968  -0.130  -8.089  0.00  0.00     0.161 C 
BRANCH  12  13
ATOM     13  C   LIG d   1       4.988   0.706  -8.512  0.00  0.00     0.101 A 
ATOM     14  C   LIG d   1       5.203   1.971  -9.071  0.00  0.00     0.147 A 
ATOM     15  C   LIG d   1       3.886   2.610  -9.426  0.00  0.00     0.010 A 
ATOM     16  O   LIG d   1       6.292   2.484  -9.240  0.00  0.00    -0.296 OA
ATOM     17  C   LIG d   1       2.781   1.615  -9.044  0.00  0.00    -0.025 A 
ATOM     18  H   LIG d   1       3.838   2.802 -10.406  0.00  0.00     0.035 H 
ATOM     19  H   LIG d   1       3.762   3.537  -8.867  0.00  0.00     0.035 H 
ATOM     20  C   LIG d   1       3.514   0.399  -8.461  0.00  0.00    -0.013 A 
ATOM     21  H   LIG d   1       1.883   2.017  -8.576  0.00  0.00     0.031 H 
ATOM     22  C   LIG d   1       2.727   0.267  -9.766  0.00  0.00    -0.027 A 
ATOM     23  H   LIG d   1       3.141  -0.101  -7.567  0.00  0.00     0.032 H 
ATOM     24  H   LIG d   1       4.701   1.293  -7.757  0.00  0.00     0.049 H 
BRANCH  22  25
ATOM     25  C   LIG d   1       1.408  -0.506  -9.720  0.00  0.00    -0.059 C 
ATOM     26  H   LIG d   1       0.748  -0.056  -8.979  0.00  0.00     0.024 H 
ATOM     27  H   LIG d   1       0.932  -0.469 -10.701  0.00  0.00     0.024 H 
ATOM     28  H   LIG d   1       1.604  -1.544  -9.451  0.00  0.00     0.024 H 
ENDBRANCH  22  25
BRANCH  22  29
ATOM     29  C   LIG d   1       3.528   0.128 -11.062  0.00  0.00    -0.059 C 
ATOM     30  H   LIG d   1       4.125  -0.784 -11.025  0.00  0.00     0.024 H 
ATOM     31  H   LIG d   1       2.843   0.079 -11.909  0.00  0.00     0.024 H 
ATOM     32  H   LIG d   1       4.186   0.989 -11.176  0.00  0.00     0.024 H 
ENDBRANCH  22  29
ENDBRANCH  12  13
BRANCH  12  33
ATOM     33  C   LIG d   1       5.772  -1.622  -8.167  0.00  0.00     0.017 C 
ATOM     34  H   LIG d   1       6.729  -2.104  -8.364  0.00  0.00     0.033 H 
ATOM     35  H   LIG d   1       5.369  -1.986  -7.221  0.00  0.00     0.033 H 
ATOM     36  H   LIG d   1       5.133  -1.836  -8.906  0.00  0.00     0.033 H 
ENDBRANCH  12  33
ENDBRANCH  10  12
ENDBRANCH   7  10
ENDBRANCH   1   7
BRANCH   1  37
ATOM     37  N   LIG d   1       8.549  -0.121  -4.569  0.00  0.00    -0.240 N 
ATOM     38  H   LIG d   1       9.247  -0.638  -4.021  0.00  0.00     0.445 HD
BRANCH  37  39
ATOM     39  C   LIG d   1       7.258   0.064  -4.062  0.00  0.00     0.161 C 
BRANCH  39  40
ATOM     40  C   LIG d   1       6.375  -0.951  -4.218  0.00  0.00     0.101 A 
ATOM     41  C   LIG d   1       6.697  -2.307  -4.142  0.00  0.00     0.147 A 
ATOM     42  C   LIG d   1       5.469  -3.150  -4.362  0.00  0.00     0.010 A 
ATOM     43  O   LIG d   1       7.810  -2.745  -3.927  0.00  0.00    -0.296 OA
ATOM     44  C   LIG d   1       4.298  -2.184  -4.599  0.00  0.00    -0.025 A 
ATOM     45  H   LIG d   1       5.275  -3.718  -3.563  0.00  0.00     0.035 H 
ATOM     46  H   LIG d   1       5.609  -3.784  -5.238  0.00  0.00     0.035 H 
ATOM     47  C   LIG d   1       4.907  -0.778  -4.505  0.00  0.00    -0.013 A 
ATOM     48  H   LIG d   1       3.573  -2.441  -5.371  0.00  0.00     0.031 H 
ATOM     49  C   LIG d   1       3.886  -1.226  -3.458  0.00  0.00    -0.027 A 
ATOM     50  H   LIG d   1       4.628  -0.001  -5.216  0.00  0.00     0.032 H 
ATOM     51  H   LIG d   1       5.980  -1.189  -3.331  0.00  0.00     0.049 H 
BRANCH  49  52
ATOM     52  C   LIG d   1       4.403  -1.525  -2.049  0.00  0.00    -0.059 C 
ATOM     53  H   LIG d   1       3.714  -1.110  -1.314  0.00  0.00     0.024 H 
ATOM     54  H   LIG d   1       4.477  -2.603  -1.911  0.00  0.00     0.024 H 
ATOM     55  H   LIG d   1       5.387  -1.073  -1.921  0.00  0.00     0.024 H 
ENDBRANCH  49  52
BRANCH  49  56
ATOM     56  C   LIG d   1       2.485  -0.611  -3.529  0.00  0.00    -0.059 C 
ATOM     57  H   LIG d   1       1.778  -1.261  -3.013  0.00  0.00     0.024 H 
ATOM     58  H   LIG d   1       2.494   0.368  -3.052  0.00  0.00     0.024 H 
ATOM     59  H   LIG d   1       2.188  -0.506  -4.572  0.00  0.00     0.024 H 
ENDBRANCH  49  56
ENDBRANCH  39  40
BRANCH  39  60
ATOM     60  C   LIG d   1       6.834   1.331  -3.364  0.00  0.00     0.017 C 
ATOM     61  H   LIG d   1       6.196   1.083  -2.516  0.00  0.00     0.033 H 
ATOM     62  H   LIG d   1       7.717   1.864  -3.011  0.00  0.00     0.033 H 
ATOM     63  H   LIG d   1       6.329   1.911  -4.003  0.00  0.00     0.033 H 
ENDBRANCH  39  60
ENDBRANCH  37  39
ENDBRANCH   1  37
TORSDOF 14
ENDMDL
MODEL 2
REMARK VINA RESULT:      -6.1      1.537      6.029
REMARK  14 active torsions:
REMARK  status: ('A' for Active; 'I' for Inactive)
REMARK    1  A    between atoms: C_1  and  C_2 
REMARK    2  A    between atoms: C_2  and  C_4 
REMARK    3  A    between atoms: C_2  and  N_62 
REMARK    4  A    between atoms: C_4  and  N_60 
REMARK    5  A    between atoms: C_5  and  C_6 
REMARK    6  A    between atoms: C_5  and  C_17 
REMARK    7  A    between atoms: C_5  and  N_60 
REMARK    8  A    between atoms: C_11  and  C_12 
REMARK    9  A    between atoms: C_11  and  C_13 
REMARK   10  A    between atoms: C_18  and  C_19 
REMARK   11  A    between atoms: C_18  and  C_30 
REMARK   12  A    between atoms: C_18  and  N_62 
REMARK   13  A    between atoms: C_24  and  C_25 
REMARK   14  A    between atoms: C_24  and  C_26 
ROOT
ATOM      1  C   LIG d   1       7.784  -1.012  -7.252  0.00  0.00     0.208 C 
ATOM      2  H   LIG d   1       8.195  -1.018  -8.262  0.00  0.00     0.113 H 
ENDROOT
BRANCH   1   3
ATOM      3  C   LIG d   1       8.320  -2.216  -6.477  0.00  0.00     0.004 C 
ATOM      4  H   LIG d   1       9.359  -2.037  -6.199  0.00  0.00     0.030 H 
ATOM      5  H   LIG d   1       7.724  -2.363  -5.576  0.00  0.00     0.030 H 
ATOM      6  H   LIG d   1       8.259  -3.107  -7.102  0.00  0.00     0.030 H 
ENDBRANCH   1   3
BRANCH   1   7
ATOM      7  C   LIG d   1       8.199   0.278  -6.541  0.00  0.00     0.204 C 
ATOM      8  H   LIG d   1       8.441   1.040  -7.282  0.00  0.00     0.109 H 
ATOM      9  H   LIG d   1       9.074   0.085  -5.920  0.00  0.00     0.109 H 
BRANCH   7  10
ATOM     10  N   LIG d   1       7.034   0.711  -5.696  0.00  0.00    -0.242 N 
ATOM     11  H   LIG d   1       6.138   0.952  -6.139  0.00  0.00     0.445 HD
BRANCH  10  12
ATOM     12  C   LIG d   1       7.169   0.789  -4.305  0.00  0.00     0.161 C 
BRANCH  12  13
ATOM     13  C   LIG d   1       6.293   0.078  -3.553  0.00  0.00     0.101 A 
ATOM     14  C   LIG d   1       5.381   0.635  -2.650  0.00  0.00     0.147 A 
ATOM     15  C   LIG d   1       4.570  -0.454  -1.997  0.00  0.00     0.010 A 
ATOM     16  O   LIG d   1       5.263   1.822  -2.418  0.00  0.00    -0.296 OA
ATOM     17  C   LIG d   1       5.048  -1.789  -2.583  0.00  0.00    -0.025 A 
ATOM     18  H   LIG d   1       3.595  -0.334  -2.190  0.00  0.00     0.035 H 
ATOM     19  H   LIG d   1       4.731  -0.441  -0.920  0.00  0.00     0.035 H 
ATOM     20  C   LIG d   1       6.154  -1.421  -3.582  0.00  0.00    -0.013 A 
ATOM     21  H   LIG d   1       5.156  -2.630  -1.898  0.00  0.00     0.031 H 
ATOM     22  C   LIG d   1       4.849  -2.047  -4.079  0.00  0.00    -0.027 A 
ATOM     23  H   LIG d   1       7.073  -2.005  -3.637  0.00  0.00     0.032 H 
ATOM     24  H   LIG d   1       6.721  -0.166  -2.684  0.00  0.00     0.049 H 
BRANCH  22  25
ATOM     25  C   LIG d   1       4.899  -3.499  -4.559  0.00  0.00    -0.059 C 
ATOM     26  H   LIG d   1       5.619  -4.055  -3.959  0.00  0.00     0.024 H 
ATOM     27  H   LIG d   1       3.912  -3.950  -4.453  0.00  0.00     0.024 H 
ATOM     28  H   LIG d   1       5.200  -3.525  -5.606  0.00  0.00     0.024 H 
ENDBRANCH  22  25
BRANCH  22  29
ATOM     29  C   LIG d   1       3.871  -1.139  -4.828  0.00  0.00    -0.059 C 
ATOM     30  H   LIG d   1       2.848  -1.423  -4.579  0.00  0.00     0.024 H 
ATOM     31  H   LIG d   1       4.042  -0.102  -4.536  0.00  0.00     0.024 H 
ATOM     32  H   LIG d   1       4.027  -1.245  -5.901  0.00  0.00     0.024 H 
ENDBRANCH  22  29
ENDBRANCH  12  13
BRANCH  12  33
ATOM     33  C   LIG d   1       8.234   1.621  -3.638  0.00  0.00     0.017 C 
ATOM     34  H   LIG d   1       7.953   1.807  -2.602  0.00  0.00     0.033 H 
ATOM     35  H   LIG d   1       9.183   1.086  -3.666  0.00  0.00     0.033 H 
ATOM     36  H   LIG d   1       8.327   2.492  -4.120  0.00  0.00     0.033 H 
ENDBRANCH  12  33
ENDBRANCH  10  12
ENDBRANCH   7  10
ENDBRANCH   1   7
BRANCH   1  37
ATOM     37  N   LIG d   1       6.281  -1.049  -7.271  0.00  0.00    -0.240 N 
ATOM     38  H   LIG d   1       5.756  -1.035  -6.389  0.00  0.00     0.445 HD
BRANCH  37  39
ATOM     39  C   LIG d   1       5.598  -1.102  -8.491  0.00  0.00     0.161 C 
BRANCH  39  40
ATOM     40  C   LIG d   1       4.601  -0.205  -8.687  0.00  0.00     0.101 A 
ATOM     41  C   LIG d   1       4.753   1.181  -8.629  0.00  0.00     0.147 A 
ATOM     42  C   LIG d   1       3.438   1.864  -8.900  0.00  0.00     0.010 A 
ATOM     43  O   LIG d   1       5.798   1.756  -8.394  0.00  0.00    -0.296 OA
ATOM     44  C   LIG d   1       2.399   0.758  -9.138  0.00  0.00    -0.025 A 
ATOM     45  H   LIG d   1       3.497   2.446  -9.710  0.00  0.00     0.035 H 
ATOM     46  H   LIG d   1       3.150   2.464  -8.037  0.00  0.00     0.035 H 
ATOM     47  C   LIG d   1       3.170  -0.562  -8.992  0.00  0.00    -0.013 A 
ATOM     48  H   LIG d   1       1.407   0.889  -8.707  0.00  0.00     0.031 H 
ATOM     49  C   LIG d   1       2.582  -0.182 -10.352  0.00  0.00    -0.027 A 
ATOM     50  H   LIG d   1       2.740  -1.401  -8.447  0.00  0.00     0.032 H 
ATOM     51  H   LIG d   1       4.551   0.031  -9.657  0.00  0.00     0.049 H 
BRANCH  49  52
ATOM     52  C   LIG d   1       3.559   0.247 -11.449  0.00  0.00    -0.059 C 
ATOM     53  H   LIG d   1       4.327   0.889 -11.021  0.00  0.00     0.024 H 
ATOM     54  H   LIG d   1       4.025  -0.636 -11.886  0.00  0.00     0.024 H 
ATOM     55  H   LIG d   1       3.018   0.793 -12.223  0.00  0.00     0.024 H 
ENDBRANCH  49  52
BRANCH  49  56
ATOM     56  C   LIG d   1       1.352  -0.957 -10.831  0.00  0.00    -0.059 C 
ATOM     57  H   LIG d   1       0.581  -0.255 -11.146  0.00  0.00     0.024 H 
ATOM     58  H   LIG d   1       1.628  -1.594 -11.671  0.00  0.00     0.024 H 
ATOM     59  H   LIG d   1       0.972  -1.574 -10.016  0.00  0.00     0.024 H 
ENDBRANCH  49  56
ENDBRANCH  39  40
BRANCH  39  60
ATOM     60  C   LIG d   1       5.930  -2.105  -9.566  0.00  0.00     0.017 C 
ATOM     61  H   LIG d   1       6.649  -1.669 -10.260  0.00  0.00     0.033 H 
ATOM     62  H   LIG d   1       6.361  -2.997  -9.109  0.00  0.00     0.033 H 
ATOM     63  H   LIG d   1       5.097  -2.353 -10.060  0.00  0.00     0.033 H 
ENDBRANCH  39  60
ENDBRANCH  37  39
ENDBRANCH   1  37
TORSDOF 14
ENDMDL
MODEL 3
REMARK VINA RESULT:      -6.1      2.524      7.306
REMARK  14 active torsions:
REMARK  status: ('A' for Active; 'I' for Inactive)
REMARK    1  A    between atoms: C_1  and  C_2 
REMARK    2  A    between atoms: C_2  and  C_4 
REMARK    3  A    between atoms: C_2  and  N_62 
REMARK    4  A    between atoms: C_4  and  N_60 
REMARK    5  A    between atoms: C_5  and  C_6 
REMARK    6  A    between atoms: C_5  and  C_17 
REMARK    7  A    between atoms: C_5  and  N_60 
REMARK    8  A    between atoms: C_11  and  C_12 
REMARK    9  A    between atoms: C_11  and  C_13 
REMARK   10  A    between atoms: C_18  and  C_19 
REMARK   11  A    between atoms: C_18  and  C_30 
REMARK   12  A    between atoms: C_18  and  N_62 
REMARK   13  A    between atoms: C_24  and  C_25 
REMARK   14  A    between atoms: C_24  and  C_26 
ROOT
ATOM      1  C   LIG d   1       3.856  -3.776  -8.878  0.00  0.00     0.208 C 
ATOM      2  H   LIG d   1       4.396  -3.647  -9.817  0.00  0.00     0.113 H 
ENDROOT
BRANCH   1   3
ATOM      3  C   LIG d   1       3.527  -5.255  -8.678  0.00  0.00     0.004 C 
ATOM      4  H   LIG d   1       4.080  -5.852  -9.405  0.00  0.00     0.030 H 
ATOM      5  H   LIG d   1       3.809  -5.559  -7.670  0.00  0.00     0.030 H 
ATOM      6  H   LIG d   1       2.457  -5.412  -8.818  0.00  0.00     0.030 H 
ENDBRANCH   1   3
BRANCH   1   7
ATOM      7  C   LIG d   1       4.726  -3.285  -7.719  0.00  0.00     0.204 C 
ATOM      8  H   LIG d   1       5.639  -2.839  -8.112  0.00  0.00     0.109 H 
ATOM      9  H   LIG d   1       4.981  -4.127  -7.075  0.00  0.00     0.109 H 
BRANCH   7  10
ATOM     10  N   LIG d   1       3.920  -2.266  -6.962  0.00  0.00    -0.242 N 
ATOM     11  H   LIG d   1       2.903  -2.214  -7.095  0.00  0.00     0.445 HD
BRANCH  10  12
ATOM     12  C   LIG d   1       4.556  -1.386  -6.079  0.00  0.00     0.161 C 
BRANCH  12  13
ATOM     13  C   LIG d   1       4.220  -1.467  -4.768  0.00  0.00     0.101 A 
ATOM     14  C   LIG d   1       4.528  -2.544  -3.930  0.00  0.00     0.147 A 
ATOM     15  C   LIG d   1       4.000  -2.286  -2.543  0.00  0.00     0.010 A 
ATOM     16  O   LIG d   1       5.128  -3.545  -4.270  0.00  0.00    -0.296 OA
ATOM     17  C   LIG d   1       3.317  -0.912  -2.565  0.00  0.00    -0.025 A 
ATOM     18  H   LIG d   1       4.745  -2.278  -1.875  0.00  0.00     0.035 H 
ATOM     19  H   LIG d   1       3.278  -3.056  -2.272  0.00  0.00     0.035 H 
ATOM     20  C   LIG d   1       3.473  -0.404  -4.005  0.00  0.00    -0.013 A 
ATOM     21  H   LIG d   1       2.377  -0.808  -2.024  0.00  0.00     0.031 H 
ATOM     22  C   LIG d   1       4.169   0.326  -2.856  0.00  0.00    -0.027 A 
ATOM     23  H   LIG d   1       2.645   0.086  -4.517  0.00  0.00     0.032 H 
ATOM     24  H   LIG d   1       3.321  -1.896  -4.681  0.00  0.00     0.049 H 
BRANCH  22  25
ATOM     25  C   LIG d   1       3.606   1.685  -2.438  0.00  0.00    -0.059 C 
ATOM     26  H   LIG d   1       4.109   2.474  -2.997  0.00  0.00     0.024 H 
ATOM     27  H   LIG d   1       2.537   1.715  -2.649  0.00  0.00     0.024 H 
ATOM     28  H   LIG d   1       3.770   1.833  -1.370  0.00  0.00     0.024 H 
ENDBRANCH  22  25
BRANCH  22  29
ATOM     29  C   LIG d   1       5.688   0.179  -2.743  0.00  0.00    -0.059 C 
ATOM     30  H   LIG d   1       5.980  -0.825  -3.054  0.00  0.00     0.024 H 
ATOM     31  H   LIG d   1       6.174   0.913  -3.386  0.00  0.00     0.024 H 
ATOM     32  H   LIG d   1       5.993   0.342  -1.710  0.00  0.00     0.024 H 
ENDBRANCH  22  29
ENDBRANCH  12  13
BRANCH  12  33
ATOM     33  C   LIG d   1       5.579  -0.377  -6.534  0.00  0.00     0.017 C 
ATOM     34  H   LIG d   1       6.023   0.107  -5.665  0.00  0.00     0.033 H 
ATOM     35  H   LIG d   1       6.358  -0.881  -7.106  0.00  0.00     0.033 H 
ATOM     36  H   LIG d   1       5.135   0.311  -7.109  0.00  0.00     0.033 H 
ENDBRANCH  12  33
ENDBRANCH  10  12
ENDBRANCH   7  10
ENDBRANCH   1   7
BRANCH   1  37
ATOM     37  N   LIG d   1       2.588  -2.968  -8.860  0.00  0.00    -0.240 N 
ATOM     38  H   LIG d   1       2.042  -2.889  -7.994  0.00  0.00     0.445 HD
BRANCH  37  39
ATOM     39  C   LIG d   1       2.153  -2.321 -10.022  0.00  0.00     0.161 C 
BRANCH  39  40
ATOM     40  C   LIG d   1       2.740  -1.141 -10.335  0.00  0.00     0.101 A 
ATOM     41  C   LIG d   1       2.798  -0.030  -9.492  0.00  0.00     0.147 A 
ATOM     42  C   LIG d   1       3.526   1.102 -10.166  0.00  0.00     0.010 A 
ATOM     43  O   LIG d   1       2.328   0.016  -8.372  0.00  0.00    -0.296 OA
ATOM     44  C   LIG d   1       3.937   0.605 -11.560  0.00  0.00    -0.025 A 
ATOM     45  H   LIG d   1       4.343   1.361  -9.651  0.00  0.00     0.035 H 
ATOM     46  H   LIG d   1       2.864   1.963 -10.260  0.00  0.00     0.035 H 
ATOM     47  C   LIG d   1       3.417  -0.838 -11.646  0.00  0.00    -0.013 A 
ATOM     48  H   LIG d   1       3.841   1.296 -12.397  0.00  0.00     0.031 H 
ATOM     49  C   LIG d   1       4.925  -0.581 -11.663  0.00  0.00    -0.027 A 
ATOM     50  H   LIG d   1       2.933  -1.203 -12.551  0.00  0.00     0.032 H 
ATOM     51  H   LIG d   1       3.701  -1.163 -10.061  0.00  0.00     0.049 H 
BRANCH  49  52
ATOM     52  C   LIG d   1       5.720  -0.961 -10.413  0.00  0.00    -0.059 C 
ATOM     53  H   LIG d   1       5.061  -1.453  -9.699  0.00  0.00     0.024 H 
ATOM     54  H   LIG d   1       6.528  -1.638 -10.688  0.00  0.00     0.024 H 
ATOM     55  H   LIG d   1       6.138  -0.061  -9.961  0.00  0.00     0.024 H 
ENDBRANCH  49  52
BRANCH  49  56
ATOM     56  C   LIG d   1       5.658  -0.770 -12.993  0.00  0.00    -0.059 C 
ATOM     57  H   LIG d   1       5.741  -1.834 -13.214  0.00  0.00     0.024 H 
ATOM     58  H   LIG d   1       5.099  -0.277 -13.789  0.00  0.00     0.024 H 
ATOM     59  H   LIG d   1       6.654  -0.334 -12.924  0.00  0.00     0.024 H 
ENDBRANCH  49  56
ENDBRANCH  39  40
BRANCH  39  60
ATOM     60  C   LIG d   1       1.077  -2.887 -10.912  0.00  0.00     0.017 C 
ATOM     61  H   LIG d   1       1.142  -3.975 -10.914  0.00  0.00     0.033 H 
ATOM     62  H   LIG d   1       0.099  -2.583 -10.537  0.00  0.00     0.033 H 
ATOM     63  H   LIG d   1       1.198  -2.544 -11.843  0.00  0.00     0.033 H 
ENDBRANCH  39  60
ENDBRANCH  37  39
ENDBRANCH   1  37
TORSDOF 14
ENDMDL
MODEL 4
REMARK VINA RESULT:      -6.1      3.572      7.010
REMARK  14 active torsions:
REMARK  status: ('A' for Active; 'I' for Inactive)
REMARK    1  A    between atoms: C_1  and  C_2 
REMARK    2  A    between atoms: C_2  and  C_4 
REMARK    3  A    between atoms: C_2  and  N_62 
REMARK    4  A    between atoms: C_4  and  N_60 
REMARK    5  A    between atoms: C_5  and  C_6 
REMARK    6  A    between atoms: C_5  and  C_17 
REMARK    7  A    between atoms: C_5  and  N_60 
REMARK    8  A    between atoms: C_11  and  C_12 
REMARK    9  A    between atoms: C_11  and  C_13 
REMARK   10  A    between atoms: C_18  and  C_19 
REMARK   11  A    between atoms: C_18  and  C_30 
REMARK   12  A    between atoms: C_18  and  N_62 
REMARK   13  A    between atoms: C_24  and  C_25 
REMARK   14  A    between atoms: C_24  and  C_26 
ROOT
ATOM      1  C   LIG d   1       9.188   1.580  -6.240  0.00  0.00     0.208 C 
ATOM      2  H   LIG d   1      10.070   1.845  -6.823  0.00  0.00     0.113 H 
ENDROOT
BRANCH   1   3
ATOM      3  C   LIG d   1       8.040   1.228  -7.187  0.00  0.00     0.004 C 
ATOM      4  H   LIG d   1       7.880   2.050  -7.885  0.00  0.00     0.030 H 
ATOM      5  H   LIG d   1       8.290   0.325  -7.742  0.00  0.00     0.030 H 
ATOM      6  H   LIG d   1       7.131   1.059  -6.609  0.00  0.00     0.030 H 
ENDBRANCH   1   3
BRANCH   1   7
ATOM      7  C   LIG d   1       9.506   0.375  -5.353  0.00  0.00     0.204 C 
ATOM      8  H   LIG d   1      10.542   0.432  -5.020  0.00  0.00     0.109 H 
ATOM      9  H   LIG d   1       9.358  -0.544  -5.922  0.00  0.00     0.109 H 
BRANCH   7  10
ATOM     10  N   LIG d   1       8.567   0.429  -4.180  0.00  0.00    -0.242 N 
ATOM     11  H   LIG d   1       8.712   1.124  -3.437  0.00  0.00     0.445 HD
BRANCH  10  12
ATOM     12  C   LIG d   1       7.497  -0.469  -4.099  0.00  0.00     0.161 C 
BRANCH  12  13
ATOM     13  C   LIG d   1       6.464  -0.135  -3.287  0.00  0.00     0.101 A 
ATOM     14  C   LIG d   1       5.995   1.168  -3.087  0.00  0.00     0.147 A 
ATOM     15  C   LIG d   1       4.836   1.158  -2.125  0.00  0.00     0.010 A 
ATOM     16  O   LIG d   1       6.457   2.165  -3.606  0.00  0.00    -0.296 OA
ATOM     17  C   LIG d   1       4.592  -0.303  -1.723  0.00  0.00    -0.025 A 
ATOM     18  H   LIG d   1       4.013   1.528  -2.557  0.00  0.00     0.035 H 
ATOM     19  H   LIG d   1       5.081   1.750  -1.243  0.00  0.00     0.035 H 
ATOM     20  C   LIG d   1       5.649  -1.115  -2.485  0.00  0.00    -0.013 A 
ATOM     21  H   LIG d   1       4.363  -0.506  -0.677  0.00  0.00     0.031 H 
ATOM     22  C   LIG d   1       4.164  -1.298  -2.804  0.00  0.00    -0.027 A 
ATOM     23  H   LIG d   1       6.188  -1.927  -1.996  0.00  0.00     0.032 H 
ATOM     24  H   LIG d   1       6.808   0.046  -2.366  0.00  0.00     0.049 H 
BRANCH  22  25
ATOM     25  C   LIG d   1       3.498  -2.597  -2.345  0.00  0.00    -0.059 C 
ATOM     26  H   LIG d   1       2.955  -2.418  -1.417  0.00  0.00     0.024 H 
ATOM     27  H   LIG d   1       2.803  -2.939  -3.113  0.00  0.00     0.024 H 
ATOM     28  H   LIG d   1       4.261  -3.358  -2.180  0.00  0.00     0.024 H 
ENDBRANCH  22  25
BRANCH  22  29
ATOM     29  C   LIG d   1       3.651  -0.726  -4.127  0.00  0.00    -0.059 C 
ATOM     30  H   LIG d   1       4.291   0.099  -4.439  0.00  0.00     0.024 H 
ATOM     31  H   LIG d   1       3.665  -1.505  -4.890  0.00  0.00     0.024 H 
ATOM     32  H   LIG d   1       2.631  -0.365  -3.995  0.00  0.00     0.024 H 
ENDBRANCH  22  29
ENDBRANCH  12  13
BRANCH  12  33
ATOM     33  C   LIG d   1       7.463  -1.764  -4.868  0.00  0.00     0.017 C 
ATOM     34  H   LIG d   1       6.795  -2.465  -4.369  0.00  0.00     0.033 H 
ATOM     35  H   LIG d   1       7.104  -1.577  -5.880  0.00  0.00     0.033 H 
ATOM     36  H   LIG d   1       8.384  -2.152  -4.908  0.00  0.00     0.033 H 
ENDBRANCH  12  33
ENDBRANCH  10  12
ENDBRANCH   7  10
ENDBRANCH   1   7
BRANCH   1  37
ATOM     37  N   LIG d   1       8.771   2.705  -5.334  0.00  0.00    -0.240 N 
ATOM     38  H   LIG d   1       8.015   2.563  -4.653  0.00  0.00     0.445 HD
BRANCH  37  39
ATOM     39  C   LIG d   1       9.412   3.946  -5.417  0.00  0.00     0.161 C 
BRANCH  39  40
ATOM     40  C   LIG d   1       9.608   4.625  -4.261  0.00  0.00     0.101 A 
ATOM     41  C   LIG d   1      10.031   4.053  -3.061  0.00  0.00     0.147 A 
ATOM     42  C   LIG d   1      10.143   5.105  -1.990  0.00  0.00     0.010 A 
ATOM     43  O   LIG d   1      10.277   2.873  -2.904  0.00  0.00    -0.296 OA
ATOM     44  C   LIG d   1       9.736   6.441  -2.628  0.00  0.00    -0.025 A 
ATOM     45  H   LIG d   1      11.080   5.171  -1.648  0.00  0.00     0.035 H 
ATOM     46  H   LIG d   1       9.469   4.866  -1.167  0.00  0.00     0.035 H 
ATOM     47  C   LIG d   1       9.393   6.106  -4.087  0.00  0.00    -0.013 A 
ATOM     48  H   LIG d   1       9.120   7.121  -2.040  0.00  0.00     0.031 H 
ATOM     49  C   LIG d   1      10.595   7.002  -3.785  0.00  0.00    -0.027 A 
ATOM     50  H   LIG d   1       8.517   6.541  -4.568  0.00  0.00     0.032 H 
ATOM     51  H   LIG d   1      10.553   4.950  -4.221  0.00  0.00     0.049 H 
BRANCH  49  52
ATOM     52  C   LIG d   1      11.989   6.408  -3.995  0.00  0.00    -0.059 C 
ATOM     53  H   LIG d   1      11.901   5.439  -4.484  0.00  0.00     0.024 H 
ATOM     54  H   LIG d   1      12.580   7.079  -4.620  0.00  0.00     0.024 H 
ATOM     55  H   LIG d   1      12.481   6.285  -3.029  0.00  0.00     0.024 H 
ENDBRANCH  49  52
BRANCH  49  56
ATOM     56  C   LIG d   1      10.460   8.494  -4.100  0.00  0.00    -0.059 C 
ATOM     57  H   LIG d   1       9.599   8.652  -4.749  0.00  0.00     0.024 H 
ATOM     58  H   LIG d   1      10.322   9.050  -3.172  0.00  0.00     0.024 H 
ATOM     59  H   LIG d   1      11.362   8.842  -4.602  0.00  0.00     0.024 H 
ENDBRANCH  49  56
ENDBRANCH  39  40
BRANCH  39  60
ATOM     60  C   LIG d   1       9.879   4.533  -6.724  0.00  0.00     0.017 C 
ATOM     61  H   LIG d   1       9.200   4.230  -7.522  0.00  0.00     0.033 H 
ATOM     62  H   LIG d   1       9.889   5.622  -6.651  0.00  0.00     0.033 H 
ATOM     63  H   LIG d   1      10.801   4.205  -6.928  0.00  0.00     0.033 H 
ENDBRANCH  39  60
ENDBRANCH  37  39
ENDBRANCH   1  37
TORSDOF 14
ENDMDL
MODEL 5
REMARK VINA RESULT:      -6.0      3.809      6.869
REMARK  14 active torsions:
REMARK  status: ('A' for Active; 'I' for Inactive)
REMARK    1  A    between atoms: C_1  and  C_2 
REMARK    2  A    between atoms: C_2  and  C_4 
REMARK    3  A    between atoms: C_2  and  N_62 
REMARK    4  A    between atoms: C_4  and  N_60 
REMARK    5  A    between atoms: C_5  and  C_6 
REMARK    6  A    between atoms: C_5  and  C_17 
REMARK    7  A    between atoms: C_5  and  N_60 
REMARK    8  A    between atoms: C_11  and  C_12 
REMARK    9  A    between atoms: C_11  and  C_13 
REMARK   10  A    between atoms: C_18  and  C_19 
REMARK   11  A    between atoms: C_18  and  C_30 
REMARK   12  A    between atoms: C_18  and  N_62 
REMARK   13  A    between atoms: C_24  and  C_25 
REMARK   14  A    between atoms: C_24  and  C_26 
ROOT
ATOM      1  C   LIG d   1       9.259   0.662  -5.452  0.00  0.00     0.208 C 
ATOM      2  H   LIG d   1       9.074  -0.147  -6.158  0.00  0.00     0.113 H 
ENDROOT
BRANCH   1   3
ATOM      3  C   LIG d   1      10.754   0.731  -5.137  0.00  0.00     0.004 C 
ATOM      4  H   LIG d   1      11.098  -0.245  -4.792  0.00  0.00     0.030 H 
ATOM      5  H   LIG d   1      11.303   1.011  -6.036  0.00  0.00     0.030 H 
ATOM      6  H   LIG d   1      10.928   1.474  -4.359  0.00  0.00     0.030 H 
ENDBRANCH   1   3
BRANCH   1   7
ATOM      7  C   LIG d   1       8.805   1.989  -6.065  0.00  0.00     0.204 C 
ATOM      8  H   LIG d   1       7.824   1.862  -6.520  0.00  0.00     0.109 H 
ATOM      9  H   LIG d   1       9.521   2.300  -6.826  0.00  0.00     0.109 H 
BRANCH   7  10
ATOM     10  N   LIG d   1       8.747   2.995  -4.950  0.00  0.00    -0.242 N 
ATOM     11  H   LIG d   1       8.203   2.793  -4.102  0.00  0.00     0.445 HD
BRANCH  10  12
ATOM     12  C   LIG d   1       9.433   4.209  -5.066  0.00  0.00     0.161 C 
BRANCH  12  13
ATOM     13  C   LIG d   1       9.650   4.914  -3.929  0.00  0.00     0.101 A 
ATOM     14  C   LIG d   1      10.177   4.381  -2.747  0.00  0.00     0.147 A 
ATOM     15  C   LIG d   1      10.280   5.455  -1.696  0.00  0.00     0.010 A 
ATOM     16  O   LIG d   1      10.499   3.220  -2.587  0.00  0.00    -0.296 OA
ATOM     17  C   LIG d   1       9.768   6.757  -2.327  0.00  0.00    -0.025 A 
ATOM     18  H   LIG d   1      11.229   5.576  -1.404  0.00  0.00     0.035 H 
ATOM     19  H   LIG d   1       9.665   5.192  -0.836  0.00  0.00     0.035 H 
ATOM     20  C   LIG d   1       9.371   6.385  -3.762  0.00  0.00    -0.013 A 
ATOM     21  H   LIG d   1       9.140   7.402  -1.712  0.00  0.00     0.031 H 
ATOM     22  C   LIG d   1      10.534   7.347  -3.514  0.00  0.00    -0.027 A 
ATOM     23  H   LIG d   1       8.453   6.770  -4.205  0.00  0.00     0.032 H 
ATOM     24  H   LIG d   1       8.831   4.885  -3.357  0.00  0.00     0.049 H 
BRANCH  22  25
ATOM     25  C   LIG d   1      10.308   8.826  -3.836  0.00  0.00    -0.059 C 
ATOM     26  H   LIG d   1       9.825   8.917  -4.808  0.00  0.00     0.024 H 
ATOM     27  H   LIG d   1       9.670   9.271  -3.070  0.00  0.00     0.024 H 
ATOM     28  H   LIG d   1      11.267   9.344  -3.855  0.00  0.00     0.024 H 
ENDBRANCH  22  25
BRANCH  22  29
ATOM     29  C   LIG d   1      11.949   6.826  -3.770  0.00  0.00    -0.059 C 
ATOM     30  H   LIG d   1      12.019   5.788  -3.445  0.00  0.00     0.024 H 
ATOM     31  H   LIG d   1      12.173   6.889  -4.835  0.00  0.00     0.024 H 
ATOM     32  H   LIG d   1      12.665   7.430  -3.212  0.00  0.00     0.024 H 
ENDBRANCH  22  29
ENDBRANCH  12  13
BRANCH  12  33
ATOM     33  C   LIG d   1       9.925   4.741  -6.388  0.00  0.00     0.017 C 
ATOM     34  H   LIG d   1      11.014   4.776  -6.383  0.00  0.00     0.033 H 
ATOM     35  H   LIG d   1       9.586   4.087  -7.192  0.00  0.00     0.033 H 
ATOM     36  H   LIG d   1       9.562   5.662  -6.532  0.00  0.00     0.033 H 
ENDBRANCH  12  33
ENDBRANCH  10  12
ENDBRANCH   7  10
ENDBRANCH   1   7
BRANCH   1  37
ATOM     37  N   LIG d   1       8.482   0.469  -4.179  0.00  0.00    -0.240 N 
ATOM     38  H   LIG d   1       8.743   0.991  -3.333  0.00  0.00     0.445 HD
BRANCH  37  39
ATOM     39  C   LIG d   1       7.403  -0.421  -4.146  0.00  0.00     0.161 C 
BRANCH  39  40
ATOM     40  C   LIG d   1       6.390  -0.141  -3.291  0.00  0.00     0.101 A 
ATOM     41  C   LIG d   1       5.914   1.140  -3.009  0.00  0.00     0.147 A 
ATOM     42  C   LIG d   1       4.782   1.074  -2.019  0.00  0.00     0.010 A 
ATOM     43  O   LIG d   1       6.351   2.165  -3.496  0.00  0.00    -0.296 OA
ATOM     44  C   LIG d   1       4.573  -0.409  -1.676  0.00  0.00    -0.025 A 
ATOM     45  H   LIG d   1       3.942   1.447  -2.409  0.00  0.00     0.035 H 
ATOM     46  H   LIG d   1       5.047   1.629  -1.119  0.00  0.00     0.035 H 
ATOM     47  C   LIG d   1       5.620  -1.169  -2.503  0.00  0.00    -0.013 A 
ATOM     48  H   LIG d   1       4.369  -0.669  -0.637  0.00  0.00     0.031 H 
ATOM     49  C   LIG d   1       4.134  -1.375  -2.801  0.00  0.00    -0.027 A 
ATOM     50  H   LIG d   1       6.189  -1.988  -2.065  0.00  0.00     0.032 H 
ATOM     51  H   LIG d   1       5.522  -0.149  -3.788  0.00  0.00     0.049 H 
BRANCH  49  52
ATOM     52  C   LIG d   1       3.581  -0.767  -4.092  0.00  0.00    -0.059 C 
ATOM     53  H   LIG d   1       4.356  -0.172  -4.574  0.00  0.00     0.024 H 
ATOM     54  H   LIG d   1       3.266  -1.565  -4.764  0.00  0.00     0.024 H 
ATOM     55  H   LIG d   1       2.727  -0.132  -3.857  0.00  0.00     0.024 H 
ENDBRANCH  49  52
BRANCH  49  56
ATOM     56  C   LIG d   1       3.507  -2.706  -2.379  0.00  0.00    -0.059 C 
ATOM     57  H   LIG d   1       2.872  -2.547  -1.507  0.00  0.00     0.024 H 
ATOM     58  H   LIG d   1       2.907  -3.101  -3.197  0.00  0.00     0.024 H 
ATOM     59  H   LIG d   1       4.296  -3.415  -2.129  0.00  0.00     0.024 H 
ENDBRANCH  49  56
ENDBRANCH  39  40
BRANCH  39  60
ATOM     60  C   LIG d   1       7.338  -1.652  -5.013  0.00  0.00     0.017 C 
ATOM     61  H   LIG d   1       8.241  -2.246  -4.868  0.00  0.00     0.033 H 
ATOM     62  H   LIG d   1       6.466  -2.245  -4.737  0.00  0.00     0.033 H 
ATOM     63  H   LIG d   1       7.267  -1.381  -5.972  0.00  0.00     0.033 H 
ENDBRANCH  39  60
ENDBRANCH  37  39
ENDBRANCH   1  37
TORSDOF 14
ENDMDL
MODEL 6
REMARK VINA RESULT:      -6.0      1.803      2.480
REMARK  14 active torsions:
REMARK  status: ('A' for Active; 'I' for Inactive)
REMARK    1  A    between atoms: C_1  and  C_2 
REMARK    2  A    between atoms: C_2  and  C_4 
REMARK    3  A    between atoms: C_2  and  N_62 
REMARK    4  A    between atoms: C_4  and  N_60 
REMARK    5  A    between atoms: C_5  and  C_6 
REMARK    6  A    between atoms: C_5  and  C_17 
REMARK    7  A    between atoms: C_5  and  N_60 
REMARK    8  A    between atoms: C_11  and  C_12 
REMARK    9  A    between atoms: C_11  and  C_13 
REMARK   10  A    between atoms: C_18  and  C_19 
REMARK   11  A    between atoms: C_18  and  C_30 
REMARK   12  A    between atoms: C_18  and  N_62 
REMARK   13  A    between atoms: C_24  and  C_25 
REMARK   14  A    between atoms: C_24  and  C_26 
ROOT
ATOM      1  C   LIG d   1       7.686  -0.249  -6.672  0.00  0.00     0.208 C 
ATOM      2  H   LIG d   1       8.633  -0.485  -6.188  0.00  0.00     0.113 H 
ENDROOT
BRANCH   1   3
ATOM      3  C   LIG d   1       7.954   0.472  -7.993  0.00  0.00     0.004 C 
ATOM      4  H   LIG d   1       8.599  -0.145  -8.620  0.00  0.00     0.030 H 
ATOM      5  H   LIG d   1       7.011   0.650  -8.510  0.00  0.00     0.030 H 
ATOM      6  H   LIG d   1       8.445   1.425  -7.795  0.00  0.00     0.030 H 
ENDBRANCH   1   3
BRANCH   1   7
ATOM      7  C   LIG d   1       6.916  -1.543  -6.944  0.00  0.00     0.204 C 
ATOM      8  H   LIG d   1       6.271  -1.768  -6.096  0.00  0.00     0.109 H 
ATOM      9  H   LIG d   1       7.622  -2.361  -7.091  0.00  0.00     0.109 H 
BRANCH   7  10
ATOM     10  N   LIG d   1       6.100  -1.319  -8.188  0.00  0.00    -0.242 N 
ATOM     11  H   LIG d   1       6.501  -0.803  -8.980  0.00  0.00     0.445 HD
BRANCH  10  12
ATOM     12  C   LIG d   1       4.793  -1.813  -8.265  0.00  0.00     0.161 C 
BRANCH  12  13
ATOM     13  C   LIG d   1       3.829  -0.959  -8.689  0.00  0.00     0.101 A 
ATOM     14  C   LIG d   1       3.718   0.379  -8.296  0.00  0.00     0.147 A 
ATOM     15  C   LIG d   1       2.531   1.018  -8.969  0.00  0.00     0.010 A 
ATOM     16  O   LIG d   1       4.464   0.944  -7.521  0.00  0.00    -0.296 OA
ATOM     17  C   LIG d   1       1.881  -0.052  -9.856  0.00  0.00    -0.025 A 
ATOM     18  H   LIG d   1       2.818   1.791  -9.535  0.00  0.00     0.035 H 
ATOM     19  H   LIG d   1       1.820   1.361  -8.218  0.00  0.00     0.035 H 
ATOM     20  C   LIG d   1       2.734  -1.314  -9.661  0.00  0.00    -0.013 A 
ATOM     21  H   LIG d   1       0.792  -0.099  -9.874  0.00  0.00     0.031 H 
ATOM     22  C   LIG d   1       2.687  -0.624 -11.025  0.00  0.00    -0.027 A 
ATOM     23  H   LIG d   1       2.266  -2.292  -9.548  0.00  0.00     0.032 H 
ATOM     24  H   LIG d   1       3.043  -1.012  -8.074  0.00  0.00     0.049 H 
BRANCH  22  25
ATOM     25  C   LIG d   1       1.911  -1.322 -12.144  0.00  0.00    -0.059 C 
ATOM     26  H   LIG d   1       1.030  -0.732 -12.398  0.00  0.00     0.024 H 
ATOM     27  H   LIG d   1       2.549  -1.419 -13.023  0.00  0.00     0.024 H 
ATOM     28  H   LIG d   1       1.602  -2.312 -11.808  0.00  0.00     0.024 H 
ENDBRANCH  22  25
BRANCH  22  29
ATOM     29  C   LIG d   1       3.931   0.149 -11.469  0.00  0.00    -0.059 C 
ATOM     30  H   LIG d   1       4.161   0.920 -10.733  0.00  0.00     0.024 H 
ATOM     31  H   LIG d   1       4.774  -0.537 -11.553  0.00  0.00     0.024 H 
ATOM     32  H   LIG d   1       3.743   0.614 -12.437  0.00  0.00     0.024 H 
ENDBRANCH  22  29
ENDBRANCH  12  13
BRANCH  12  33
ATOM     33  C   LIG d   1       4.437  -3.231  -7.897  0.00  0.00     0.017 C 
ATOM     34  H   LIG d   1       4.068  -3.752  -8.780  0.00  0.00     0.033 H 
ATOM     35  H   LIG d   1       5.322  -3.741  -7.517  0.00  0.00     0.033 H 
ATOM     36  H   LIG d   1       3.727  -3.224  -7.193  0.00  0.00     0.033 H 
ENDBRANCH  12  33
ENDBRANCH  10  12
ENDBRANCH   7  10
ENDBRANCH   1   7
BRANCH   1  37
ATOM     37  N   LIG d   1       6.819   0.610  -5.793  0.00  0.00    -0.240 N 
ATOM     38  H   LIG d   1       6.047   1.150  -6.203  0.00  0.00     0.445 HD
BRANCH  37  39
ATOM     39  C   LIG d   1       7.064   0.674  -4.417  0.00  0.00     0.161 C 
BRANCH  39  40
ATOM     40  C   LIG d   1       6.172   0.070  -3.596  0.00  0.00     0.101 A 
ATOM     41  C   LIG d   1       5.283   0.737  -2.753  0.00  0.00     0.147 A 
ATOM     42  C   LIG d   1       4.440  -0.251  -1.992  0.00  0.00     0.010 A 
ATOM     43  O   LIG d   1       5.200   1.946  -2.649  0.00  0.00    -0.296 OA
ATOM     44  C   LIG d   1       4.885  -1.653  -2.431  0.00  0.00    -0.025 A 
ATOM     45  H   LIG d   1       3.470  -0.129  -2.199  0.00  0.00     0.035 H 
ATOM     46  H   LIG d   1       4.604  -0.128  -0.921  0.00  0.00     0.035 H 
ATOM     47  C   LIG d   1       6.001  -1.421  -3.460  0.00  0.00    -0.013 A 
ATOM     48  H   LIG d   1       4.966  -2.426  -1.667  0.00  0.00     0.031 H 
ATOM     49  C   LIG d   1       4.688  -2.064  -3.909  0.00  0.00    -0.027 A 
ATOM     50  H   LIG d   1       6.908  -2.025  -3.446  0.00  0.00     0.032 H 
ATOM     51  H   LIG d   1       5.309  -0.067  -4.085  0.00  0.00     0.049 H 
BRANCH  49  52
ATOM     52  C   LIG d   1       3.745  -1.219  -4.768  0.00  0.00    -0.059 C 
ATOM     53  H   LIG d   1       2.812  -1.057  -4.230  0.00  0.00     0.024 H 
ATOM     54  H   LIG d   1       4.212  -0.259  -4.984  0.00  0.00     0.024 H 
ATOM     55  H   LIG d   1       3.540  -1.741  -5.703  0.00  0.00     0.024 H 
ENDBRANCH  49  52
BRANCH  49  56
ATOM     56  C   LIG d   1       4.709  -3.561  -4.230  0.00  0.00    -0.059 C 
ATOM     57  H   LIG d   1       4.938  -3.702  -5.287  0.00  0.00     0.024 H 
ATOM     58  H   LIG d   1       5.470  -4.051  -3.625  0.00  0.00     0.024 H 
ATOM     59  H   LIG d   1       3.733  -3.993  -4.009  0.00  0.00     0.024 H 
ENDBRANCH  49  56
ENDBRANCH  39  40
BRANCH  39  60
ATOM     60  C   LIG d   1       8.262   1.381  -3.837  0.00  0.00     0.017 C 
ATOM     61  H   LIG d   1       8.714   2.016  -4.599  0.00  0.00     0.033 H 
ATOM     62  H   LIG d   1       7.948   1.995  -2.992  0.00  0.00     0.033 H 
ATOM     63  H   LIG d   1       8.931   0.705  -3.527  0.00  0.00     0.033 H 
ENDBRANCH  39  60
ENDBRANCH  37  39
ENDBRANCH   1  37
TORSDOF 14
ENDMDL
MODEL 7
REMARK VINA RESULT:      -5.8      2.462      4.062
REMARK  14 active torsions:
REMARK  status: ('A' for Active; 'I' for Inactive)
REMARK    1  A    between atoms: C_1  and  C_2 
REMARK    2  A    between atoms: C_2  and  C_4 
REMARK    3  A    between atoms: C_2  and  N_62 
REMARK    4  A    between atoms: C_4  and  N_60 
REMARK    5  A    between atoms: C_5  and  C_6 
REMARK    6  A    between atoms: C_5  and  C_17 
REMARK    7  A    between atoms: C_5  and  N_60 
REMARK    8  A    between atoms: C_11  and  C_12 
REMARK    9  A    between atoms: C_11  and  C_13 
REMARK   10  A    between atoms: C_18  and  C_19 
REMARK   11  A    between atoms: C_18  and  C_30 
REMARK   12  A    between atoms: C_18  and  N_62 
REMARK   13  A    between atoms: C_24  and  C_25 
REMARK   14  A    between atoms: C_24  and  C_26 
ROOT
ATOM      1  C   LIG d   1       3.682  -0.348  -5.270  0.00  0.00     0.208 C 
ATOM      2  H   LIG d   1       4.564   0.177  -4.902  0.00  0.00     0.113 H 
ENDROOT
BRANCH   1   3
ATOM      3  C   LIG d   1       2.441   0.514  -5.035  0.00  0.00     0.004 C 
ATOM      4  H   LIG d   1       2.575   1.103  -4.127  0.00  0.00     0.030 H 
ATOM      5  H   LIG d   1       2.296   1.182  -5.883  0.00  0.00     0.030 H 
ATOM      6  H   LIG d   1       1.568  -0.129  -4.926  0.00  0.00     0.030 H 
ENDBRANCH   1   3
BRANCH   1   7
ATOM      7  C   LIG d   1       3.839  -0.619  -6.768  0.00  0.00     0.204 C 
ATOM      8  H   LIG d   1       3.976  -1.687  -6.932  0.00  0.00     0.109 H 
ATOM      9  H   LIG d   1       4.708  -0.078  -7.146  0.00  0.00     0.109 H 
BRANCH   7  10
ATOM     10  N   LIG d   1       2.583  -0.135  -7.439  0.00  0.00    -0.242 N 
ATOM     11  H   LIG d   1       1.665  -0.409  -7.069  0.00  0.00     0.445 HD
BRANCH  10  12
ATOM     12  C   LIG d   1       2.665   0.686  -8.569  0.00  0.00     0.161 C 
BRANCH  12  13
ATOM     13  C   LIG d   1       2.630   0.082  -9.782  0.00  0.00     0.101 A 
ATOM     14  C   LIG d   1       3.594   0.244 -10.782  0.00  0.00     0.147 A 
ATOM     15  C   LIG d   1       3.230  -0.579 -11.990  0.00  0.00     0.010 A 
ATOM     16  O   LIG d   1       4.579   0.951 -10.696  0.00  0.00    -0.296 OA
ATOM     17  C   LIG d   1       1.920  -1.309 -11.663  0.00  0.00    -0.025 A 
ATOM     18  H   LIG d   1       3.945  -1.250 -12.190  0.00  0.00     0.035 H 
ATOM     19  H   LIG d   1       3.089   0.070 -12.853  0.00  0.00     0.035 H 
ATOM     20  C   LIG d   1       1.555  -0.870 -10.238  0.00  0.00    -0.013 A 
ATOM     21  H   LIG d   1       1.169  -1.370 -12.450  0.00  0.00     0.031 H 
ATOM     22  C   LIG d   1       1.913  -2.329 -10.522  0.00  0.00    -0.027 A 
ATOM     23  H   LIG d   1       0.526  -0.620  -9.978  0.00  0.00     0.032 H 
ATOM     24  H   LIG d   1       2.131   0.659 -10.428  0.00  0.00     0.049 H 
BRANCH  22  25
ATOM     25  C   LIG d   1       0.777  -3.354 -10.497  0.00  0.00    -0.059 C 
ATOM     26  H   LIG d   1      -0.178  -2.835 -10.429  0.00  0.00     0.024 H 
ATOM     27  H   LIG d   1       0.804  -3.947 -11.412  0.00  0.00     0.024 H 
ATOM     28  H   LIG d   1       0.899  -4.009  -9.635  0.00  0.00     0.024 H 
ENDBRANCH  22  25
BRANCH  22  29
ATOM     29  C   LIG d   1       3.268  -2.834 -10.020  0.00  0.00    -0.059 C 
ATOM     30  H   LIG d   1       3.465  -3.822 -10.438  0.00  0.00     0.024 H 
ATOM     31  H   LIG d   1       4.052  -2.144 -10.331  0.00  0.00     0.024 H 
ATOM     32  H   LIG d   1       3.250  -2.898  -8.932  0.00  0.00     0.024 H 
ENDBRANCH  22  29
ENDBRANCH  12  13
BRANCH  12  33
ATOM     33  C   LIG d   1       2.788   2.186  -8.476  0.00  0.00     0.017 C 
ATOM     34  H   LIG d   1       1.872   2.648  -8.842  0.00  0.00     0.033 H 
ATOM     35  H   LIG d   1       2.950   2.473  -7.437  0.00  0.00     0.033 H 
ATOM     36  H   LIG d   1       3.561   2.491  -9.032  0.00  0.00     0.033 H 
ENDBRANCH  12  33
ENDBRANCH  10  12
ENDBRANCH   7  10
ENDBRANCH   1   7
BRANCH   1  37
ATOM     37  N   LIG d   1       3.511  -1.678  -4.591  0.00  0.00    -0.240 N 
ATOM     38  H   LIG d   1       2.668  -2.239  -4.762  0.00  0.00     0.445 HD
BRANCH  37  39
ATOM     39  C   LIG d   1       4.502  -2.155  -3.725  0.00  0.00     0.161 C 
BRANCH  39  40
ATOM     40  C   LIG d   1       5.450  -2.968  -4.250  0.00  0.00     0.101 A 
ATOM     41  C   LIG d   1       5.191  -4.092  -5.036  0.00  0.00     0.147 A 
ATOM     42  C   LIG d   1       6.480  -4.752  -5.447  0.00  0.00     0.010 A 
ATOM     43  O   LIG d   1       4.082  -4.482  -5.345  0.00  0.00    -0.296 OA
ATOM     44  C   LIG d   1       7.622  -3.930  -4.832  0.00  0.00    -0.025 A 
ATOM     45  H   LIG d   1       6.576  -4.764  -6.442  0.00  0.00     0.035 H 
ATOM     46  H   LIG d   1       6.510  -5.773  -5.064  0.00  0.00     0.035 H 
ATOM     47  C   LIG d   1       6.935  -2.791  -4.065  0.00  0.00    -0.013 A 
ATOM     48  H   LIG d   1       8.471  -4.469  -4.411  0.00  0.00     0.031 H 
ATOM     49  C   LIG d   1       7.803  -2.461  -5.280  0.00  0.00    -0.027 A 
ATOM     50  H   LIG d   1       7.280  -2.498  -3.074  0.00  0.00     0.032 H 
ATOM     51  H   LIG d   1       5.715  -2.631  -5.154  0.00  0.00     0.049 H 
BRANCH  49  52
ATOM     52  C   LIG d   1       7.089  -2.009  -6.556  0.00  0.00    -0.059 C 
ATOM     53  H   LIG d   1       6.517  -1.105  -6.351  0.00  0.00     0.024 H 
ATOM     54  H   LIG d   1       7.827  -1.804  -7.332  0.00  0.00     0.024 H 
ATOM     55  H   LIG d   1       6.416  -2.797  -6.894  0.00  0.00     0.024 H 
ENDBRANCH  49  52
BRANCH  49  56
ATOM     56  C   LIG d   1       9.163  -1.810  -5.020  0.00  0.00    -0.059 C 
ATOM     57  H   LIG d   1       9.052  -1.021  -4.276  0.00  0.00     0.024 H 
ATOM     58  H   LIG d   1       9.860  -2.561  -4.651  0.00  0.00     0.024 H 
ATOM     59  H   LIG d   1       9.545  -1.383  -5.948  0.00  0.00     0.024 H 
ENDBRANCH  49  56
ENDBRANCH  39  40
BRANCH  39  60
ATOM     60  C   LIG d   1       4.543  -1.798  -2.262  0.00  0.00     0.017 C 
ATOM     61  H   LIG d   1       5.276  -2.426  -1.754  0.00  0.00     0.033 H 
ATOM     62  H   LIG d   1       4.825  -0.750  -2.151  0.00  0.00     0.033 H 
ATOM     63  H   LIG d   1       3.641  -1.944  -1.857  0.00  0.00     0.033 H 
ENDBRANCH  39  60
ENDBRANCH  37  39
ENDBRANCH   1  37
TORSDOF 14
ENDMDL
MODEL 8
REMARK VINA RESULT:      -5.8      3.097      7.324
REMARK  14 active torsions:
REMARK  status: ('A' for Active; 'I' for Inactive)
REMARK    1  A    between atoms: C_1  and  C_2 
REMARK    2  A    between atoms: C_2  and  C_4 
REMARK    3  A    between atoms: C_2  and  N_62 
REMARK    4  A    between atoms: C_4  and  N_60 
REMARK    5  A    between atoms: C_5  and  C_6 
REMARK    6  A    between atoms: C_5  and  C_17 
REMARK    7  A    between atoms: C_5  and  N_60 
REMARK    8  A    between atoms: C_11  and  C_12 
REMARK    9  A    between atoms: C_11  and  C_13 
REMARK   10  A    between atoms: C_18  and  C_19 
REMARK   11  A    between atoms: C_18  and  C_30 
REMARK   12  A    between atoms: C_18  and  N_62 
REMARK   13  A    between atoms: C_24  and  C_25 
REMARK   14  A    between atoms: C_24  and  C_26 
ROOT
ATOM      1  C   LIG d   1       4.323  -4.606  -7.956  0.00  0.00     0.208 C 
ATOM      2  H   LIG d   1       4.976  -5.258  -8.535  0.00  0.00     0.113 H 
ENDROOT
BRANCH   1   3
ATOM      3  C   LIG d   1       3.841  -5.346  -6.708  0.00  0.00     0.004 C 
ATOM      4  H   LIG d   1       2.959  -4.845  -6.306  0.00  0.00     0.030 H 
ATOM      5  H   LIG d   1       3.586  -6.373  -6.970  0.00  0.00     0.030 H 
ATOM      6  H   LIG d   1       4.631  -5.348  -5.958  0.00  0.00     0.030 H 
ENDBRANCH   1   3
BRANCH   1   7
ATOM      7  C   LIG d   1       5.094  -3.351  -7.539  0.00  0.00     0.204 C 
ATOM      8  H   LIG d   1       5.513  -2.872  -8.423  0.00  0.00     0.109 H 
ATOM      9  H   LIG d   1       5.900  -3.629  -6.860  0.00  0.00     0.109 H 
BRANCH   7  10
ATOM     10  N   LIG d   1       4.115  -2.438  -6.854  0.00  0.00    -0.242 N 
ATOM     11  H   LIG d   1       3.106  -2.565  -6.998  0.00  0.00     0.445 HD
BRANCH  10  12
ATOM     12  C   LIG d   1       4.579  -1.415  -6.020  0.00  0.00     0.161 C 
BRANCH  12  13
ATOM     13  C   LIG d   1       4.139  -1.408  -4.738  0.00  0.00     0.101 A 
ATOM     14  C   LIG d   1       4.307  -2.460  -3.831  0.00  0.00     0.147 A 
ATOM     15  C   LIG d   1       3.696  -2.100  -2.502  0.00  0.00     0.010 A 
ATOM     16  O   LIG d   1       4.860  -3.514  -4.077  0.00  0.00    -0.296 OA
ATOM     17  C   LIG d   1       3.114  -0.686  -2.639  0.00  0.00    -0.025 A 
ATOM     18  H   LIG d   1       4.387  -2.108  -1.779  0.00  0.00     0.035 H 
ATOM     19  H   LIG d   1       2.903  -2.805  -2.255  0.00  0.00     0.035 H 
ATOM     20  C   LIG d   1       3.414  -0.262  -4.083  0.00  0.00    -0.013 A 
ATOM     21  H   LIG d   1       2.146  -0.493  -2.178  0.00  0.00     0.031 H 
ATOM     22  C   LIG d   1       4.071   0.477  -2.916  0.00  0.00    -0.027 A 
ATOM     23  H   LIG d   1       2.662   0.257  -4.680  0.00  0.00     0.032 H 
ATOM     24  H   LIG d   1       3.209  -1.772  -4.702  0.00  0.00     0.049 H 
BRANCH  22  25
ATOM     25  C   LIG d   1       3.574   1.890  -2.604  0.00  0.00    -0.059 C 
ATOM     26  H   LIG d   1       4.236   2.619  -3.070  0.00  0.00     0.024 H 
ATOM     27  H   LIG d   1       2.564   2.014  -2.996  0.00  0.00     0.024 H 
ATOM     28  H   LIG d   1       3.566   2.042  -1.525  0.00  0.00     0.024 H 
ENDBRANCH  22  25
BRANCH  22  29
ATOM     29  C   LIG d   1       5.563   0.235  -2.678  0.00  0.00    -0.059 C 
ATOM     30  H   LIG d   1       6.083   0.204  -3.636  0.00  0.00     0.024 H 
ATOM     31  H   LIG d   1       5.970   1.043  -2.069  0.00  0.00     0.024 H 
ATOM     32  H   LIG d   1       5.699  -0.714  -2.160  0.00  0.00     0.024 H 
ENDBRANCH  22  29
ENDBRANCH  12  13
BRANCH  12  33
ATOM     33  C   LIG d   1       5.529  -0.346  -6.497  0.00  0.00     0.017 C 
ATOM     34  H   LIG d   1       6.533  -0.761  -6.573  0.00  0.00     0.033 H 
ATOM     35  H   LIG d   1       5.210   0.013  -7.476  0.00  0.00     0.033 H 
ATOM     36  H   LIG d   1       5.530   0.413  -5.846  0.00  0.00     0.033 H 
ENDBRANCH  12  33
ENDBRANCH  10  12
ENDBRANCH   7  10
ENDBRANCH   1   7
BRANCH   1  37
ATOM     37  N   LIG d   1       3.139  -4.155  -8.766  0.00  0.00    -0.240 N 
ATOM     38  H   LIG d   1       2.241  -3.967  -8.304  0.00  0.00     0.445 HD
BRANCH  37  39
ATOM     39  C   LIG d   1       3.261  -3.990 -10.151  0.00  0.00     0.161 C 
BRANCH  39  40
ATOM     40  C   LIG d   1       2.614  -2.940 -10.712  0.00  0.00     0.101 A 
ATOM     41  C   LIG d   1       1.229  -2.834 -10.845  0.00  0.00     0.147 A 
ATOM     42  C   LIG d   1       0.865  -1.534 -11.511  0.00  0.00     0.010 A 
ATOM     43  O   LIG d   1       0.430  -3.671 -10.473  0.00  0.00    -0.296 OA
ATOM     44  C   LIG d   1       2.179  -0.798 -11.808  0.00  0.00    -0.025 A 
ATOM     45  H   LIG d   1       0.296  -0.971 -10.913  0.00  0.00     0.035 H 
ATOM     46  H   LIG d   1       0.332  -1.734 -12.441  0.00  0.00     0.035 H 
ATOM     47  C   LIG d   1       3.289  -1.724 -11.289  0.00  0.00    -0.013 A 
ATOM     48  H   LIG d   1       2.269  -0.280 -12.763  0.00  0.00     0.031 H 
ATOM     49  C   LIG d   1       3.071  -0.365 -10.622  0.00  0.00    -0.027 A 
ATOM     50  H   LIG d   1       4.196  -1.887 -11.870  0.00  0.00     0.032 H 
ATOM     51  H   LIG d   1       2.409  -2.260 -10.009  0.00  0.00     0.049 H 
BRANCH  49  52
ATOM     52  C   LIG d   1       2.449  -0.356  -9.224  0.00  0.00    -0.059 C 
ATOM     53  H   LIG d   1       2.891  -1.151  -8.624  0.00  0.00     0.024 H 
ATOM     54  H   LIG d   1       2.637   0.606  -8.748  0.00  0.00     0.024 H 
ATOM     55  H   LIG d   1       1.373  -0.517  -9.305  0.00  0.00     0.024 H 
ENDBRANCH  49  52
BRANCH  49  56
ATOM     56  C   LIG d   1       4.110   0.727 -10.887  0.00  0.00    -0.059 C 
ATOM     57  H   LIG d   1       4.302   1.277  -9.965  0.00  0.00     0.024 H 
ATOM     58  H   LIG d   1       5.036   0.270 -11.235  0.00  0.00     0.024 H 
ATOM     59  H   LIG d   1       3.733   1.411 -11.647  0.00  0.00     0.024 H 
ENDBRANCH  49  56
ENDBRANCH  39  40
BRANCH  39  60
ATOM     60  C   LIG d   1       4.069  -4.926 -11.012  0.00  0.00     0.017 C 
ATOM     61  H   LIG d   1       4.390  -4.403 -11.914  0.00  0.00     0.033 H 
ATOM     62  H   LIG d   1       4.945  -5.265 -10.457  0.00  0.00     0.033 H 
ATOM     63  H   LIG d   1       3.510  -5.715 -11.265  0.00  0.00     0.033 H 
ENDBRANCH  39  60
ENDBRANCH  37  39
ENDBRANCH   1  37
TORSDOF 14
ENDMDL
MODEL 9
REMARK VINA RESULT:      -5.8      1.977      6.029
REMARK  14 active torsions:
REMARK  status: ('A' for Active; 'I' for Inactive)
REMARK    1  A    between atoms: C_1  and  C_2 
REMARK    2  A    between atoms: C_2  and  C_4 
REMARK    3  A    between atoms: C_2  and  N_62 
REMARK    4  A    between atoms: C_4  and  N_60 
REMARK    5  A    between atoms: C_5  and  C_6 
REMARK    6  A    between atoms: C_5  and  C_17 
REMARK    7  A    between atoms: C_5  and  N_60 
REMARK    8  A    between atoms: C_11  and  C_12 
REMARK    9  A    between atoms: C_11  and  C_13 
REMARK   10  A    between atoms: C_18  and  C_19 
REMARK   11  A    between atoms: C_18  and  C_30 
REMARK   12  A    between atoms: C_18  and  N_62 
REMARK   13  A    between atoms: C_24  and  C_25 
REMARK   14  A    between atoms: C_24  and  C_26 
ROOT
ATOM      1  C   LIG d   1       7.702  -2.971  -8.020  0.00  0.00     0.208 C 
ATOM      2  H   LIG d   1       8.242  -2.218  -8.594  0.00  0.00     0.113 H 
ENDROOT
BRANCH   1   3
ATOM      3  C   LIG d   1       8.002  -4.358  -8.588  0.00  0.00     0.004 C 
ATOM      4  H   LIG d   1       7.092  -4.781  -9.014  0.00  0.00     0.030 H 
ATOM      5  H   LIG d   1       8.762  -4.276  -9.366  0.00  0.00     0.030 H 
ATOM      6  H   LIG d   1       8.367  -5.007  -7.792  0.00  0.00     0.030 H 
ENDBRANCH   1   3
BRANCH   1   7
ATOM      7  C   LIG d   1       8.147  -2.911  -6.557  0.00  0.00     0.204 C 
ATOM      8  H   LIG d   1       9.232  -2.831  -6.510  0.00  0.00     0.109 H 
ATOM      9  H   LIG d   1       7.828  -3.818  -6.043  0.00  0.00     0.109 H 
BRANCH   7  10
ATOM     10  N   LIG d   1       7.498  -1.700  -5.946  0.00  0.00    -0.242 N 
ATOM     11  H   LIG d   1       7.468  -0.815  -6.467  0.00  0.00     0.445 HD
BRANCH  10  12
ATOM     12  C   LIG d   1       6.937  -1.778  -4.667  0.00  0.00     0.161 C 
BRANCH  12  13
ATOM     13  C   LIG d   1       5.677  -1.302  -4.509  0.00  0.00     0.101 A 
ATOM     14  C   LIG d   1       4.522  -1.926  -4.991  0.00  0.00     0.147 A 
ATOM     15  C   LIG d   1       3.306  -1.116  -4.628  0.00  0.00     0.010 A 
ATOM     16  O   LIG d   1       4.500  -2.968  -5.618  0.00  0.00    -0.296 OA
ATOM     17  C   LIG d   1       3.795   0.109  -3.842  0.00  0.00    -0.025 A 
ATOM     18  H   LIG d   1       2.681  -1.650  -4.058  0.00  0.00     0.035 H 
ATOM     19  H   LIG d   1       2.789  -0.796  -5.532  0.00  0.00     0.035 H 
ATOM     20  C   LIG d   1       5.322  -0.034  -3.777  0.00  0.00    -0.013 A 
ATOM     21  H   LIG d   1       3.322   1.067  -4.057  0.00  0.00     0.031 H 
ATOM     22  C   LIG d   1       4.490  -0.112  -2.497  0.00  0.00    -0.027 A 
ATOM     23  H   LIG d   1       5.970   0.828  -3.934  0.00  0.00     0.032 H 
ATOM     24  H   LIG d   1       5.449  -0.702  -5.275  0.00  0.00     0.049 H 
BRANCH  22  25
ATOM     25  C   LIG d   1       4.560   1.075  -1.534  0.00  0.00    -0.059 C 
ATOM     26  H   LIG d   1       5.476   1.013  -0.947  0.00  0.00     0.024 H 
ATOM     27  H   LIG d   1       4.556   2.005  -2.104  0.00  0.00     0.024 H 
ATOM     28  H   LIG d   1       3.698   1.053  -0.868  0.00  0.00     0.024 H 
ENDBRANCH  22  25
BRANCH  22  29
ATOM     29  C   LIG d   1       4.333  -1.485  -1.839  0.00  0.00    -0.059 C 
ATOM     30  H   LIG d   1       3.661  -2.101  -2.439  0.00  0.00     0.024 H 
ATOM     31  H   LIG d   1       5.307  -1.970  -1.773  0.00  0.00     0.024 H 
ATOM     32  H   LIG d   1       3.919  -1.364  -0.839  0.00  0.00     0.024 H 
ENDBRANCH  22  29
ENDBRANCH  12  13
BRANCH  12  33
ATOM     33  C   LIG d   1       7.676  -2.360  -3.489  0.00  0.00     0.017 C 
ATOM     34  H   LIG d   1       6.962  -2.644  -2.717  0.00  0.00     0.033 H 
ATOM     35  H   LIG d   1       8.234  -3.240  -3.809  0.00  0.00     0.033 H 
ATOM     36  H   LIG d   1       8.309  -1.678  -3.123  0.00  0.00     0.033 H 
ENDBRANCH  12  33
ENDBRANCH  10  12
ENDBRANCH   7  10
ENDBRANCH   1   7
BRANCH   1  37
ATOM     37  N   LIG d   1       6.219  -2.723  -8.047  0.00  0.00    -0.240 N 
ATOM     38  H   LIG d   1       5.614  -3.149  -7.335  0.00  0.00     0.445 HD
BRANCH  37  39
ATOM     39  C   LIG d   1       5.663  -1.910  -9.041  0.00  0.00     0.161 C 
BRANCH  39  40
ATOM     40  C   LIG d   1       4.637  -1.101  -8.684  0.00  0.00     0.101 A 
ATOM     41  C   LIG d   1       4.764   0.060  -7.920  0.00  0.00     0.147 A 
ATOM     42  C   LIG d   1       3.419   0.706  -7.720  0.00  0.00     0.010 A 
ATOM     43  O   LIG d   1       5.812   0.489  -7.479  0.00  0.00    -0.296 OA
ATOM     44  C   LIG d   1       2.387  -0.174  -8.441  0.00  0.00    -0.025 A 
ATOM     45  H   LIG d   1       3.402   1.626  -8.110  0.00  0.00     0.035 H 
ATOM     46  H   LIG d   1       3.187   0.753  -6.656  0.00  0.00     0.035 H 
ATOM     47  C   LIG d   1       3.194  -1.331  -9.049  0.00  0.00    -0.013 A 
ATOM     48  H   LIG d   1       1.429  -0.344  -7.950  0.00  0.00     0.031 H 
ATOM     49  C   LIG d   1       2.493  -0.335  -9.976  0.00  0.00    -0.027 A 
ATOM     50  H   LIG d   1       2.825  -2.355  -8.999  0.00  0.00     0.032 H 
ATOM     51  H   LIG d   1       4.506  -0.400  -9.384  0.00  0.00     0.049 H 
BRANCH  49  52
ATOM     52  C   LIG d   1       3.372   0.656 -10.741  0.00  0.00    -0.059 C 
ATOM     53  H   LIG d   1       2.893   0.912 -11.686  0.00  0.00     0.024 H 
ATOM     54  H   LIG d   1       3.505   1.559 -10.145  0.00  0.00     0.024 H 
ATOM     55  H   LIG d   1       4.344   0.203 -10.937  0.00  0.00     0.024 H 
ENDBRANCH  49  52
BRANCH  49  56
ATOM     56  C   LIG d   1       1.246  -0.820 -10.719  0.00  0.00    -0.059 C 
ATOM     57  H   LIG d   1       1.473  -1.747 -11.244  0.00  0.00     0.024 H 
ATOM     58  H   LIG d   1       0.443  -0.996 -10.003  0.00  0.00     0.024 H 
ATOM     59  H   LIG d   1       0.934  -0.062 -11.437  0.00  0.00     0.024 H 
ENDBRANCH  49  56
ENDBRANCH  39  40
BRANCH  39  60
ATOM     60  C   LIG d   1       6.162  -1.911 -10.463  0.00  0.00     0.017 C 
ATOM     61  H   LIG d   1       5.699  -2.732 -11.010  0.00  0.00     0.033 H 
ATOM     62  H   LIG d   1       5.902  -0.964 -10.940  0.00  0.00     0.033 H 
ATOM     63  H   LIG d   1       7.155  -2.024 -10.469  0.00  0.00     0.033 H 
ENDBRANCH  39  60
ENDBRANCH  37  39
ENDBRANCH   1  37
TORSDOF 14
ENDMDL
MODEL 10
REMARK VINA RESULT:      -5.8      5.013      7.889
REMARK  14 active torsions:
REMARK  status: ('A' for Active; 'I' for Inactive)
REMARK    1  A    between atoms: C_1  and  C_2 
REMARK    2  A    between atoms: C_2  and  C_4 
REMARK    3  A    between atoms: C_2  and  N_62 
REMARK    4  A    between atoms: C_4  and  N_60 
REMARK    5  A    between atoms: C_5  and  C_6 
REMARK    6  A    between atoms: C_5  and  C_17 
REMARK    7  A    between atoms: C_5  and  N_60 
REMARK    8  A    between atoms: C_11  and  C_12 
REMARK    9  A    between atoms: C_11  and  C_13 
REMARK   10  A    between atoms: C_18  and  C_19 
REMARK   11  A    between atoms: C_18  and  C_30 
REMARK   12  A    between atoms: C_18  and  N_62 
REMARK   13  A    between atoms: C_24  and  C_25 
REMARK   14  A    between atoms: C_24  and  C_26 
ROOT
ATOM      1  C   LIG d   1       9.673   3.351  -3.357  0.00  0.00     0.208 C 
ATOM      2  H   LIG d   1       9.231   3.713  -2.430  0.00  0.00     0.113 H 
ENDROOT
BRANCH   1   3
ATOM      3  C   LIG d   1      10.798   2.367  -3.035  0.00  0.00     0.004 C 
ATOM      4  H   LIG d   1      11.754   2.892  -3.044  0.00  0.00     0.030 H 
ATOM      5  H   LIG d   1      10.632   1.934  -2.048  0.00  0.00     0.030 H 
ATOM      6  H   LIG d   1      10.812   1.573  -3.781  0.00  0.00     0.030 H 
ENDBRANCH   1   3
BRANCH   1   7
ATOM      7  C   LIG d   1       8.601   2.645  -4.191  0.00  0.00     0.204 C 
ATOM      8  H   LIG d   1       9.003   2.410  -5.176  0.00  0.00     0.109 H 
ATOM      9  H   LIG d   1       7.735   3.299  -4.298  0.00  0.00     0.109 H 
BRANCH   7  10
ATOM     10  N   LIG d   1       8.227   1.387  -3.457  0.00  0.00    -0.242 N 
ATOM     11  H   LIG d   1       8.498   1.266  -2.474  0.00  0.00     0.445 HD
BRANCH  10  12
ATOM     12  C   LIG d   1       7.511   0.380  -4.114  0.00  0.00     0.161 C 
BRANCH  12  13
ATOM     13  C   LIG d   1       6.474  -0.183  -3.448  0.00  0.00     0.101 A 
ATOM     14  C   LIG d   1       5.544   0.521  -2.676  0.00  0.00     0.147 A 
ATOM     15  C   LIG d   1       4.534  -0.429  -2.089  0.00  0.00     0.010 A 
ATOM     16  O   LIG d   1       5.552   1.723  -2.497  0.00  0.00    -0.296 OA
ATOM     17  C   LIG d   1       4.902  -1.838  -2.573  0.00  0.00    -0.025 A 
ATOM     18  H   LIG d   1       3.610  -0.201  -2.398  0.00  0.00     0.035 H 
ATOM     19  H   LIG d   1       4.574  -0.387  -1.001  0.00  0.00     0.035 H 
ATOM     20  C   LIG d   1       6.150  -1.654  -3.447  0.00  0.00    -0.013 A 
ATOM     21  H   LIG d   1       4.825  -2.654  -1.854  0.00  0.00     0.031 H 
ATOM     22  C   LIG d   1       4.841  -2.138  -4.073  0.00  0.00    -0.027 A 
ATOM     23  H   LIG d   1       6.988  -2.348  -3.375  0.00  0.00     0.032 H 
ATOM     24  H   LIG d   1       6.768  -0.438  -2.528  0.00  0.00     0.049 H 
BRANCH  22  25
ATOM     25  C   LIG d   1       4.760  -3.605  -4.498  0.00  0.00    -0.059 C 
ATOM     26  H   LIG d   1       4.178  -4.164  -3.765  0.00  0.00     0.024 H 
ATOM     27  H   LIG d   1       4.279  -3.674  -5.474  0.00  0.00     0.024 H 
ATOM     28  H   LIG d   1       5.766  -4.021  -4.558  0.00  0.00     0.024 H 
ENDBRANCH  22  25
BRANCH  22  29
ATOM     29  C   LIG d   1       4.076  -1.152  -4.959  0.00  0.00    -0.059 C 
ATOM     30  H   LIG d   1       4.374  -1.291  -5.998  0.00  0.00     0.024 H 
ATOM     31  H   LIG d   1       3.005  -1.330  -4.861  0.00  0.00     0.024 H 
ATOM     32  H   LIG d   1       4.305  -0.132  -4.649  0.00  0.00     0.024 H 
ENDBRANCH  22  29
ENDBRANCH  12  13
BRANCH  12  33
ATOM     33  C   LIG d   1       7.854  -0.083  -5.507  0.00  0.00     0.017 C 
ATOM     34  H   LIG d   1       8.749   0.434  -5.852  0.00  0.00     0.033 H 
ATOM     35  H   LIG d   1       8.037  -1.158  -5.498  0.00  0.00     0.033 H 
ATOM     36  H   LIG d   1       7.093   0.121  -6.123  0.00  0.00     0.033 H 
ENDBRANCH  12  33
ENDBRANCH  10  12
ENDBRANCH   7  10
ENDBRANCH   1   7
BRANCH   1  37
ATOM     37  N   LIG d   1      10.213   4.483  -4.187  0.00  0.00    -0.240 N 
ATOM     38  H   LIG d   1      10.808   4.286  -5.000  0.00  0.00     0.445 HD
BRANCH  37  39
ATOM     39  C   LIG d   1       9.902   5.806  -3.852  0.00  0.00     0.161 C 
BRANCH  39  40
ATOM     40  C   LIG d   1      10.307   6.253  -2.639  0.00  0.00     0.101 A 
ATOM     41  C   LIG d   1      11.586   6.075  -2.109  0.00  0.00     0.147 A 
ATOM     42  C   LIG d   1      11.679   6.705  -0.744  0.00  0.00     0.010 A 
ATOM     43  O   LIG d   1      12.496   5.497  -2.670  0.00  0.00    -0.296 OA
ATOM     44  C   LIG d   1      10.304   7.314  -0.436  0.00  0.00    -0.025 A 
ATOM     45  H   LIG d   1      12.373   7.424  -0.727  0.00  0.00     0.035 H 
ATOM     46  H   LIG d   1      11.923   5.943  -0.003  0.00  0.00     0.035 H 
ATOM     47  C   LIG d   1       9.438   7.007  -1.667  0.00  0.00    -0.013 A 
ATOM     48  H   LIG d   1       9.913   7.207   0.576  0.00  0.00     0.031 H 
ATOM     49  C   LIG d   1       9.782   8.460  -1.334  0.00  0.00    -0.027 A 
ATOM     50  H   LIG d   1       8.409   6.669  -1.554  0.00  0.00     0.032 H 
ATOM     51  H   LIG d   1      10.679   7.177  -2.731  0.00  0.00     0.049 H 
BRANCH  49  52
ATOM     52  C   LIG d   1      10.787   9.174  -2.240  0.00  0.00    -0.059 C 
ATOM     53  H   LIG d   1      11.136   8.485  -3.008  0.00  0.00     0.024 H 
ATOM     54  H   LIG d   1      10.307  10.031  -2.711  0.00  0.00     0.024 H 
ATOM     55  H   LIG d   1      11.635   9.514  -1.644  0.00  0.00     0.024 H 
ENDBRANCH  49  52
BRANCH  49  56
ATOM     56  C   LIG d   1       8.663   9.339  -0.770  0.00  0.00    -0.059 C 
ATOM     57  H   LIG d   1       7.968   8.721  -0.201  0.00  0.00     0.024 H 
ATOM     58  H   LIG d   1       9.092  10.098  -0.117  0.00  0.00     0.024 H 
ATOM     59  H   LIG d   1       8.132   9.821  -1.591  0.00  0.00     0.024 H 
ENDBRANCH  49  56
ENDBRANCH  39  40
BRANCH  39  60
ATOM     60  C   LIG d   1       9.149   6.723  -4.780  0.00  0.00     0.017 C 
ATOM     61  H   LIG d   1       9.844   7.427  -5.240  0.00  0.00     0.033 H 
ATOM     62  H   LIG d   1       8.662   6.133  -5.558  0.00  0.00     0.033 H 
ATOM     63  H   LIG d   1       8.457   7.227  -4.263  0.00  0.00     0.033 H 
ENDBRANCH  39  60
ENDBRANCH  37  39
ENDBRANCH   1  37
TORSDOF 14
ENDMDL
