MODEL 1
REMARK VINA RESULT:      -7.1      0.000      0.000
REMARK  6 active torsions:
REMARK  status: ('A' for Active; 'I' for Inactive)
REMARK    1  A    between atoms: C_1  and  C_2 
REMARK    2  A    between atoms: C_9  and  C_27 
REMARK    3  A    between atoms: C_10  and  C_16 
REMARK    4  A    between atoms: C_16  and  C_17 
REMARK       I    between atoms: C_17  and  N_19 
REMARK    5  A    between atoms: N_19  and  C_20 
REMARK    6  A    between atoms: C_20  and  C_21 
ROOT
ATOM      1  C   LIG d   1      -0.311  -5.435 -11.494  0.00  0.00    -0.005 A 
ATOM      2  C   LIG d   1      -0.057  -6.739 -11.325  0.00  0.00     0.096 A 
ATOM      3  O   LIG d   1       1.041  -6.905 -10.567  0.00  0.00    -0.463 OA
ATOM      4  C   LIG d   1       1.560  -5.714 -10.201  0.00  0.00     0.139 A 
ATOM      5  C   LIG d   1       0.740  -4.714 -10.763  0.00  0.00     0.024 A 
ATOM      6  C   LIG d   1       1.026  -3.372 -10.558  0.00  0.00    -0.040 A 
ATOM      7  C   LIG d   1       2.135  -3.020  -9.789  0.00  0.00     0.022 A 
ATOM      8  C   LIG d   1       2.467  -1.612  -9.553  0.00  0.00    -0.029 A 
ATOM      9  C   LIG d   1       3.559  -1.328  -8.797  0.00  0.00     0.049 A 
ATOM     10  C   LIG d   1       4.340  -2.379  -8.270  0.00  0.00     0.341 A 
ATOM     11  O   LIG d   1       5.319  -2.110  -7.597  0.00  0.00    -0.245 OA
ATOM     12  O   LIG d   1       4.029  -3.665  -8.485  0.00  0.00    -0.422 OA
ATOM     13  C   LIG d   1       2.955  -4.020  -9.228  0.00  0.00     0.143 A 
ATOM     14  C   LIG d   1       2.662  -5.355  -9.439  0.00  0.00     0.024 A 
ATOM     15  H   LIG d   1      -0.648  -7.541 -11.739  0.00  0.00     0.103 H 
ATOM     16  H   LIG d   1       0.396  -2.607 -10.990  0.00  0.00     0.063 H 
ATOM     17  H   LIG d   1       3.291  -6.121  -9.008  0.00  0.00     0.069 H 
ENDROOT
BRANCH   9  18
ATOM     18  C   LIG d   1       3.939   0.105  -8.526  0.00  0.00     0.056 C 
ATOM     19  H   LIG d   1       3.701   0.715  -9.398  0.00  0.00     0.041 H 
ATOM     20  H   LIG d   1       5.008   0.165  -8.323  0.00  0.00     0.041 H 
BRANCH  18  21
ATOM     21  C   LIG d   1       3.172   0.613  -7.333  0.00  0.00     0.218 C 
ATOM     22  O   LIG d   1       2.812   1.770  -7.292  0.00  0.00    -0.275 OA
ATOM     23  N   LIG d   1       2.888  -0.219  -6.311  0.00  0.00    -0.309 N 
ATOM     24  H   LIG d   1       3.175  -1.145  -6.344  0.00  0.00     0.149 HD
BRANCH  23  25
ATOM     25  C   LIG d   1       2.142   0.275  -5.152  0.00  0.00     0.054 C 
ATOM     26  H   LIG d   1       1.276  -0.363  -4.977  0.00  0.00     0.053 H 
ATOM     27  H   LIG d   1       1.811   1.296  -5.341  0.00  0.00     0.053 H 
BRANCH  25  28
ATOM     28  C   LIG d   1       3.033   0.254  -3.936  0.00  0.00     0.058 A 
ATOM     29  N   LIG d   1       3.647   1.357  -3.559  0.00  0.00    -0.258 NA
ATOM     30  C   LIG d   1       4.431   1.389  -2.499  0.00  0.00     0.028 A 
ATOM     31  C   LIG d   1       4.646   0.250  -1.746  0.00  0.00    -0.044 A 
ATOM     32  H   LIG d   1       4.915   2.313  -2.219  0.00  0.00     0.083 H 
ATOM     33  C   LIG d   1       4.016  -0.931  -2.111  0.00  0.00    -0.059 A 
ATOM     34  H   LIG d   1       5.293   0.280  -0.882  0.00  0.00     0.063 H 
ATOM     35  C   LIG d   1       3.195  -0.923  -3.228  0.00  0.00    -0.039 A 
ATOM     36  H   LIG d   1       4.162  -1.835  -1.539  0.00  0.00     0.062 H 
ATOM     37  H   LIG d   1       2.689  -1.823  -3.541  0.00  0.00     0.064 H 
ENDBRANCH  25  28
ENDBRANCH  23  25
ENDBRANCH  18  21
ENDBRANCH   9  18
BRANCH   8  38
ATOM     38  C   LIG d   1       1.620  -0.508 -10.132  0.00  0.00    -0.038 C 
ATOM     39  H   LIG d   1       1.038  -0.897 -10.967  0.00  0.00     0.028 H 
ATOM     40  H   LIG d   1       0.945  -0.127  -9.365  0.00  0.00     0.028 H 
ATOM     41  H   LIG d   1       2.263   0.299 -10.483  0.00  0.00     0.028 H 
ENDBRANCH   8  38
BRANCH   1  42
ATOM     42  C   LIG d   1      -1.449  -4.830 -12.276  0.00  0.00    -0.036 C 
ATOM     43  H   LIG d   1      -1.791  -5.539 -13.028  0.00  0.00     0.028 H 
ATOM     44  H   LIG d   1      -2.270  -4.593 -11.600  0.00  0.00     0.028 H 
ATOM     45  H   LIG d   1      -1.106  -3.917 -12.766  0.00  0.00     0.028 H 
ENDBRANCH   1  42
TORSDOF 6
ENDMDL
MODEL 2
REMARK VINA RESULT:      -6.9      2.928      3.645
REMARK  6 active torsions:
REMARK  status: ('A' for Active; 'I' for Inactive)
REMARK    1  A    between atoms: C_1  and  C_2 
REMARK    2  A    between atoms: C_9  and  C_27 
REMARK    3  A    between atoms: C_10  and  C_16 
REMARK    4  A    between atoms: C_16  and  C_17 
REMARK       I    between atoms: C_17  and  N_19 
REMARK    5  A    between atoms: N_19  and  C_20 
REMARK    6  A    between atoms: C_20  and  C_21 
ROOT
ATOM      1  C   LIG d   1       1.843  -2.909 -14.473  0.00  0.00    -0.005 A 
ATOM      2  C   LIG d   1       2.622  -2.866 -15.561  0.00  0.00     0.096 A 
ATOM      3  O   LIG d   1       3.638  -2.005 -15.373  0.00  0.00    -0.463 OA
ATOM      4  C   LIG d   1       3.573  -1.442 -14.149  0.00  0.00     0.139 A 
ATOM      5  C   LIG d   1       2.437  -1.976 -13.506  0.00  0.00     0.024 A 
ATOM      6  C   LIG d   1       2.107  -1.581 -12.217  0.00  0.00    -0.040 A 
ATOM      7  C   LIG d   1       2.910  -0.647 -11.563  0.00  0.00     0.022 A 
ATOM      8  C   LIG d   1       2.590  -0.206 -10.202  0.00  0.00    -0.029 A 
ATOM      9  C   LIG d   1       3.406   0.705  -9.614  0.00  0.00     0.049 A 
ATOM     10  C   LIG d   1       4.524   1.204 -10.318  0.00  0.00     0.341 A 
ATOM     11  O   LIG d   1       5.245   2.024  -9.780  0.00  0.00    -0.245 OA
ATOM     12  O   LIG d   1       4.815   0.794 -11.561  0.00  0.00    -0.422 OA
ATOM     13  C   LIG d   1       4.045  -0.112 -12.206  0.00  0.00     0.143 A 
ATOM     14  C   LIG d   1       4.365  -0.513 -13.491  0.00  0.00     0.024 A 
ATOM     15  H   LIG d   1       2.458  -3.440 -16.461  0.00  0.00     0.103 H 
ATOM     16  H   LIG d   1       1.237  -1.992 -11.727  0.00  0.00     0.063 H 
ATOM     17  H   LIG d   1       5.235  -0.102 -13.983  0.00  0.00     0.069 H 
ENDROOT
BRANCH   9  18
ATOM     18  C   LIG d   1       3.117   1.188  -8.215  0.00  0.00     0.056 C 
ATOM     19  H   LIG d   1       2.040   1.280  -8.078  0.00  0.00     0.041 H 
ATOM     20  H   LIG d   1       3.587   2.159  -8.062  0.00  0.00     0.041 H 
BRANCH  18  21
ATOM     21  C   LIG d   1       3.668   0.201  -7.219  0.00  0.00     0.218 C 
ATOM     22  O   LIG d   1       4.766  -0.286  -7.392  0.00  0.00    -0.275 OA
ATOM     23  N   LIG d   1       2.941  -0.141  -6.137  0.00  0.00    -0.309 N 
ATOM     24  H   LIG d   1       2.064   0.248  -5.998  0.00  0.00     0.149 HD
BRANCH  23  25
ATOM     25  C   LIG d   1       3.478  -1.100  -5.168  0.00  0.00     0.054 C 
ATOM     26  H   LIG d   1       4.373  -1.568  -5.577  0.00  0.00     0.053 H 
ATOM     27  H   LIG d   1       2.729  -1.865  -4.961  0.00  0.00     0.053 H 
BRANCH  25  28
ATOM     28  C   LIG d   1       3.827  -0.381  -3.890  0.00  0.00     0.058 A 
ATOM     29  N   LIG d   1       3.687   0.928  -3.820  0.00  0.00    -0.258 NA
ATOM     30  C   LIG d   1       3.974   1.599  -2.721  0.00  0.00     0.028 A 
ATOM     31  C   LIG d   1       4.447   0.946  -1.599  0.00  0.00    -0.044 A 
ATOM     32  H   LIG d   1       3.843   2.670  -2.700  0.00  0.00     0.083 H 
ATOM     33  C   LIG d   1       4.607  -0.431  -1.634  0.00  0.00    -0.059 A 
ATOM     34  H   LIG d   1       4.685   1.501  -0.703  0.00  0.00     0.063 H 
ATOM     35  C   LIG d   1       4.289  -1.103  -2.805  0.00  0.00    -0.039 A 
ATOM     36  H   LIG d   1       4.970  -0.968  -0.771  0.00  0.00     0.062 H 
ATOM     37  H   LIG d   1       4.402  -2.174  -2.869  0.00  0.00     0.064 H 
ENDBRANCH  25  28
ENDBRANCH  23  25
ENDBRANCH  18  21
ENDBRANCH   9  18
BRANCH   8  38
ATOM     38  C   LIG d   1       1.387  -0.750  -9.474  0.00  0.00    -0.038 C 
ATOM     39  H   LIG d   1       0.758  -1.301 -10.173  0.00  0.00     0.028 H 
ATOM     40  H   LIG d   1       1.716  -1.417  -8.677  0.00  0.00     0.028 H 
ATOM     41  H   LIG d   1       0.818   0.075  -9.045  0.00  0.00     0.028 H 
ENDBRANCH   8  38
BRANCH   1  42
ATOM     42  C   LIG d   1       0.606  -3.747 -14.280  0.00  0.00    -0.036 C 
ATOM     43  H   LIG d   1       0.892  -4.777 -14.069  0.00  0.00     0.028 H 
ATOM     44  H   LIG d   1       0.027  -3.354 -13.444  0.00  0.00     0.028 H 
ATOM     45  H   LIG d   1       0.001  -3.716 -15.187  0.00  0.00     0.028 H 
ENDBRANCH   1  42
TORSDOF 6
ENDMDL
MODEL 3
REMARK VINA RESULT:      -6.9      1.528      2.589
REMARK  6 active torsions:
REMARK  status: ('A' for Active; 'I' for Inactive)
REMARK    1  A    between atoms: C_1  and  C_2 
REMARK    2  A    between atoms: C_9  and  C_27 
REMARK    3  A    between atoms: C_10  and  C_16 
REMARK    4  A    between atoms: C_16  and  C_17 
REMARK       I    between atoms: C_17  and  N_19 
REMARK    5  A    between atoms: N_19  and  C_20 
REMARK    6  A    between atoms: C_20  and  C_21 
ROOT
ATOM      1  C   LIG d   1       2.400  -7.368  -9.901  0.00  0.00    -0.005 A 
ATOM      2  C   LIG d   1       1.326  -7.774 -10.589  0.00  0.00     0.096 A 
ATOM      3  O   LIG d   1       0.595  -6.714 -10.980  0.00  0.00    -0.463 OA
ATOM      4  C   LIG d   1       1.159  -5.560 -10.565  0.00  0.00     0.139 A 
ATOM      5  C   LIG d   1       2.331  -5.901  -9.859  0.00  0.00     0.024 A 
ATOM      6  C   LIG d   1       3.133  -4.912  -9.307  0.00  0.00    -0.040 A 
ATOM      7  C   LIG d   1       2.767  -3.574  -9.457  0.00  0.00     0.022 A 
ATOM      8  C   LIG d   1       3.590  -2.504  -8.885  0.00  0.00    -0.029 A 
ATOM      9  C   LIG d   1       3.185  -1.220  -9.062  0.00  0.00     0.049 A 
ATOM     10  C   LIG d   1       1.997  -0.950  -9.775  0.00  0.00     0.341 A 
ATOM     11  O   LIG d   1       1.643   0.206  -9.921  0.00  0.00    -0.245 OA
ATOM     12  O   LIG d   1       1.250  -1.933 -10.300  0.00  0.00    -0.422 OA
ATOM     13  C   LIG d   1       1.595  -3.234 -10.162  0.00  0.00     0.143 A 
ATOM     14  C   LIG d   1       0.802  -4.228 -10.709  0.00  0.00     0.024 A 
ATOM     15  H   LIG d   1       1.080  -8.804 -10.799  0.00  0.00     0.103 H 
ATOM     16  H   LIG d   1       4.030  -5.176  -8.767  0.00  0.00     0.063 H 
ATOM     17  H   LIG d   1      -0.096  -3.965 -11.249  0.00  0.00     0.069 H 
ENDROOT
BRANCH   9  18
ATOM     18  C   LIG d   1       3.999  -0.086  -8.493  0.00  0.00     0.056 C 
ATOM     19  H   LIG d   1       4.125   0.686  -9.251  0.00  0.00     0.041 H 
ATOM     20  H   LIG d   1       4.977  -0.458  -8.188  0.00  0.00     0.041 H 
BRANCH  18  21
ATOM     21  C   LIG d   1       3.287   0.493  -7.298  0.00  0.00     0.218 C 
ATOM     22  O   LIG d   1       2.984   1.668  -7.285  0.00  0.00    -0.275 OA
ATOM     23  N   LIG d   1       2.990  -0.293  -6.244  0.00  0.00    -0.309 N 
ATOM     24  H   LIG d   1       3.233  -1.231  -6.255  0.00  0.00     0.149 HD
BRANCH  23  25
ATOM     25  C   LIG d   1       2.298   0.272  -5.083  0.00  0.00     0.054 C 
ATOM     26  H   LIG d   1       1.303  -0.164  -5.005  0.00  0.00     0.053 H 
ATOM     27  H   LIG d   1       2.215   1.353  -5.199  0.00  0.00     0.053 H 
BRANCH  25  28
ATOM     28  C   LIG d   1       3.081  -0.038  -3.832  0.00  0.00     0.058 A 
ATOM     29  N   LIG d   1       3.270  -1.293  -3.477  0.00  0.00    -0.258 NA
ATOM     30  C   LIG d   1       3.952  -1.613  -2.394  0.00  0.00     0.028 A 
ATOM     31  C   LIG d   1       4.488  -0.631  -1.582  0.00  0.00    -0.044 A 
ATOM     32  H   LIG d   1       4.090  -2.652  -2.137  0.00  0.00     0.083 H 
ATOM     33  C   LIG d   1       4.310   0.702  -1.923  0.00  0.00    -0.059 A 
ATOM     34  H   LIG d   1       5.042  -0.898  -0.694  0.00  0.00     0.063 H 
ATOM     35  C   LIG d   1       3.592   0.998  -3.072  0.00  0.00    -0.039 A 
ATOM     36  H   LIG d   1       4.721   1.489  -1.310  0.00  0.00     0.062 H 
ATOM     37  H   LIG d   1       3.434   2.023  -3.369  0.00  0.00     0.064 H 
ENDBRANCH  25  28
ENDBRANCH  23  25
ENDBRANCH  18  21
ENDBRANCH   9  18
BRANCH   8  38
ATOM     38  C   LIG d   1       4.852  -2.819  -8.123  0.00  0.00    -0.038 C 
ATOM     39  H   LIG d   1       4.617  -2.937  -7.066  0.00  0.00     0.028 H 
ATOM     40  H   LIG d   1       5.284  -3.745  -8.505  0.00  0.00     0.028 H 
ATOM     41  H   LIG d   1       5.565  -2.006  -8.249  0.00  0.00     0.028 H 
ENDBRANCH   8  38
BRANCH   1  42
ATOM     42  C   LIG d   1       3.467  -8.242  -9.292  0.00  0.00    -0.036 C 
ATOM     43  H   LIG d   1       4.420  -8.050  -9.784  0.00  0.00     0.028 H 
ATOM     44  H   LIG d   1       3.555  -8.019  -8.229  0.00  0.00     0.028 H 
ATOM     45  H   LIG d   1       3.195  -9.290  -9.423  0.00  0.00     0.028 H 
ENDBRANCH   1  42
TORSDOF 6
ENDMDL
MODEL 4
REMARK VINA RESULT:      -6.9      6.921     10.889
REMARK  6 active torsions:
REMARK  status: ('A' for Active; 'I' for Inactive)
REMARK    1  A    between atoms: C_1  and  C_2 
REMARK    2  A    between atoms: C_9  and  C_27 
REMARK    3  A    between atoms: C_10  and  C_16 
REMARK    4  A    between atoms: C_16  and  C_17 
REMARK       I    between atoms: C_17  and  N_19 
REMARK    5  A    between atoms: N_19  and  C_20 
REMARK    6  A    between atoms: C_20  and  C_21 
ROOT
ATOM      1  C   LIG d   1       9.953   8.248  -8.029  0.00  0.00    -0.005 A 
ATOM      2  C   LIG d   1       9.565   9.306  -7.306  0.00  0.00     0.096 A 
ATOM      3  O   LIG d   1       9.236   8.924  -6.059  0.00  0.00    -0.463 OA
ATOM      4  C   LIG d   1       9.392   7.592  -5.906  0.00  0.00     0.139 A 
ATOM      5  C   LIG d   1       9.853   7.083  -7.137  0.00  0.00     0.024 A 
ATOM      6  C   LIG d   1      10.109   5.728  -7.288  0.00  0.00    -0.040 A 
ATOM      7  C   LIG d   1       9.904   4.871  -6.206  0.00  0.00     0.022 A 
ATOM      8  C   LIG d   1      10.162   3.433  -6.330  0.00  0.00    -0.029 A 
ATOM      9  C   LIG d   1       9.945   2.647  -5.245  0.00  0.00     0.049 A 
ATOM     10  C   LIG d   1       9.476   3.221  -4.044  0.00  0.00     0.341 A 
ATOM     11  O   LIG d   1       9.281   2.503  -3.080  0.00  0.00    -0.245 OA
ATOM     12  O   LIG d   1       9.246   4.538  -3.934  0.00  0.00    -0.422 OA
ATOM     13  C   LIG d   1       9.442   5.380  -4.975  0.00  0.00     0.143 A 
ATOM     14  C   LIG d   1       9.190   6.733  -4.836  0.00  0.00     0.024 A 
ATOM     15  H   LIG d   1       9.522  10.321  -7.672  0.00  0.00     0.103 H 
ATOM     16  H   LIG d   1      10.462   5.341  -8.232  0.00  0.00     0.063 H 
ATOM     17  H   LIG d   1       8.836   7.121  -3.892  0.00  0.00     0.069 H 
ENDROOT
BRANCH   9  18
ATOM     18  C   LIG d   1      10.197   1.163  -5.325  0.00  0.00     0.056 C 
ATOM     19  H   LIG d   1      10.690   0.829  -4.412  0.00  0.00     0.041 H 
ATOM     20  H   LIG d   1      10.836   0.948  -6.181  0.00  0.00     0.041 H 
BRANCH  18  21
ATOM     21  C   LIG d   1       8.885   0.437  -5.483  0.00  0.00     0.218 C 
ATOM     22  O   LIG d   1       8.319   0.436  -6.555  0.00  0.00    -0.275 OA
ATOM     23  N   LIG d   1       8.342  -0.208  -4.432  0.00  0.00    -0.309 N 
ATOM     24  H   LIG d   1       8.795  -0.207  -3.574  0.00  0.00     0.149 HD
BRANCH  23  25
ATOM     25  C   LIG d   1       7.067  -0.913  -4.586  0.00  0.00     0.054 C 
ATOM     26  H   LIG d   1       7.216  -1.977  -4.409  0.00  0.00     0.053 H 
ATOM     27  H   LIG d   1       6.689  -0.762  -5.597  0.00  0.00     0.053 H 
BRANCH  25  28
ATOM     28  C   LIG d   1       6.071  -0.373  -3.592  0.00  0.00     0.058 A 
ATOM     29  N   LIG d   1       5.896   0.928  -3.486  0.00  0.00    -0.258 NA
ATOM     30  C   LIG d   1       5.032   1.446  -2.634  0.00  0.00     0.028 A 
ATOM     31  C   LIG d   1       4.282   0.632  -1.807  0.00  0.00    -0.044 A 
ATOM     32  H   LIG d   1       4.913   2.518  -2.579  0.00  0.00     0.083 H 
ATOM     33  C   LIG d   1       4.438  -0.744  -1.890  0.00  0.00    -0.059 A 
ATOM     34  H   LIG d   1       3.579   1.061  -1.109  0.00  0.00     0.063 H 
ATOM     35  C   LIG d   1       5.352  -1.251  -2.801  0.00  0.00    -0.039 A 
ATOM     36  H   LIG d   1       3.862  -1.404  -1.259  0.00  0.00     0.062 H 
ATOM     37  H   LIG d   1       5.500  -2.316  -2.892  0.00  0.00     0.064 H 
ENDBRANCH  25  28
ENDBRANCH  23  25
ENDBRANCH  18  21
ENDBRANCH   9  18
BRANCH   8  38
ATOM     38  C   LIG d   1      10.657   2.843  -7.627  0.00  0.00    -0.038 C 
ATOM     39  H   LIG d   1      10.037   1.989  -7.896  0.00  0.00     0.028 H 
ATOM     40  H   LIG d   1      10.599   3.597  -8.413  0.00  0.00     0.028 H 
ATOM     41  H   LIG d   1      11.691   2.521  -7.508  0.00  0.00     0.028 H 
ENDBRANCH   8  38
BRANCH   1  42
ATOM     42  C   LIG d   1      10.401   8.250  -9.468  0.00  0.00    -0.036 C 
ATOM     43  H   LIG d   1       9.532   8.335 -10.119  0.00  0.00     0.028 H 
ATOM     44  H   LIG d   1      11.067   9.096  -9.639  0.00  0.00     0.028 H 
ATOM     45  H   LIG d   1      10.929   7.321  -9.685  0.00  0.00     0.028 H 
ENDBRANCH   1  42
TORSDOF 6
ENDMDL
MODEL 5
REMARK VINA RESULT:      -6.8      2.932      3.744
REMARK  6 active torsions:
REMARK  status: ('A' for Active; 'I' for Inactive)
REMARK    1  A    between atoms: C_1  and  C_2 
REMARK    2  A    between atoms: C_9  and  C_27 
REMARK    3  A    between atoms: C_10  and  C_16 
REMARK    4  A    between atoms: C_16  and  C_17 
REMARK       I    between atoms: C_17  and  N_19 
REMARK    5  A    between atoms: N_19  and  C_20 
REMARK    6  A    between atoms: C_20  and  C_21 
ROOT
ATOM      1  C   LIG d   1       1.850  -2.255 -13.856  0.00  0.00    -0.005 A 
ATOM      2  C   LIG d   1       0.516  -2.367 -13.809  0.00  0.00     0.096 A 
ATOM      3  O   LIG d   1       0.044  -1.835 -12.668  0.00  0.00    -0.463 OA
ATOM      4  C   LIG d   1       1.049  -1.348 -11.910  0.00  0.00     0.139 A 
ATOM      5  C   LIG d   1       2.249  -1.583 -12.612  0.00  0.00     0.024 A 
ATOM      6  C   LIG d   1       3.467  -1.187 -12.078  0.00  0.00    -0.040 A 
ATOM      7  C   LIG d   1       3.492  -0.552 -10.835  0.00  0.00     0.022 A 
ATOM      8  C   LIG d   1       4.761  -0.122 -10.240  0.00  0.00    -0.029 A 
ATOM      9  C   LIG d   1       4.726   0.490  -9.029  0.00  0.00     0.049 A 
ATOM     10  C   LIG d   1       3.489   0.689  -8.378  0.00  0.00     0.341 A 
ATOM     11  O   LIG d   1       3.473   1.235  -7.289  0.00  0.00    -0.245 OA
ATOM     12  O   LIG d   1       2.331   0.297  -8.929  0.00  0.00    -0.422 OA
ATOM     13  C   LIG d   1       2.293  -0.318 -10.133  0.00  0.00     0.143 A 
ATOM     14  C   LIG d   1       1.084  -0.717 -10.676  0.00  0.00     0.024 A 
ATOM     15  H   LIG d   1      -0.093  -2.820 -14.577  0.00  0.00     0.103 H 
ATOM     16  H   LIG d   1       4.385  -1.368 -12.617  0.00  0.00     0.063 H 
ATOM     17  H   LIG d   1       0.165  -0.537 -10.137  0.00  0.00     0.069 H 
ENDROOT
BRANCH   9  18
ATOM     18  C   LIG d   1       6.005   0.951  -8.377  0.00  0.00     0.056 C 
ATOM     19  H   LIG d   1       5.888   1.979  -8.034  0.00  0.00     0.041 H 
ATOM     20  H   LIG d   1       6.819   0.901  -9.100  0.00  0.00     0.041 H 
BRANCH  18  21
ATOM     21  C   LIG d   1       6.320   0.061  -7.203  0.00  0.00     0.218 C 
ATOM     22  O   LIG d   1       6.609  -1.103  -7.385  0.00  0.00    -0.275 OA
ATOM     23  N   LIG d   1       6.280   0.558  -5.951  0.00  0.00    -0.309 N 
ATOM     24  H   LIG d   1       6.049   1.489  -5.805  0.00  0.00     0.149 HD
BRANCH  23  25
ATOM     25  C   LIG d   1       6.587  -0.307  -4.810  0.00  0.00     0.054 C 
ATOM     26  H   LIG d   1       7.286   0.199  -4.146  0.00  0.00     0.053 H 
ATOM     27  H   LIG d   1       7.032  -1.236  -5.168  0.00  0.00     0.053 H 
BRANCH  25  28
ATOM     28  C   LIG d   1       5.317  -0.617  -4.059  0.00  0.00     0.058 A 
ATOM     29  N   LIG d   1       4.289   0.201  -4.152  0.00  0.00    -0.258 NA
ATOM     30  C   LIG d   1       3.156  -0.031  -3.517  0.00  0.00     0.028 A 
ATOM     31  C   LIG d   1       3.012  -1.147  -2.716  0.00  0.00    -0.044 A 
ATOM     32  H   LIG d   1       2.333   0.660  -3.622  0.00  0.00     0.083 H 
ATOM     33  C   LIG d   1       4.073  -2.033  -2.592  0.00  0.00    -0.059 A 
ATOM     34  H   LIG d   1       2.084  -1.331  -2.195  0.00  0.00     0.063 H 
ATOM     35  C   LIG d   1       5.245  -1.758  -3.280  0.00  0.00    -0.039 A 
ATOM     36  H   LIG d   1       3.988  -2.916  -1.977  0.00  0.00     0.062 H 
ATOM     37  H   LIG d   1       6.091  -2.424  -3.207  0.00  0.00     0.064 H 
ENDBRANCH  25  28
ENDBRANCH  23  25
ENDBRANCH  18  21
ENDBRANCH   9  18
BRANCH   8  38
ATOM     38  C   LIG d   1       6.069  -0.351 -10.953  0.00  0.00    -0.038 C 
ATOM     39  H   LIG d   1       6.836   0.288 -10.518  0.00  0.00     0.028 H 
ATOM     40  H   LIG d   1       6.362  -1.396 -10.846  0.00  0.00     0.028 H 
ATOM     41  H   LIG d   1       5.954  -0.113 -12.010  0.00  0.00     0.028 H 
ENDBRANCH   8  38
BRANCH   1  42
ATOM     42  C   LIG d   1       2.758  -2.726 -14.964  0.00  0.00    -0.036 C 
ATOM     43  H   LIG d   1       2.661  -2.061 -15.821  0.00  0.00     0.028 H 
ATOM     44  H   LIG d   1       3.790  -2.719 -14.614  0.00  0.00     0.028 H 
ATOM     45  H   LIG d   1       2.479  -3.739 -15.255  0.00  0.00     0.028 H 
ENDBRANCH   1  42
TORSDOF 6
ENDMDL
MODEL 6
REMARK VINA RESULT:      -6.8      6.270     11.277
REMARK  6 active torsions:
REMARK  status: ('A' for Active; 'I' for Inactive)
REMARK    1  A    between atoms: C_1  and  C_2 
REMARK    2  A    between atoms: C_9  and  C_27 
REMARK    3  A    between atoms: C_10  and  C_16 
REMARK    4  A    between atoms: C_16  and  C_17 
REMARK       I    between atoms: C_17  and  N_19 
REMARK    5  A    between atoms: N_19  and  C_20 
REMARK    6  A    between atoms: C_20  and  C_21 
ROOT
ATOM      1  C   LIG d   1       9.918   7.753  -2.316  0.00  0.00    -0.005 A 
ATOM      2  C   LIG d   1      10.043   8.960  -2.882  0.00  0.00     0.096 A 
ATOM      3  O   LIG d   1      10.051   8.847  -4.223  0.00  0.00    -0.463 OA
ATOM      4  C   LIG d   1       9.931   7.556  -4.599  0.00  0.00     0.139 A 
ATOM      5  C   LIG d   1       9.840   6.787  -3.421  0.00  0.00     0.024 A 
ATOM      6  C   LIG d   1       9.706   5.408  -3.488  0.00  0.00    -0.040 A 
ATOM      7  C   LIG d   1       9.663   4.787  -4.737  0.00  0.00     0.022 A 
ATOM      8  C   LIG d   1       9.524   3.332  -4.846  0.00  0.00    -0.029 A 
ATOM      9  C   LIG d   1       9.488   2.783  -6.087  0.00  0.00     0.049 A 
ATOM     10  C   LIG d   1       9.590   3.611  -7.225  0.00  0.00     0.341 A 
ATOM     11  O   LIG d   1       9.562   3.104  -8.332  0.00  0.00    -0.245 OA
ATOM     12  O   LIG d   1       9.713   4.942  -7.120  0.00  0.00    -0.422 OA
ATOM     13  C   LIG d   1       9.755   5.556  -5.915  0.00  0.00     0.143 A 
ATOM     14  C   LIG d   1       9.888   6.931  -5.836  0.00  0.00     0.024 A 
ATOM     15  H   LIG d   1      10.127   9.890  -2.342  0.00  0.00     0.103 H 
ATOM     16  H   LIG d   1       9.637   4.821  -2.584  0.00  0.00     0.063 H 
ATOM     17  H   LIG d   1       9.958   7.519  -6.740  0.00  0.00     0.069 H 
ENDROOT
BRANCH   9  18
ATOM     18  C   LIG d   1       9.346   1.291  -6.249  0.00  0.00     0.056 C 
ATOM     19  H   LIG d   1       9.846   0.786  -5.422  0.00  0.00     0.041 H 
ATOM     20  H   LIG d   1       9.802   0.982  -7.190  0.00  0.00     0.041 H 
BRANCH  18  21
ATOM     21  C   LIG d   1       7.885   0.922  -6.254  0.00  0.00     0.218 C 
ATOM     22  O   LIG d   1       7.107   1.540  -6.950  0.00  0.00    -0.275 OA
ATOM     23  N   LIG d   1       7.443  -0.092  -5.485  0.00  0.00    -0.309 N 
ATOM     24  H   LIG d   1       8.065  -0.586  -4.928  0.00  0.00     0.149 HD
BRANCH  23  25
ATOM     25  C   LIG d   1       6.023  -0.450  -5.491  0.00  0.00     0.054 C 
ATOM     26  H   LIG d   1       5.912  -1.496  -5.771  0.00  0.00     0.053 H 
ATOM     27  H   LIG d   1       5.493   0.178  -6.207  0.00  0.00     0.053 H 
BRANCH  25  28
ATOM     28  C   LIG d   1       5.445  -0.236  -4.115  0.00  0.00     0.058 A 
ATOM     29  N   LIG d   1       5.366   0.985  -3.624  0.00  0.00    -0.258 NA
ATOM     30  C   LIG d   1       4.863   1.221  -2.427  0.00  0.00     0.028 A 
ATOM     31  C   LIG d   1       4.408   0.184  -1.636  0.00  0.00    -0.044 A 
ATOM     32  H   LIG d   1       4.811   2.235  -2.060  0.00  0.00     0.083 H 
ATOM     33  C   LIG d   1       4.475  -1.115  -2.118  0.00  0.00    -0.059 A 
ATOM     34  H   LIG d   1       4.002   0.382  -0.655  0.00  0.00     0.063 H 
ATOM     35  C   LIG d   1       5.004  -1.323  -3.383  0.00  0.00    -0.039 A 
ATOM     36  H   LIG d   1       4.122  -1.945  -1.524  0.00  0.00     0.062 H 
ATOM     37  H   LIG d   1       5.071  -2.320  -3.790  0.00  0.00     0.064 H 
ENDBRANCH  25  28
ENDBRANCH  23  25
ENDBRANCH  18  21
ENDBRANCH   9  18
BRANCH   8  38
ATOM     38  C   LIG d   1       9.423   2.468  -3.615  0.00  0.00    -0.038 C 
ATOM     39  H   LIG d   1       9.517   1.421  -3.898  0.00  0.00     0.028 H 
ATOM     40  H   LIG d   1      10.223   2.731  -2.922  0.00  0.00     0.028 H 
ATOM     41  H   LIG d   1       8.459   2.631  -3.135  0.00  0.00     0.028 H 
ENDBRANCH   8  38
BRANCH   1  42
ATOM     42  C   LIG d   1       9.868   7.448  -0.841  0.00  0.00    -0.036 C 
ATOM     43  H   LIG d   1      10.206   8.317  -0.278  0.00  0.00     0.028 H 
ATOM     44  H   LIG d   1       8.844   7.206  -0.554  0.00  0.00     0.028 H 
ATOM     45  H   LIG d   1      10.516   6.599  -0.624  0.00  0.00     0.028 H 
ENDBRANCH   1  42
TORSDOF 6
ENDMDL
MODEL 7
REMARK VINA RESULT:      -6.7      6.489     11.306
REMARK  6 active torsions:
REMARK  status: ('A' for Active; 'I' for Inactive)
REMARK    1  A    between atoms: C_1  and  C_2 
REMARK    2  A    between atoms: C_9  and  C_27 
REMARK    3  A    between atoms: C_10  and  C_16 
REMARK    4  A    between atoms: C_16  and  C_17 
REMARK       I    between atoms: C_17  and  N_19 
REMARK    5  A    between atoms: N_19  and  C_20 
REMARK    6  A    between atoms: C_20  and  C_21 
ROOT
ATOM      1  C   LIG d   1      10.351   8.781  -4.422  0.00  0.00    -0.005 A 
ATOM      2  C   LIG d   1      10.331   9.230  -3.160  0.00  0.00     0.096 A 
ATOM      3  O   LIG d   1      10.094   8.216  -2.309  0.00  0.00    -0.463 OA
ATOM      4  C   LIG d   1       9.946   7.052  -2.974  0.00  0.00     0.139 A 
ATOM      5  C   LIG d   1      10.099   7.335  -4.347  0.00  0.00     0.024 A 
ATOM      6  C   LIG d   1       9.999   6.323  -5.290  0.00  0.00    -0.040 A 
ATOM      7  C   LIG d   1       9.744   5.018  -4.867  0.00  0.00     0.022 A 
ATOM      8  C   LIG d   1       9.631   3.925  -5.836  0.00  0.00    -0.029 A 
ATOM      9  C   LIG d   1       9.382   2.675  -5.367  0.00  0.00     0.049 A 
ATOM     10  C   LIG d   1       9.234   2.463  -3.980  0.00  0.00     0.341 A 
ATOM     11  O   LIG d   1       9.006   1.337  -3.573  0.00  0.00    -0.245 OA
ATOM     12  O   LIG d   1       9.343   3.466  -3.096  0.00  0.00    -0.422 OA
ATOM     13  C   LIG d   1       9.591   4.735  -3.494  0.00  0.00     0.143 A 
ATOM     14  C   LIG d   1       9.693   5.752  -2.562  0.00  0.00     0.024 A 
ATOM     15  H   LIG d   1      10.484  10.258  -2.869  0.00  0.00     0.103 H 
ATOM     16  H   LIG d   1      10.116   6.543  -6.341  0.00  0.00     0.063 H 
ATOM     17  H   LIG d   1       9.575   5.534  -1.510  0.00  0.00     0.069 H 
ENDROOT
BRANCH   9  18
ATOM     18  C   LIG d   1       9.258   1.519  -6.326  0.00  0.00     0.056 C 
ATOM     19  H   LIG d   1       9.933   0.719  -6.021  0.00  0.00     0.041 H 
ATOM     20  H   LIG d   1       9.519   1.850  -7.331  0.00  0.00     0.041 H 
BRANCH  18  21
ATOM     21  C   LIG d   1       7.839   1.009  -6.318  0.00  0.00     0.218 C 
ATOM     22  O   LIG d   1       6.997   1.552  -7.002  0.00  0.00    -0.275 OA
ATOM     23  N   LIG d   1       7.508  -0.048  -5.551  0.00  0.00    -0.309 N 
ATOM     24  H   LIG d   1       8.181  -0.481  -5.004  0.00  0.00     0.149 HD
BRANCH  23  25
ATOM     25  C   LIG d   1       6.129  -0.542  -5.545  0.00  0.00     0.054 C 
ATOM     26  H   LIG d   1       6.123  -1.608  -5.772  0.00  0.00     0.053 H 
ATOM     27  H   LIG d   1       5.547  -0.007  -6.295  0.00  0.00     0.053 H 
BRANCH  25  28
ATOM     28  C   LIG d   1       5.521  -0.317  -4.184  0.00  0.00     0.058 A 
ATOM     29  N   LIG d   1       5.572   0.881  -3.637  0.00  0.00    -0.258 NA
ATOM     30  C   LIG d   1       5.049   1.126  -2.451  0.00  0.00     0.028 A 
ATOM     31  C   LIG d   1       4.433   0.122  -1.730  0.00  0.00    -0.044 A 
ATOM     32  H   LIG d   1       5.107   2.122  -2.038  0.00  0.00     0.083 H 
ATOM     33  C   LIG d   1       4.359  -1.153  -2.272  0.00  0.00    -0.059 A 
ATOM     34  H   LIG d   1       4.011   0.327  -0.757  0.00  0.00     0.063 H 
ATOM     35  C   LIG d   1       4.915  -1.371  -3.524  0.00  0.00    -0.039 A 
ATOM     36  H   LIG d   1       3.879  -1.956  -1.733  0.00  0.00     0.062 H 
ATOM     37  H   LIG d   1       4.876  -2.350  -3.976  0.00  0.00     0.064 H 
ENDBRANCH  25  28
ENDBRANCH  23  25
ENDBRANCH  18  21
ENDBRANCH   9  18
BRANCH   8  38
ATOM     38  C   LIG d   1       9.787   4.179  -7.314  0.00  0.00    -0.038 C 
ATOM     39  H   LIG d   1      10.779   4.586  -7.509  0.00  0.00     0.028 H 
ATOM     40  H   LIG d   1       9.666   3.242  -7.858  0.00  0.00     0.028 H 
ATOM     41  H   LIG d   1       9.030   4.891  -7.642  0.00  0.00     0.028 H 
ENDBRANCH   8  38
BRANCH   1  42
ATOM     42  C   LIG d   1      10.586   9.596  -5.668  0.00  0.00    -0.036 C 
ATOM     43  H   LIG d   1      10.693  10.647  -5.401  0.00  0.00     0.028 H 
ATOM     44  H   LIG d   1      11.495   9.253  -6.161  0.00  0.00     0.028 H 
ATOM     45  H   LIG d   1       9.738   9.476  -6.344  0.00  0.00     0.028 H 
ENDBRANCH   1  42
TORSDOF 6
ENDMDL
MODEL 8
REMARK VINA RESULT:      -6.6      7.161     12.893
REMARK  6 active torsions:
REMARK  status: ('A' for Active; 'I' for Inactive)
REMARK    1  A    between atoms: C_1  and  C_2 
REMARK    2  A    between atoms: C_9  and  C_27 
REMARK    3  A    between atoms: C_10  and  C_16 
REMARK    4  A    between atoms: C_16  and  C_17 
REMARK       I    between atoms: C_17  and  N_19 
REMARK    5  A    between atoms: N_19  and  C_20 
REMARK    6  A    between atoms: C_20  and  C_21 
ROOT
ATOM      1  C   LIG d   1      10.410   9.023  -0.125  0.00  0.00    -0.005 A 
ATOM      2  C   LIG d   1      11.135   8.888   0.993  0.00  0.00     0.096 A 
ATOM      3  O   LIG d   1      11.627   7.639   1.080  0.00  0.00    -0.463 OA
ATOM      4  C   LIG d   1      11.246   6.895   0.021  0.00  0.00     0.139 A 
ATOM      5  C   LIG d   1      10.455   7.721  -0.803  0.00  0.00     0.024 A 
ATOM      6  C   LIG d   1       9.914   7.228  -1.982  0.00  0.00    -0.040 A 
ATOM      7  C   LIG d   1      10.159   5.903  -2.344  0.00  0.00     0.022 A 
ATOM      8  C   LIG d   1       9.602   5.348  -3.581  0.00  0.00    -0.029 A 
ATOM      9  C   LIG d   1       9.873   4.053  -3.882  0.00  0.00     0.049 A 
ATOM     10  C   LIG d   1      10.667   3.280  -3.008  0.00  0.00     0.341 A 
ATOM     11  O   LIG d   1      10.899   2.118  -3.289  0.00  0.00    -0.245 OA
ATOM     12  O   LIG d   1      11.179   3.793  -1.880  0.00  0.00    -0.422 OA
ATOM     13  C   LIG d   1      10.949   5.077  -1.518  0.00  0.00     0.143 A 
ATOM     14  C   LIG d   1      11.484   5.579  -0.345  0.00  0.00     0.024 A 
ATOM     15  H   LIG d   1      11.302   9.669   1.719  0.00  0.00     0.103 H 
ATOM     16  H   LIG d   1       9.308   7.862  -2.612  0.00  0.00     0.063 H 
ATOM     17  H   LIG d   1      12.089   4.944   0.286  0.00  0.00     0.069 H 
ENDROOT
BRANCH   9  18
ATOM     18  C   LIG d   1       9.322   3.439  -5.144  0.00  0.00     0.056 C 
ATOM     19  H   LIG d   1      10.110   3.385  -5.896  0.00  0.00     0.041 H 
ATOM     20  H   LIG d   1       8.504   4.053  -5.520  0.00  0.00     0.041 H 
BRANCH  18  21
ATOM     21  C   LIG d   1       8.813   2.052  -4.848  0.00  0.00     0.218 C 
ATOM     22  O   LIG d   1       9.298   1.095  -5.415  0.00  0.00    -0.275 OA
ATOM     23  N   LIG d   1       7.819   1.876  -3.955  0.00  0.00    -0.309 N 
ATOM     24  H   LIG d   1       7.431   2.640  -3.503  0.00  0.00     0.149 HD
BRANCH  23  25
ATOM     25  C   LIG d   1       7.325   0.527  -3.668  0.00  0.00     0.054 C 
ATOM     26  H   LIG d   1       7.774   0.164  -2.745  0.00  0.00     0.053 H 
ATOM     27  H   LIG d   1       7.590  -0.140  -4.489  0.00  0.00     0.053 H 
BRANCH  25  28
ATOM     28  C   LIG d   1       5.825   0.563  -3.516  0.00  0.00     0.058 A 
ATOM     29  N   LIG d   1       5.061   0.099  -4.484  0.00  0.00    -0.258 NA
ATOM     30  C   LIG d   1       3.745   0.105  -4.393  0.00  0.00     0.028 A 
ATOM     31  C   LIG d   1       3.117   0.614  -3.273  0.00  0.00    -0.044 A 
ATOM     32  H   LIG d   1       3.152  -0.288  -5.206  0.00  0.00     0.083 H 
ATOM     33  C   LIG d   1       3.888   1.111  -2.232  0.00  0.00    -0.059 A 
ATOM     34  H   LIG d   1       2.039   0.620  -3.206  0.00  0.00     0.063 H 
ATOM     35  C   LIG d   1       5.268   1.082  -2.362  0.00  0.00    -0.039 A 
ATOM     36  H   LIG d   1       3.425   1.510  -1.343  0.00  0.00     0.062 H 
ATOM     37  H   LIG d   1       5.899   1.461  -1.573  0.00  0.00     0.064 H 
ENDBRANCH  25  28
ENDBRANCH  23  25
ENDBRANCH  18  21
ENDBRANCH   9  18
BRANCH   8  38
ATOM     38  C   LIG d   1       8.751   6.193  -4.495  0.00  0.00    -0.038 C 
ATOM     39  H   LIG d   1       9.124   7.217  -4.493  0.00  0.00     0.028 H 
ATOM     40  H   LIG d   1       8.797   5.791  -5.507  0.00  0.00     0.028 H 
ATOM     41  H   LIG d   1       7.719   6.181  -4.145  0.00  0.00     0.028 H 
ENDBRANCH   8  38
BRANCH   1  42
ATOM     42  C   LIG d   1       9.692  10.264  -0.592  0.00  0.00    -0.036 C 
ATOM     43  H   LIG d   1      10.321  10.804  -1.299  0.00  0.00     0.028 H 
ATOM     44  H   LIG d   1       8.759   9.982  -1.078  0.00  0.00     0.028 H 
ATOM     45  H   LIG d   1       9.477  10.902   0.266  0.00  0.00     0.028 H 
ENDBRANCH   1  42
TORSDOF 6
ENDMDL
MODEL 9
REMARK VINA RESULT:      -6.6      4.180      7.293
REMARK  6 active torsions:
REMARK  status: ('A' for Active; 'I' for Inactive)
REMARK    1  A    between atoms: C_1  and  C_2 
REMARK    2  A    between atoms: C_9  and  C_27 
REMARK    3  A    between atoms: C_10  and  C_16 
REMARK    4  A    between atoms: C_16  and  C_17 
REMARK       I    between atoms: C_17  and  N_19 
REMARK    5  A    between atoms: N_19  and  C_20 
REMARK    6  A    between atoms: C_20  and  C_21 
ROOT
ATOM      1  C   LIG d   1       8.206  -5.480  -5.427  0.00  0.00    -0.005 A 
ATOM      2  C   LIG d   1       9.434  -5.385  -5.953  0.00  0.00     0.096 A 
ATOM      3  O   LIG d   1       9.870  -4.114  -5.891  0.00  0.00    -0.463 OA
ATOM      4  C   LIG d   1       8.945  -3.313  -5.321  0.00  0.00     0.139 A 
ATOM      5  C   LIG d   1       7.839  -4.124  -4.994  0.00  0.00     0.024 A 
ATOM      6  C   LIG d   1       6.718  -3.575  -4.387  0.00  0.00    -0.040 A 
ATOM      7  C   LIG d   1       6.696  -2.209  -4.103  0.00  0.00     0.022 A 
ATOM      8  C   LIG d   1       5.528  -1.596  -3.464  0.00  0.00    -0.029 A 
ATOM      9  C   LIG d   1       5.562  -0.262  -3.212  0.00  0.00     0.049 A 
ATOM     10  C   LIG d   1       6.700   0.491  -3.571  0.00  0.00     0.341 A 
ATOM     11  O   LIG d   1       6.714   1.688  -3.344  0.00  0.00    -0.245 OA
ATOM     12  O   LIG d   1       7.768  -0.075  -4.151  0.00  0.00    -0.422 OA
ATOM     13  C   LIG d   1       7.802  -1.399  -4.431  0.00  0.00     0.143 A 
ATOM     14  C   LIG d   1       8.914  -1.957  -5.036  0.00  0.00     0.024 A 
ATOM     15  H   LIG d   1       9.993  -6.210  -6.366  0.00  0.00     0.103 H 
ATOM     16  H   LIG d   1       5.872  -4.198  -4.138  0.00  0.00     0.063 H 
ATOM     17  H   LIG d   1       9.761  -1.334  -5.287  0.00  0.00     0.069 H 
ENDROOT
BRANCH   9  18
ATOM     18  C   LIG d   1       4.385   0.413  -2.556  0.00  0.00     0.056 C 
ATOM     19  H   LIG d   1       4.742   1.108  -1.797  0.00  0.00     0.041 H 
ATOM     20  H   LIG d   1       3.749  -0.339  -2.089  0.00  0.00     0.041 H 
BRANCH  18  21
ATOM     21  C   LIG d   1       3.593   1.165  -3.595  0.00  0.00     0.218 C 
ATOM     22  O   LIG d   1       3.309   2.330  -3.413  0.00  0.00    -0.275 OA
ATOM     23  N   LIG d   1       3.200   0.542  -4.723  0.00  0.00    -0.309 N 
ATOM     24  H   LIG d   1       3.427  -0.390  -4.868  0.00  0.00     0.149 HD
BRANCH  23  25
ATOM     25  C   LIG d   1       2.430   1.274  -5.732  0.00  0.00     0.054 C 
ATOM     26  H   LIG d   1       2.655   2.337  -5.661  0.00  0.00     0.053 H 
ATOM     27  H   LIG d   1       1.365   1.114  -5.564  0.00  0.00     0.053 H 
BRANCH  25  28
ATOM     28  C   LIG d   1       2.801   0.774  -7.106  0.00  0.00     0.058 A 
ATOM     29  N   LIG d   1       3.130  -0.491  -7.272  0.00  0.00    -0.258 NA
ATOM     30  C   LIG d   1       3.456  -0.974  -8.456  0.00  0.00     0.028 A 
ATOM     31  C   LIG d   1       3.474  -0.158  -9.570  0.00  0.00    -0.044 A 
ATOM     32  H   LIG d   1       3.715  -2.017  -8.554  0.00  0.00     0.083 H 
ATOM     33  C   LIG d   1       3.133   1.180  -9.435  0.00  0.00    -0.059 A 
ATOM     34  H   LIG d   1       3.746  -0.557 -10.536  0.00  0.00     0.063 H 
ATOM     35  C   LIG d   1       2.791   1.650  -8.176  0.00  0.00    -0.039 A 
ATOM     36  H   LIG d   1       3.134   1.840 -10.290  0.00  0.00     0.062 H 
ATOM     37  H   LIG d   1       2.520   2.685  -8.034  0.00  0.00     0.064 H 
ENDBRANCH  25  28
ENDBRANCH  23  25
ENDBRANCH  18  21
ENDBRANCH   9  18
BRANCH   8  38
ATOM     38  C   LIG d   1       4.322  -2.422  -3.096  0.00  0.00    -0.038 C 
ATOM     39  H   LIG d   1       4.282  -2.543  -2.014  0.00  0.00     0.028 H 
ATOM     40  H   LIG d   1       3.419  -1.918  -3.439  0.00  0.00     0.028 H 
ATOM     41  H   LIG d   1       4.394  -3.401  -3.569  0.00  0.00     0.028 H 
ENDBRANCH   8  38
BRANCH   1  42
ATOM     42  C   LIG d   1       7.368  -6.727  -5.306  0.00  0.00    -0.036 C 
ATOM     43  H   LIG d   1       7.950  -7.511  -4.823  0.00  0.00     0.028 H 
ATOM     44  H   LIG d   1       6.482  -6.513  -4.709  0.00  0.00     0.028 H 
ATOM     45  H   LIG d   1       7.065  -7.058  -6.300  0.00  0.00     0.028 H 
ENDBRANCH   1  42
TORSDOF 6
ENDMDL
MODEL 10
REMARK VINA RESULT:      -6.5      4.041      9.059
REMARK  6 active torsions:
REMARK  status: ('A' for Active; 'I' for Inactive)
REMARK    1  A    between atoms: C_1  and  C_2 
REMARK    2  A    between atoms: C_9  and  C_27 
REMARK    3  A    between atoms: C_10  and  C_16 
REMARK    4  A    between atoms: C_16  and  C_17 
REMARK       I    between atoms: C_17  and  N_19 
REMARK    5  A    between atoms: N_19  and  C_20 
REMARK    6  A    between atoms: C_20  and  C_21 
ROOT
ATOM      1  C   LIG d   1      10.020   3.757  -4.267  0.00  0.00    -0.005 A 
ATOM      2  C   LIG d   1      11.117   3.573  -5.012  0.00  0.00     0.096 A 
ATOM      3  O   LIG d   1      11.117   2.338  -5.545  0.00  0.00    -0.463 OA
ATOM      4  C   LIG d   1      10.016   1.652  -5.172  0.00  0.00     0.139 A 
ATOM      5  C   LIG d   1       9.257   2.504  -4.344  0.00  0.00     0.024 A 
ATOM      6  C   LIG d   1       8.055   2.071  -3.802  0.00  0.00    -0.040 A 
ATOM      7  C   LIG d   1       7.604   0.781  -4.085  0.00  0.00     0.022 A 
ATOM      8  C   LIG d   1       6.340   0.290  -3.528  0.00  0.00    -0.029 A 
ATOM      9  C   LIG d   1       5.952  -0.973  -3.836  0.00  0.00     0.049 A 
ATOM     10  C   LIG d   1       6.764  -1.775  -4.667  0.00  0.00     0.341 A 
ATOM     11  O   LIG d   1       6.405  -2.908  -4.931  0.00  0.00    -0.245 OA
ATOM     12  O   LIG d   1       7.917  -1.319  -5.178  0.00  0.00    -0.422 OA
ATOM     13  C   LIG d   1       8.364  -0.071  -4.912  0.00  0.00     0.143 A 
ATOM     14  C   LIG d   1       9.561   0.371  -5.447  0.00  0.00     0.024 A 
ATOM     15  H   LIG d   1      11.891   4.310  -5.163  0.00  0.00     0.103 H 
ATOM     16  H   LIG d   1       7.475   2.725  -3.168  0.00  0.00     0.063 H 
ATOM     17  H   LIG d   1      10.143  -0.282  -6.081  0.00  0.00     0.069 H 
ENDROOT
BRANCH   9  18
ATOM     18  C   LIG d   1       4.659  -1.522  -3.287  0.00  0.00     0.056 C 
ATOM     19  H   LIG d   1       4.605  -1.322  -2.217  0.00  0.00     0.041 H 
ATOM     20  H   LIG d   1       4.619  -2.597  -3.458  0.00  0.00     0.041 H 
BRANCH  18  21
ATOM     21  C   LIG d   1       3.497  -0.859  -3.982  0.00  0.00     0.218 C 
ATOM     22  O   LIG d   1       2.482  -0.614  -3.363  0.00  0.00    -0.275 OA
ATOM     23  N   LIG d   1       3.585  -0.541  -5.288  0.00  0.00    -0.309 N 
ATOM     24  H   LIG d   1       4.396  -0.737  -5.782  0.00  0.00     0.149 HD
BRANCH  23  25
ATOM     25  C   LIG d   1       2.455   0.103  -5.962  0.00  0.00     0.054 C 
ATOM     26  H   LIG d   1       2.214   1.037  -5.456  0.00  0.00     0.053 H 
ATOM     27  H   LIG d   1       1.590  -0.560  -5.935  0.00  0.00     0.053 H 
BRANCH  25  28
ATOM     28  C   LIG d   1       2.822   0.390  -7.395  0.00  0.00     0.058 A 
ATOM     29  N   LIG d   1       3.515   1.473  -7.686  0.00  0.00    -0.258 NA
ATOM     30  C   LIG d   1       3.864   1.762  -8.925  0.00  0.00     0.028 A 
ATOM     31  C   LIG d   1       3.501   0.937  -9.972  0.00  0.00    -0.044 A 
ATOM     32  H   LIG d   1       4.436   2.656  -9.124  0.00  0.00     0.083 H 
ATOM     33  C   LIG d   1       2.771  -0.213  -9.705  0.00  0.00    -0.059 A 
ATOM     34  H   LIG d   1       3.785   1.181 -10.985  0.00  0.00     0.063 H 
ATOM     35  C   LIG d   1       2.428  -0.486  -8.390  0.00  0.00    -0.039 A 
ATOM     36  H   LIG d   1       2.478  -0.879 -10.503  0.00  0.00     0.062 H 
ATOM     37  H   LIG d   1       1.861  -1.371  -8.146  0.00  0.00     0.064 H 
ENDBRANCH  25  28
ENDBRANCH  23  25
ENDBRANCH  18  21
ENDBRANCH   9  18
BRANCH   8  38
ATOM     38  C   LIG d   1       5.494   1.164  -2.638  0.00  0.00    -0.038 C 
ATOM     39  H   LIG d   1       5.654   0.885  -1.597  0.00  0.00     0.028 H 
ATOM     40  H   LIG d   1       5.775   2.208  -2.781  0.00  0.00     0.028 H 
ATOM     41  H   LIG d   1       4.443   1.033  -2.892  0.00  0.00     0.028 H 
ENDBRANCH   8  38
BRANCH   1  42
ATOM     42  C   LIG d   1       9.644   5.001  -3.503  0.00  0.00    -0.036 C 
ATOM     43  H   LIG d   1       9.612   5.851  -4.184  0.00  0.00     0.028 H 
ATOM     44  H   LIG d   1       8.663   4.865  -3.047  0.00  0.00     0.028 H 
ATOM     45  H   LIG d   1      10.384   5.186  -2.724  0.00  0.00     0.028 H 
ENDBRANCH   1  42
TORSDOF 6
ENDMDL
