MODEL 1
REMARK VINA RESULT:      -5.8      0.000      0.000
REMARK  6 active torsions:
REMARK  status: ('A' for Active; 'I' for Inactive)
REMARK    1  A    between atoms: C_1  and  C_2 
REMARK    2  A    between atoms: C_2  and  O_3 
REMARK    3  A    between atoms: O_3  and  C_4 
REMARK    4  A    between atoms: C_4  and  C_6 
REMARK    5  A    between atoms: C_6  and  C_7 
REMARK    6  A    between atoms: C_6  and  C_11 
ROOT
ATOM      1  C   LIG d   1       4.398   0.050  -4.747  0.00  0.00     0.346 C 
ATOM      2  O   LIG d   1       5.514  -0.052  -5.197  0.00  0.00    -0.248 OA
ENDROOT
BRANCH   1   3
ATOM      3  O   LIG d   1       3.374   0.361  -5.557  0.00  0.00    -0.463 OA
BRANCH   3   4
ATOM      4  C   LIG d   1       3.416  -0.164  -6.886  0.00  0.00     0.090 C 
ATOM      5  H   LIG d   1       2.723  -1.002  -6.968  0.00  0.00     0.069 H 
ATOM      6  H   LIG d   1       4.426  -0.505  -7.110  0.00  0.00     0.069 H 
BRANCH   4   7
ATOM      7  C   LIG d   1       3.015   0.929  -7.879  0.00  0.00    -0.031 C 
ATOM      8  H   LIG d   1       2.310   1.611  -7.403  0.00  0.00     0.026 H 
ATOM      9  H   LIG d   1       3.902   1.481  -8.190  0.00  0.00     0.026 H 
ATOM     10  H   LIG d   1       2.546   0.473  -8.751  0.00  0.00     0.026 H 
ENDBRANCH   4   7
ENDBRANCH   3   4
ENDBRANCH   1   3
BRANCH   1  11
ATOM     11  C   LIG d   1       4.154  -0.171  -3.276  0.00  0.00     0.328 C 
ATOM     12 CL   LIG d   1       2.433  -0.640  -3.017  0.00  0.00    -0.088 Cl
BRANCH  11  13
ATOM     13  C   LIG d   1       5.070  -1.286  -2.769  0.00  0.00     0.427 C 
ATOM     14  F   LIG d   1       5.038  -2.361  -3.663  0.00  0.00    -0.168 F 
ATOM     15  F   LIG d   1       6.379  -0.803  -2.665  0.00  0.00    -0.168 F 
ATOM     16  F   LIG d   1       4.630  -1.713  -1.510  0.00  0.00    -0.168 F 
ENDBRANCH  11  13
BRANCH  11  17
ATOM     17  C   LIG d   1       4.451   1.121  -2.512  0.00  0.00     0.427 C 
ATOM     18  F   LIG d   1       5.655   1.668  -2.970  0.00  0.00    -0.168 F 
ATOM     19  F   LIG d   1       3.413   2.036  -2.720  0.00  0.00    -0.168 F 
ATOM     20  F   LIG d   1       4.558   0.840  -1.145  0.00  0.00    -0.168 F 
ENDBRANCH  11  17
ENDBRANCH   1  11
TORSDOF 6
ENDMDL
MODEL 2
REMARK VINA RESULT:      -5.8      1.453      2.842
REMARK  6 active torsions:
REMARK  status: ('A' for Active; 'I' for Inactive)
REMARK    1  A    between atoms: C_1  and  C_2 
REMARK    2  A    between atoms: C_2  and  O_3 
REMARK    3  A    between atoms: O_3  and  C_4 
REMARK    4  A    between atoms: C_4  and  C_6 
REMARK    5  A    between atoms: C_6  and  C_7 
REMARK    6  A    between atoms: C_6  and  C_11 
ROOT
ATOM      1  C   LIG d   1       4.672  -0.271  -4.752  0.00  0.00     0.346 C 
ATOM      2  O   LIG d   1       5.542   0.075  -5.514  0.00  0.00    -0.248 OA
ENDROOT
BRANCH   1   3
ATOM      3  O   LIG d   1       3.445  -0.554  -5.219  0.00  0.00    -0.463 OA
BRANCH   3   4
ATOM      4  C   LIG d   1       2.838   0.414  -6.078  0.00  0.00     0.090 C 
ATOM      5  H   LIG d   1       3.437   1.325  -6.078  0.00  0.00     0.069 H 
ATOM      6  H   LIG d   1       1.835   0.639  -5.720  0.00  0.00     0.069 H 
BRANCH   4   7
ATOM      7  C   LIG d   1       2.759  -0.145  -7.500  0.00  0.00    -0.031 C 
ATOM      8  H   LIG d   1       3.379   0.460  -8.163  0.00  0.00     0.026 H 
ATOM      9  H   LIG d   1       3.116  -1.175  -7.507  0.00  0.00     0.026 H 
ATOM     10  H   LIG d   1       1.725  -0.116  -7.844  0.00  0.00     0.026 H 
ENDBRANCH   4   7
ENDBRANCH   3   4
ENDBRANCH   1   3
BRANCH   1  11
ATOM     11  C   LIG d   1       4.960  -0.385  -3.277  0.00  0.00     0.328 C 
ATOM     12 CL   LIG d   1       6.641  -0.991  -3.039  0.00  0.00    -0.088 Cl
BRANCH  11  13
ATOM     13  C   LIG d   1       4.813   0.989  -2.621  0.00  0.00     0.427 C 
ATOM     14  F   LIG d   1       3.696   1.643  -3.150  0.00  0.00    -0.168 F 
ATOM     15  F   LIG d   1       4.652   0.831  -1.240  0.00  0.00    -0.168 F 
ATOM     16  F   LIG d   1       5.961   1.749  -2.871  0.00  0.00    -0.168 F 
ENDBRANCH  11  13
BRANCH  11  17
ATOM     17  C   LIG d   1       3.970  -1.363  -2.640  0.00  0.00     0.427 C 
ATOM     18  F   LIG d   1       3.916  -2.535  -3.402  0.00  0.00    -0.168 F 
ATOM     19  F   LIG d   1       4.390  -1.670  -1.340  0.00  0.00    -0.168 F 
ATOM     20  F   LIG d   1       2.700  -0.777  -2.593  0.00  0.00    -0.168 F 
ENDBRANCH  11  17
ENDBRANCH   1  11
TORSDOF 6
ENDMDL
MODEL 3
REMARK VINA RESULT:      -5.8      1.575      2.856
REMARK  6 active torsions:
REMARK  status: ('A' for Active; 'I' for Inactive)
REMARK    1  A    between atoms: C_1  and  C_2 
REMARK    2  A    between atoms: C_2  and  O_3 
REMARK    3  A    between atoms: O_3  and  C_4 
REMARK    4  A    between atoms: C_4  and  C_6 
REMARK    5  A    between atoms: C_6  and  C_7 
REMARK    6  A    between atoms: C_6  and  C_11 
ROOT
ATOM      1  C   LIG d   1       4.849  -0.356  -4.913  0.00  0.00     0.346 C 
ATOM      2  O   LIG d   1       5.831   0.119  -5.432  0.00  0.00    -0.248 OA
ENDROOT
BRANCH   1   3
ATOM      3  O   LIG d   1       3.982  -1.071  -5.647  0.00  0.00    -0.463 OA
BRANCH   3   4
ATOM      4  C   LIG d   1       4.009  -0.869  -7.062  0.00  0.00     0.090 C 
ATOM      5  H   LIG d   1       3.989  -1.834  -7.568  0.00  0.00     0.069 H 
ATOM      6  H   LIG d   1       4.918  -0.335  -7.335  0.00  0.00     0.069 H 
BRANCH   4   7
ATOM      7  C   LIG d   1       2.789  -0.047  -7.483  0.00  0.00    -0.031 C 
ATOM      8  H   LIG d   1       3.099   0.973  -7.711  0.00  0.00     0.026 H 
ATOM      9  H   LIG d   1       2.336  -0.495  -8.367  0.00  0.00     0.026 H 
ATOM     10  H   LIG d   1       2.063  -0.032  -6.670  0.00  0.00     0.026 H 
ENDBRANCH   4   7
ENDBRANCH   3   4
ENDBRANCH   1   3
BRANCH   1  11
ATOM     11  C   LIG d   1       4.596  -0.148  -3.442  0.00  0.00     0.328 C 
ATOM     12 CL   LIG d   1       5.765   1.064  -2.797  0.00  0.00    -0.088 Cl
BRANCH  11  13
ATOM     13  C   LIG d   1       3.168   0.360  -3.237  0.00  0.00     0.427 C 
ATOM     14  F   LIG d   1       3.110   1.133  -2.072  0.00  0.00    -0.168 F 
ATOM     15  F   LIG d   1       2.787   1.140  -4.334  0.00  0.00    -0.168 F 
ATOM     16  F   LIG d   1       2.298  -0.730  -3.116  0.00  0.00    -0.168 F 
ENDBRANCH  11  13
BRANCH  11  17
ATOM     17  C   LIG d   1       4.776  -1.475  -2.702  0.00  0.00     0.427 C 
ATOM     18  F   LIG d   1       6.113  -1.879  -2.787  0.00  0.00    -0.168 F 
ATOM     19  F   LIG d   1       4.422  -1.311  -1.358  0.00  0.00    -0.168 F 
ATOM     20  F   LIG d   1       3.957  -2.449  -3.284  0.00  0.00    -0.168 F 
ENDBRANCH  11  17
ENDBRANCH   1  11
TORSDOF 6
ENDMDL
MODEL 4
REMARK VINA RESULT:      -5.8      2.231      2.942
REMARK  6 active torsions:
REMARK  status: ('A' for Active; 'I' for Inactive)
REMARK    1  A    between atoms: C_1  and  C_2 
REMARK    2  A    between atoms: C_2  and  O_3 
REMARK    3  A    between atoms: O_3  and  C_4 
REMARK    4  A    between atoms: C_4  and  C_6 
REMARK    5  A    between atoms: C_6  and  C_7 
REMARK    6  A    between atoms: C_6  and  C_11 
ROOT
ATOM      1  C   LIG d   1       5.526   0.558  -3.494  0.00  0.00     0.346 C 
ATOM      2  O   LIG d   1       5.727   1.227  -2.509  0.00  0.00    -0.248 OA
ENDROOT
BRANCH   1   3
ATOM      3  O   LIG d   1       6.291   0.724  -4.585  0.00  0.00    -0.463 OA
BRANCH   3   4
ATOM      4  C   LIG d   1       7.694   0.500  -4.434  0.00  0.00     0.090 C 
ATOM      5  H   LIG d   1       7.957   0.541  -3.377  0.00  0.00     0.069 H 
ATOM      6  H   LIG d   1       8.245   1.268  -4.974  0.00  0.00     0.069 H 
BRANCH   4   7
ATOM      7  C   LIG d   1       8.054  -0.877  -4.996  0.00  0.00    -0.031 C 
ATOM      8  H   LIG d   1       7.282  -1.196  -5.697  0.00  0.00     0.026 H 
ATOM      9  H   LIG d   1       9.012  -0.819  -5.512  0.00  0.00     0.026 H 
ATOM     10  H   LIG d   1       8.123  -1.595  -4.180  0.00  0.00     0.026 H 
ENDBRANCH   4   7
ENDBRANCH   3   4
ENDBRANCH   1   3
BRANCH   1  11
ATOM     11  C   LIG d   1       4.418  -0.463  -3.500  0.00  0.00     0.328 C 
ATOM     12 CL   LIG d   1       4.320  -1.234  -5.127  0.00  0.00    -0.088 Cl
BRANCH  11  13
ATOM     13  C   LIG d   1       4.705  -1.533  -2.445  0.00  0.00     0.427 C 
ATOM     14  F   LIG d   1       6.051  -1.906  -2.511  0.00  0.00    -0.168 F 
ATOM     15  F   LIG d   1       4.423  -1.021  -1.173  0.00  0.00    -0.168 F 
ATOM     16  F   LIG d   1       3.898  -2.652  -2.685  0.00  0.00    -0.168 F 
ENDBRANCH  11  13
BRANCH  11  17
ATOM     17  C   LIG d   1       3.089   0.225  -3.180  0.00  0.00     0.427 C 
ATOM     18  F   LIG d   1       2.679   0.982  -4.283  0.00  0.00    -0.168 F 
ATOM     19  F   LIG d   1       2.120  -0.742  -2.891  0.00  0.00    -0.168 F 
ATOM     20  F   LIG d   1       3.254   1.065  -2.073  0.00  0.00    -0.168 F 
ENDBRANCH  11  17
ENDBRANCH   1  11
TORSDOF 6
ENDMDL
MODEL 5
REMARK VINA RESULT:      -5.6      1.472      2.199
REMARK  6 active torsions:
REMARK  status: ('A' for Active; 'I' for Inactive)
REMARK    1  A    between atoms: C_1  and  C_2 
REMARK    2  A    between atoms: C_2  and  O_3 
REMARK    3  A    between atoms: O_3  and  C_4 
REMARK    4  A    between atoms: C_4  and  C_6 
REMARK    5  A    between atoms: C_6  and  C_7 
REMARK    6  A    between atoms: C_6  and  C_11 
ROOT
ATOM      1  C   LIG d   1       5.341  -0.236  -4.141  0.00  0.00     0.346 C 
ATOM      2  O   LIG d   1       6.299  -0.648  -3.532  0.00  0.00    -0.248 OA
ENDROOT
BRANCH   1   3
ATOM      3  O   LIG d   1       5.426  -0.024  -5.464  0.00  0.00    -0.463 OA
BRANCH   3   4
ATOM      4  C   LIG d   1       5.629  -1.172  -6.292  0.00  0.00     0.090 C 
ATOM      5  H   LIG d   1       5.888  -2.028  -5.669  0.00  0.00     0.069 H 
ATOM      6  H   LIG d   1       6.439  -0.975  -6.993  0.00  0.00     0.069 H 
BRANCH   4   7
ATOM      7  C   LIG d   1       4.345  -1.475  -7.067  0.00  0.00    -0.031 C 
ATOM      8  H   LIG d   1       4.553  -2.216  -7.839  0.00  0.00     0.026 H 
ATOM      9  H   LIG d   1       3.590  -1.863  -6.383  0.00  0.00     0.026 H 
ATOM     10  H   LIG d   1       3.978  -0.560  -7.532  0.00  0.00     0.026 H 
ENDBRANCH   4   7
ENDBRANCH   3   4
ENDBRANCH   1   3
BRANCH   1  11
ATOM     11  C   LIG d   1       4.049   0.042  -3.417  0.00  0.00     0.328 C 
ATOM     12 CL   LIG d   1       2.821   0.648  -4.589  0.00  0.00    -0.088 Cl
BRANCH  11  13
ATOM     13  C   LIG d   1       3.541  -1.246  -2.765  0.00  0.00     0.427 C 
ATOM     14  F   LIG d   1       4.263  -1.493  -1.593  0.00  0.00    -0.168 F 
ATOM     15  F   LIG d   1       2.183  -1.110  -2.458  0.00  0.00    -0.168 F 
ATOM     16  F   LIG d   1       3.713  -2.315  -3.652  0.00  0.00    -0.168 F 
ENDBRANCH  11  13
BRANCH  11  17
ATOM     17  C   LIG d   1       4.287   1.099  -2.336  0.00  0.00     0.427 C 
ATOM     18  F   LIG d   1       4.749   0.479  -1.170  0.00  0.00    -0.168 F 
ATOM     19  F   LIG d   1       5.242   2.018  -2.786  0.00  0.00    -0.168 F 
ATOM     20  F   LIG d   1       3.089   1.768  -2.065  0.00  0.00    -0.168 F 
ENDBRANCH  11  17
ENDBRANCH   1  11
TORSDOF 6
ENDMDL
MODEL 6
REMARK VINA RESULT:      -5.4      1.471      2.166
REMARK  6 active torsions:
REMARK  status: ('A' for Active; 'I' for Inactive)
REMARK    1  A    between atoms: C_1  and  C_2 
REMARK    2  A    between atoms: C_2  and  O_3 
REMARK    3  A    between atoms: O_3  and  C_4 
REMARK    4  A    between atoms: C_4  and  C_6 
REMARK    5  A    between atoms: C_6  and  C_7 
REMARK    6  A    between atoms: C_6  and  C_11 
ROOT
ATOM      1  C   LIG d   1       4.808  -0.473  -4.947  0.00  0.00     0.346 C 
ATOM      2  O   LIG d   1       5.717   0.268  -5.233  0.00  0.00    -0.248 OA
ENDROOT
BRANCH   1   3
ATOM      3  O   LIG d   1       4.256  -1.254  -5.889  0.00  0.00    -0.463 OA
BRANCH   3   4
ATOM      4  C   LIG d   1       4.191  -0.723  -7.215  0.00  0.00     0.090 C 
ATOM      5  H   LIG d   1       4.326  -1.529  -7.936  0.00  0.00     0.069 H 
ATOM      6  H   LIG d   1       4.978   0.018  -7.348  0.00  0.00     0.069 H 
BRANCH   4   7
ATOM      7  C   LIG d   1       2.827  -0.064  -7.433  0.00  0.00    -0.031 C 
ATOM      8  H   LIG d   1       2.575  -0.095  -8.494  0.00  0.00     0.026 H 
ATOM      9  H   LIG d   1       2.069  -0.600  -6.863  0.00  0.00     0.026 H 
ATOM     10  H   LIG d   1       2.868   0.973  -7.100  0.00  0.00     0.026 H 
ENDBRANCH   4   7
ENDBRANCH   3   4
ENDBRANCH   1   3
BRANCH   1  11
ATOM     11  C   LIG d   1       4.293  -0.524  -3.532  0.00  0.00     0.328 C 
ATOM     12 CL   LIG d   1       4.073  -2.243  -3.033  0.00  0.00    -0.088 Cl
BRANCH  11  13
ATOM     13  C   LIG d   1       5.296   0.154  -2.598  0.00  0.00     0.427 C 
ATOM     14  F   LIG d   1       6.558  -0.427  -2.766  0.00  0.00    -0.168 F 
ATOM     15  F   LIG d   1       5.367   1.518  -2.900  0.00  0.00    -0.168 F 
ATOM     16  F   LIG d   1       4.881  -0.008  -1.271  0.00  0.00    -0.168 F 
ENDBRANCH  11  13
BRANCH  11  17
ATOM     17  C   LIG d   1       2.950   0.206  -3.453  0.00  0.00     0.427 C 
ATOM     18  F   LIG d   1       1.910  -0.706  -3.668  0.00  0.00    -0.168 F 
ATOM     19  F   LIG d   1       2.808   0.786  -2.187  0.00  0.00    -0.168 F 
ATOM     20  F   LIG d   1       2.903   1.205  -4.431  0.00  0.00    -0.168 F 
ENDBRANCH  11  17
ENDBRANCH   1  11
TORSDOF 6
ENDMDL
MODEL 7
REMARK VINA RESULT:      -5.4      1.386      2.131
REMARK  6 active torsions:
REMARK  status: ('A' for Active; 'I' for Inactive)
REMARK    1  A    between atoms: C_1  and  C_2 
REMARK    2  A    between atoms: C_2  and  O_3 
REMARK    3  A    between atoms: O_3  and  C_4 
REMARK    4  A    between atoms: C_4  and  C_6 
REMARK    5  A    between atoms: C_6  and  C_7 
REMARK    6  A    between atoms: C_6  and  C_11 
ROOT
ATOM      1  C   LIG d   1       3.981  -0.492  -4.953  0.00  0.00     0.346 C 
ATOM      2  O   LIG d   1       4.287  -1.577  -5.387  0.00  0.00    -0.248 OA
ENDROOT
BRANCH   1   3
ATOM      3  O   LIG d   1       3.304   0.373  -5.725  0.00  0.00    -0.463 OA
BRANCH   3   4
ATOM      4  C   LIG d   1       3.086  -0.006  -7.086  0.00  0.00     0.090 C 
ATOM      5  H   LIG d   1       2.163  -0.580  -7.160  0.00  0.00     0.069 H 
ATOM      6  H   LIG d   1       3.921  -0.615  -7.432  0.00  0.00     0.069 H 
BRANCH   4   7
ATOM      7  C   LIG d   1       2.978   1.249  -7.954  0.00  0.00    -0.031 C 
ATOM      8  H   LIG d   1       2.557   2.064  -7.363  0.00  0.00     0.026 H 
ATOM      9  H   LIG d   1       3.968   1.532  -8.310  0.00  0.00     0.026 H 
ATOM     10  H   LIG d   1       2.329   1.046  -8.806  0.00  0.00     0.026 H 
ENDBRANCH   4   7
ENDBRANCH   3   4
ENDBRANCH   1   3
BRANCH   1  11
ATOM     11  C   LIG d   1       4.356  -0.109  -3.545  0.00  0.00     0.328 C 
ATOM     12 CL   LIG d   1       3.550   1.444  -3.109  0.00  0.00    -0.088 Cl
BRANCH  11  13
ATOM     13  C   LIG d   1       3.905  -1.207  -2.579  0.00  0.00     0.427 C 
ATOM     14  F   LIG d   1       2.510  -1.310  -2.608  0.00  0.00    -0.168 F 
ATOM     15  F   LIG d   1       4.472  -2.427  -2.963  0.00  0.00    -0.168 F 
ATOM     16  F   LIG d   1       4.323  -0.886  -1.282  0.00  0.00    -0.168 F 
ENDBRANCH  11  13
BRANCH  11  17
ATOM     17  C   LIG d   1       5.874   0.061  -3.451  0.00  0.00     0.427 C 
ATOM     18  F   LIG d   1       6.175   1.061  -2.520  0.00  0.00    -0.168 F 
ATOM     19  F   LIG d   1       6.454  -1.146  -3.043  0.00  0.00    -0.168 F 
ATOM     20  F   LIG d   1       6.382   0.422  -4.703  0.00  0.00    -0.168 F 
ENDBRANCH  11  17
ENDBRANCH   1  11
TORSDOF 6
ENDMDL
MODEL 8
REMARK VINA RESULT:      -5.3      2.388      3.460
REMARK  6 active torsions:
REMARK  status: ('A' for Active; 'I' for Inactive)
REMARK    1  A    between atoms: C_1  and  C_2 
REMARK    2  A    between atoms: C_2  and  O_3 
REMARK    3  A    between atoms: O_3  and  C_4 
REMARK    4  A    between atoms: C_4  and  C_6 
REMARK    5  A    between atoms: C_6  and  C_7 
REMARK    6  A    between atoms: C_6  and  C_11 
ROOT
ATOM      1  C   LIG d   1       6.149  -0.517  -3.178  0.00  0.00     0.346 C 
ATOM      2  O   LIG d   1       6.851   0.462  -3.264  0.00  0.00    -0.248 OA
ENDROOT
BRANCH   1   3
ATOM      3  O   LIG d   1       6.704  -1.734  -3.071  0.00  0.00    -0.463 OA
BRANCH   3   4
ATOM      4  C   LIG d   1       7.502  -2.181  -4.169  0.00  0.00     0.090 C 
ATOM      5  H   LIG d   1       8.129  -1.361  -4.520  0.00  0.00     0.069 H 
ATOM      6  H   LIG d   1       6.854  -2.514  -4.979  0.00  0.00     0.069 H 
BRANCH   4   7
ATOM      7  C   LIG d   1       8.389  -3.343  -3.716  0.00  0.00    -0.031 C 
ATOM      8  H   LIG d   1       7.917  -3.852  -2.875  0.00  0.00     0.026 H 
ATOM      9  H   LIG d   1       8.519  -4.044  -4.540  0.00  0.00     0.026 H 
ATOM     10  H   LIG d   1       9.361  -2.959  -3.408  0.00  0.00     0.026 H 
ENDBRANCH   4   7
ENDBRANCH   3   4
ENDBRANCH   1   3
BRANCH   1  11
ATOM     11  C   LIG d   1       4.648  -0.373  -3.190  0.00  0.00     0.328 C 
ATOM     12 CL   LIG d   1       4.076  -0.176  -4.888  0.00  0.00    -0.088 Cl
BRANCH  11  13
ATOM     13  C   LIG d   1       4.011  -1.621  -2.577  0.00  0.00     0.427 C 
ATOM     14  F   LIG d   1       4.494  -1.802  -1.277  0.00  0.00    -0.168 F 
ATOM     15  F   LIG d   1       2.621  -1.466  -2.541  0.00  0.00    -0.168 F 
ATOM     16  F   LIG d   1       4.335  -2.739  -3.355  0.00  0.00    -0.168 F 
ENDBRANCH  11  13
BRANCH  11  17
ATOM     17  C   LIG d   1       4.249   0.857  -2.371  0.00  0.00     0.427 C 
ATOM     18  F   LIG d   1       2.856   0.897  -2.238  0.00  0.00    -0.168 F 
ATOM     19  F   LIG d   1       4.837   0.785  -1.103  0.00  0.00    -0.168 F 
ATOM     20  F   LIG d   1       4.688   2.015  -3.024  0.00  0.00    -0.168 F 
ENDBRANCH  11  17
ENDBRANCH   1  11
TORSDOF 6
ENDMDL
MODEL 9
REMARK VINA RESULT:      -5.3      1.997      3.574
REMARK  6 active torsions:
REMARK  status: ('A' for Active; 'I' for Inactive)
REMARK    1  A    between atoms: C_1  and  C_2 
REMARK    2  A    between atoms: C_2  and  O_3 
REMARK    3  A    between atoms: O_3  and  C_4 
REMARK    4  A    between atoms: C_4  and  C_6 
REMARK    5  A    between atoms: C_6  and  C_7 
REMARK    6  A    between atoms: C_6  and  C_11 
ROOT
ATOM      1  C   LIG d   1       5.348  -0.381  -4.046  0.00  0.00     0.346 C 
ATOM      2  O   LIG d   1       5.886   0.575  -4.551  0.00  0.00    -0.248 OA
ENDROOT
BRANCH   1   3
ATOM      3  O   LIG d   1       5.912  -1.596  -4.141  0.00  0.00    -0.463 OA
BRANCH   3   4
ATOM      4  C   LIG d   1       7.220  -1.749  -3.586  0.00  0.00     0.090 C 
ATOM      5  H   LIG d   1       7.165  -1.674  -2.500  0.00  0.00     0.069 H 
ATOM      6  H   LIG d   1       7.872  -0.965  -3.971  0.00  0.00     0.069 H 
BRANCH   4   7
ATOM      7  C   LIG d   1       7.782  -3.117  -3.975  0.00  0.00    -0.031 C 
ATOM      8  H   LIG d   1       7.249  -3.897  -3.431  0.00  0.00     0.026 H 
ATOM      9  H   LIG d   1       7.657  -3.271  -5.047  0.00  0.00     0.026 H 
ATOM     10  H   LIG d   1       8.842  -3.159  -3.724  0.00  0.00     0.026 H 
ENDBRANCH   4   7
ENDBRANCH   3   4
ENDBRANCH   1   3
BRANCH   1  11
ATOM     11  C   LIG d   1       4.045  -0.212  -3.309  0.00  0.00     0.328 C 
ATOM     12 CL   LIG d   1       3.650  -1.734  -2.428  0.00  0.00    -0.088 Cl
BRANCH  11  13
ATOM     13  C   LIG d   1       4.169   0.939  -2.309  0.00  0.00     0.427 C 
ATOM     14  F   LIG d   1       4.805   0.485  -1.149  0.00  0.00    -0.168 F 
ATOM     15  F   LIG d   1       4.920   1.973  -2.879  0.00  0.00    -0.168 F 
ATOM     16  F   LIG d   1       2.893   1.415  -1.985  0.00  0.00    -0.168 F 
ENDBRANCH  11  13
BRANCH  11  17
ATOM     17  C   LIG d   1       2.930   0.101  -4.310  0.00  0.00     0.427 C 
ATOM     18  F   LIG d   1       2.793   1.488  -4.438  0.00  0.00    -0.168 F 
ATOM     19  F   LIG d   1       3.253  -0.452  -5.555  0.00  0.00    -0.168 F 
ATOM     20  F   LIG d   1       1.726  -0.446  -3.855  0.00  0.00    -0.168 F 
ENDBRANCH  11  17
ENDBRANCH   1  11
TORSDOF 6
ENDMDL
MODEL 10
REMARK VINA RESULT:      -5.1      2.426      3.788
REMARK  6 active torsions:
REMARK  status: ('A' for Active; 'I' for Inactive)
REMARK    1  A    between atoms: C_1  and  C_2 
REMARK    2  A    between atoms: C_2  and  O_3 
REMARK    3  A    between atoms: O_3  and  C_4 
REMARK    4  A    between atoms: C_4  and  C_6 
REMARK    5  A    between atoms: C_6  and  C_7 
REMARK    6  A    between atoms: C_6  and  C_11 
ROOT
ATOM      1  C   LIG d   1       6.111  -0.620  -3.262  0.00  0.00     0.346 C 
ATOM      2  O   LIG d   1       6.824   0.353  -3.206  0.00  0.00    -0.248 OA
ENDROOT
BRANCH   1   3
ATOM      3  O   LIG d   1       6.647  -1.849  -3.197  0.00  0.00    -0.463 OA
BRANCH   3   4
ATOM      4  C   LIG d   1       7.507  -2.239  -4.270  0.00  0.00     0.090 C 
ATOM      5  H   LIG d   1       8.542  -2.226  -3.929  0.00  0.00     0.069 H 
ATOM      6  H   LIG d   1       7.389  -1.543  -5.100  0.00  0.00     0.069 H 
BRANCH   4   7
ATOM      7  C   LIG d   1       7.138  -3.650  -4.732  0.00  0.00    -0.031 C 
ATOM      8  H   LIG d   1       7.172  -3.697  -5.820  0.00  0.00     0.026 H 
ATOM      9  H   LIG d   1       7.846  -4.366  -4.314  0.00  0.00     0.026 H 
ATOM     10  H   LIG d   1       6.132  -3.893  -4.389  0.00  0.00     0.026 H 
ENDBRANCH   4   7
ENDBRANCH   3   4
ENDBRANCH   1   3
BRANCH   1  11
ATOM     11  C   LIG d   1       4.619  -0.456  -3.403  0.00  0.00     0.328 C 
ATOM     12 CL   LIG d   1       4.152   1.223  -2.944  0.00  0.00    -0.088 Cl
BRANCH  11  13
ATOM     13  C   LIG d   1       4.212  -0.721  -4.854  0.00  0.00     0.427 C 
ATOM     14  F   LIG d   1       4.161  -2.101  -5.080  0.00  0.00    -0.168 F 
ATOM     15  F   LIG d   1       2.953  -0.161  -5.094  0.00  0.00    -0.168 F 
ATOM     16  F   LIG d   1       5.151  -0.142  -5.714  0.00  0.00    -0.168 F 
ENDBRANCH  11  13
BRANCH  11  17
ATOM     17  C   LIG d   1       3.909  -1.453  -2.484  0.00  0.00     0.427 C 
ATOM     18  F   LIG d   1       2.528  -1.230  -2.534  0.00  0.00    -0.168 F 
ATOM     19  F   LIG d   1       4.187  -2.757  -2.907  0.00  0.00    -0.168 F 
ATOM     20  F   LIG d   1       4.362  -1.282  -1.171  0.00  0.00    -0.168 F 
ENDBRANCH  11  17
ENDBRANCH   1  11
TORSDOF 6
ENDMDL
