MODEL 1
REMARK VINA RESULT:      -5.4      0.000      0.000
REMARK  8 active torsions:
REMARK  status: ('A' for Active; 'I' for Inactive)
REMARK    1  A    between atoms: C_1  and  C_2 
REMARK    2  A    between atoms: C_2  and  C_4 
REMARK    3  A    between atoms: C_2  and  N_7 
REMARK       I    between atoms: C_4  and  N_6 
REMARK       I    between atoms: N_7  and  C_8 
REMARK    4  A    between atoms: C_8  and  C_10 
REMARK    5  A    between atoms: C_13  and  O_25 
REMARK       I    between atoms: N_17  and  C_18 
REMARK    6  A    between atoms: C_18  and  C_20 
REMARK    7  A    between atoms: O_25  and  C_26 
REMARK    8  A    between atoms: C_26  and  C_27 
ROOT
ATOM      1  C   LIG d   1       9.920  -4.800  -2.356  0.00  0.00    -0.077 C 
ATOM      2  C   LIG d   1       9.561  -5.342  -1.378  0.00  0.00    -0.117 C 
ATOM      3  H   LIG d   1       9.240  -5.825  -0.504  0.00  0.00     0.123 H 
ENDROOT
BRANCH   1   4
ATOM      4  C   LIG d   1      10.370  -4.122  -3.583  0.00  0.00     0.108 C 
ATOM      5  H   LIG d   1      11.321  -4.546  -3.904  0.00  0.00     0.070 H 
ATOM      6  H   LIG d   1      10.496  -3.057  -3.384  0.00  0.00     0.070 H 
BRANCH   4   7
ATOM      7  O   LIG d   1       9.395  -4.302  -4.612  0.00  0.00    -0.364 OA
BRANCH   7   8
ATOM      8  C   LIG d   1       9.059  -3.102  -5.312  0.00  0.00     0.064 C 
ATOM      9  C   LIG d   1       7.661  -2.643  -4.891  0.00  0.00     0.001 C 
ATOM     10  C   LIG d   1       7.290  -1.375  -5.669  0.00  0.00     0.104 C 
ATOM     11  H   LIG d   1       7.654  -2.429  -3.823  0.00  0.00     0.031 H 
ATOM     12  H   LIG d   1       6.937  -3.428  -5.110  0.00  0.00     0.031 H 
ATOM     13  H   LIG d   1       7.205  -1.608  -6.730  0.00  0.00     0.060 H 
ATOM     14  N   LIG d   1       8.343  -0.371  -5.465  0.00  0.00    -0.289 N 
ATOM     15  C   LIG d   1       9.736  -0.740  -5.753  0.00  0.00     0.018 C 
ATOM     16  C   LIG d   1       8.037   0.866  -5.024  0.00  0.00     0.220 C 
ATOM     17  C   LIG d   1      10.079  -2.013  -4.974  0.00  0.00    -0.011 C 
ATOM     18  H   LIG d   1      10.399   0.068  -5.443  0.00  0.00     0.046 H 
ATOM     19  H   LIG d   1       9.855  -0.919  -6.821  0.00  0.00     0.046 H 
ATOM     20  H   LIG d   1      10.050  -1.805  -3.905  0.00  0.00     0.030 H 
ATOM     21  H   LIG d   1      11.078  -2.352  -5.253  0.00  0.00     0.030 H 
ATOM     22  O   LIG d   1       6.895   1.133  -4.714  0.00  0.00    -0.275 OA
ATOM     23  H   LIG d   1       9.071  -3.293  -6.385  0.00  0.00     0.060 H 
BRANCH  10  24
ATOM     24  C   LIG d   1       5.976  -0.838  -5.162  0.00  0.00     0.234 C 
ATOM     25  N   LIG d   1       5.535  -1.184  -3.936  0.00  0.00    -0.303 N 
ATOM     26  H   LIG d   1       6.063  -1.778  -3.380  0.00  0.00     0.149 HD
ATOM     27  O   LIG d   1       5.316  -0.096  -5.857  0.00  0.00    -0.274 OA
BRANCH  25  28
ATOM     28  C   LIG d   1       4.258  -0.662  -3.443  0.00  0.00     0.096 C 
ATOM     29  H   LIG d   1       3.623  -0.395  -4.289  0.00  0.00     0.059 H 
BRANCH  28  30
ATOM     30  C   LIG d   1       3.560  -1.732  -2.602  0.00  0.00    -0.038 C 
ATOM     31  H   LIG d   1       4.297  -2.245  -1.983  0.00  0.00     0.025 H 
ATOM     32  H   LIG d   1       2.813  -1.262  -1.962  0.00  0.00     0.025 H 
ATOM     33  H   LIG d   1       3.074  -2.452  -3.259  0.00  0.00     0.025 H 
ENDBRANCH  28  30
BRANCH  28  34
ATOM     34  C   LIG d   1       4.507   0.559  -2.596  0.00  0.00     0.231 C 
ATOM     35  O   LIG d   1       4.656   0.445  -1.398  0.00  0.00    -0.274 OA
ATOM     36  N   LIG d   1       4.566   1.777  -3.171  0.00  0.00    -0.328 N 
ATOM     37  H   LIG d   1       4.447   1.868  -4.130  0.00  0.00     0.145 HD
ATOM     38  H   LIG d   1       4.723   2.563  -2.625  0.00  0.00     0.145 HD
ENDBRANCH  28  34
ENDBRANCH  25  28
ENDBRANCH  10  24
BRANCH  16  39
ATOM     39  C   LIG d   1       9.113   1.915  -4.915  0.00  0.00     0.045 C 
ATOM     40  C   LIG d   1       8.941   2.943  -6.037  0.00  0.00    -0.001 C 
ATOM     41  C   LIG d   1       9.999   4.037  -5.885  0.00  0.00    -0.033 C 
ATOM     42  H   LIG d   1       9.061   2.452  -7.002  0.00  0.00     0.032 H 
ATOM     43  H   LIG d   1       7.947   3.386  -5.975  0.00  0.00     0.032 H 
ATOM     44  H   LIG d   1      10.993   3.595  -5.961  0.00  0.00     0.081 H 
ATOM     45  H   LIG d   1       9.871   4.779  -6.674  0.00  0.00     0.081 H 
ATOM     46  N   LIG d   1       9.849   4.697  -4.574  0.00  0.00     0.227 N 
ATOM     47  C   LIG d   1      10.060   3.728  -3.483  0.00  0.00    -0.033 C 
ATOM     48  H   LIG d   1      10.540   5.452  -4.494  0.00  0.00     0.201 HD
ATOM     49  H   LIG d   1       8.903   5.090  -4.500  0.00  0.00     0.201 HD
ATOM     50  C   LIG d   1       9.004   2.622  -3.562  0.00  0.00    -0.001 C 
ATOM     51  H   LIG d   1      11.053   3.287  -3.570  0.00  0.00     0.081 H 
ATOM     52  H   LIG d   1       9.974   4.243  -2.526  0.00  0.00     0.081 H 
ATOM     53  H   LIG d   1       8.011   3.060  -3.459  0.00  0.00     0.032 H 
ATOM     54  H   LIG d   1       9.169   1.902  -2.760  0.00  0.00     0.032 H 
ATOM     55  H   LIG d   1      10.092   1.442  -5.001  0.00  0.00     0.040 H 
ENDBRANCH  16  39
ENDBRANCH   7   8
ENDBRANCH   4   7
ENDBRANCH   1   4
TORSDOF 8
ENDMDL
MODEL 2
REMARK VINA RESULT:      -5.3      3.418      5.675
REMARK  8 active torsions:
REMARK  status: ('A' for Active; 'I' for Inactive)
REMARK    1  A    between atoms: C_1  and  C_2 
REMARK    2  A    between atoms: C_2  and  C_4 
REMARK    3  A    between atoms: C_2  and  N_7 
REMARK       I    between atoms: C_4  and  N_6 
REMARK       I    between atoms: N_7  and  C_8 
REMARK    4  A    between atoms: C_8  and  C_10 
REMARK    5  A    between atoms: C_13  and  O_25 
REMARK       I    between atoms: N_17  and  C_18 
REMARK    6  A    between atoms: C_18  and  C_20 
REMARK    7  A    between atoms: O_25  and  C_26 
REMARK    8  A    between atoms: C_26  and  C_27 
ROOT
ATOM      1  C   LIG d   1      11.396  -3.087  -4.214  0.00  0.00    -0.077 C 
ATOM      2  C   LIG d   1      11.650  -3.896  -3.403  0.00  0.00    -0.117 C 
ATOM      3  H   LIG d   1      11.878  -4.620  -2.678  0.00  0.00     0.123 H 
ENDROOT
BRANCH   1   4
ATOM      4  C   LIG d   1      11.076  -2.071  -5.231  0.00  0.00     0.108 C 
ATOM      5  H   LIG d   1      11.036  -2.541  -6.214  0.00  0.00     0.070 H 
ATOM      6  H   LIG d   1      11.846  -1.299  -5.229  0.00  0.00     0.070 H 
BRANCH   4   7
ATOM      7  O   LIG d   1       9.809  -1.480  -4.933  0.00  0.00    -0.364 OA
BRANCH   7   8
ATOM      8  C   LIG d   1       8.720  -2.405  -4.943  0.00  0.00     0.064 C 
ATOM      9  C   LIG d   1       7.533  -1.802  -4.189  0.00  0.00     0.001 C 
ATOM     10  C   LIG d   1       6.379  -2.811  -4.172  0.00  0.00     0.104 C 
ATOM     11  H   LIG d   1       7.210  -0.889  -4.688  0.00  0.00     0.031 H 
ATOM     12  H   LIG d   1       7.829  -1.572  -3.165  0.00  0.00     0.031 H 
ATOM     13  H   LIG d   1       6.668  -3.688  -3.592  0.00  0.00     0.060 H 
ATOM     14  N   LIG d   1       6.078  -3.207  -5.554  0.00  0.00    -0.289 N 
ATOM     15  C   LIG d   1       7.169  -3.716  -6.396  0.00  0.00     0.018 C 
ATOM     16  C   LIG d   1       4.824  -3.108  -6.039  0.00  0.00     0.220 C 
ATOM     17  C   LIG d   1       8.313  -2.697  -6.389  0.00  0.00    -0.011 C 
ATOM     18  H   LIG d   1       6.809  -3.853  -7.416  0.00  0.00     0.046 H 
ATOM     19  H   LIG d   1       7.524  -4.668  -6.003  0.00  0.00     0.046 H 
ATOM     20  H   LIG d   1       7.983  -1.776  -6.868  0.00  0.00     0.030 H 
ATOM     21  H   LIG d   1       9.166  -3.105  -6.931  0.00  0.00     0.030 H 
ATOM     22  O   LIG d   1       3.949  -2.612  -5.361  0.00  0.00    -0.275 OA
ATOM     23  H   LIG d   1       9.026  -3.332  -4.457  0.00  0.00     0.060 H 
BRANCH  10  24
ATOM     24  C   LIG d   1       5.161  -2.174  -3.552  0.00  0.00     0.234 C 
ATOM     25  N   LIG d   1       5.050  -0.832  -3.511  0.00  0.00    -0.303 N 
ATOM     26  H   LIG d   1       5.754  -0.275  -3.880  0.00  0.00     0.149 HD
ATOM     27  O   LIG d   1       4.281  -2.870  -3.092  0.00  0.00    -0.274 OA
BRANCH  25  28
ATOM     28  C   LIG d   1       3.866  -0.213  -2.910  0.00  0.00     0.096 C 
ATOM     29  H   LIG d   1       3.249  -0.983  -2.445  0.00  0.00     0.059 H 
BRANCH  28  30
ATOM     30  C   LIG d   1       4.303   0.799  -1.848  0.00  0.00    -0.038 C 
ATOM     31  H   LIG d   1       3.802   0.576  -0.906  0.00  0.00     0.025 H 
ATOM     32  H   LIG d   1       5.383   0.736  -1.709  0.00  0.00     0.025 H 
ATOM     33  H   LIG d   1       4.036   1.804  -2.172  0.00  0.00     0.025 H 
ENDBRANCH  28  30
BRANCH  28  34
ATOM     34  C   LIG d   1       3.070   0.492  -3.978  0.00  0.00     0.231 C 
ATOM     35  O   LIG d   1       3.173   1.692  -4.118  0.00  0.00    -0.274 OA
ATOM     36  N   LIG d   1       2.245  -0.212  -4.778  0.00  0.00    -0.328 N 
ATOM     37  H   LIG d   1       2.163  -1.173  -4.666  0.00  0.00     0.145 HD
ATOM     38  H   LIG d   1       1.730   0.243  -5.463  0.00  0.00     0.145 HD
ENDBRANCH  28  34
ENDBRANCH  25  28
ENDBRANCH  10  24
BRANCH  16  39
ATOM     39  C   LIG d   1       4.511  -3.611  -7.425  0.00  0.00     0.045 C 
ATOM     40  C   LIG d   1       3.686  -4.897  -7.328  0.00  0.00    -0.001 C 
ATOM     41  C   LIG d   1       3.320  -5.370  -8.736  0.00  0.00    -0.033 C 
ATOM     42  H   LIG d   1       4.270  -5.668  -6.826  0.00  0.00     0.032 H 
ATOM     43  H   LIG d   1       2.776  -4.703  -6.760  0.00  0.00     0.032 H 
ATOM     44  H   LIG d   1       4.230  -5.577  -9.298  0.00  0.00     0.081 H 
ATOM     45  H   LIG d   1       2.720  -6.278  -8.670  0.00  0.00     0.081 H 
ATOM     46  N   LIG d   1       2.538  -4.325  -9.425  0.00  0.00     0.227 N 
ATOM     47  C   LIG d   1       3.339  -3.094  -9.568  0.00  0.00    -0.033 C 
ATOM     48  H   LIG d   1       2.267  -4.662 -10.355  0.00  0.00     0.201 HD
ATOM     49  H   LIG d   1       1.694  -4.118  -8.877  0.00  0.00     0.201 HD
ATOM     50  C   LIG d   1       3.707  -2.552  -8.184  0.00  0.00    -0.001 C 
ATOM     51  H   LIG d   1       4.249  -3.311 -10.126  0.00  0.00     0.081 H 
ATOM     52  H   LIG d   1       2.752  -2.348 -10.105  0.00  0.00     0.081 H 
ATOM     53  H   LIG d   1       2.796  -2.320  -7.631  0.00  0.00     0.032 H 
ATOM     54  H   LIG d   1       4.307  -1.648  -8.294  0.00  0.00     0.032 H 
ATOM     55  H   LIG d   1       5.440  -3.814  -7.957  0.00  0.00     0.040 H 
ENDBRANCH  16  39
ENDBRANCH   7   8
ENDBRANCH   4   7
ENDBRANCH   1   4
TORSDOF 8
ENDMDL
MODEL 3
REMARK VINA RESULT:      -5.3      3.373      6.860
REMARK  8 active torsions:
REMARK  status: ('A' for Active; 'I' for Inactive)
REMARK    1  A    between atoms: C_1  and  C_2 
REMARK    2  A    between atoms: C_2  and  C_4 
REMARK    3  A    between atoms: C_2  and  N_7 
REMARK       I    between atoms: C_4  and  N_6 
REMARK       I    between atoms: N_7  and  C_8 
REMARK    4  A    between atoms: C_8  and  C_10 
REMARK    5  A    between atoms: C_13  and  O_25 
REMARK       I    between atoms: N_17  and  C_18 
REMARK    6  A    between atoms: C_18  and  C_20 
REMARK    7  A    between atoms: O_25  and  C_26 
REMARK    8  A    between atoms: C_26  and  C_27 
ROOT
ATOM      1  C   LIG d   1       3.862   1.374  -9.062  0.00  0.00    -0.077 C 
ATOM      2  C   LIG d   1       3.004   2.110  -8.743  0.00  0.00    -0.117 C 
ATOM      3  H   LIG d   1       2.238   2.767  -8.458  0.00  0.00     0.123 H 
ENDROOT
BRANCH   1   4
ATOM      4  C   LIG d   1       4.938   0.452  -9.462  0.00  0.00     0.108 C 
ATOM      5  H   LIG d   1       5.008   0.425 -10.549  0.00  0.00     0.070 H 
ATOM      6  H   LIG d   1       4.718  -0.548  -9.088  0.00  0.00     0.070 H 
BRANCH   4   7
ATOM      7  O   LIG d   1       6.180   0.902  -8.915  0.00  0.00    -0.364 OA
BRANCH   7   8
ATOM      8  C   LIG d   1       6.813  -0.045  -8.053  0.00  0.00     0.064 C 
ATOM      9  C   LIG d   1       6.313   0.156  -6.621  0.00  0.00     0.001 C 
ATOM     10  C   LIG d   1       7.020  -0.839  -5.693  0.00  0.00     0.104 C 
ATOM     11  H   LIG d   1       5.237  -0.014  -6.584  0.00  0.00     0.031 H 
ATOM     12  H   LIG d   1       6.533   1.174  -6.297  0.00  0.00     0.031 H 
ATOM     13  H   LIG d   1       8.086  -0.611  -5.657  0.00  0.00     0.060 H 
ATOM     14  N   LIG d   1       6.821  -2.197  -6.218  0.00  0.00    -0.289 N 
ATOM     15  C   LIG d   1       7.185  -2.475  -7.614  0.00  0.00     0.018 C 
ATOM     16  C   LIG d   1       6.316  -3.169  -5.432  0.00  0.00     0.220 C 
ATOM     17  C   LIG d   1       6.476  -1.463  -8.519  0.00  0.00    -0.011 C 
ATOM     18  H   LIG d   1       6.870  -3.485  -7.879  0.00  0.00     0.046 H 
ATOM     19  H   LIG d   1       8.263  -2.385  -7.738  0.00  0.00     0.046 H 
ATOM     20  H   LIG d   1       5.398  -1.618  -8.464  0.00  0.00     0.030 H 
ATOM     21  H   LIG d   1       6.811  -1.597  -9.548  0.00  0.00     0.030 H 
ATOM     22  O   LIG d   1       5.945  -2.908  -4.307  0.00  0.00    -0.275 OA
ATOM     23  H   LIG d   1       7.893   0.101  -8.085  0.00  0.00     0.060 H 
BRANCH  10  24
ATOM     24  C   LIG d   1       6.435  -0.741  -4.308  0.00  0.00     0.234 C 
ATOM     25  N   LIG d   1       5.172  -0.301  -4.140  0.00  0.00    -0.303 N 
ATOM     26  H   LIG d   1       4.640  -0.047  -4.910  0.00  0.00     0.149 HD
ATOM     27  O   LIG d   1       7.100  -1.059  -3.346  0.00  0.00    -0.274 OA
BRANCH  25  28
ATOM     28  C   LIG d   1       4.603  -0.207  -2.793  0.00  0.00     0.096 C 
ATOM     29  H   LIG d   1       5.365  -0.464  -2.057  0.00  0.00     0.059 H 
BRANCH  28  30
ATOM     30  C   LIG d   1       4.117   1.223  -2.544  0.00  0.00    -0.038 C 
ATOM     31  H   LIG d   1       3.579   1.581  -3.421  0.00  0.00     0.025 H 
ATOM     32  H   LIG d   1       3.453   1.235  -1.679  0.00  0.00     0.025 H 
ATOM     33  H   LIG d   1       4.973   1.870  -2.353  0.00  0.00     0.025 H 
ENDBRANCH  28  30
BRANCH  28  34
ATOM     34  C   LIG d   1       3.442  -1.160  -2.671  0.00  0.00     0.231 C 
ATOM     35  O   LIG d   1       2.309  -0.760  -2.833  0.00  0.00    -0.274 OA
ATOM     36  N   LIG d   1       3.664  -2.458  -2.381  0.00  0.00    -0.328 N 
ATOM     37  H   LIG d   1       4.571  -2.778  -2.251  0.00  0.00     0.145 HD
ATOM     38  H   LIG d   1       2.917  -3.071  -2.299  0.00  0.00     0.145 HD
ENDBRANCH  28  34
ENDBRANCH  25  28
ENDBRANCH  10  24
BRANCH  16  39
ATOM     39  C   LIG d   1       6.210  -4.579  -5.953  0.00  0.00     0.045 C 
ATOM     40  C   LIG d   1       7.323  -5.435  -5.341  0.00  0.00    -0.001 C 
ATOM     41  C   LIG d   1       7.175  -6.878  -5.826  0.00  0.00    -0.033 C 
ATOM     42  H   LIG d   1       8.293  -5.045  -5.650  0.00  0.00     0.032 H 
ATOM     43  H   LIG d   1       7.249  -5.406  -4.254  0.00  0.00     0.032 H 
ATOM     44  H   LIG d   1       7.263  -6.908  -6.912  0.00  0.00     0.081 H 
ATOM     45  H   LIG d   1       7.957  -7.493  -5.382  0.00  0.00     0.081 H 
ATOM     46  N   LIG d   1       5.858  -7.406  -5.421  0.00  0.00     0.227 N 
ATOM     47  C   LIG d   1       4.775  -6.620  -6.042  0.00  0.00    -0.033 C 
ATOM     48  H   LIG d   1       5.779  -8.385  -5.720  0.00  0.00     0.201 HD
ATOM     49  H   LIG d   1       5.772  -7.353  -4.399  0.00  0.00     0.201 HD
ATOM     50  C   LIG d   1       4.851  -5.168  -5.565  0.00  0.00    -0.001 C 
ATOM     51  H   LIG d   1       4.875  -6.651  -7.127  0.00  0.00     0.081 H 
ATOM     52  H   LIG d   1       3.814  -7.047  -5.753  0.00  0.00     0.081 H 
ATOM     53  H   LIG d   1       4.736  -5.135  -4.481  0.00  0.00     0.032 H 
ATOM     54  H   LIG d   1       4.056  -4.587  -6.033  0.00  0.00     0.032 H 
ATOM     55  H   LIG d   1       6.309  -4.575  -7.038  0.00  0.00     0.040 H 
ENDBRANCH  16  39
ENDBRANCH   7   8
ENDBRANCH   4   7
ENDBRANCH   1   4
TORSDOF 8
ENDMDL
MODEL 4
REMARK VINA RESULT:      -5.2      3.807      7.028
REMARK  8 active torsions:
REMARK  status: ('A' for Active; 'I' for Inactive)
REMARK    1  A    between atoms: C_1  and  C_2 
REMARK    2  A    between atoms: C_2  and  C_4 
REMARK    3  A    between atoms: C_2  and  N_7 
REMARK       I    between atoms: C_4  and  N_6 
REMARK       I    between atoms: N_7  and  C_8 
REMARK    4  A    between atoms: C_8  and  C_10 
REMARK    5  A    between atoms: C_13  and  O_25 
REMARK       I    between atoms: N_17  and  C_18 
REMARK    6  A    between atoms: C_18  and  C_20 
REMARK    7  A    between atoms: O_25  and  C_26 
REMARK    8  A    between atoms: C_26  and  C_27 
ROOT
ATOM      1  C   LIG d   1       9.060   4.442  -9.318  0.00  0.00    -0.077 C 
ATOM      2  C   LIG d   1       9.094   5.615  -9.276  0.00  0.00    -0.117 C 
ATOM      3  H   LIG d   1       9.123   6.663  -9.238  0.00  0.00     0.123 H 
ENDROOT
BRANCH   1   4
ATOM      4  C   LIG d   1       9.018   2.971  -9.370  0.00  0.00     0.108 C 
ATOM      5  H   LIG d   1      10.000   2.589  -9.649  0.00  0.00     0.070 H 
ATOM      6  H   LIG d   1       8.283   2.654 -10.110  0.00  0.00     0.070 H 
BRANCH   4   7
ATOM      7  O   LIG d   1       8.654   2.459  -8.086  0.00  0.00    -0.364 OA
BRANCH   7   8
ATOM      8  C   LIG d   1       8.046   1.166  -8.127  0.00  0.00     0.064 C 
ATOM      9  C   LIG d   1       7.383   0.873  -6.779  0.00  0.00     0.001 C 
ATOM     10  C   LIG d   1       6.762  -0.528  -6.815  0.00  0.00     0.104 C 
ATOM     11  H   LIG d   1       6.604   1.610  -6.589  0.00  0.00     0.031 H 
ATOM     12  H   LIG d   1       8.130   0.919  -5.987  0.00  0.00     0.031 H 
ATOM     13  H   LIG d   1       7.550  -1.275  -6.913  0.00  0.00     0.060 H 
ATOM     14  N   LIG d   1       5.854  -0.613  -7.967  0.00  0.00    -0.289 N 
ATOM     15  C   LIG d   1       6.368  -0.264  -9.298  0.00  0.00     0.018 C 
ATOM     16  C   LIG d   1       4.575  -1.005  -7.805  0.00  0.00     0.220 C 
ATOM     17  C   LIG d   1       6.992   1.134  -9.235  0.00  0.00    -0.011 C 
ATOM     18  H   LIG d   1       5.548  -0.265 -10.018  0.00  0.00     0.046 H 
ATOM     19  H   LIG d   1       7.122  -0.988  -9.604  0.00  0.00     0.046 H 
ATOM     20  H   LIG d   1       6.216   1.869  -9.021  0.00  0.00     0.030 H 
ATOM     21  H   LIG d   1       7.461   1.366 -10.191  0.00  0.00     0.030 H 
ATOM     22  O   LIG d   1       4.141  -1.214  -6.692  0.00  0.00    -0.275 OA
ATOM     23  H   LIG d   1       8.809   0.413  -8.328  0.00  0.00     0.060 H 
BRANCH  10  24
ATOM     24  C   LIG d   1       5.990  -0.771  -5.544  0.00  0.00     0.234 C 
ATOM     25  N   LIG d   1       5.527   0.272  -4.827  0.00  0.00    -0.303 N 
ATOM     26  H   LIG d   1       5.692   1.180  -5.129  0.00  0.00     0.149 HD
ATOM     27  O   LIG d   1       5.784  -1.905  -5.167  0.00  0.00    -0.274 OA
BRANCH  25  28
ATOM     28  C   LIG d   1       4.776   0.037  -3.592  0.00  0.00     0.096 C 
ATOM     29  H   LIG d   1       4.898  -1.002  -3.284  0.00  0.00     0.059 H 
BRANCH  28  30
ATOM     30  C   LIG d   1       5.303   0.959  -2.490  0.00  0.00    -0.038 C 
ATOM     31  H   LIG d   1       4.482   1.553  -2.091  0.00  0.00     0.025 H 
ATOM     32  H   LIG d   1       5.740   0.359  -1.692  0.00  0.00     0.025 H 
ATOM     33  H   LIG d   1       6.064   1.621  -2.904  0.00  0.00     0.025 H 
ENDBRANCH  28  30
BRANCH  28  34
ATOM     34  C   LIG d   1       3.316   0.322  -3.830  0.00  0.00     0.231 C 
ATOM     35  O   LIG d   1       2.946   1.459  -4.035  0.00  0.00    -0.274 OA
ATOM     36  N   LIG d   1       2.421  -0.686  -3.815  0.00  0.00    -0.328 N 
ATOM     37  H   LIG d   1       2.717  -1.595  -3.651  0.00  0.00     0.145 HD
ATOM     38  H   LIG d   1       1.481  -0.501  -3.965  0.00  0.00     0.145 HD
ENDBRANCH  28  34
ENDBRANCH  25  28
ENDBRANCH  10  24
BRANCH  16  39
ATOM     39  C   LIG d   1       3.683  -1.183  -9.007  0.00  0.00     0.045 C 
ATOM     40  C   LIG d   1       3.258  -2.650  -9.116  0.00  0.00    -0.001 C 
ATOM     41  C   LIG d   1       2.306  -2.813 -10.302  0.00  0.00    -0.033 C 
ATOM     42  H   LIG d   1       4.138  -3.275  -9.268  0.00  0.00     0.032 H 
ATOM     43  H   LIG d   1       2.752  -2.951  -8.198  0.00  0.00     0.032 H 
ATOM     44  H   LIG d   1       2.816  -2.525 -11.221  0.00  0.00     0.081 H 
ATOM     45  H   LIG d   1       1.989  -3.854 -10.374  0.00  0.00     0.081 H 
ATOM     46  N   LIG d   1       1.117  -1.961 -10.108  0.00  0.00     0.227 N 
ATOM     47  C   LIG d   1       1.508  -0.539 -10.049  0.00  0.00    -0.033 C 
ATOM     48  H   LIG d   1       0.468  -2.101 -10.890  0.00  0.00     0.201 HD
ATOM     49  H   LIG d   1       0.655  -2.221  -9.228  0.00  0.00     0.201 HD
ATOM     50  C   LIG d   1       2.438  -0.307  -8.855  0.00  0.00    -0.001 C 
ATOM     51  H   LIG d   1       2.023  -0.262 -10.968  0.00  0.00     0.081 H 
ATOM     52  H   LIG d   1       0.612   0.072  -9.935  0.00  0.00     0.081 H 
ATOM     53  H   LIG d   1       1.917  -0.569  -7.933  0.00  0.00     0.032 H 
ATOM     54  H   LIG d   1       2.732   0.742  -8.821  0.00  0.00     0.032 H 
ATOM     55  H   LIG d   1       4.225  -0.894  -9.908  0.00  0.00     0.040 H 
ENDBRANCH  16  39
ENDBRANCH   7   8
ENDBRANCH   4   7
ENDBRANCH   1   4
TORSDOF 8
ENDMDL
MODEL 5
REMARK VINA RESULT:      -5.2      3.208      5.301
REMARK  8 active torsions:
REMARK  status: ('A' for Active; 'I' for Inactive)
REMARK    1  A    between atoms: C_1  and  C_2 
REMARK    2  A    between atoms: C_2  and  C_4 
REMARK    3  A    between atoms: C_2  and  N_7 
REMARK       I    between atoms: C_4  and  N_6 
REMARK       I    between atoms: N_7  and  C_8 
REMARK    4  A    between atoms: C_8  and  C_10 
REMARK    5  A    between atoms: C_13  and  O_25 
REMARK       I    between atoms: N_17  and  C_18 
REMARK    6  A    between atoms: C_18  and  C_20 
REMARK    7  A    between atoms: O_25  and  C_26 
REMARK    8  A    between atoms: C_26  and  C_27 
ROOT
ATOM      1  C   LIG d   1       4.050   0.313  -2.083  0.00  0.00    -0.077 C 
ATOM      2  C   LIG d   1       3.716   1.421  -2.282  0.00  0.00    -0.117 C 
ATOM      3  H   LIG d   1       3.416   2.410  -2.460  0.00  0.00     0.123 H 
ENDROOT
BRANCH   1   4
ATOM      4  C   LIG d   1       4.470  -1.076  -1.833  0.00  0.00     0.108 C 
ATOM      5  H   LIG d   1       4.230  -1.349  -0.805  0.00  0.00     0.070 H 
ATOM      6  H   LIG d   1       5.546  -1.165  -1.990  0.00  0.00     0.070 H 
BRANCH   4   7
ATOM      7  O   LIG d   1       3.784  -1.950  -2.732  0.00  0.00    -0.364 OA
BRANCH   7   8
ATOM      8  C   LIG d   1       4.613  -2.495  -3.760  0.00  0.00     0.064 C 
ATOM      9  C   LIG d   1       4.301  -1.798  -5.087  0.00  0.00     0.001 C 
ATOM     10  C   LIG d   1       5.168  -2.408  -6.195  0.00  0.00     0.104 C 
ATOM     11  H   LIG d   1       4.520  -0.734  -4.999  0.00  0.00     0.031 H 
ATOM     12  H   LIG d   1       3.248  -1.935  -5.333  0.00  0.00     0.031 H 
ATOM     13  H   LIG d   1       4.886  -3.450  -6.347  0.00  0.00     0.060 H 
ATOM     14  N   LIG d   1       6.578  -2.331  -5.787  0.00  0.00    -0.289 N 
ATOM     15  C   LIG d   1       6.969  -2.891  -4.487  0.00  0.00     0.018 C 
ATOM     16  C   LIG d   1       7.494  -1.759  -6.594  0.00  0.00     0.220 C 
ATOM     17  C   LIG d   1       6.083  -2.275  -3.399  0.00  0.00    -0.011 C 
ATOM     18  H   LIG d   1       8.014  -2.651  -4.286  0.00  0.00     0.046 H 
ATOM     19  H   LIG d   1       6.838  -3.972  -4.497  0.00  0.00     0.046 H 
ATOM     20  H   LIG d   1       6.285  -1.206  -3.327  0.00  0.00     0.030 H 
ATOM     21  H   LIG d   1       6.298  -2.751  -2.442  0.00  0.00     0.030 H 
ATOM     22  O   LIG d   1       7.146  -1.231  -7.629  0.00  0.00    -0.275 OA
ATOM     23  H   LIG d   1       4.418  -3.563  -3.856  0.00  0.00     0.060 H 
BRANCH  10  24
ATOM     24  C   LIG d   1       4.968  -1.638  -7.474  0.00  0.00     0.234 C 
ATOM     25  N   LIG d   1       4.625  -0.335  -7.429  0.00  0.00    -0.303 N 
ATOM     26  H   LIG d   1       4.507   0.107  -6.573  0.00  0.00     0.149 HD
ATOM     27  O   LIG d   1       5.117  -2.189  -8.543  0.00  0.00    -0.274 OA
BRANCH  25  28
ATOM     28  C   LIG d   1       4.432   0.415  -8.673  0.00  0.00     0.096 C 
ATOM     29  H   LIG d   1       4.583  -0.248  -9.525  0.00  0.00     0.059 H 
BRANCH  28  30
ATOM     30  C   LIG d   1       3.010   0.978  -8.713  0.00  0.00    -0.038 C 
ATOM     31  H   LIG d   1       3.050   2.067  -8.684  0.00  0.00     0.025 H 
ATOM     32  H   LIG d   1       2.517   0.657  -9.631  0.00  0.00     0.025 H 
ATOM     33  H   LIG d   1       2.450   0.612  -7.853  0.00  0.00     0.025 H 
ENDBRANCH  28  30
BRANCH  28  34
ATOM     34  C   LIG d   1       5.423   1.548  -8.735  0.00  0.00     0.231 C 
ATOM     35  O   LIG d   1       5.240   2.473  -9.499  0.00  0.00    -0.274 OA
ATOM     36  N   LIG d   1       6.513   1.535  -7.942  0.00  0.00    -0.328 N 
ATOM     37  H   LIG d   1       6.660   0.795  -7.331  0.00  0.00     0.145 HD
ATOM     38  H   LIG d   1       7.153   2.262  -7.985  0.00  0.00     0.145 HD
ENDBRANCH  28  34
ENDBRANCH  25  28
ENDBRANCH  10  24
BRANCH  16  39
ATOM     39  C   LIG d   1       8.951  -1.776  -6.208  0.00  0.00     0.045 C 
ATOM     40  C   LIG d   1       9.800  -2.128  -7.433  0.00  0.00    -0.001 C 
ATOM     41  C   LIG d   1      11.281  -2.085  -7.051  0.00  0.00    -0.033 C 
ATOM     42  H   LIG d   1       9.543  -3.130  -7.778  0.00  0.00     0.032 H 
ATOM     43  H   LIG d   1       9.608  -1.409  -8.229  0.00  0.00     0.032 H 
ATOM     44  H   LIG d   1      11.475  -2.815  -6.265  0.00  0.00     0.081 H 
ATOM     45  H   LIG d   1      11.889  -2.321  -7.924  0.00  0.00     0.081 H 
ATOM     46  N   LIG d   1      11.631  -0.734  -6.571  0.00  0.00     0.227 N 
ATOM     47  C   LIG d   1      10.855  -0.400  -5.362  0.00  0.00    -0.033 C 
ATOM     48  H   LIG d   1      12.633  -0.703  -6.348  0.00  0.00     0.201 HD
ATOM     49  H   LIG d   1      11.423  -0.049  -7.307  0.00  0.00     0.201 HD
ATOM     50  C   LIG d   1       9.360  -0.394  -5.693  0.00  0.00    -0.001 C 
ATOM     51  H   LIG d   1      11.051  -1.138  -4.584  0.00  0.00     0.081 H 
ATOM     52  H   LIG d   1      11.152   0.588  -5.009  0.00  0.00     0.081 H 
ATOM     53  H   LIG d   1       9.161   0.355  -6.460  0.00  0.00     0.032 H 
ATOM     54  H   LIG d   1       8.788  -0.156  -4.795  0.00  0.00     0.032 H 
ATOM     55  H   LIG d   1       9.113  -2.519  -5.428  0.00  0.00     0.040 H 
ENDBRANCH  16  39
ENDBRANCH   7   8
ENDBRANCH   4   7
ENDBRANCH   1   4
TORSDOF 8
ENDMDL
MODEL 6
REMARK VINA RESULT:      -5.1      3.108      4.612
REMARK  8 active torsions:
REMARK  status: ('A' for Active; 'I' for Inactive)
REMARK    1  A    between atoms: C_1  and  C_2 
REMARK    2  A    between atoms: C_2  and  C_4 
REMARK    3  A    between atoms: C_2  and  N_7 
REMARK       I    between atoms: C_4  and  N_6 
REMARK       I    between atoms: N_7  and  C_8 
REMARK    4  A    between atoms: C_8  and  C_10 
REMARK    5  A    between atoms: C_13  and  O_25 
REMARK       I    between atoms: N_17  and  C_18 
REMARK    6  A    between atoms: C_18  and  C_20 
REMARK    7  A    between atoms: O_25  and  C_26 
REMARK    8  A    between atoms: C_26  and  C_27 
ROOT
ATOM      1  C   LIG d   1      11.094  -3.111  -4.172  0.00  0.00    -0.077 C 
ATOM      2  C   LIG d   1      11.025  -3.965  -3.370  0.00  0.00    -0.117 C 
ATOM      3  H   LIG d   1      10.963  -4.729  -2.653  0.00  0.00     0.123 H 
ENDROOT
BRANCH   1   4
ATOM      4  C   LIG d   1      11.181  -2.039  -5.178  0.00  0.00     0.108 C 
ATOM      5  H   LIG d   1      11.237  -2.479  -6.174  0.00  0.00     0.070 H 
ATOM      6  H   LIG d   1      12.073  -1.440  -4.995  0.00  0.00     0.070 H 
BRANCH   4   7
ATOM      7  O   LIG d   1      10.021  -1.207  -5.089  0.00  0.00    -0.364 OA
BRANCH   7   8
ATOM      8  C   LIG d   1       8.832  -1.813  -5.600  0.00  0.00     0.064 C 
ATOM      9  C   LIG d   1       7.664  -1.513  -4.657  0.00  0.00     0.001 C 
ATOM     10  C   LIG d   1       6.397  -2.193  -5.189  0.00  0.00     0.104 C 
ATOM     11  H   LIG d   1       7.504  -0.437  -4.607  0.00  0.00     0.031 H 
ATOM     12  H   LIG d   1       7.890  -1.896  -3.662  0.00  0.00     0.031 H 
ATOM     13  H   LIG d   1       6.520  -3.276  -5.153  0.00  0.00     0.060 H 
ATOM     14  N   LIG d   1       6.179  -1.765  -6.578  0.00  0.00    -0.289 N 
ATOM     15  C   LIG d   1       7.271  -1.925  -7.546  0.00  0.00     0.018 C 
ATOM     16  C   LIG d   1       4.997  -1.237  -6.955  0.00  0.00     0.220 C 
ATOM     17  C   LIG d   1       8.527  -1.248  -6.989  0.00  0.00    -0.011 C 
ATOM     18  H   LIG d   1       6.994  -1.457  -8.491  0.00  0.00     0.046 H 
ATOM     19  H   LIG d   1       7.468  -2.985  -7.708  0.00  0.00     0.046 H 
ATOM     20  H   LIG d   1       8.360  -0.173  -6.916  0.00  0.00     0.030 H 
ATOM     21  H   LIG d   1       9.370  -1.441  -7.652  0.00  0.00     0.030 H 
ATOM     22  O   LIG d   1       4.131  -1.037  -6.130  0.00  0.00    -0.275 OA
ATOM     23  H   LIG d   1       8.975  -2.892  -5.669  0.00  0.00     0.060 H 
BRANCH  10  24
ATOM     24  C   LIG d   1       5.215  -1.791  -4.345  0.00  0.00     0.234 C 
ATOM     25  N   LIG d   1       5.215  -0.603  -3.709  0.00  0.00    -0.303 N 
ATOM     26  H   LIG d   1       5.975  -0.006  -3.795  0.00  0.00     0.149 HD
ATOM     27  O   LIG d   1       4.265  -2.537  -4.238  0.00  0.00    -0.274 OA
BRANCH  25  28
ATOM     28  C   LIG d   1       4.066  -0.211  -2.889  0.00  0.00     0.096 C 
ATOM     29  H   LIG d   1       3.580  -1.103  -2.494  0.00  0.00     0.059 H 
BRANCH  28  30
ATOM     30  C   LIG d   1       4.543   0.665  -1.728  0.00  0.00    -0.038 C 
ATOM     31  H   LIG d   1       4.110   0.300  -0.797  0.00  0.00     0.025 H 
ATOM     32  H   LIG d   1       5.631   0.622  -1.664  0.00  0.00     0.025 H 
ATOM     33  H   LIG d   1       4.229   1.695  -1.897  0.00  0.00     0.025 H 
ENDBRANCH  28  30
BRANCH  28  34
ATOM     34  C   LIG d   1       3.087   0.563  -3.732  0.00  0.00     0.231 C 
ATOM     35  O   LIG d   1       3.177   1.770  -3.811  0.00  0.00    -0.274 OA
ATOM     36  N   LIG d   1       2.112  -0.085  -4.400  0.00  0.00    -0.328 N 
ATOM     37  H   LIG d   1       2.041  -1.051  -4.337  0.00  0.00     0.145 HD
ATOM     38  H   LIG d   1       1.480   0.414  -4.940  0.00  0.00     0.145 HD
ENDBRANCH  28  34
ENDBRANCH  25  28
ENDBRANCH  10  24
BRANCH  16  39
ATOM     39  C   LIG d   1       4.754  -0.895  -8.403  0.00  0.00     0.045 C 
ATOM     40  C   LIG d   1       3.364  -1.386  -8.817  0.00  0.00    -0.001 C 
ATOM     41  C   LIG d   1       3.098  -0.983 -10.269  0.00  0.00    -0.033 C 
ATOM     42  H   LIG d   1       3.320  -2.472  -8.728  0.00  0.00     0.032 H 
ATOM     43  H   LIG d   1       2.611  -0.937  -8.171  0.00  0.00     0.032 H 
ATOM     44  H   LIG d   1       3.844  -1.445 -10.917  0.00  0.00     0.081 H 
ATOM     45  H   LIG d   1       2.104  -1.319 -10.564  0.00  0.00     0.081 H 
ATOM     46  N   LIG d   1       3.169   0.485 -10.399  0.00  0.00     0.227 N 
ATOM     47  C   LIG d   1       4.518   0.968 -10.048  0.00  0.00    -0.033 C 
ATOM     48  H   LIG d   1       2.956   0.750 -11.367  0.00  0.00     0.201 HD
ATOM     49  H   LIG d   1       2.481   0.913  -9.768  0.00  0.00     0.201 HD
ATOM     50  C   LIG d   1       4.828   0.623  -8.589  0.00  0.00    -0.001 C 
ATOM     51  H   LIG d   1       5.256   0.498 -10.696  0.00  0.00     0.081 H 
ATOM     52  H   LIG d   1       4.554   2.050 -10.180  0.00  0.00     0.081 H 
ATOM     53  H   LIG d   1       4.098   1.106  -7.939  0.00  0.00     0.032 H 
ATOM     54  H   LIG d   1       5.829   0.972  -8.336  0.00  0.00     0.032 H 
ATOM     55  H   LIG d   1       5.510  -1.376  -9.023  0.00  0.00     0.040 H 
ENDBRANCH  16  39
ENDBRANCH   7   8
ENDBRANCH   4   7
ENDBRANCH   1   4
TORSDOF 8
ENDMDL
MODEL 7
REMARK VINA RESULT:      -5.0      4.471      6.508
REMARK  8 active torsions:
REMARK  status: ('A' for Active; 'I' for Inactive)
REMARK    1  A    between atoms: C_1  and  C_2 
REMARK    2  A    between atoms: C_2  and  C_4 
REMARK    3  A    between atoms: C_2  and  N_7 
REMARK       I    between atoms: C_4  and  N_6 
REMARK       I    between atoms: N_7  and  C_8 
REMARK    4  A    between atoms: C_8  and  C_10 
REMARK    5  A    between atoms: C_13  and  O_25 
REMARK       I    between atoms: N_17  and  C_18 
REMARK    6  A    between atoms: C_18  and  C_20 
REMARK    7  A    between atoms: O_25  and  C_26 
REMARK    8  A    between atoms: C_26  and  C_27 
ROOT
ATOM      1  C   LIG d   1       0.815  -3.469 -10.553  0.00  0.00    -0.077 C 
ATOM      2  C   LIG d   1      -0.041  -4.233 -10.803  0.00  0.00    -0.117 C 
ATOM      3  H   LIG d   1      -0.807  -4.914 -11.026  0.00  0.00     0.123 H 
ENDROOT
BRANCH   1   4
ATOM      4  C   LIG d   1       1.889  -2.511 -10.241  0.00  0.00     0.108 C 
ATOM      5  H   LIG d   1       2.717  -2.655 -10.935  0.00  0.00     0.070 H 
ATOM      6  H   LIG d   1       2.238  -2.676  -9.221  0.00  0.00     0.070 H 
BRANCH   4   7
ATOM      7  O   LIG d   1       1.389  -1.178 -10.364  0.00  0.00    -0.364 OA
BRANCH   7   8
ATOM      8  C   LIG d   1       2.160  -0.201  -9.662  0.00  0.00     0.064 C 
ATOM      9  C   LIG d   1       2.653  -0.797  -8.341  0.00  0.00     0.001 C 
ATOM     10  C   LIG d   1       3.450   0.264  -7.573  0.00  0.00     0.104 C 
ATOM     11  H   LIG d   1       3.293  -1.655  -8.544  0.00  0.00     0.031 H 
ATOM     12  H   LIG d   1       1.799  -1.113  -7.741  0.00  0.00     0.031 H 
ATOM     13  H   LIG d   1       2.789   1.082  -7.287  0.00  0.00     0.060 H 
ATOM     14  N   LIG d   1       4.519   0.772  -8.444  0.00  0.00    -0.289 N 
ATOM     15  C   LIG d   1       4.164   1.285  -9.774  0.00  0.00     0.018 C 
ATOM     16  C   LIG d   1       5.802   0.770  -8.028  0.00  0.00     0.220 C 
ATOM     17  C   LIG d   1       3.360   0.213 -10.516  0.00  0.00    -0.011 C 
ATOM     18  H   LIG d   1       5.072   1.512 -10.333  0.00  0.00     0.046 H 
ATOM     19  H   LIG d   1       3.563   2.188  -9.672  0.00  0.00     0.046 H 
ATOM     20  H   LIG d   1       3.993  -0.655 -10.700  0.00  0.00     0.030 H 
ATOM     21  H   LIG d   1       3.008   0.615 -11.466  0.00  0.00     0.030 H 
ATOM     22  O   LIG d   1       6.093   0.272  -6.961  0.00  0.00    -0.275 OA
ATOM     23  H   LIG d   1       1.540   0.672  -9.457  0.00  0.00     0.060 H 
BRANCH  10  24
ATOM     24  C   LIG d   1       4.054  -0.353  -6.339  0.00  0.00     0.234 C 
ATOM     25  N   LIG d   1       3.998   0.302  -5.161  0.00  0.00    -0.303 N 
ATOM     26  H   LIG d   1       3.569   1.170  -5.110  0.00  0.00     0.149 HD
ATOM     27  O   LIG d   1       4.591  -1.438  -6.404  0.00  0.00    -0.274 OA
BRANCH  25  28
ATOM     28  C   LIG d   1       4.585  -0.298  -3.961  0.00  0.00     0.096 C 
ATOM     29  H   LIG d   1       5.455  -0.894  -4.239  0.00  0.00     0.059 H 
BRANCH  28  30
ATOM     30  C   LIG d   1       5.014   0.809  -2.995  0.00  0.00    -0.038 C 
ATOM     31  H   LIG d   1       4.377   1.682  -3.138  0.00  0.00     0.025 H 
ATOM     32  H   LIG d   1       4.918   0.453  -1.969  0.00  0.00     0.025 H 
ATOM     33  H   LIG d   1       6.051   1.079  -3.190  0.00  0.00     0.025 H 
ENDBRANCH  28  30
BRANCH  28  34
ATOM     34  C   LIG d   1       3.565  -1.182  -3.291  0.00  0.00     0.231 C 
ATOM     35  O   LIG d   1       2.468  -0.742  -3.018  0.00  0.00    -0.274 OA
ATOM     36  N   LIG d   1       3.871  -2.461  -2.996  0.00  0.00    -0.328 N 
ATOM     37  H   LIG d   1       4.748  -2.813  -3.215  0.00  0.00     0.145 HD
ATOM     38  H   LIG d   1       3.215  -3.028  -2.561  0.00  0.00     0.145 HD
ENDBRANCH  28  34
ENDBRANCH  25  28
ENDBRANCH  10  24
BRANCH  16  39
ATOM     39  C   LIG d   1       6.874   1.385  -8.891  0.00  0.00     0.045 C 
ATOM     40  C   LIG d   1       7.810   2.228  -8.020  0.00  0.00    -0.001 C 
ATOM     41  C   LIG d   1       8.930   2.801  -8.890  0.00  0.00    -0.033 C 
ATOM     42  H   LIG d   1       7.248   3.045  -7.566  0.00  0.00     0.032 H 
ATOM     43  H   LIG d   1       8.239   1.603  -7.237  0.00  0.00     0.032 H 
ATOM     44  H   LIG d   1       8.500   3.437  -9.664  0.00  0.00     0.081 H 
ATOM     45  H   LIG d   1       9.607   3.390  -8.271  0.00  0.00     0.081 H 
ATOM     46  N   LIG d   1       9.686   1.700  -9.517  0.00  0.00     0.227 N 
ATOM     47  C   LIG d   1       8.807   0.907 -10.397  0.00  0.00    -0.033 C 
ATOM     48  H   LIG d   1      10.456   2.090 -10.071  0.00  0.00     0.201 HD
ATOM     49  H   LIG d   1      10.068   1.091  -8.782  0.00  0.00     0.201 HD
ATOM     50  C   LIG d   1       7.681   0.278  -9.572  0.00  0.00    -0.001 C 
ATOM     51  H   LIG d   1       8.378   1.552 -11.163  0.00  0.00     0.081 H 
ATOM     52  H   LIG d   1       9.393   0.119 -10.870  0.00  0.00     0.081 H 
ATOM     53  H   LIG d   1       8.110  -0.380  -8.815  0.00  0.00     0.032 H 
ATOM     54  H   LIG d   1       7.027  -0.299 -10.227  0.00  0.00     0.032 H 
ATOM     55  H   LIG d   1       6.413   2.019  -9.648  0.00  0.00     0.040 H 
ENDBRANCH  16  39
ENDBRANCH   7   8
ENDBRANCH   4   7
ENDBRANCH   1   4
TORSDOF 8
ENDMDL
MODEL 8
REMARK VINA RESULT:      -5.0      2.279      6.320
REMARK  8 active torsions:
REMARK  status: ('A' for Active; 'I' for Inactive)
REMARK    1  A    between atoms: C_1  and  C_2 
REMARK    2  A    between atoms: C_2  and  C_4 
REMARK    3  A    between atoms: C_2  and  N_7 
REMARK       I    between atoms: C_4  and  N_6 
REMARK       I    between atoms: N_7  and  C_8 
REMARK    4  A    between atoms: C_8  and  C_10 
REMARK    5  A    between atoms: C_13  and  O_25 
REMARK       I    between atoms: N_17  and  C_18 
REMARK    6  A    between atoms: C_18  and  C_20 
REMARK    7  A    between atoms: O_25  and  C_26 
REMARK    8  A    between atoms: C_26  and  C_27 
ROOT
ATOM      1  C   LIG d   1       3.984   0.102  -2.277  0.00  0.00    -0.077 C 
ATOM      2  C   LIG d   1       4.448   1.015  -1.703  0.00  0.00    -0.117 C 
ATOM      3  H   LIG d   1       4.864   1.831  -1.190  0.00  0.00     0.123 H 
ENDROOT
BRANCH   1   4
ATOM      4  C   LIG d   1       3.402  -1.043  -2.998  0.00  0.00     0.108 C 
ATOM      5  H   LIG d   1       2.349  -1.140  -2.734  0.00  0.00     0.070 H 
ATOM      6  H   LIG d   1       3.932  -1.954  -2.721  0.00  0.00     0.070 H 
BRANCH   4   7
ATOM      7  O   LIG d   1       3.523  -0.831  -4.406  0.00  0.00    -0.364 OA
BRANCH   7   8
ATOM      8  C   LIG d   1       4.535  -1.626  -5.029  0.00  0.00     0.064 C 
ATOM      9  C   LIG d   1       5.711  -0.731  -5.428  0.00  0.00     0.001 C 
ATOM     10  C   LIG d   1       6.778  -1.581  -6.127  0.00  0.00     0.104 C 
ATOM     11  H   LIG d   1       6.138  -0.272  -4.538  0.00  0.00     0.031 H 
ATOM     12  H   LIG d   1       5.363   0.046  -6.109  0.00  0.00     0.031 H 
ATOM     13  H   LIG d   1       6.382  -1.967  -7.066  0.00  0.00     0.060 H 
ATOM     14  N   LIG d   1       7.142  -2.700  -5.246  0.00  0.00    -0.289 N 
ATOM     15  C   LIG d   1       6.075  -3.569  -4.731  0.00  0.00     0.018 C 
ATOM     16  C   LIG d   1       8.430  -2.925  -4.919  0.00  0.00     0.220 C 
ATOM     17  C   LIG d   1       5.016  -2.697  -4.048  0.00  0.00    -0.011 C 
ATOM     18  H   LIG d   1       6.492  -4.270  -4.008  0.00  0.00     0.046 H 
ATOM     19  H   LIG d   1       5.620  -4.120  -5.553  0.00  0.00     0.046 H 
ATOM     20  H   LIG d   1       5.450  -2.219  -3.170  0.00  0.00     0.030 H 
ATOM     21  H   LIG d   1       4.173  -3.319  -3.746  0.00  0.00     0.030 H 
ATOM     22  O   LIG d   1       9.292  -2.155  -5.285  0.00  0.00    -0.275 OA
ATOM     23  H   LIG d   1       4.124  -2.104  -5.918  0.00  0.00     0.060 H 
BRANCH  10  24
ATOM     24  C   LIG d   1       7.996  -0.737  -6.400  0.00  0.00     0.234 C 
ATOM     25  N   LIG d   1       8.289   0.305  -5.596  0.00  0.00    -0.303 N 
ATOM     26  H   LIG d   1       7.715   0.510  -4.841  0.00  0.00     0.149 HD
ATOM     27  O   LIG d   1       8.713  -0.995  -7.343  0.00  0.00    -0.274 OA
BRANCH  25  28
ATOM     28  C   LIG d   1       9.473   1.125  -5.861  0.00  0.00     0.096 C 
ATOM     29  H   LIG d   1      10.082   0.648  -6.630  0.00  0.00     0.059 H 
BRANCH  28  30
ATOM     30  C   LIG d   1       9.037   2.509  -6.344  0.00  0.00    -0.038 C 
ATOM     31  H   LIG d   1       8.943   2.502  -7.430  0.00  0.00     0.025 H 
ATOM     32  H   LIG d   1       8.075   2.763  -5.898  0.00  0.00     0.025 H 
ATOM     33  H   LIG d   1       9.781   3.249  -6.048  0.00  0.00     0.025 H 
ENDBRANCH  28  30
BRANCH  28  34
ATOM     34  C   LIG d   1      10.280   1.265  -4.596  0.00  0.00     0.231 C 
ATOM     35  O   LIG d   1      11.417   0.844  -4.552  0.00  0.00    -0.274 OA
ATOM     36  N   LIG d   1       9.739   1.860  -3.514  0.00  0.00    -0.328 N 
ATOM     37  H   LIG d   1       8.829   2.197  -3.550  0.00  0.00     0.145 HD
ATOM     38  H   LIG d   1      10.257   1.947  -2.699  0.00  0.00     0.145 HD
ENDBRANCH  28  34
ENDBRANCH  25  28
ENDBRANCH  10  24
BRANCH  16  39
ATOM     39  C   LIG d   1       8.798  -4.133  -4.096  0.00  0.00     0.045 C 
ATOM     40  C   LIG d   1       9.906  -4.917  -4.806  0.00  0.00    -0.001 C 
ATOM     41  C   LIG d   1      10.317  -6.108  -3.939  0.00  0.00    -0.033 C 
ATOM     42  H   LIG d   1       9.539  -5.276  -5.768  0.00  0.00     0.032 H 
ATOM     43  H   LIG d   1      10.766  -4.267  -4.965  0.00  0.00     0.032 H 
ATOM     44  H   LIG d   1       9.459  -6.765  -3.792  0.00  0.00     0.081 H 
ATOM     45  H   LIG d   1      11.116  -6.660  -4.435  0.00  0.00     0.081 H 
ATOM     46  N   LIG d   1      10.802  -5.628  -2.631  0.00  0.00     0.227 N 
ATOM     47  C   LIG d   1       9.730  -4.912  -1.915  0.00  0.00    -0.033 C 
ATOM     48  H   LIG d   1      11.108  -6.429  -2.068  0.00  0.00     0.201 HD
ATOM     49  H   LIG d   1      11.595  -4.991  -2.778  0.00  0.00     0.201 HD
ATOM     50  C   LIG d   1       9.299  -3.684  -2.722  0.00  0.00    -0.001 C 
ATOM     51  H   LIG d   1       8.875  -5.573  -1.778  0.00  0.00     0.081 H 
ATOM     52  H   LIG d   1      10.102  -4.593  -0.941  0.00  0.00     0.081 H 
ATOM     53  H   LIG d   1      10.151  -3.014  -2.846  0.00  0.00     0.032 H 
ATOM     54  H   LIG d   1       8.499  -3.163  -2.195  0.00  0.00     0.032 H 
ATOM     55  H   LIG d   1       7.922  -4.771  -3.975  0.00  0.00     0.040 H 
ENDBRANCH  16  39
ENDBRANCH   7   8
ENDBRANCH   4   7
ENDBRANCH   1   4
TORSDOF 8
ENDMDL
MODEL 9
REMARK VINA RESULT:      -5.0      3.170      5.634
REMARK  8 active torsions:
REMARK  status: ('A' for Active; 'I' for Inactive)
REMARK    1  A    between atoms: C_1  and  C_2 
REMARK    2  A    between atoms: C_2  and  C_4 
REMARK    3  A    between atoms: C_2  and  N_7 
REMARK       I    between atoms: C_4  and  N_6 
REMARK       I    between atoms: N_7  and  C_8 
REMARK    4  A    between atoms: C_8  and  C_10 
REMARK    5  A    between atoms: C_13  and  O_25 
REMARK       I    between atoms: N_17  and  C_18 
REMARK    6  A    between atoms: C_18  and  C_20 
REMARK    7  A    between atoms: O_25  and  C_26 
REMARK    8  A    between atoms: C_26  and  C_27 
ROOT
ATOM      1  C   LIG d   1      11.868   2.798  -5.540  0.00  0.00    -0.077 C 
ATOM      2  C   LIG d   1      12.722   2.546  -6.306  0.00  0.00    -0.117 C 
ATOM      3  H   LIG d   1      13.484   2.320  -6.991  0.00  0.00     0.123 H 
ENDROOT
BRANCH   1   4
ATOM      4  C   LIG d   1      10.798   3.115  -4.579  0.00  0.00     0.108 C 
ATOM      5  H   LIG d   1      11.052   4.028  -4.041  0.00  0.00     0.070 H 
ATOM      6  H   LIG d   1      10.691   2.294  -3.871  0.00  0.00     0.070 H 
BRANCH   4   7
ATOM      7  O   LIG d   1       9.567   3.303  -5.282  0.00  0.00    -0.364 OA
BRANCH   7   8
ATOM      8  C   LIG d   1       9.033   2.104  -5.847  0.00  0.00     0.064 C 
ATOM      9  C   LIG d   1       7.962   1.536  -4.913  0.00  0.00     0.001 C 
ATOM     10  C   LIG d   1       7.415   0.231  -5.504  0.00  0.00     0.104 C 
ATOM     11  H   LIG d   1       7.150   2.255  -4.808  0.00  0.00     0.031 H 
ATOM     12  H   LIG d   1       8.399   1.335  -3.935  0.00  0.00     0.031 H 
ATOM     13  H   LIG d   1       8.204  -0.521  -5.523  0.00  0.00     0.060 H 
ATOM     14  N   LIG d   1       6.947   0.493  -6.872  0.00  0.00    -0.289 N 
ATOM     15  C   LIG d   1       7.870   1.121  -7.826  0.00  0.00     0.018 C 
ATOM     16  C   LIG d   1       5.694   0.161  -7.244  0.00  0.00     0.220 C 
ATOM     17  C   LIG d   1       8.411   2.415  -7.210  0.00  0.00    -0.011 C 
ATOM     18  H   LIG d   1       7.339   1.352  -8.751  0.00  0.00     0.046 H 
ATOM     19  H   LIG d   1       8.696   0.444  -8.040  0.00  0.00     0.046 H 
ATOM     20  H   LIG d   1       7.595   3.127  -7.084  0.00  0.00     0.030 H 
ATOM     21  H   LIG d   1       9.169   2.842  -7.866  0.00  0.00     0.030 H 
ATOM     22  O   LIG d   1       4.917  -0.284  -6.427  0.00  0.00    -0.275 OA
ATOM     23  H   LIG d   1       9.832   1.372  -5.970  0.00  0.00     0.060 H 
BRANCH  10  24
ATOM     24  C   LIG d   1       6.266  -0.262  -4.663  0.00  0.00     0.234 C 
ATOM     25  N   LIG d   1       5.520   0.614  -3.961  0.00  0.00    -0.303 N 
ATOM     26  H   LIG d   1       5.723   1.562  -3.997  0.00  0.00     0.149 HD
ATOM     27  O   LIG d   1       6.012  -1.447  -4.618  0.00  0.00    -0.274 OA
BRANCH  25  28
ATOM     28  C   LIG d   1       4.403   0.135  -3.143  0.00  0.00     0.096 C 
ATOM     29  H   LIG d   1       4.552  -0.919  -2.905  0.00  0.00     0.059 H 
BRANCH  28  30
ATOM     30  C   LIG d   1       4.335   0.945  -1.847  0.00  0.00    -0.038 C 
ATOM     31  H   LIG d   1       3.293   1.097  -1.568  0.00  0.00     0.025 H 
ATOM     32  H   LIG d   1       4.849   0.404  -1.053  0.00  0.00     0.025 H 
ATOM     33  H   LIG d   1       4.816   1.912  -1.997  0.00  0.00     0.025 H 
ENDBRANCH  28  30
BRANCH  28  34
ATOM     34  C   LIG d   1       3.115   0.301  -3.907  0.00  0.00     0.231 C 
ATOM     35  O   LIG d   1       2.238  -0.531  -3.805  0.00  0.00    -0.274 OA
ATOM     36  N   LIG d   1       2.936   1.374  -4.703  0.00  0.00    -0.328 N 
ATOM     37  H   LIG d   1       3.638   2.040  -4.784  0.00  0.00     0.145 HD
ATOM     38  H   LIG d   1       2.109   1.479  -5.197  0.00  0.00     0.145 HD
ENDBRANCH  28  34
ENDBRANCH  25  28
ENDBRANCH  10  24
BRANCH  16  39
ATOM     39  C   LIG d   1       5.261   0.344  -8.676  0.00  0.00     0.045 C 
ATOM     40  C   LIG d   1       4.630  -0.954  -9.189  0.00  0.00    -0.001 C 
ATOM     41  C   LIG d   1       4.137  -0.744 -10.622  0.00  0.00    -0.033 C 
ATOM     42  H   LIG d   1       5.373  -1.752  -9.173  0.00  0.00     0.032 H 
ATOM     43  H   LIG d   1       3.789  -1.227  -8.551  0.00  0.00     0.032 H 
ATOM     44  H   LIG d   1       4.981  -0.485 -11.262  0.00  0.00     0.081 H 
ATOM     45  H   LIG d   1       3.675  -1.662 -10.985  0.00  0.00     0.081 H 
ATOM     46  N   LIG d   1       3.140   0.343 -10.652  0.00  0.00     0.227 N 
ATOM     47  C   LIG d   1       3.748   1.611 -10.205  0.00  0.00    -0.033 C 
ATOM     48  H   LIG d   1       2.790   0.455 -11.610  0.00  0.00     0.201 HD
ATOM     49  H   LIG d   1       2.360   0.103 -10.028  0.00  0.00     0.201 HD
ATOM     50  C   LIG d   1       4.230   1.472  -8.759  0.00  0.00    -0.001 C 
ATOM     51  H   LIG d   1       4.593   1.859 -10.847  0.00  0.00     0.081 H 
ATOM     52  H   LIG d   1       3.002   2.404 -10.264  0.00  0.00     0.081 H 
ATOM     53  H   LIG d   1       3.382   1.239  -8.114  0.00  0.00     0.032 H 
ATOM     54  H   LIG d   1       4.687   2.408  -8.435  0.00  0.00     0.032 H 
ATOM     55  H   LIG d   1       6.126   0.594  -9.289  0.00  0.00     0.040 H 
ENDBRANCH  16  39
ENDBRANCH   7   8
ENDBRANCH   4   7
ENDBRANCH   1   4
TORSDOF 8
ENDMDL
