MODEL 1
REMARK VINA RESULT:      -7.4      0.000      0.000
REMARK  4 active torsions:
REMARK  status: ('A' for Active; 'I' for Inactive)
REMARK    1  A    between atoms: C_4  and  N_7 
REMARK    2  A    between atoms: C_9  and  C_21 
REMARK    3  A    between atoms: C_10  and  C_12 
REMARK    4  A    between atoms: C_15  and  N_18 
ROOT
ATOM      1  N   LIG d   1       4.693  -5.860  -6.435  0.00  0.00    -0.238 N 
ATOM      2  C   LIG d   1       4.759  -5.095  -5.327  0.00  0.00     0.044 A 
ATOM      3  C   LIG d   1       4.735  -3.784  -5.714  0.00  0.00     0.083 A 
ATOM      4  C   LIG d   1       4.647  -3.782  -7.177  0.00  0.00     0.105 A 
ATOM      5  N   LIG d   1       4.631  -5.039  -7.565  0.00  0.00    -0.166 NA
ATOM      6  H   LIG d   1       4.820  -5.455  -4.310  0.00  0.00     0.084 H 
ENDROOT
BRANCH   3   7
ATOM      7  C   LIG d   1       4.787  -2.603  -4.833  0.00  0.00     0.232 A 
ATOM      8  O   LIG d   1       5.714  -1.627  -4.903  0.00  0.00    -0.435 OA
ATOM      9  C   LIG d   1       5.439  -0.716  -3.943  0.00  0.00     0.156 A 
ATOM     10  C   LIG d   1       4.299  -1.182  -3.268  0.00  0.00     0.110 A 
ATOM     11  C   LIG d   1       6.032   0.474  -3.552  0.00  0.00    -0.017 A 
ATOM     12  N   LIG d   1       3.944  -2.351  -3.863  0.00  0.00    -0.209 NA
ATOM     13  C   LIG d   1       3.773  -0.442  -2.206  0.00  0.00    -0.033 A 
ATOM     14  C   LIG d   1       4.377   0.738  -1.831  0.00  0.00    -0.059 A 
ATOM     15  H   LIG d   1       2.897  -0.793  -1.682  0.00  0.00     0.064 H 
ATOM     16  C   LIG d   1       5.502   1.194  -2.501  0.00  0.00    -0.058 A 
ATOM     17  H   LIG d   1       3.972   1.310  -1.011  0.00  0.00     0.062 H 
ATOM     18  H   LIG d   1       5.968   2.121  -2.198  0.00  0.00     0.062 H 
ATOM     19  H   LIG d   1       6.909   0.836  -4.069  0.00  0.00     0.066 H 
ENDBRANCH   3   7
BRANCH   4  20
ATOM     20  C   LIG d   1       4.593  -2.588  -8.055  0.00  0.00     0.003 A 
ATOM     21  C   LIG d   1       5.765  -1.909  -8.385  0.00  0.00    -0.046 A 
ATOM     22  C   LIG d   1       5.709  -0.802  -9.208  0.00  0.00     0.016 A 
ATOM     23  H   LIG d   1       6.715  -2.250  -8.001  0.00  0.00     0.063 H 
ATOM     24  C   LIG d   1       4.493  -0.359  -9.695  0.00  0.00     0.273 A 
ATOM     25  H   LIG d   1       6.618  -0.278  -9.468  0.00  0.00     0.069 H 
ATOM     26  C   LIG d   1       3.326  -1.026  -9.366  0.00  0.00     0.016 A 
ATOM     27  C   LIG d   1       3.370  -2.137  -8.549  0.00  0.00    -0.046 A 
ATOM     28  H   LIG d   1       2.379  -0.676  -9.748  0.00  0.00     0.069 H 
ATOM     29  H   LIG d   1       2.459  -2.657  -8.293  0.00  0.00     0.063 H 
BRANCH  24  30
ATOM     30  N   LIG d   1       4.439   0.832 -10.572  0.00  0.00     0.080 N 
ATOM     31  O   LIG d   1       4.783   1.911 -10.148  0.00  0.00     0.041 OA
ATOM     32  O   LIG d   1       4.052   0.725 -11.712  0.00  0.00    -0.576 OA
ENDBRANCH  24  30
ENDBRANCH   4  20
BRANCH   1  33
ATOM     33  C   LIG d   1       4.694  -7.260  -6.452  0.00  0.00     0.065 A 
ATOM     34  C   LIG d   1       4.930  -7.970  -5.282  0.00  0.00    -0.036 A 
ATOM     35  C   LIG d   1       4.931  -9.351  -5.302  0.00  0.00    -0.060 A 
ATOM     36  H   LIG d   1       5.112  -7.442  -4.357  0.00  0.00     0.064 H 
ATOM     37  C   LIG d   1       4.698 -10.027  -6.486  0.00  0.00    -0.062 A 
ATOM     38  H   LIG d   1       5.114  -9.903  -4.392  0.00  0.00     0.062 H 
ATOM     39  C   LIG d   1       4.462  -9.323  -7.653  0.00  0.00    -0.060 A 
ATOM     40  H   LIG d   1       4.703 -11.107  -6.500  0.00  0.00     0.062 H 
ATOM     41  C   LIG d   1       4.460  -7.942  -7.640  0.00  0.00    -0.036 A 
ATOM     42  H   LIG d   1       4.280  -9.854  -8.575  0.00  0.00     0.062 H 
ATOM     43  H   LIG d   1       4.277  -7.393  -8.551  0.00  0.00     0.064 H 
ENDBRANCH   1  33
TORSDOF 4
ENDMDL
MODEL 2
REMARK VINA RESULT:      -7.1      1.848      5.280
REMARK  4 active torsions:
REMARK  status: ('A' for Active; 'I' for Inactive)
REMARK    1  A    between atoms: C_4  and  N_7 
REMARK    2  A    between atoms: C_9  and  C_21 
REMARK    3  A    between atoms: C_10  and  C_12 
REMARK    4  A    between atoms: C_15  and  N_18 
ROOT
ATOM      1  N   LIG d   1       4.606  -5.749  -6.453  0.00  0.00    -0.238 N 
ATOM      2  C   LIG d   1       4.377  -4.975  -7.532  0.00  0.00     0.044 A 
ATOM      3  C   LIG d   1       4.434  -3.667  -7.135  0.00  0.00     0.083 A 
ATOM      4  C   LIG d   1       4.721  -3.678  -5.698  0.00  0.00     0.105 A 
ATOM      5  N   LIG d   1       4.810  -4.938  -5.332  0.00  0.00    -0.166 NA
ATOM      6  H   LIG d   1       4.183  -5.325  -8.535  0.00  0.00     0.084 H 
ENDROOT
BRANCH   3   7
ATOM      7  C   LIG d   1       4.243  -2.478  -7.987  0.00  0.00     0.232 A 
ATOM      8  O   LIG d   1       3.508  -1.399  -7.653  0.00  0.00    -0.435 OA
ATOM      9  C   LIG d   1       3.569  -0.517  -8.675  0.00  0.00     0.156 A 
ATOM     10  C   LIG d   1       4.371  -1.109  -9.665  0.00  0.00     0.110 A 
ATOM     11  C   LIG d   1       3.026   0.740  -8.891  0.00  0.00    -0.017 A 
ATOM     12  N   LIG d   1       4.757  -2.319  -9.181  0.00  0.00    -0.209 NA
ATOM     13  C   LIG d   1       4.613  -0.426 -10.858  0.00  0.00    -0.033 A 
ATOM     14  C   LIG d   1       4.065   0.822 -11.055  0.00  0.00    -0.059 A 
ATOM     15  H   LIG d   1       5.229  -0.874 -11.624  0.00  0.00     0.064 H 
ATOM     16  C   LIG d   1       3.274   1.403 -10.075  0.00  0.00    -0.058 A 
ATOM     17  H   LIG d   1       4.252   1.351 -11.977  0.00  0.00     0.062 H 
ATOM     18  H   LIG d   1       2.849   2.383 -10.240  0.00  0.00     0.062 H 
ATOM     19  H   LIG d   1       2.409   1.199  -8.132  0.00  0.00     0.066 H 
ENDBRANCH   3   7
BRANCH   4  20
ATOM     20  C   LIG d   1       4.876  -2.492  -4.821  0.00  0.00     0.003 A 
ATOM     21  C   LIG d   1       5.862  -1.546  -5.092  0.00  0.00    -0.046 A 
ATOM     22  C   LIG d   1       5.998  -0.441  -4.276  0.00  0.00     0.016 A 
ATOM     23  H   LIG d   1       6.517  -1.674  -5.941  0.00  0.00     0.063 H 
ATOM     24  C   LIG d   1       5.165  -0.278  -3.184  0.00  0.00     0.273 A 
ATOM     25  H   LIG d   1       6.759   0.296  -4.488  0.00  0.00     0.069 H 
ATOM     26  C   LIG d   1       4.188  -1.218  -2.906  0.00  0.00     0.016 A 
ATOM     27  C   LIG d   1       4.039  -2.322  -3.719  0.00  0.00    -0.046 A 
ATOM     28  H   LIG d   1       3.540  -1.086  -2.053  0.00  0.00     0.069 H 
ATOM     29  H   LIG d   1       3.276  -3.055  -3.503  0.00  0.00     0.063 H 
BRANCH  24  30
ATOM     30  N   LIG d   1       5.319   0.906  -2.309  0.00  0.00     0.080 N 
ATOM     31  O   LIG d   1       4.743   0.951  -1.246  0.00  0.00     0.041 OA
ATOM     32  O   LIG d   1       6.020   1.826  -2.656  0.00  0.00    -0.576 OA
ENDBRANCH  24  30
ENDBRANCH   4  20
BRANCH   1  33
ATOM     33  C   LIG d   1       4.629  -7.149  -6.452  0.00  0.00     0.065 A 
ATOM     34  C   LIG d   1       4.387  -7.849  -7.626  0.00  0.00    -0.036 A 
ATOM     35  C   LIG d   1       4.411  -9.230  -7.624  0.00  0.00    -0.060 A 
ATOM     36  H   LIG d   1       4.181  -7.314  -8.542  0.00  0.00     0.064 H 
ATOM     37  C   LIG d   1       4.674  -9.916  -6.452  0.00  0.00    -0.062 A 
ATOM     38  H   LIG d   1       4.222  -9.775  -8.537  0.00  0.00     0.062 H 
ATOM     39  C   LIG d   1       4.916  -9.222  -5.281  0.00  0.00    -0.060 A 
ATOM     40  H   LIG d   1       4.687 -10.996  -6.451  0.00  0.00     0.062 H 
ATOM     41  C   LIG d   1       4.894  -7.841  -5.277  0.00  0.00    -0.036 A 
ATOM     42  H   LIG d   1       5.121  -9.760  -4.367  0.00  0.00     0.062 H 
ATOM     43  H   LIG d   1       5.082  -7.300  -4.361  0.00  0.00     0.064 H 
ENDBRANCH   1  33
TORSDOF 4
ENDMDL
MODEL 3
REMARK VINA RESULT:      -6.9      4.311      5.913
REMARK  4 active torsions:
REMARK  status: ('A' for Active; 'I' for Inactive)
REMARK    1  A    between atoms: C_4  and  N_7 
REMARK    2  A    between atoms: C_9  and  C_21 
REMARK    3  A    between atoms: C_10  and  C_12 
REMARK    4  A    between atoms: C_15  and  N_18 
ROOT
ATOM      1  N   LIG d   1       3.411  -0.849  -9.952  0.00  0.00    -0.238 N 
ATOM      2  C   LIG d   1       3.074  -1.129  -8.677  0.00  0.00     0.044 A 
ATOM      3  C   LIG d   1       4.031  -0.593  -7.859  0.00  0.00     0.083 A 
ATOM      4  C   LIG d   1       5.012   0.056  -8.732  0.00  0.00     0.105 A 
ATOM      5  N   LIG d   1       4.607  -0.126  -9.970  0.00  0.00    -0.166 NA
ATOM      6  H   LIG d   1       2.203  -1.679  -8.357  0.00  0.00     0.084 H 
ENDROOT
BRANCH   3   7
ATOM      7  C   LIG d   1       4.068  -0.657  -6.386  0.00  0.00     0.232 A 
ATOM      8  O   LIG d   1       4.371  -1.757  -5.668  0.00  0.00    -0.435 OA
ATOM      9  C   LIG d   1       4.306  -1.433  -4.357  0.00  0.00     0.156 A 
ATOM     10  C   LIG d   1       3.938  -0.080  -4.299  0.00  0.00     0.110 A 
ATOM     11  C   LIG d   1       4.517  -2.141  -3.183  0.00  0.00    -0.017 A 
ATOM     12  N   LIG d   1       3.805   0.344  -5.583  0.00  0.00    -0.209 NA
ATOM     13  C   LIG d   1       3.785   0.543  -3.058  0.00  0.00    -0.033 A 
ATOM     14  C   LIG d   1       3.998  -0.176  -1.902  0.00  0.00    -0.059 A 
ATOM     15  H   LIG d   1       3.502   1.584  -3.005  0.00  0.00     0.064 H 
ATOM     16  C   LIG d   1       4.361  -1.513  -1.965  0.00  0.00    -0.058 A 
ATOM     17  H   LIG d   1       3.880   0.304  -0.943  0.00  0.00     0.062 H 
ATOM     18  H   LIG d   1       4.526  -2.067  -1.052  0.00  0.00     0.062 H 
ATOM     19  H   LIG d   1       4.801  -3.182  -3.224  0.00  0.00     0.066 H 
ENDBRANCH   3   7
BRANCH   4  20
ATOM     20  C   LIG d   1       6.235   0.777  -8.302  0.00  0.00     0.003 A 
ATOM     21  C   LIG d   1       6.639   1.930  -8.971  0.00  0.00    -0.046 A 
ATOM     22  C   LIG d   1       7.774   2.600  -8.563  0.00  0.00     0.016 A 
ATOM     23  H   LIG d   1       6.063   2.302  -9.806  0.00  0.00     0.063 H 
ATOM     24  C   LIG d   1       8.518   2.122  -7.499  0.00  0.00     0.273 A 
ATOM     25  H   LIG d   1       8.086   3.497  -9.078  0.00  0.00     0.069 H 
ATOM     26  C   LIG d   1       8.125   0.974  -6.834  0.00  0.00     0.016 A 
ATOM     27  C   LIG d   1       6.988   0.300  -7.230  0.00  0.00    -0.046 A 
ATOM     28  H   LIG d   1       8.708   0.605  -6.004  0.00  0.00     0.069 H 
ATOM     29  H   LIG d   1       6.681  -0.596  -6.711  0.00  0.00     0.063 H 
BRANCH  24  30
ATOM     30  N   LIG d   1       9.737   2.842  -7.069  0.00  0.00     0.080 N 
ATOM     31  O   LIG d   1       9.776   4.050  -7.118  0.00  0.00     0.041 OA
ATOM     32  O   LIG d   1      10.694   2.223  -6.668  0.00  0.00    -0.576 OA
ENDBRANCH  24  30
ENDBRANCH   4  20
BRANCH   1  33
ATOM     33  C   LIG d   1       2.679  -1.230 -11.083  0.00  0.00     0.065 A 
ATOM     34  C   LIG d   1       1.291  -1.228 -11.047  0.00  0.00    -0.036 A 
ATOM     35  C   LIG d   1       0.572  -1.604 -12.164  0.00  0.00    -0.060 A 
ATOM     36  H   LIG d   1       0.774  -0.931 -10.146  0.00  0.00     0.064 H 
ATOM     37  C   LIG d   1       1.232  -1.985 -13.318  0.00  0.00    -0.062 A 
ATOM     38  H   LIG d   1      -0.508  -1.602 -12.136  0.00  0.00     0.062 H 
ATOM     39  C   LIG d   1       2.614  -1.989 -13.357  0.00  0.00    -0.060 A 
ATOM     40  H   LIG d   1       0.667  -2.284 -14.189  0.00  0.00     0.062 H 
ATOM     41  C   LIG d   1       3.340  -1.614 -12.244  0.00  0.00    -0.036 A 
ATOM     42  H   LIG d   1       3.127  -2.287 -14.259  0.00  0.00     0.062 H 
ATOM     43  H   LIG d   1       4.419  -1.617 -12.275  0.00  0.00     0.064 H 
ENDBRANCH   1  33
TORSDOF 4
ENDMDL
MODEL 4
REMARK VINA RESULT:      -6.7      5.268      8.356
REMARK  4 active torsions:
REMARK  status: ('A' for Active; 'I' for Inactive)
REMARK    1  A    between atoms: C_4  and  N_7 
REMARK    2  A    between atoms: C_9  and  C_21 
REMARK    3  A    between atoms: C_10  and  C_12 
REMARK    4  A    between atoms: C_15  and  N_18 
ROOT
ATOM      1  N   LIG d   1       9.390   0.732  -7.973  0.00  0.00    -0.238 N 
ATOM      2  C   LIG d   1       8.371   0.162  -7.299  0.00  0.00     0.044 A 
ATOM      3  C   LIG d   1       8.292   0.758  -6.070  0.00  0.00     0.083 A 
ATOM      4  C   LIG d   1       9.357   1.763  -6.023  0.00  0.00     0.105 A 
ATOM      5  N   LIG d   1       9.990   1.710  -7.175  0.00  0.00    -0.166 NA
ATOM      6  H   LIG d   1       7.730  -0.626  -7.663  0.00  0.00     0.084 H 
ENDROOT
BRANCH   3   7
ATOM      7  C   LIG d   1       7.324   0.449  -5.001  0.00  0.00     0.232 A 
ATOM      8  O   LIG d   1       6.706   1.366  -4.231  0.00  0.00    -0.435 OA
ATOM      9  C   LIG d   1       5.894   0.712  -3.370  0.00  0.00     0.156 A 
ATOM     10  C   LIG d   1       6.048  -0.657  -3.639  0.00  0.00     0.110 A 
ATOM     11  C   LIG d   1       5.028   1.123  -2.368  0.00  0.00    -0.017 A 
ATOM     12  N   LIG d   1       6.944  -0.756  -4.656  0.00  0.00    -0.209 NA
ATOM     13  C   LIG d   1       5.328  -1.594  -2.894  0.00  0.00    -0.033 A 
ATOM     14  C   LIG d   1       4.473  -1.167  -1.902  0.00  0.00    -0.059 A 
ATOM     15  H   LIG d   1       5.441  -2.649  -3.096  0.00  0.00     0.064 H 
ATOM     16  C   LIG d   1       4.324   0.186  -1.640  0.00  0.00    -0.058 A 
ATOM     17  H   LIG d   1       3.917  -1.890  -1.326  0.00  0.00     0.062 H 
ATOM     18  H   LIG d   1       3.651   0.510  -0.860  0.00  0.00     0.062 H 
ATOM     19  H   LIG d   1       4.907   2.176  -2.158  0.00  0.00     0.066 H 
ENDBRANCH   3   7
BRANCH   4  20
ATOM     20  C   LIG d   1       9.667   2.667  -4.888  0.00  0.00     0.003 A 
ATOM     21  C   LIG d   1      10.337   2.178  -3.768  0.00  0.00    -0.046 A 
ATOM     22  C   LIG d   1      10.628   3.025  -2.718  0.00  0.00     0.016 A 
ATOM     23  H   LIG d   1      10.632   1.140  -3.723  0.00  0.00     0.063 H 
ATOM     24  C   LIG d   1      10.247   4.353  -2.770  0.00  0.00     0.273 A 
ATOM     25  H   LIG d   1      11.152   2.648  -1.851  0.00  0.00     0.069 H 
ATOM     26  C   LIG d   1       9.575   4.842  -3.877  0.00  0.00     0.016 A 
ATOM     27  C   LIG d   1       9.285   4.006  -4.935  0.00  0.00    -0.046 A 
ATOM     28  H   LIG d   1       9.279   5.880  -3.913  0.00  0.00     0.069 H 
ATOM     29  H   LIG d   1       8.761   4.389  -5.800  0.00  0.00     0.063 H 
BRANCH  24  30
ATOM     30  N   LIG d   1      10.557   5.255  -1.638  0.00  0.00     0.080 N 
ATOM     31  O   LIG d   1      11.440   4.970  -0.862  0.00  0.00     0.041 OA
ATOM     32  O   LIG d   1       9.929   6.276  -1.490  0.00  0.00    -0.576 OA
ENDBRANCH  24  30
ENDBRANCH   4  20
BRANCH   1  33
ATOM     33  C   LIG d   1       9.789   0.391  -9.272  0.00  0.00     0.065 A 
ATOM     34  C   LIG d   1      11.114   0.069  -9.530  0.00  0.00    -0.036 A 
ATOM     35  C   LIG d   1      11.506  -0.267 -10.811  0.00  0.00    -0.060 A 
ATOM     36  H   LIG d   1      11.840   0.080  -8.729  0.00  0.00     0.064 H 
ATOM     37  C   LIG d   1      10.579  -0.281 -11.838  0.00  0.00    -0.062 A 
ATOM     38  H   LIG d   1      12.537  -0.518 -11.012  0.00  0.00     0.062 H 
ATOM     39  C   LIG d   1       9.258   0.039 -11.584  0.00  0.00    -0.060 A 
ATOM     40  H   LIG d   1      10.888  -0.540 -12.840  0.00  0.00     0.062 H 
ATOM     41  C   LIG d   1       8.860   0.375 -10.305  0.00  0.00    -0.036 A 
ATOM     42  H   LIG d   1       8.536   0.027 -12.387  0.00  0.00     0.062 H 
ATOM     43  H   LIG d   1       7.828   0.626 -10.108  0.00  0.00     0.064 H 
ENDBRANCH   1  33
TORSDOF 4
ENDMDL
MODEL 5
REMARK VINA RESULT:      -6.6      5.955      8.877
REMARK  4 active torsions:
REMARK  status: ('A' for Active; 'I' for Inactive)
REMARK    1  A    between atoms: C_4  and  N_7 
REMARK    2  A    between atoms: C_9  and  C_21 
REMARK    3  A    between atoms: C_10  and  C_12 
REMARK    4  A    between atoms: C_15  and  N_18 
ROOT
ATOM      1  N   LIG d   1       6.722   0.438  -3.743  0.00  0.00    -0.238 N 
ATOM      2  C   LIG d   1       7.689  -0.207  -4.425  0.00  0.00     0.044 A 
ATOM      3  C   LIG d   1       8.717   0.670  -4.634  0.00  0.00     0.083 A 
ATOM      4  C   LIG d   1       8.316   1.939  -4.022  0.00  0.00     0.105 A 
ATOM      5  N   LIG d   1       7.119   1.758  -3.507  0.00  0.00    -0.166 NA
ATOM      6  H   LIG d   1       7.658  -1.236  -4.749  0.00  0.00     0.084 H 
ENDROOT
BRANCH   3   7
ATOM      7  C   LIG d   1       9.982   0.394  -5.340  0.00  0.00     0.232 A 
ATOM      8  O   LIG d   1      11.180   0.233  -4.743  0.00  0.00    -0.435 OA
ATOM      9  C   LIG d   1      12.099  -0.007  -5.705  0.00  0.00     0.156 A 
ATOM     10  C   LIG d   1      11.412   0.023  -6.929  0.00  0.00     0.110 A 
ATOM     11  C   LIG d   1      13.464  -0.249  -5.688  0.00  0.00    -0.017 A 
ATOM     12  N   LIG d   1      10.109   0.276  -6.638  0.00  0.00    -0.209 NA
ATOM     13  C   LIG d   1      12.110  -0.189  -8.120  0.00  0.00    -0.033 A 
ATOM     14  C   LIG d   1      13.466  -0.427  -8.083  0.00  0.00    -0.059 A 
ATOM     15  H   LIG d   1      11.589  -0.167  -9.066  0.00  0.00     0.064 H 
ATOM     16  C   LIG d   1      14.140  -0.456  -6.872  0.00  0.00    -0.058 A 
ATOM     17  H   LIG d   1      14.007  -0.591  -9.003  0.00  0.00     0.062 H 
ATOM     18  H   LIG d   1      15.205  -0.645  -6.855  0.00  0.00     0.062 H 
ATOM     19  H   LIG d   1      13.996  -0.274  -4.748  0.00  0.00     0.066 H 
ENDBRANCH   3   7
BRANCH   4  20
ATOM     20  C   LIG d   1       9.107   3.193  -3.992  0.00  0.00     0.003 A 
ATOM     21  C   LIG d   1       9.065   4.072  -5.072  0.00  0.00    -0.046 A 
ATOM     22  C   LIG d   1       9.799   5.240  -5.037  0.00  0.00     0.016 A 
ATOM     23  H   LIG d   1       8.457   3.842  -5.935  0.00  0.00     0.063 H 
ATOM     24  C   LIG d   1      10.584   5.534  -3.937  0.00  0.00     0.273 A 
ATOM     25  H   LIG d   1       9.764   5.925  -5.872  0.00  0.00     0.069 H 
ATOM     26  C   LIG d   1      10.634   4.663  -2.864  0.00  0.00     0.016 A 
ATOM     27  C   LIG d   1       9.900   3.495  -2.886  0.00  0.00    -0.046 A 
ATOM     28  H   LIG d   1      11.248   4.896  -2.007  0.00  0.00     0.069 H 
ATOM     29  H   LIG d   1       9.939   2.815  -2.047  0.00  0.00     0.063 H 
BRANCH  24  30
ATOM     30  N   LIG d   1      11.373   6.787  -3.907  0.00  0.00     0.080 N 
ATOM     31  O   LIG d   1      11.783   7.217  -2.854  0.00  0.00     0.041 OA
ATOM     32  O   LIG d   1      11.607   7.378  -4.934  0.00  0.00    -0.576 OA
ENDBRANCH  24  30
ENDBRANCH   4  20
BRANCH   1  33
ATOM     33  C   LIG d   1       5.505  -0.124  -3.339  0.00  0.00     0.065 A 
ATOM     34  C   LIG d   1       4.412   0.692  -3.082  0.00  0.00    -0.036 A 
ATOM     35  C   LIG d   1       3.213   0.135  -2.684  0.00  0.00    -0.060 A 
ATOM     36  H   LIG d   1       4.499   1.763  -3.195  0.00  0.00     0.064 H 
ATOM     37  C   LIG d   1       3.100  -1.236  -2.539  0.00  0.00    -0.062 A 
ATOM     38  H   LIG d   1       2.362   0.770  -2.485  0.00  0.00     0.062 H 
ATOM     39  C   LIG d   1       4.187  -2.053  -2.794  0.00  0.00    -0.060 A 
ATOM     40  H   LIG d   1       2.163  -1.670  -2.223  0.00  0.00     0.062 H 
ATOM     41  C   LIG d   1       5.389  -1.501  -3.193  0.00  0.00    -0.036 A 
ATOM     42  H   LIG d   1       4.096  -3.123  -2.680  0.00  0.00     0.062 H 
ATOM     43  H   LIG d   1       6.237  -2.140  -3.391  0.00  0.00     0.064 H 
ENDBRANCH   1  33
TORSDOF 4
ENDMDL
MODEL 6
REMARK VINA RESULT:      -6.5      2.684      5.600
REMARK  4 active torsions:
REMARK  status: ('A' for Active; 'I' for Inactive)
REMARK    1  A    between atoms: C_4  and  N_7 
REMARK    2  A    between atoms: C_9  and  C_21 
REMARK    3  A    between atoms: C_10  and  C_12 
REMARK    4  A    between atoms: C_15  and  N_18 
ROOT
ATOM      1  N   LIG d   1       6.966  -5.290  -5.865  0.00  0.00    -0.238 N 
ATOM      2  C   LIG d   1       6.203  -4.886  -6.901  0.00  0.00     0.044 A 
ATOM      3  C   LIG d   1       5.546  -3.747  -6.524  0.00  0.00     0.083 A 
ATOM      4  C   LIG d   1       5.961  -3.460  -5.149  0.00  0.00     0.105 A 
ATOM      5  N   LIG d   1       6.802  -4.407  -4.794  0.00  0.00    -0.166 NA
ATOM      6  H   LIG d   1       6.124  -5.376  -7.860  0.00  0.00     0.084 H 
ENDROOT
BRANCH   3   7
ATOM      7  C   LIG d   1       4.604  -2.962  -7.343  0.00  0.00     0.232 A 
ATOM      8  O   LIG d   1       4.400  -1.635  -7.226  0.00  0.00    -0.435 OA
ATOM      9  C   LIG d   1       3.473  -1.270  -8.139  0.00  0.00     0.156 A 
ATOM     10  C   LIG d   1       3.104  -2.441  -8.821  0.00  0.00     0.110 A 
ATOM     11  C   LIG d   1       2.883  -0.062  -8.478  0.00  0.00    -0.017 A 
ATOM     12  N   LIG d   1       3.836  -3.452  -8.284  0.00  0.00    -0.209 NA
ATOM     13  C   LIG d   1       2.144  -2.378  -9.835  0.00  0.00    -0.033 A 
ATOM     14  C   LIG d   1       1.569  -1.169 -10.156  0.00  0.00    -0.059 A 
ATOM     15  H   LIG d   1       1.856  -3.274 -10.364  0.00  0.00     0.064 H 
ATOM     16  C   LIG d   1       1.937  -0.016  -9.480  0.00  0.00    -0.058 A 
ATOM     17  H   LIG d   1       0.828  -1.120 -10.939  0.00  0.00     0.062 H 
ATOM     18  H   LIG d   1       1.479   0.928  -9.742  0.00  0.00     0.062 H 
ATOM     19  H   LIG d   1       3.165   0.841  -7.956  0.00  0.00     0.066 H 
ENDBRANCH   3   7
BRANCH   4  20
ATOM     20  C   LIG d   1       5.513  -2.320  -4.313  0.00  0.00     0.003 A 
ATOM     21  C   LIG d   1       6.303  -1.177  -4.207  0.00  0.00    -0.046 A 
ATOM     22  C   LIG d   1       5.878  -0.117  -3.432  0.00  0.00     0.016 A 
ATOM     23  H   LIG d   1       7.244  -1.118  -4.734  0.00  0.00     0.063 H 
ATOM     24  C   LIG d   1       4.677  -0.192  -2.751  0.00  0.00     0.273 A 
ATOM     25  H   LIG d   1       6.488   0.772  -3.354  0.00  0.00     0.069 H 
ATOM     26  C   LIG d   1       3.891  -1.327  -2.847  0.00  0.00     0.016 A 
ATOM     27  C   LIG d   1       4.303  -2.390  -3.624  0.00  0.00    -0.046 A 
ATOM     28  H   LIG d   1       2.955  -1.381  -2.313  0.00  0.00     0.069 H 
ATOM     29  H   LIG d   1       3.690  -3.276  -3.699  0.00  0.00     0.063 H 
BRANCH  24  30
ATOM     30  N   LIG d   1       4.229   0.946  -1.917  0.00  0.00     0.080 N 
ATOM     31  O   LIG d   1       4.965   1.403  -1.072  0.00  0.00     0.041 OA
ATOM     32  O   LIG d   1       3.130   1.418  -2.080  0.00  0.00    -0.576 OA
ENDBRANCH  24  30
ENDBRANCH   4  20
BRANCH   1  33
ATOM     33  C   LIG d   1       7.789  -6.422  -5.862  0.00  0.00     0.065 A 
ATOM     34  C   LIG d   1       7.343  -7.605  -5.287  0.00  0.00    -0.036 A 
ATOM     35  C   LIG d   1       8.157  -8.720  -5.285  0.00  0.00    -0.060 A 
ATOM     36  H   LIG d   1       6.359  -7.653  -4.843  0.00  0.00     0.064 H 
ATOM     37  C   LIG d   1       9.417  -8.661  -5.853  0.00  0.00    -0.062 A 
ATOM     38  H   LIG d   1       7.810  -9.641  -4.838  0.00  0.00     0.062 H 
ATOM     39  C   LIG d   1       9.864  -7.484  -6.425  0.00  0.00    -0.060 A 
ATOM     40  H   LIG d   1      10.054  -9.533  -5.846  0.00  0.00     0.062 H 
ATOM     41  C   LIG d   1       9.055  -6.365  -6.431  0.00  0.00    -0.036 A 
ATOM     42  H   LIG d   1      10.848  -7.440  -6.868  0.00  0.00     0.062 H 
ATOM     43  H   LIG d   1       9.406  -5.447  -6.879  0.00  0.00     0.064 H 
ENDBRANCH   1  33
TORSDOF 4
ENDMDL
MODEL 7
REMARK VINA RESULT:      -6.5      3.172      4.789
REMARK  4 active torsions:
REMARK  status: ('A' for Active; 'I' for Inactive)
REMARK    1  A    between atoms: C_4  and  N_7 
REMARK    2  A    between atoms: C_9  and  C_21 
REMARK    3  A    between atoms: C_10  and  C_12 
REMARK    4  A    between atoms: C_15  and  N_18 
ROOT
ATOM      1  N   LIG d   1       5.581  -6.016  -5.668  0.00  0.00    -0.238 N 
ATOM      2  C   LIG d   1       6.848  -5.560  -5.716  0.00  0.00     0.044 A 
ATOM      3  C   LIG d   1       6.843  -4.254  -5.310  0.00  0.00     0.083 A 
ATOM      4  C   LIG d   1       5.452  -3.918  -4.998  0.00  0.00     0.105 A 
ATOM      5  N   LIG d   1       4.733  -4.994  -5.231  0.00  0.00    -0.166 NA
ATOM      6  H   LIG d   1       7.716  -6.125  -6.021  0.00  0.00     0.084 H 
ENDROOT
BRANCH   3   7
ATOM      7  C   LIG d   1       8.010  -3.358  -5.207  0.00  0.00     0.232 A 
ATOM      8  O   LIG d   1       8.025  -2.062  -5.577  0.00  0.00    -0.435 OA
ATOM      9  C   LIG d   1       9.259  -1.569  -5.333  0.00  0.00     0.156 A 
ATOM     10  C   LIG d   1      10.013  -2.628  -4.802  0.00  0.00     0.110 A 
ATOM     11  C   LIG d   1       9.847  -0.325  -5.505  0.00  0.00    -0.017 A 
ATOM     12  N   LIG d   1       9.187  -3.706  -4.749  0.00  0.00    -0.209 NA
ATOM     13  C   LIG d   1      11.349  -2.419  -4.451  0.00  0.00    -0.033 A 
ATOM     14  C   LIG d   1      11.915  -1.177  -4.630  0.00  0.00    -0.059 A 
ATOM     15  H   LIG d   1      11.935  -3.229  -4.042  0.00  0.00     0.064 H 
ATOM     16  C   LIG d   1      11.167  -0.134  -5.155  0.00  0.00    -0.058 A 
ATOM     17  H   LIG d   1      12.947  -1.014  -4.360  0.00  0.00     0.062 H 
ATOM     18  H   LIG d   1      11.622   0.837  -5.290  0.00  0.00     0.062 H 
ATOM     19  H   LIG d   1       9.270   0.492  -5.913  0.00  0.00     0.066 H 
ENDBRANCH   3   7
BRANCH   4  20
ATOM     20  C   LIG d   1       4.947  -2.608  -4.517  0.00  0.00     0.003 A 
ATOM     21  C   LIG d   1       4.612  -1.610  -5.429  0.00  0.00    -0.046 A 
ATOM     22  C   LIG d   1       4.138  -0.396  -4.976  0.00  0.00     0.016 A 
ATOM     23  H   LIG d   1       4.720  -1.786  -6.489  0.00  0.00     0.063 H 
ATOM     24  C   LIG d   1       4.005  -0.165  -3.619  0.00  0.00     0.273 A 
ATOM     25  H   LIG d   1       3.873   0.378  -5.683  0.00  0.00     0.069 H 
ATOM     26  C   LIG d   1       4.342  -1.151  -2.708  0.00  0.00     0.016 A 
ATOM     27  C   LIG d   1       4.811  -2.370  -3.150  0.00  0.00    -0.046 A 
ATOM     28  H   LIG d   1       4.237  -0.966  -1.650  0.00  0.00     0.069 H 
ATOM     29  H   LIG d   1       5.073  -3.140  -2.439  0.00  0.00     0.063 H 
BRANCH  24  30
ATOM     30  N   LIG d   1       3.501   1.141  -3.138  0.00  0.00     0.080 N 
ATOM     31  O   LIG d   1       3.410   1.355  -1.951  0.00  0.00     0.041 OA
ATOM     32  O   LIG d   1       3.180   1.994  -3.932  0.00  0.00    -0.576 OA
ENDBRANCH  24  30
ENDBRANCH   4  20
BRANCH   1  33
ATOM     33  C   LIG d   1       5.176  -7.312  -6.011  0.00  0.00     0.065 A 
ATOM     34  C   LIG d   1       5.140  -8.309  -5.045  0.00  0.00    -0.036 A 
ATOM     35  C   LIG d   1       4.740  -9.585  -5.385  0.00  0.00    -0.060 A 
ATOM     36  H   LIG d   1       5.425  -8.084  -4.026  0.00  0.00     0.064 H 
ATOM     37  C   LIG d   1       4.376  -9.874  -6.687  0.00  0.00    -0.062 A 
ATOM     38  H   LIG d   1       4.712 -10.361  -4.633  0.00  0.00     0.062 H 
ATOM     39  C   LIG d   1       4.410  -8.884  -7.653  0.00  0.00    -0.060 A 
ATOM     40  H   LIG d   1       4.067 -10.874  -6.952  0.00  0.00     0.062 H 
ATOM     41  C   LIG d   1       4.809  -7.605  -7.319  0.00  0.00    -0.036 A 
ATOM     42  H   LIG d   1       4.125  -9.112  -8.669  0.00  0.00     0.062 H 
ATOM     43  H   LIG d   1       4.835  -6.832  -8.073  0.00  0.00     0.064 H 
ENDBRANCH   1  33
TORSDOF 4
ENDMDL
MODEL 8
REMARK VINA RESULT:      -6.4      4.798      8.680
REMARK  4 active torsions:
REMARK  status: ('A' for Active; 'I' for Inactive)
REMARK    1  A    between atoms: C_4  and  N_7 
REMARK    2  A    between atoms: C_9  and  C_21 
REMARK    3  A    between atoms: C_10  and  C_12 
REMARK    4  A    between atoms: C_15  and  N_18 
ROOT
ATOM      1  N   LIG d   1      10.315   3.207  -4.228  0.00  0.00    -0.238 N 
ATOM      2  C   LIG d   1       9.381   2.656  -3.427  0.00  0.00     0.044 A 
ATOM      3  C   LIG d   1       8.544   1.905  -4.205  0.00  0.00     0.083 A 
ATOM      4  C   LIG d   1       9.031   2.028  -5.582  0.00  0.00     0.105 A 
ATOM      5  N   LIG d   1      10.083   2.817  -5.550  0.00  0.00    -0.166 NA
ATOM      6  H   LIG d   1       9.306   2.785  -2.357  0.00  0.00     0.084 H 
ENDROOT
BRANCH   3   7
ATOM      7  C   LIG d   1       7.379   1.125  -3.749  0.00  0.00     0.232 A 
ATOM      8  O   LIG d   1       7.316  -0.221  -3.716  0.00  0.00    -0.435 OA
ATOM      9  C   LIG d   1       6.100  -0.573  -3.240  0.00  0.00     0.156 A 
ATOM     10  C   LIG d   1       5.409   0.624  -2.989  0.00  0.00     0.110 A 
ATOM     11  C   LIG d   1       5.484  -1.789  -2.988  0.00  0.00    -0.017 A 
ATOM     12  N   LIG d   1       6.251   1.637  -3.324  0.00  0.00    -0.209 NA
ATOM     13  C   LIG d   1       4.106   0.578  -2.488  0.00  0.00    -0.033 A 
ATOM     14  C   LIG d   1       3.510  -0.639  -2.245  0.00  0.00    -0.059 A 
ATOM     15  H   LIG d   1       3.569   1.494  -2.293  0.00  0.00     0.064 H 
ATOM     16  C   LIG d   1       4.197  -1.818  -2.494  0.00  0.00    -0.058 A 
ATOM     17  H   LIG d   1       2.503  -0.675  -1.858  0.00  0.00     0.062 H 
ATOM     18  H   LIG d   1       3.719  -2.768  -2.299  0.00  0.00     0.062 H 
ATOM     19  H   LIG d   1       6.013  -2.711  -3.179  0.00  0.00     0.066 H 
ENDBRANCH   3   7
BRANCH   4  20
ATOM     20  C   LIG d   1       8.445   1.388  -6.785  0.00  0.00     0.003 A 
ATOM     21  C   LIG d   1       7.738   2.154  -7.709  0.00  0.00    -0.046 A 
ATOM     22  C   LIG d   1       7.200   1.555  -8.830  0.00  0.00     0.016 A 
ATOM     23  H   LIG d   1       7.614   3.215  -7.552  0.00  0.00     0.063 H 
ATOM     24  C   LIG d   1       7.351   0.195  -9.030  0.00  0.00     0.273 A 
ATOM     25  H   LIG d   1       6.655   2.149  -9.550  0.00  0.00     0.069 H 
ATOM     26  C   LIG d   1       8.047  -0.572  -8.112  0.00  0.00     0.016 A 
ATOM     27  C   LIG d   1       8.594   0.018  -6.992  0.00  0.00    -0.046 A 
ATOM     28  H   LIG d   1       8.162  -1.633  -8.273  0.00  0.00     0.069 H 
ATOM     29  H   LIG d   1       9.138  -0.581  -6.276  0.00  0.00     0.063 H 
BRANCH  24  30
ATOM     30  N   LIG d   1       6.766  -0.443 -10.232  0.00  0.00     0.080 N 
ATOM     31  O   LIG d   1       7.197  -1.504 -10.622  0.00  0.00     0.041 OA
ATOM     32  O   LIG d   1       5.860   0.095 -10.821  0.00  0.00    -0.576 OA
ENDBRANCH  24  30
ENDBRANCH   4  20
BRANCH   1  33
ATOM     33  C   LIG d   1      11.352   4.046  -3.802  0.00  0.00     0.065 A 
ATOM     34  C   LIG d   1      12.259   4.553  -4.722  0.00  0.00    -0.036 A 
ATOM     35  C   LIG d   1      13.281   5.380  -4.300  0.00  0.00    -0.060 A 
ATOM     36  H   LIG d   1      12.166   4.300  -5.769  0.00  0.00     0.064 H 
ATOM     37  C   LIG d   1      13.402   5.703  -2.960  0.00  0.00    -0.062 A 
ATOM     38  H   LIG d   1      13.987   5.774  -5.015  0.00  0.00     0.062 H 
ATOM     39  C   LIG d   1      12.500   5.200  -2.041  0.00  0.00    -0.060 A 
ATOM     40  H   LIG d   1      14.205   6.347  -2.631  0.00  0.00     0.062 H 
ATOM     41  C   LIG d   1      11.476   4.373  -2.457  0.00  0.00    -0.036 A 
ATOM     42  H   LIG d   1      12.596   5.455  -0.996  0.00  0.00     0.062 H 
ATOM     43  H   LIG d   1      10.771   3.980  -1.738  0.00  0.00     0.064 H 
ENDBRANCH   1  33
TORSDOF 4
ENDMDL
MODEL 9
REMARK VINA RESULT:      -6.4      2.464      6.791
REMARK  4 active torsions:
REMARK  status: ('A' for Active; 'I' for Inactive)
REMARK    1  A    between atoms: C_4  and  N_7 
REMARK    2  A    between atoms: C_9  and  C_21 
REMARK    3  A    between atoms: C_10  and  C_12 
REMARK    4  A    between atoms: C_15  and  N_18 
ROOT
ATOM      1  N   LIG d   1       4.509  -1.845  -4.645  0.00  0.00    -0.238 N 
ATOM      2  C   LIG d   1       4.838  -3.091  -4.251  0.00  0.00     0.044 A 
ATOM      3  C   LIG d   1       4.980  -3.866  -5.369  0.00  0.00     0.083 A 
ATOM      4  C   LIG d   1       4.711  -2.996  -6.517  0.00  0.00     0.105 A 
ATOM      5  N   LIG d   1       4.429  -1.803  -6.041  0.00  0.00    -0.166 NA
ATOM      6  H   LIG d   1       4.967  -3.421  -3.231  0.00  0.00     0.084 H 
ENDROOT
BRANCH   3   7
ATOM      7  C   LIG d   1       5.335  -5.297  -5.412  0.00  0.00     0.232 A 
ATOM      8  O   LIG d   1       6.589  -5.779  -5.506  0.00  0.00    -0.435 OA
ATOM      9  C   LIG d   1       6.521  -7.129  -5.514  0.00  0.00     0.156 A 
ATOM     10  C   LIG d   1       5.158  -7.459  -5.431  0.00  0.00     0.110 A 
ATOM     11  C   LIG d   1       7.470  -8.137  -5.588  0.00  0.00    -0.017 A 
ATOM     12  N   LIG d   1       4.476  -6.285  -5.371  0.00  0.00    -0.209 NA
ATOM     13  C   LIG d   1       4.771  -8.801  -5.424  0.00  0.00    -0.033 A 
ATOM     14  C   LIG d   1       5.728  -9.789  -5.499  0.00  0.00    -0.059 A 
ATOM     15  H   LIG d   1       3.725  -9.063  -5.360  0.00  0.00     0.064 H 
ATOM     16  C   LIG d   1       7.072  -9.458  -5.581  0.00  0.00    -0.058 A 
ATOM     17  H   LIG d   1       5.429 -10.826  -5.493  0.00  0.00     0.062 H 
ATOM     18  H   LIG d   1       7.814 -10.241  -5.638  0.00  0.00     0.062 H 
ATOM     19  H   LIG d   1       8.519  -7.887  -5.652  0.00  0.00     0.066 H 
ENDBRANCH   3   7
BRANCH   4  20
ATOM     20  C   LIG d   1       4.743  -3.389  -7.947  0.00  0.00     0.003 A 
ATOM     21  C   LIG d   1       5.847  -3.070  -8.735  0.00  0.00    -0.046 A 
ATOM     22  C   LIG d   1       5.874  -3.443 -10.064  0.00  0.00     0.016 A 
ATOM     23  H   LIG d   1       6.682  -2.536  -8.307  0.00  0.00     0.063 H 
ATOM     24  C   LIG d   1       4.804  -4.121 -10.617  0.00  0.00     0.273 A 
ATOM     25  H   LIG d   1       6.733  -3.200 -10.674  0.00  0.00     0.069 H 
ATOM     26  C   LIG d   1       3.702  -4.435  -9.841  0.00  0.00     0.016 A 
ATOM     27  C   LIG d   1       3.667  -4.073  -8.510  0.00  0.00    -0.046 A 
ATOM     28  H   LIG d   1       2.868  -4.964 -10.277  0.00  0.00     0.069 H 
ATOM     29  H   LIG d   1       2.806  -4.318  -7.905  0.00  0.00     0.063 H 
BRANCH  24  30
ATOM     30  N   LIG d   1       4.837  -4.513 -12.044  0.00  0.00     0.080 N 
ATOM     31  O   LIG d   1       5.357  -3.787 -12.859  0.00  0.00     0.041 OA
ATOM     32  O   LIG d   1       4.344  -5.559 -12.394  0.00  0.00    -0.576 OA
ENDBRANCH  24  30
ENDBRANCH   4  20
BRANCH   1  33
ATOM     33  C   LIG d   1       4.278  -0.761  -3.789  0.00  0.00     0.065 A 
ATOM     34  C   LIG d   1       3.514   0.315  -4.220  0.00  0.00    -0.036 A 
ATOM     35  C   LIG d   1       3.287   1.382  -3.374  0.00  0.00    -0.060 A 
ATOM     36  H   LIG d   1       3.096   0.317  -5.217  0.00  0.00     0.064 H 
ATOM     37  C   LIG d   1       3.820   1.381  -2.098  0.00  0.00    -0.062 A 
ATOM     38  H   LIG d   1       2.692   2.219  -3.709  0.00  0.00     0.062 H 
ATOM     39  C   LIG d   1       4.582   0.311  -1.666  0.00  0.00    -0.060 A 
ATOM     40  H   LIG d   1       3.645   2.219  -1.440  0.00  0.00     0.062 H 
ATOM     41  C   LIG d   1       4.813  -0.760  -2.507  0.00  0.00    -0.036 A 
ATOM     42  H   LIG d   1       4.997   0.312  -0.669  0.00  0.00     0.062 H 
ATOM     43  H   LIG d   1       5.408  -1.595  -2.169  0.00  0.00     0.064 H 
ENDBRANCH   1  33
TORSDOF 4
ENDMDL
