MODEL 1
REMARK VINA RESULT:      -7.3      0.000      0.000
REMARK  9 active torsions:
REMARK  status: ('A' for Active; 'I' for Inactive)
REMARK    1  A    between atoms: C_1  and  C_2 
REMARK    2  A    between atoms: C_5  and  O_34 
REMARK    3  A    between atoms: C_7  and  C_31 
REMARK    4  A    between atoms: C_7  and  C_32 
REMARK    5  A    between atoms: C_12  and  O_30 
REMARK    6  A    between atoms: C_14  and  C_16 
REMARK    7  A    between atoms: C_16  and  C_17 
REMARK       I    between atoms: C_17  and  N_19 
REMARK    8  A    between atoms: N_19  and  C_20 
REMARK    9  A    between atoms: C_32  and  O_33 
ROOT
ATOM      1  C   LIG d   1      10.485   5.121  -5.723  0.00  0.00    -0.023 C 
ATOM      2  C   LIG d   1      11.979   5.438  -5.810  0.00  0.00    -0.045 C 
ATOM      3  C   LIG d   1      12.256   6.245  -7.079  0.00  0.00    -0.026 C 
ATOM      4  C   LIG d   1      11.459   7.552  -7.037  0.00  0.00     0.063 C 
ATOM      5  H   LIG d   1      11.759   8.131  -6.164  0.00  0.00     0.060 H 
ATOM      6  C   LIG d   1       9.965   7.234  -6.949  0.00  0.00     0.020 C 
ATOM      7  C   LIG d   1       9.688   6.426  -5.680  0.00  0.00    -0.025 C 
ATOM      8  H   LIG d   1       8.624   6.200  -5.617  0.00  0.00     0.031 H 
ATOM      9  C   LIG d   1      10.109   7.241  -4.455  0.00  0.00    -0.047 C 
ATOM     10  C   LIG d   1       9.833   6.433  -3.185  0.00  0.00    -0.026 C 
ATOM     11  C   LIG d   1      10.630   5.127  -3.228  0.00  0.00     0.059 C 
ATOM     12  H   LIG d   1      11.694   5.353  -3.291  0.00  0.00     0.060 H 
ATOM     13  C   LIG d   1      10.209   4.312  -4.453  0.00  0.00    -0.001 C 
ATOM     14  H   LIG d   1      10.776   3.382  -4.483  0.00  0.00     0.034 H 
ATOM     15  H   LIG d   1      12.547   4.508  -5.841  0.00  0.00     0.027 H 
ATOM     16  H   LIG d   1      12.279   6.018  -4.938  0.00  0.00     0.027 H 
ATOM     17  H   LIG d   1      11.955   5.665  -7.952  0.00  0.00     0.029 H 
ATOM     18  H   LIG d   1      13.320   6.471  -7.142  0.00  0.00     0.029 H 
ATOM     19  H   LIG d   1       9.542   8.171  -4.425  0.00  0.00     0.027 H 
ATOM     20  H   LIG d   1      11.174   7.466  -4.517  0.00  0.00     0.027 H 
ATOM     21  H   LIG d   1      10.133   7.012  -2.313  0.00  0.00     0.029 H 
ATOM     22  H   LIG d   1       8.768   6.206  -3.123  0.00  0.00     0.029 H 
ENDROOT
BRANCH  13  23
ATOM     23  C   LIG d   1       8.715   3.995  -4.365  0.00  0.00     0.030 C 
ATOM     24  H   LIG d   1       8.272   4.557  -3.542  0.00  0.00     0.036 H 
ATOM     25  H   LIG d   1       8.228   4.275  -5.300  0.00  0.00     0.036 H 
BRANCH  23  26
ATOM     26  C   LIG d   1       8.528   2.520  -4.124  0.00  0.00     0.218 C 
ATOM     27  O   LIG d   1       9.321   1.912  -3.437  0.00  0.00    -0.276 OA
ATOM     28  N   LIG d   1       7.479   1.874  -4.672  0.00  0.00    -0.285 N 
ATOM     29  H   LIG d   1       6.879   2.345  -5.271  0.00  0.00     0.155 HD
BRANCH  28  30
ATOM     30  C   LIG d   1       7.256   0.528  -4.377  0.00  0.00     0.041 A 
ATOM     31  C   LIG d   1       6.252   0.156  -3.458  0.00  0.00     0.003 A 
ATOM     32  C   LIG d   1       6.040  -1.216  -3.178  0.00  0.00    -0.016 A 
ATOM     33  C   LIG d   1       5.457   1.122  -2.819  0.00  0.00    -0.052 A 
ATOM     34  C   LIG d   1       6.840  -2.182  -3.812  0.00  0.00    -0.054 A 
ATOM     35  C   LIG d   1       5.037  -1.585  -2.265  0.00  0.00    -0.054 A 
ATOM     36  C   LIG d   1       7.805  -1.795  -4.691  0.00  0.00    -0.059 A 
ATOM     37  H   LIG d   1       6.689  -3.230  -3.602  0.00  0.00     0.062 H 
ATOM     38  C   LIG d   1       8.018  -0.450  -4.979  0.00  0.00    -0.040 A 
ATOM     39  H   LIG d   1       8.414  -2.545  -5.175  0.00  0.00     0.062 H 
ATOM     40  H   LIG d   1       8.790  -0.170  -5.680  0.00  0.00     0.064 H 
ATOM     41  C   LIG d   1       4.293  -0.623  -1.656  0.00  0.00    -0.061 A 
ATOM     42  H   LIG d   1       4.867  -2.628  -2.039  0.00  0.00     0.062 H 
ATOM     43  C   LIG d   1       4.498   0.727  -1.937  0.00  0.00    -0.061 A 
ATOM     44  H   LIG d   1       3.526  -0.910  -0.952  0.00  0.00     0.062 H 
ATOM     45  H   LIG d   1       3.888   1.471  -1.446  0.00  0.00     0.062 H 
ATOM     46  H   LIG d   1       5.605   2.171  -3.026  0.00  0.00     0.062 H 
ENDBRANCH  28  30
ENDBRANCH  23  26
ENDBRANCH  13  23
BRANCH   1  47
ATOM     47  C   LIG d   1      10.064   4.306  -6.948  0.00  0.00    -0.059 C 
ATOM     48  H   LIG d   1      10.717   4.547  -7.786  0.00  0.00     0.024 H 
ATOM     49  H   LIG d   1      10.141   3.243  -6.720  0.00  0.00     0.024 H 
ATOM     50  H   LIG d   1       9.033   4.548  -7.207  0.00  0.00     0.024 H 
ENDBRANCH   1  47
BRANCH  11  51
ATOM     51  O   LIG d   1      10.372   4.372  -2.042  0.00  0.00    -0.392 OA
ATOM     52  H   LIG d   1      10.277   4.912  -1.246  0.00  0.00     0.210 HD
ENDBRANCH  11  51
BRANCH   6  53
ATOM     53  C   LIG d   1       9.168   8.540  -6.906  0.00  0.00    -0.055 C 
ATOM     54  H   LIG d   1       8.102   8.314  -6.890  0.00  0.00     0.024 H 
ATOM     55  H   LIG d   1       9.436   9.099  -6.010  0.00  0.00     0.024 H 
ATOM     56  H   LIG d   1       9.400   9.136  -7.789  0.00  0.00     0.024 H 
ENDBRANCH   6  53
BRANCH   6  57
ATOM     57  C   LIG d   1       9.543   6.419  -8.174  0.00  0.00     0.052 C 
ATOM     58  H   LIG d   1      10.423   5.961  -8.625  0.00  0.00     0.056 H 
ATOM     59  H   LIG d   1       8.843   5.642  -7.869  0.00  0.00     0.056 H 
BRANCH  57  60
ATOM     60  O   LIG d   1       8.914   7.281  -9.125  0.00  0.00    -0.394 OA
ATOM     61  H   LIG d   1       8.342   7.953  -8.730  0.00  0.00     0.209 HD
ENDBRANCH  57  60
ENDBRANCH   6  57
BRANCH   4  62
ATOM     62  O   LIG d   1      11.717   8.306  -8.222  0.00  0.00    -0.391 OA
ATOM     63  H   LIG d   1      12.080   9.186  -8.057  0.00  0.00     0.210 HD
ENDBRANCH   4  62
TORSDOF 9
ENDMDL
MODEL 2
REMARK VINA RESULT:      -7.1      7.086     10.296
REMARK  9 active torsions:
REMARK  status: ('A' for Active; 'I' for Inactive)
REMARK    1  A    between atoms: C_1  and  C_2 
REMARK    2  A    between atoms: C_5  and  O_34 
REMARK    3  A    between atoms: C_7  and  C_31 
REMARK    4  A    between atoms: C_7  and  C_32 
REMARK    5  A    between atoms: C_12  and  O_30 
REMARK    6  A    between atoms: C_14  and  C_16 
REMARK    7  A    between atoms: C_16  and  C_17 
REMARK       I    between atoms: C_17  and  N_19 
REMARK    8  A    between atoms: N_19  and  C_20 
REMARK    9  A    between atoms: C_32  and  O_33 
ROOT
ATOM      1  C   LIG d   1       3.725  -2.441  -9.676  0.00  0.00    -0.023 C 
ATOM      2  C   LIG d   1       4.917  -2.814 -10.558  0.00  0.00    -0.045 C 
ATOM      3  C   LIG d   1       4.880  -4.313 -10.860  0.00  0.00    -0.026 C 
ATOM      4  C   LIG d   1       3.579  -4.654 -11.590  0.00  0.00     0.063 C 
ATOM      5  H   LIG d   1       3.528  -4.094 -12.523  0.00  0.00     0.060 H 
ATOM      6  C   LIG d   1       2.386  -4.281 -10.707  0.00  0.00     0.020 C 
ATOM      7  C   LIG d   1       2.424  -2.782 -10.405  0.00  0.00    -0.025 C 
ATOM      8  H   LIG d   1       1.575  -2.515  -9.777  0.00  0.00     0.031 H 
ATOM      9  C   LIG d   1       2.353  -1.996 -11.717  0.00  0.00    -0.047 C 
ATOM     10  C   LIG d   1       2.392  -0.496 -11.416  0.00  0.00    -0.026 C 
ATOM     11  C   LIG d   1       3.693  -0.155 -10.686  0.00  0.00     0.059 C 
ATOM     12  H   LIG d   1       4.542  -0.422 -11.314  0.00  0.00     0.060 H 
ATOM     13  C   LIG d   1       3.763  -0.941  -9.375  0.00  0.00    -0.001 C 
ATOM     14  H   LIG d   1       4.690  -0.698  -8.855  0.00  0.00     0.034 H 
ATOM     15  H   LIG d   1       5.844  -2.571 -10.039  0.00  0.00     0.027 H 
ATOM     16  H   LIG d   1       4.867  -2.254 -11.492  0.00  0.00     0.027 H 
ATOM     17  H   LIG d   1       4.929  -4.873  -9.925  0.00  0.00     0.029 H 
ATOM     18  H   LIG d   1       5.729  -4.580 -11.488  0.00  0.00     0.029 H 
ATOM     19  H   LIG d   1       1.427  -2.239 -12.237  0.00  0.00     0.027 H 
ATOM     20  H   LIG d   1       3.204  -2.261 -12.345  0.00  0.00     0.027 H 
ATOM     21  H   LIG d   1       2.343   0.064 -12.349  0.00  0.00     0.029 H 
ATOM     22  H   LIG d   1       1.542  -0.230 -10.786  0.00  0.00     0.029 H 
ENDROOT
BRANCH  13  23
ATOM     23  C   LIG d   1       2.570  -0.568  -8.492  0.00  0.00     0.030 C 
ATOM     24  H   LIG d   1       1.960   0.178  -9.003  0.00  0.00     0.036 H 
ATOM     25  H   LIG d   1       1.970  -1.456  -8.296  0.00  0.00     0.036 H 
BRANCH  23  26
ATOM     26  C   LIG d   1       3.068  -0.001  -7.188  0.00  0.00     0.218 C 
ATOM     27  O   LIG d   1       4.118   0.607  -7.152  0.00  0.00    -0.276 OA
ATOM     28  N   LIG d   1       2.349  -0.169  -6.060  0.00  0.00    -0.285 N 
ATOM     29  H   LIG d   1       1.542  -0.706  -6.076  0.00  0.00     0.155 HD
BRANCH  28  30
ATOM     30  C   LIG d   1       2.765   0.431  -4.870  0.00  0.00     0.041 A 
ATOM     31  C   LIG d   1       3.377  -0.341  -3.860  0.00  0.00     0.003 A 
ATOM     32  C   LIG d   1       3.795   0.289  -2.662  0.00  0.00    -0.016 A 
ATOM     33  C   LIG d   1       3.582  -1.721  -4.022  0.00  0.00    -0.052 A 
ATOM     34  C   LIG d   1       3.584   1.668  -2.497  0.00  0.00    -0.054 A 
ATOM     35  C   LIG d   1       4.409  -0.480  -1.658  0.00  0.00    -0.054 A 
ATOM     36  C   LIG d   1       2.987   2.388  -3.486  0.00  0.00    -0.059 A 
ATOM     37  H   LIG d   1       3.896   2.156  -1.585  0.00  0.00     0.062 H 
ATOM     38  C   LIG d   1       2.577   1.781  -4.670  0.00  0.00    -0.040 A 
ATOM     39  H   LIG d   1       2.829   3.448  -3.350  0.00  0.00     0.062 H 
ATOM     40  H   LIG d   1       2.105   2.375  -5.438  0.00  0.00     0.064 H 
ATOM     41  C   LIG d   1       4.582  -1.817  -1.845  0.00  0.00    -0.061 A 
ATOM     42  H   LIG d   1       4.729  -0.014  -0.738  0.00  0.00     0.062 H 
ATOM     43  C   LIG d   1       4.175  -2.435  -3.026  0.00  0.00    -0.061 A 
ATOM     44  H   LIG d   1       5.049  -2.406  -1.070  0.00  0.00     0.062 H 
ATOM     45  H   LIG d   1       4.331  -3.496  -3.152  0.00  0.00     0.062 H 
ATOM     46  H   LIG d   1       3.272  -2.213  -4.931  0.00  0.00     0.062 H 
ENDBRANCH  28  30
ENDBRANCH  23  26
ENDBRANCH  13  23
BRANCH   1  47
ATOM     47  C   LIG d   1       3.795  -3.227  -8.364  0.00  0.00    -0.059 C 
ATOM     48  H   LIG d   1       3.924  -2.534  -7.533  0.00  0.00     0.024 H 
ATOM     49  H   LIG d   1       2.873  -3.791  -8.229  0.00  0.00     0.024 H 
ATOM     50  H   LIG d   1       4.640  -3.915  -8.399  0.00  0.00     0.024 H 
ENDBRANCH   1  47
BRANCH  11  51
ATOM     51  O   LIG d   1       3.729   1.246 -10.404  0.00  0.00    -0.392 OA
ATOM     52  H   LIG d   1       4.356   1.491  -9.711  0.00  0.00     0.210 HD
ENDBRANCH  11  51
BRANCH   6  53
ATOM     53  C   LIG d   1       1.085  -4.622 -11.437  0.00  0.00    -0.055 C 
ATOM     54  H   LIG d   1       1.274  -5.406 -12.169  0.00  0.00     0.024 H 
ATOM     55  H   LIG d   1       0.344  -4.967 -10.717  0.00  0.00     0.024 H 
ATOM     56  H   LIG d   1       0.710  -3.733 -11.945  0.00  0.00     0.024 H 
ENDBRANCH   6  53
BRANCH   6  57
ATOM     57  C   LIG d   1       2.456  -5.066  -9.396  0.00  0.00     0.052 C 
ATOM     58  H   LIG d   1       3.470  -5.436  -9.247  0.00  0.00     0.056 H 
ATOM     59  H   LIG d   1       2.181  -4.414  -8.567  0.00  0.00     0.056 H 
BRANCH  57  60
ATOM     60  O   LIG d   1       1.550  -6.171  -9.453  0.00  0.00    -0.394 OA
ATOM     61  H   LIG d   1       0.759  -6.004  -9.984  0.00  0.00     0.209 HD
ENDBRANCH  57  60
ENDBRANCH   6  57
BRANCH   4  62
ATOM     62  O   LIG d   1       3.543  -6.055 -11.871  0.00  0.00    -0.391 OA
ATOM     63  H   LIG d   1       3.701  -6.274 -12.799  0.00  0.00     0.210 HD
ENDBRANCH   4  62
TORSDOF 9
ENDMDL
MODEL 3
REMARK VINA RESULT:      -7.0      2.153      3.742
REMARK  9 active torsions:
REMARK  status: ('A' for Active; 'I' for Inactive)
REMARK    1  A    between atoms: C_1  and  C_2 
REMARK    2  A    between atoms: C_5  and  O_34 
REMARK    3  A    between atoms: C_7  and  C_31 
REMARK    4  A    between atoms: C_7  and  C_32 
REMARK    5  A    between atoms: C_12  and  O_30 
REMARK    6  A    between atoms: C_14  and  C_16 
REMARK    7  A    between atoms: C_16  and  C_17 
REMARK       I    between atoms: C_17  and  N_19 
REMARK    8  A    between atoms: N_19  and  C_20 
REMARK    9  A    between atoms: C_32  and  O_33 
ROOT
ATOM      1  C   LIG d   1       9.883   4.162  -4.470  0.00  0.00    -0.023 C 
ATOM      2  C   LIG d   1       9.386   5.599  -4.639  0.00  0.00    -0.045 C 
ATOM      3  C   LIG d   1      10.065   6.499  -3.605  0.00  0.00    -0.026 C 
ATOM      4  C   LIG d   1      11.581   6.456  -3.809  0.00  0.00     0.063 C 
ATOM      5  H   LIG d   1      11.823   6.808  -4.812  0.00  0.00     0.060 H 
ATOM      6  C   LIG d   1      12.078   5.019  -3.640  0.00  0.00     0.020 C 
ATOM      7  C   LIG d   1      11.398   4.119  -4.674  0.00  0.00    -0.025 C 
ATOM      8  H   LIG d   1      11.752   3.095  -4.554  0.00  0.00     0.031 H 
ATOM      9  C   LIG d   1      11.738   4.614  -6.081  0.00  0.00    -0.047 C 
ATOM     10  C   LIG d   1      11.059   3.714  -7.116  0.00  0.00    -0.026 C 
ATOM     11  C   LIG d   1       9.543   3.757  -6.912  0.00  0.00     0.059 C 
ATOM     12  H   LIG d   1       9.189   4.780  -7.032  0.00  0.00     0.060 H 
ATOM     13  C   LIG d   1       9.203   3.262  -5.505  0.00  0.00    -0.001 C 
ATOM     14  H   LIG d   1       8.123   3.292  -5.359  0.00  0.00     0.034 H 
ATOM     15  H   LIG d   1       8.306   5.629  -4.494  0.00  0.00     0.027 H 
ATOM     16  H   LIG d   1       9.627   5.951  -5.642  0.00  0.00     0.027 H 
ATOM     17  H   LIG d   1       9.824   6.146  -2.602  0.00  0.00     0.029 H 
ATOM     18  H   LIG d   1       9.711   7.522  -3.725  0.00  0.00     0.029 H 
ATOM     19  H   LIG d   1      12.818   4.583  -6.227  0.00  0.00     0.027 H 
ATOM     20  H   LIG d   1      11.384   5.637  -6.203  0.00  0.00     0.027 H 
ATOM     21  H   LIG d   1      11.300   4.066  -8.119  0.00  0.00     0.029 H 
ATOM     22  H   LIG d   1      11.412   2.690  -6.995  0.00  0.00     0.029 H 
ENDROOT
BRANCH  13  23
ATOM     23  C   LIG d   1       9.700   1.825  -5.335  0.00  0.00     0.030 C 
ATOM     24  H   LIG d   1      10.280   1.536  -6.212  0.00  0.00     0.036 H 
ATOM     25  H   LIG d   1      10.328   1.759  -4.447  0.00  0.00     0.036 H 
BRANCH  23  26
ATOM     26  C   LIG d   1       8.520   0.900  -5.185  0.00  0.00     0.218 C 
ATOM     27  O   LIG d   1       7.779   0.706  -6.126  0.00  0.00    -0.276 OA
ATOM     28  N   LIG d   1       8.289   0.287  -4.008  0.00  0.00    -0.285 N 
ATOM     29  H   LIG d   1       8.845   0.488  -3.239  0.00  0.00     0.155 HD
BRANCH  28  30
ATOM     30  C   LIG d   1       7.248  -0.638  -3.894  0.00  0.00     0.041 A 
ATOM     31  C   LIG d   1       6.003  -0.246  -3.359  0.00  0.00     0.003 A 
ATOM     32  C   LIG d   1       4.961  -1.199  -3.257  0.00  0.00    -0.016 A 
ATOM     33  C   LIG d   1       5.778   1.072  -2.930  0.00  0.00    -0.052 A 
ATOM     34  C   LIG d   1       5.188  -2.520  -3.680  0.00  0.00    -0.054 A 
ATOM     35  C   LIG d   1       3.719  -0.807  -2.728  0.00  0.00    -0.054 A 
ATOM     36  C   LIG d   1       6.401  -2.872  -4.187  0.00  0.00    -0.059 A 
ATOM     37  H   LIG d   1       4.401  -3.255  -3.601  0.00  0.00     0.062 H 
ATOM     38  C   LIG d   1       7.431  -1.942  -4.298  0.00  0.00    -0.040 A 
ATOM     39  H   LIG d   1       6.567  -3.889  -4.510  0.00  0.00     0.062 H 
ATOM     40  H   LIG d   1       8.384  -2.248  -4.704  0.00  0.00     0.064 H 
ATOM     41  C   LIG d   1       3.539   0.476  -2.312  0.00  0.00    -0.061 A 
ATOM     42  H   LIG d   1       2.915  -1.524  -2.640  0.00  0.00     0.062 H 
ATOM     43  C   LIG d   1       4.563   1.415  -2.418  0.00  0.00    -0.061 A 
ATOM     44  H   LIG d   1       2.585   0.773  -1.902  0.00  0.00     0.062 H 
ATOM     45  H   LIG d   1       4.392   2.429  -2.088  0.00  0.00     0.062 H 
ATOM     46  H   LIG d   1       6.562   1.810  -3.006  0.00  0.00     0.062 H 
ENDBRANCH  28  30
ENDBRANCH  23  26
ENDBRANCH  13  23
BRANCH   1  47
ATOM     47  C   LIG d   1       9.543   3.667  -3.062  0.00  0.00    -0.059 C 
ATOM     48  H   LIG d   1      10.398   3.133  -2.649  0.00  0.00     0.024 H 
ATOM     49  H   LIG d   1       9.303   4.519  -2.426  0.00  0.00     0.024 H 
ATOM     50  H   LIG d   1       8.684   2.998  -3.111  0.00  0.00     0.024 H 
ENDBRANCH   1  47
BRANCH  11  51
ATOM     51  O   LIG d   1       8.908   2.916  -7.878  0.00  0.00    -0.392 OA
ATOM     52  H   LIG d   1       9.524   2.435  -8.446  0.00  0.00     0.210 HD
ENDBRANCH  11  51
BRANCH   6  53
ATOM     53  C   LIG d   1      13.594   4.976  -3.844  0.00  0.00    -0.055 C 
ATOM     54  H   LIG d   1      13.878   4.008  -4.255  0.00  0.00     0.024 H 
ATOM     55  H   LIG d   1      13.890   5.765  -4.535  0.00  0.00     0.024 H 
ATOM     56  H   LIG d   1      14.093   5.126  -2.887  0.00  0.00     0.024 H 
ENDBRANCH   6  53
BRANCH   6  57
ATOM     57  C   LIG d   1      11.739   4.524  -2.232  0.00  0.00     0.052 C 
ATOM     58  H   LIG d   1      10.851   5.042  -1.869  0.00  0.00     0.056 H 
ATOM     59  H   LIG d   1      11.548   3.451  -2.261  0.00  0.00     0.056 H 
BRANCH  57  60
ATOM     60  O   LIG d   1      12.836   4.790  -1.357  0.00  0.00    -0.394 OA
ATOM     61  H   LIG d   1      13.112   5.717  -1.342  0.00  0.00     0.209 HD
ENDBRANCH  57  60
ENDBRANCH   6  57
BRANCH   4  62
ATOM     62  O   LIG d   1      12.216   7.296  -2.843  0.00  0.00    -0.391 OA
ATOM     63  H   LIG d   1      11.998   7.076  -1.928  0.00  0.00     0.210 HD
ENDBRANCH   4  62
TORSDOF 9
ENDMDL
MODEL 4
REMARK VINA RESULT:      -6.8      6.931      9.695
REMARK  9 active torsions:
REMARK  status: ('A' for Active; 'I' for Inactive)
REMARK    1  A    between atoms: C_1  and  C_2 
REMARK    2  A    between atoms: C_5  and  O_34 
REMARK    3  A    between atoms: C_7  and  C_31 
REMARK    4  A    between atoms: C_7  and  C_32 
REMARK    5  A    between atoms: C_12  and  O_30 
REMARK    6  A    between atoms: C_14  and  C_16 
REMARK    7  A    between atoms: C_16  and  C_17 
REMARK       I    between atoms: C_17  and  N_19 
REMARK    8  A    between atoms: N_19  and  C_20 
REMARK    9  A    between atoms: C_32  and  O_33 
ROOT
ATOM      1  C   LIG d   1       3.671  -2.085 -10.373  0.00  0.00    -0.023 C 
ATOM      2  C   LIG d   1       4.410  -2.867 -11.461  0.00  0.00    -0.045 C 
ATOM      3  C   LIG d   1       3.453  -3.869 -12.108  0.00  0.00    -0.026 C 
ATOM      4  C   LIG d   1       2.274  -3.118 -12.732  0.00  0.00     0.063 C 
ATOM      5  H   LIG d   1       2.643  -2.427 -13.489  0.00  0.00     0.060 H 
ATOM      6  C   LIG d   1       1.535  -2.336 -11.644  0.00  0.00     0.020 C 
ATOM      7  C   LIG d   1       2.493  -1.334 -10.996  0.00  0.00    -0.025 C 
ATOM      8  H   LIG d   1       1.967  -0.776 -10.221  0.00  0.00     0.031 H 
ATOM      9  C   LIG d   1       3.011  -0.363 -12.060  0.00  0.00    -0.047 C 
ATOM     10  C   LIG d   1       3.970   0.639 -11.412  0.00  0.00    -0.026 C 
ATOM     11  C   LIG d   1       5.148  -0.112 -10.789  0.00  0.00     0.059 C 
ATOM     12  H   LIG d   1       5.674  -0.670 -11.564  0.00  0.00     0.060 H 
ATOM     13  C   LIG d   1       4.630  -1.083  -9.725  0.00  0.00    -0.001 C 
ATOM     14  H   LIG d   1       5.470  -1.618  -9.281  0.00  0.00     0.034 H 
ATOM     15  H   LIG d   1       5.250  -3.402 -11.017  0.00  0.00     0.027 H 
ATOM     16  H   LIG d   1       4.780  -2.176 -12.217  0.00  0.00     0.027 H 
ATOM     17  H   LIG d   1       3.083  -4.560 -11.350  0.00  0.00     0.029 H 
ATOM     18  H   LIG d   1       3.979  -4.427 -12.883  0.00  0.00     0.029 H 
ATOM     19  H   LIG d   1       2.172   0.171 -12.504  0.00  0.00     0.027 H 
ATOM     20  H   LIG d   1       3.538  -0.921 -12.834  0.00  0.00     0.027 H 
ATOM     21  H   LIG d   1       4.340   1.329 -12.169  0.00  0.00     0.029 H 
ATOM     22  H   LIG d   1       3.444   1.196 -10.637  0.00  0.00     0.029 H 
ENDROOT
BRANCH  13  23
ATOM     23  C   LIG d   1       3.891  -0.301  -8.638  0.00  0.00     0.030 C 
ATOM     24  H   LIG d   1       3.830   0.750  -8.924  0.00  0.00     0.036 H 
ATOM     25  H   LIG d   1       2.886  -0.704  -8.519  0.00  0.00     0.036 H 
BRANCH  23  26
ATOM     26  C   LIG d   1       4.639  -0.423  -7.335  0.00  0.00     0.218 C 
ATOM     27  O   LIG d   1       5.615   0.267  -7.130  0.00  0.00    -0.276 OA
ATOM     28  N   LIG d   1       4.223  -1.298  -6.398  0.00  0.00    -0.285 N 
ATOM     29  H   LIG d   1       3.480  -1.893  -6.586  0.00  0.00     0.155 HD
BRANCH  28  30
ATOM     30  C   LIG d   1       4.862  -1.350  -5.158  0.00  0.00     0.041 A 
ATOM     31  C   LIG d   1       4.479  -0.470  -4.123  0.00  0.00     0.003 A 
ATOM     32  C   LIG d   1       5.138  -0.543  -2.871  0.00  0.00    -0.016 A 
ATOM     33  C   LIG d   1       3.455   0.473  -4.310  0.00  0.00    -0.052 A 
ATOM     34  C   LIG d   1       6.167  -1.482  -2.685  0.00  0.00    -0.054 A 
ATOM     35  C   LIG d   1       4.753   0.330  -1.839  0.00  0.00    -0.054 A 
ATOM     36  C   LIG d   1       6.519  -2.315  -3.703  0.00  0.00    -0.059 A 
ATOM     37  H   LIG d   1       6.677  -1.542  -1.736  0.00  0.00     0.062 H 
ATOM     38  C   LIG d   1       5.875  -2.257  -4.935  0.00  0.00    -0.040 A 
ATOM     39  H   LIG d   1       7.311  -3.034  -3.551  0.00  0.00     0.062 H 
ATOM     40  H   LIG d   1       6.174  -2.929  -5.726  0.00  0.00     0.064 H 
ATOM     41  C   LIG d   1       3.764   1.239  -2.059  0.00  0.00    -0.061 A 
ATOM     42  H   LIG d   1       5.249   0.289  -0.880  0.00  0.00     0.062 H 
ATOM     43  C   LIG d   1       3.113   1.306  -3.289  0.00  0.00    -0.061 A 
ATOM     44  H   LIG d   1       3.474   1.911  -1.266  0.00  0.00     0.062 H 
ATOM     45  H   LIG d   1       2.325   2.031  -3.436  0.00  0.00     0.062 H 
ATOM     46  H   LIG d   1       2.942   0.536  -5.258  0.00  0.00     0.062 H 
ENDBRANCH  28  30
ENDBRANCH  23  26
ENDBRANCH  13  23
BRANCH   1  47
ATOM     47  C   LIG d   1       3.153  -3.056  -9.309  0.00  0.00    -0.059 C 
ATOM     48  H   LIG d   1       2.090  -3.236  -9.469  0.00  0.00     0.024 H 
ATOM     49  H   LIG d   1       3.697  -3.997  -9.381  0.00  0.00     0.024 H 
ATOM     50  H   LIG d   1       3.305  -2.623  -8.320  0.00  0.00     0.024 H 
ENDBRANCH   1  47
BRANCH  11  51
ATOM     51  O   LIG d   1       6.044   0.824 -10.184  0.00  0.00    -0.392 OA
ATOM     52  H   LIG d   1       5.916   1.735 -10.478  0.00  0.00     0.210 HD
ENDBRANCH  11  51
BRANCH   6  53
ATOM     53  C   LIG d   1       0.357  -1.585 -12.267  0.00  0.00    -0.055 C 
ATOM     54  H   LIG d   1       0.030  -2.105 -13.167  0.00  0.00     0.024 H 
ATOM     55  H   LIG d   1      -0.465  -1.541 -11.553  0.00  0.00     0.024 H 
ATOM     56  H   LIG d   1       0.668  -0.572 -12.526  0.00  0.00     0.024 H 
ENDBRANCH   6  53
BRANCH   6  57
ATOM     57  C   LIG d   1       1.017  -3.306 -10.580  0.00  0.00     0.052 C 
ATOM     58  H   LIG d   1       1.666  -4.180 -10.539  0.00  0.00     0.056 H 
ATOM     59  H   LIG d   1       1.010  -2.811  -9.609  0.00  0.00     0.056 H 
BRANCH  57  60
ATOM     60  O   LIG d   1      -0.311  -3.714 -10.915  0.00  0.00    -0.394 OA
ATOM     61  H   LIG d   1      -0.436  -3.917 -11.853  0.00  0.00     0.209 HD
ENDBRANCH  57  60
ENDBRANCH   6  57
BRANCH   4  62
ATOM     62  O   LIG d   1       1.379  -4.054 -13.336  0.00  0.00    -0.391 OA
ATOM     63  H   LIG d   1       1.736  -4.949 -13.407  0.00  0.00     0.210 HD
ENDBRANCH   4  62
TORSDOF 9
ENDMDL
MODEL 5
REMARK VINA RESULT:      -6.6      2.177      3.174
REMARK  9 active torsions:
REMARK  status: ('A' for Active; 'I' for Inactive)
REMARK    1  A    between atoms: C_1  and  C_2 
REMARK    2  A    between atoms: C_5  and  O_34 
REMARK    3  A    between atoms: C_7  and  C_31 
REMARK    4  A    between atoms: C_7  and  C_32 
REMARK    5  A    between atoms: C_12  and  O_30 
REMARK    6  A    between atoms: C_14  and  C_16 
REMARK    7  A    between atoms: C_16  and  C_17 
REMARK       I    between atoms: C_17  and  N_19 
REMARK    8  A    between atoms: N_19  and  C_20 
REMARK    9  A    between atoms: C_32  and  O_33 
ROOT
ATOM      1  C   LIG d   1      10.381   4.272  -4.820  0.00  0.00    -0.023 C 
ATOM      2  C   LIG d   1      11.257   4.534  -6.047  0.00  0.00    -0.045 C 
ATOM      3  C   LIG d   1      11.855   5.939  -5.955  0.00  0.00    -0.026 C 
ATOM      4  C   LIG d   1      12.707   6.048  -4.687  0.00  0.00     0.063 C 
ATOM      5  H   LIG d   1      13.510   5.313  -4.725  0.00  0.00     0.060 H 
ATOM      6  C   LIG d   1      11.831   5.786  -3.461  0.00  0.00     0.020 C 
ATOM      7  C   LIG d   1      11.232   4.381  -3.553  0.00  0.00    -0.025 C 
ATOM      8  H   LIG d   1      10.608   4.193  -2.679  0.00  0.00     0.031 H 
ATOM      9  C   LIG d   1      12.360   3.348  -3.605  0.00  0.00    -0.047 C 
ATOM     10  C   LIG d   1      11.761   1.942  -3.698  0.00  0.00    -0.026 C 
ATOM     11  C   LIG d   1      10.910   1.833  -4.965  0.00  0.00     0.059 C 
ATOM     12  H   LIG d   1      11.534   2.021  -5.838  0.00  0.00     0.060 H 
ATOM     13  C   LIG d   1       9.782   2.866  -4.913  0.00  0.00    -0.001 C 
ATOM     14  H   LIG d   1       9.176   2.788  -5.815  0.00  0.00     0.034 H 
ATOM     15  H   LIG d   1      10.650   4.456  -6.949  0.00  0.00     0.027 H 
ATOM     16  H   LIG d   1      12.059   3.799  -6.084  0.00  0.00     0.027 H 
ATOM     17  H   LIG d   1      11.051   6.675  -5.916  0.00  0.00     0.029 H 
ATOM     18  H   LIG d   1      12.479   6.127  -6.828  0.00  0.00     0.029 H 
ATOM     19  H   LIG d   1      12.966   3.426  -2.703  0.00  0.00     0.027 H 
ATOM     20  H   LIG d   1      12.983   3.535  -4.480  0.00  0.00     0.027 H 
ATOM     21  H   LIG d   1      12.564   1.207  -3.736  0.00  0.00     0.029 H 
ATOM     22  H   LIG d   1      11.137   1.755  -2.824  0.00  0.00     0.029 H 
ENDROOT
BRANCH  13  23
ATOM     23  C   LIG d   1       8.906   2.603  -3.686  0.00  0.00     0.030 C 
ATOM     24  H   LIG d   1       9.536   2.299  -2.849  0.00  0.00     0.036 H 
ATOM     25  H   LIG d   1       8.366   3.513  -3.422  0.00  0.00     0.036 H 
BRANCH  23  26
ATOM     26  C   LIG d   1       7.921   1.507  -3.997  0.00  0.00     0.218 C 
ATOM     27  O   LIG d   1       7.333   1.504  -5.058  0.00  0.00    -0.276 OA
ATOM     28  N   LIG d   1       7.693   0.529  -3.098  0.00  0.00    -0.285 N 
ATOM     29  H   LIG d   1       8.116   0.564  -2.226  0.00  0.00     0.155 HD
BRANCH  28  30
ATOM     30  C   LIG d   1       6.847  -0.534  -3.421  0.00  0.00     0.041 A 
ATOM     31  C   LIG d   1       5.462  -0.444  -3.169  0.00  0.00     0.003 A 
ATOM     32  C   LIG d   1       4.622  -1.533  -3.509  0.00  0.00    -0.016 A 
ATOM     33  C   LIG d   1       4.901   0.706  -2.592  0.00  0.00    -0.052 A 
ATOM     34  C   LIG d   1       5.184  -2.687  -4.081  0.00  0.00    -0.054 A 
ATOM     35  C   LIG d   1       3.242  -1.440  -3.262  0.00  0.00    -0.054 A 
ATOM     36  C   LIG d   1       6.525  -2.749  -4.308  0.00  0.00    -0.059 A 
ATOM     37  H   LIG d   1       4.553  -3.524  -4.339  0.00  0.00     0.062 H 
ATOM     38  C   LIG d   1       7.359  -1.683  -3.984  0.00  0.00    -0.040 A 
ATOM     39  H   LIG d   1       6.949  -3.640  -4.749  0.00  0.00     0.062 H 
ATOM     40  H   LIG d   1       8.420  -1.758  -4.175  0.00  0.00     0.064 H 
ATOM     41  C   LIG d   1       2.733  -0.315  -2.691  0.00  0.00    -0.061 A 
ATOM     42  H   LIG d   1       2.589  -2.265  -3.512  0.00  0.00     0.062 H 
ATOM     43  C   LIG d   1       3.560   0.758  -2.362  0.00  0.00    -0.061 A 
ATOM     44  H   LIG d   1       1.673  -0.249  -2.498  0.00  0.00     0.062 H 
ATOM     45  H   LIG d   1       3.130   1.644  -1.918  0.00  0.00     0.062 H 
ATOM     46  H   LIG d   1       5.529   1.545  -2.332  0.00  0.00     0.062 H 
ENDBRANCH  28  30
ENDBRANCH  23  26
ENDBRANCH  13  23
BRANCH   1  47
ATOM     47  C   LIG d   1       9.253   5.304  -4.768  0.00  0.00    -0.059 C 
ATOM     48  H   LIG d   1       8.570   5.138  -5.601  0.00  0.00     0.024 H 
ATOM     49  H   LIG d   1       8.712   5.203  -3.828  0.00  0.00     0.024 H 
ATOM     50  H   LIG d   1       9.675   6.307  -4.838  0.00  0.00     0.024 H 
ENDBRANCH   1  47
BRANCH  11  51
ATOM     51  O   LIG d   1      10.351   0.521  -5.051  0.00  0.00    -0.392 OA
ATOM     52  H   LIG d   1       9.861   0.250  -4.264  0.00  0.00     0.210 HD
ENDBRANCH  11  51
BRANCH   6  53
ATOM     53  C   LIG d   1      12.682   5.895  -2.194  0.00  0.00    -0.055 C 
ATOM     54  H   LIG d   1      13.196   6.855  -2.183  0.00  0.00     0.024 H 
ATOM     55  H   LIG d   1      12.040   5.816  -1.317  0.00  0.00     0.024 H 
ATOM     56  H   LIG d   1      13.416   5.089  -2.179  0.00  0.00     0.024 H 
ENDBRANCH   6  53
BRANCH   6  57
ATOM     57  C   LIG d   1      10.703   6.818  -3.408  0.00  0.00     0.052 C 
ATOM     58  H   LIG d   1      10.435   7.115  -4.421  0.00  0.00     0.056 H 
ATOM     59  H   LIG d   1       9.834   6.382  -2.914  0.00  0.00     0.056 H 
BRANCH  57  60
ATOM     60  O   LIG d   1      11.140   7.964  -2.676  0.00  0.00    -0.394 OA
ATOM     61  H   LIG d   1      11.044   7.880  -1.717  0.00  0.00     0.209 HD
ENDBRANCH  57  60
ENDBRANCH   6  57
BRANCH   4  62
ATOM     62  O   LIG d   1      13.266   7.361  -4.601  0.00  0.00    -0.391 OA
ATOM     63  H   LIG d   1      12.733   8.044  -5.030  0.00  0.00     0.210 HD
ENDBRANCH   4  62
TORSDOF 9
ENDMDL
MODEL 6
REMARK VINA RESULT:      -6.3      8.269     12.448
REMARK  9 active torsions:
REMARK  status: ('A' for Active; 'I' for Inactive)
REMARK    1  A    between atoms: C_1  and  C_2 
REMARK    2  A    between atoms: C_5  and  O_34 
REMARK    3  A    between atoms: C_7  and  C_31 
REMARK    4  A    between atoms: C_7  and  C_32 
REMARK    5  A    between atoms: C_12  and  O_30 
REMARK    6  A    between atoms: C_14  and  C_16 
REMARK    7  A    between atoms: C_16  and  C_17 
REMARK       I    between atoms: C_17  and  N_19 
REMARK    8  A    between atoms: N_19  and  C_20 
REMARK    9  A    between atoms: C_32  and  O_33 
ROOT
ATOM      1  C   LIG d   1       7.030  -7.920  -5.560  0.00  0.00    -0.023 C 
ATOM      2  C   LIG d   1       7.949  -8.531  -6.619  0.00  0.00    -0.045 C 
ATOM      3  C   LIG d   1       9.223  -9.051  -5.951  0.00  0.00    -0.026 C 
ATOM      4  C   LIG d   1       8.857 -10.118  -4.916  0.00  0.00     0.063 C 
ATOM      5  H   LIG d   1       8.344 -10.942  -5.410  0.00  0.00     0.060 H 
ATOM      6  C   LIG d   1       7.938  -9.506  -3.857  0.00  0.00     0.020 C 
ATOM      7  C   LIG d   1       6.664  -8.986  -4.526  0.00  0.00    -0.025 C 
ATOM      8  H   LIG d   1       6.009  -8.550  -3.772  0.00  0.00     0.031 H 
ATOM      9  C   LIG d   1       5.943 -10.144  -5.219  0.00  0.00    -0.047 C 
ATOM     10  C   LIG d   1       4.669  -9.624  -5.889  0.00  0.00    -0.026 C 
ATOM     11  C   LIG d   1       5.035  -8.558  -6.924  0.00  0.00     0.059 C 
ATOM     12  H   LIG d   1       5.691  -8.993  -7.678  0.00  0.00     0.060 H 
ATOM     13  C   LIG d   1       5.756  -7.400  -6.230  0.00  0.00    -0.001 C 
ATOM     14  H   LIG d   1       6.017  -6.640  -6.967  0.00  0.00     0.034 H 
ATOM     15  H   LIG d   1       8.210  -7.772  -7.356  0.00  0.00     0.027 H 
ATOM     16  H   LIG d   1       7.436  -9.356  -7.114  0.00  0.00     0.027 H 
ATOM     17  H   LIG d   1       9.736  -8.226  -5.455  0.00  0.00     0.029 H 
ATOM     18  H   LIG d   1       9.878  -9.487  -6.705  0.00  0.00     0.029 H 
ATOM     19  H   LIG d   1       5.683 -10.903  -4.482  0.00  0.00     0.027 H 
ATOM     20  H   LIG d   1       6.598 -10.579  -5.975  0.00  0.00     0.027 H 
ATOM     21  H   LIG d   1       4.156 -10.448  -6.384  0.00  0.00     0.029 H 
ATOM     22  H   LIG d   1       4.014  -9.188  -5.135  0.00  0.00     0.029 H 
ENDROOT
BRANCH  13  23
ATOM     23  C   LIG d   1       4.837  -6.788  -5.171  0.00  0.00     0.030 C 
ATOM     24  H   LIG d   1       3.946  -7.407  -5.062  0.00  0.00     0.036 H 
ATOM     25  H   LIG d   1       5.362  -6.739  -4.217  0.00  0.00     0.036 H 
BRANCH  23  26
ATOM     26  C   LIG d   1       4.435  -5.400  -5.596  0.00  0.00     0.218 C 
ATOM     27  O   LIG d   1       3.410  -5.230  -6.222  0.00  0.00    -0.276 OA
ATOM     28  N   LIG d   1       5.214  -4.346  -5.280  0.00  0.00    -0.285 N 
ATOM     29  H   LIG d   1       6.063  -4.487  -4.834  0.00  0.00     0.155 HD
BRANCH  28  30
ATOM     30  C   LIG d   1       4.799  -3.051  -5.596  0.00  0.00     0.041 A 
ATOM     31  C   LIG d   1       4.347  -2.180  -4.582  0.00  0.00     0.003 A 
ATOM     32  C   LIG d   1       3.935  -0.869  -4.925  0.00  0.00    -0.016 A 
ATOM     33  C   LIG d   1       4.302  -2.588  -3.239  0.00  0.00    -0.052 A 
ATOM     34  C   LIG d   1       3.973  -0.462  -6.270  0.00  0.00    -0.054 A 
ATOM     35  C   LIG d   1       3.489  -0.001  -3.914  0.00  0.00    -0.054 A 
ATOM     36  C   LIG d   1       4.408  -1.325  -7.229  0.00  0.00    -0.059 A 
ATOM     37  H   LIG d   1       3.656   0.534  -6.542  0.00  0.00     0.062 H 
ATOM     38  C   LIG d   1       4.822  -2.613  -6.903  0.00  0.00    -0.040 A 
ATOM     39  H   LIG d   1       4.435  -1.004  -8.260  0.00  0.00     0.062 H 
ATOM     40  H   LIG d   1       5.162  -3.278  -7.683  0.00  0.00     0.064 H 
ATOM     41  C   LIG d   1       3.449  -0.433  -2.624  0.00  0.00    -0.061 A 
ATOM     42  H   LIG d   1       3.168   1.001  -4.161  0.00  0.00     0.062 H 
ATOM     43  C   LIG d   1       3.860  -1.721  -2.287  0.00  0.00    -0.061 A 
ATOM     44  H   LIG d   1       3.102   0.235  -1.850  0.00  0.00     0.062 H 
ATOM     45  H   LIG d   1       3.826  -2.037  -1.255  0.00  0.00     0.062 H 
ATOM     46  H   LIG d   1       4.618  -3.583  -2.963  0.00  0.00     0.062 H 
ENDBRANCH  28  30
ENDBRANCH  23  26
ENDBRANCH  13  23
BRANCH   1  47
ATOM     47  C   LIG d   1       7.751  -6.762  -4.867  0.00  0.00    -0.059 C 
ATOM     48  H   LIG d   1       7.195  -6.470  -3.976  0.00  0.00     0.024 H 
ATOM     49  H   LIG d   1       8.755  -7.076  -4.584  0.00  0.00     0.024 H 
ATOM     50  H   LIG d   1       7.815  -5.914  -5.549  0.00  0.00     0.024 H 
ENDBRANCH   1  47
BRANCH  11  51
ATOM     51  O   LIG d   1       3.845  -8.072  -7.549  0.00  0.00    -0.392 OA
ATOM     52  H   LIG d   1       3.553  -7.211  -7.221  0.00  0.00     0.210 HD
ENDBRANCH  11  51
BRANCH   6  53
ATOM     53  C   LIG d   1       7.572 -10.572  -2.822  0.00  0.00    -0.055 C 
ATOM     54  H   LIG d   1       6.925 -10.134  -2.063  0.00  0.00     0.024 H 
ATOM     55  H   LIG d   1       7.050 -11.393  -3.315  0.00  0.00     0.024 H 
ATOM     56  H   LIG d   1       8.480 -10.950  -2.353  0.00  0.00     0.024 H 
ENDBRANCH   6  53
BRANCH   6  57
ATOM     57  C   LIG d   1       8.658  -8.348  -3.163  0.00  0.00     0.052 C 
ATOM     58  H   LIG d   1       9.728  -8.420  -3.353  0.00  0.00     0.056 H 
ATOM     59  H   LIG d   1       8.281  -7.401  -3.550  0.00  0.00     0.056 H 
BRANCH  57  60
ATOM     60  O   LIG d   1       8.420  -8.415  -1.755  0.00  0.00    -0.394 OA
ATOM     61  H   LIG d   1       9.225  -8.469  -1.222  0.00  0.00     0.209 HD
ENDBRANCH  57  60
ENDBRANCH   6  57
BRANCH   4  62
ATOM     62  O   LIG d   1      10.047 -10.603  -4.291  0.00  0.00    -0.391 OA
ATOM     63  H   LIG d   1       9.886 -11.221  -3.565  0.00  0.00     0.210 HD
ENDBRANCH   4  62
TORSDOF 9
ENDMDL
MODEL 7
REMARK VINA RESULT:      -6.3      1.818      3.038
REMARK  9 active torsions:
REMARK  status: ('A' for Active; 'I' for Inactive)
REMARK    1  A    between atoms: C_1  and  C_2 
REMARK    2  A    between atoms: C_5  and  O_34 
REMARK    3  A    between atoms: C_7  and  C_31 
REMARK    4  A    between atoms: C_7  and  C_32 
REMARK    5  A    between atoms: C_12  and  O_30 
REMARK    6  A    between atoms: C_14  and  C_16 
REMARK    7  A    between atoms: C_16  and  C_17 
REMARK       I    between atoms: C_17  and  N_19 
REMARK    8  A    between atoms: N_19  and  C_20 
REMARK    9  A    between atoms: C_32  and  O_33 
ROOT
ATOM      1  C   LIG d   1       9.818   2.648  -6.541  0.00  0.00    -0.023 C 
ATOM      2  C   LIG d   1      11.207   2.247  -7.042  0.00  0.00    -0.045 C 
ATOM      3  C   LIG d   1      11.395   2.746  -8.476  0.00  0.00    -0.026 C 
ATOM      4  C   LIG d   1      11.263   4.271  -8.506  0.00  0.00     0.063 C 
ATOM      5  H   LIG d   1      12.023   4.715  -7.864  0.00  0.00     0.060 H 
ATOM      6  C   LIG d   1       9.874   4.672  -8.005  0.00  0.00     0.020 C 
ATOM      7  C   LIG d   1       9.685   4.172  -6.572  0.00  0.00    -0.025 C 
ATOM      8  H   LIG d   1       8.696   4.457  -6.214  0.00  0.00     0.031 H 
ATOM      9  C   LIG d   1      10.752   4.795  -5.670  0.00  0.00    -0.047 C 
ATOM     10  C   LIG d   1      10.564   4.296  -4.235  0.00  0.00    -0.026 C 
ATOM     11  C   LIG d   1      10.696   2.772  -4.205  0.00  0.00     0.059 C 
ATOM     12  H   LIG d   1      11.685   2.486  -4.562  0.00  0.00     0.060 H 
ATOM     13  C   LIG d   1       9.629   2.148  -5.107  0.00  0.00    -0.001 C 
ATOM     14  H   LIG d   1       9.724   1.062  -5.085  0.00  0.00     0.034 H 
ATOM     15  H   LIG d   1      11.301   1.161  -7.020  0.00  0.00     0.027 H 
ATOM     16  H   LIG d   1      11.966   2.691  -6.399  0.00  0.00     0.027 H 
ATOM     17  H   LIG d   1      10.634   2.303  -9.118  0.00  0.00     0.029 H 
ATOM     18  H   LIG d   1      12.384   2.461  -8.833  0.00  0.00     0.029 H 
ATOM     19  H   LIG d   1      10.657   5.881  -5.692  0.00  0.00     0.027 H 
ATOM     20  H   LIG d   1      11.742   4.509  -6.026  0.00  0.00     0.027 H 
ATOM     21  H   LIG d   1      11.324   4.739  -3.593  0.00  0.00     0.029 H 
ATOM     22  H   LIG d   1       9.574   4.581  -3.878  0.00  0.00     0.029 H 
ENDROOT
BRANCH  13  23
ATOM     23  C   LIG d   1       8.240   2.549  -4.606  0.00  0.00     0.030 C 
ATOM     24  H   LIG d   1       8.340   3.303  -3.825  0.00  0.00     0.036 H 
ATOM     25  H   LIG d   1       7.659   2.957  -5.432  0.00  0.00     0.036 H 
BRANCH  23  26
ATOM     26  C   LIG d   1       7.538   1.338  -4.048  0.00  0.00     0.218 C 
ATOM     27  O   LIG d   1       8.179   0.462  -3.506  0.00  0.00    -0.276 OA
ATOM     28  N   LIG d   1       6.199   1.228  -4.150  0.00  0.00    -0.285 N 
ATOM     29  H   LIG d   1       5.693   1.897  -4.636  0.00  0.00     0.155 HD
BRANCH  28  30
ATOM     30  C   LIG d   1       5.540   0.150  -3.556  0.00  0.00     0.041 A 
ATOM     31  C   LIG d   1       5.392  -1.067  -4.255  0.00  0.00     0.003 A 
ATOM     32  C   LIG d   1       4.723  -2.149  -3.632  0.00  0.00    -0.016 A 
ATOM     33  C   LIG d   1       5.899  -1.226  -5.555  0.00  0.00    -0.052 A 
ATOM     34  C   LIG d   1       4.209  -1.988  -2.333  0.00  0.00    -0.054 A 
ATOM     35  C   LIG d   1       4.580  -3.362  -4.327  0.00  0.00    -0.054 A 
ATOM     36  C   LIG d   1       4.362  -0.801  -1.684  0.00  0.00    -0.059 A 
ATOM     37  H   LIG d   1       3.694  -2.806  -1.852  0.00  0.00     0.062 H 
ATOM     38  C   LIG d   1       5.023   0.267  -2.284  0.00  0.00    -0.040 A 
ATOM     39  H   LIG d   1       3.965  -0.687  -0.686  0.00  0.00     0.062 H 
ATOM     40  H   LIG d   1       5.130   1.197  -1.747  0.00  0.00     0.064 H 
ATOM     41  C   LIG d   1       5.074  -3.477  -5.589  0.00  0.00    -0.061 A 
ATOM     42  H   LIG d   1       4.069  -4.195  -3.865  0.00  0.00     0.062 H 
ATOM     43  C   LIG d   1       5.737  -2.414  -6.200  0.00  0.00    -0.061 A 
ATOM     44  H   LIG d   1       4.959  -4.409  -6.123  0.00  0.00     0.062 H 
ATOM     45  H   LIG d   1       6.127  -2.534  -7.200  0.00  0.00     0.062 H 
ATOM     46  H   LIG d   1       6.414  -0.411  -6.040  0.00  0.00     0.062 H 
ENDBRANCH  28  30
ENDBRANCH  23  26
ENDBRANCH  13  23
BRANCH   1  47
ATOM     47  C   LIG d   1       8.750   2.024  -7.443  0.00  0.00    -0.059 C 
ATOM     48  H   LIG d   1       8.963   0.964  -7.577  0.00  0.00     0.024 H 
ATOM     49  H   LIG d   1       7.771   2.145  -6.983  0.00  0.00     0.024 H 
ATOM     50  H   LIG d   1       8.759   2.522  -8.413  0.00  0.00     0.024 H 
ENDBRANCH   1  47
BRANCH  11  51
ATOM     51  O   LIG d   1      10.520   2.304  -2.865  0.00  0.00    -0.392 OA
ATOM     52  H   LIG d   1      10.076   1.449  -2.803  0.00  0.00     0.210 HD
ENDBRANCH  11  51
BRANCH   6  53
ATOM     53  C   LIG d   1       9.741   6.196  -8.036  0.00  0.00    -0.055 C 
ATOM     54  H   LIG d   1      10.567   6.621  -8.605  0.00  0.00     0.024 H 
ATOM     55  H   LIG d   1       8.797   6.469  -8.506  0.00  0.00     0.024 H 
ATOM     56  H   LIG d   1       9.764   6.583  -7.017  0.00  0.00     0.024 H 
ENDBRANCH   6  53
BRANCH   6  57
ATOM     57  C   LIG d   1       8.806   4.049  -8.907  0.00  0.00     0.052 C 
ATOM     58  H   LIG d   1       9.206   3.149  -9.375  0.00  0.00     0.056 H 
ATOM     59  H   LIG d   1       7.932   3.790  -8.309  0.00  0.00     0.056 H 
BRANCH  57  60
ATOM     60  O   LIG d   1       8.431   4.986  -9.919  0.00  0.00    -0.394 OA
ATOM     61  H   LIG d   1       7.479   5.144  -9.975  0.00  0.00     0.209 HD
ENDBRANCH  57  60
ENDBRANCH   6  57
BRANCH   4  62
ATOM     62  O   LIG d   1      11.439   4.737  -9.845  0.00  0.00    -0.391 OA
ATOM     63  H   LIG d   1      10.768   5.370 -10.133  0.00  0.00     0.210 HD
ENDBRANCH   4  62
TORSDOF 9
ENDMDL
MODEL 8
REMARK VINA RESULT:      -6.2      6.991      9.525
REMARK  9 active torsions:
REMARK  status: ('A' for Active; 'I' for Inactive)
REMARK    1  A    between atoms: C_1  and  C_2 
REMARK    2  A    between atoms: C_5  and  O_34 
REMARK    3  A    between atoms: C_7  and  C_31 
REMARK    4  A    between atoms: C_7  and  C_32 
REMARK    5  A    between atoms: C_12  and  O_30 
REMARK    6  A    between atoms: C_14  and  C_16 
REMARK    7  A    between atoms: C_16  and  C_17 
REMARK       I    between atoms: C_17  and  N_19 
REMARK    8  A    between atoms: N_19  and  C_20 
REMARK    9  A    between atoms: C_32  and  O_33 
ROOT
ATOM      1  C   LIG d   1       4.093  -1.027 -11.174  0.00  0.00    -0.023 C 
ATOM      2  C   LIG d   1       4.017  -0.110 -12.396  0.00  0.00    -0.045 C 
ATOM      3  C   LIG d   1       4.186  -0.942 -13.669  0.00  0.00    -0.026 C 
ATOM      4  C   LIG d   1       3.072  -1.988 -13.747  0.00  0.00     0.063 C 
ATOM      5  H   LIG d   1       2.104  -1.487 -13.765  0.00  0.00     0.060 H 
ATOM      6  C   LIG d   1       3.148  -2.905 -12.524  0.00  0.00     0.020 C 
ATOM      7  C   LIG d   1       2.979  -2.073 -11.251  0.00  0.00    -0.025 C 
ATOM      8  H   LIG d   1       3.033  -2.726 -10.380  0.00  0.00     0.031 H 
ATOM      9  C   LIG d   1       1.620  -1.370 -11.278  0.00  0.00    -0.047 C 
ATOM     10  C   LIG d   1       1.451  -0.537 -10.005  0.00  0.00    -0.026 C 
ATOM     11  C   LIG d   1       2.565   0.508  -9.928  0.00  0.00     0.059 C 
ATOM     12  H   LIG d   1       2.511   1.161 -10.799  0.00  0.00     0.060 H 
ATOM     13  C   LIG d   1       3.924  -0.195  -9.901  0.00  0.00    -0.001 C 
ATOM     14  H   LIG d   1       4.717   0.551  -9.846  0.00  0.00     0.034 H 
ATOM     15  H   LIG d   1       4.811   0.635 -12.341  0.00  0.00     0.027 H 
ATOM     16  H   LIG d   1       3.050   0.391 -12.415  0.00  0.00     0.027 H 
ATOM     17  H   LIG d   1       5.154  -1.443 -13.649  0.00  0.00     0.029 H 
ATOM     18  H   LIG d   1       4.133  -0.289 -14.540  0.00  0.00     0.029 H 
ATOM     19  H   LIG d   1       0.826  -2.115 -11.333  0.00  0.00     0.027 H 
ATOM     20  H   LIG d   1       1.566  -0.716 -12.149  0.00  0.00     0.027 H 
ATOM     21  H   LIG d   1       0.484  -0.036 -10.024  0.00  0.00     0.029 H 
ATOM     22  H   LIG d   1       1.505  -1.191  -9.134  0.00  0.00     0.029 H 
ENDROOT
BRANCH  13  23
ATOM     23  C   LIG d   1       4.000  -1.112  -8.678  0.00  0.00     0.030 C 
ATOM     24  H   LIG d   1       2.991  -1.326  -8.323  0.00  0.00     0.036 H 
ATOM     25  H   LIG d   1       4.494  -2.043  -8.952  0.00  0.00     0.036 H 
BRANCH  23  26
ATOM     26  C   LIG d   1       4.782  -0.430  -7.587  0.00  0.00     0.218 C 
ATOM     27  O   LIG d   1       5.060   0.747  -7.684  0.00  0.00    -0.276 OA
ATOM     28  N   LIG d   1       5.174  -1.126  -6.501  0.00  0.00    -0.285 N 
ATOM     29  H   LIG d   1       5.006  -2.080  -6.451  0.00  0.00     0.155 HD
BRANCH  28  30
ATOM     30  C   LIG d   1       5.822  -0.475  -5.450  0.00  0.00     0.041 A 
ATOM     31  C   LIG d   1       5.096  -0.058  -4.314  0.00  0.00     0.003 A 
ATOM     32  C   LIG d   1       5.775   0.596  -3.257  0.00  0.00    -0.016 A 
ATOM     33  C   LIG d   1       3.713  -0.284  -4.212  0.00  0.00    -0.052 A 
ATOM     34  C   LIG d   1       7.157   0.828  -3.363  0.00  0.00    -0.054 A 
ATOM     35  C   LIG d   1       5.051   1.007  -2.125  0.00  0.00    -0.054 A 
ATOM     36  C   LIG d   1       7.832   0.419  -4.472  0.00  0.00    -0.059 A 
ATOM     37  H   LIG d   1       7.682   1.330  -2.564  0.00  0.00     0.062 H 
ATOM     38  C   LIG d   1       7.177  -0.231  -5.514  0.00  0.00    -0.040 A 
ATOM     39  H   LIG d   1       8.894   0.601  -4.544  0.00  0.00     0.062 H 
ATOM     40  H   LIG d   1       7.736  -0.544  -6.383  0.00  0.00     0.064 H 
ATOM     41  C   LIG d   1       3.711   0.782  -2.064  0.00  0.00    -0.061 A 
ATOM     42  H   LIG d   1       5.555   1.511  -1.313  0.00  0.00     0.062 H 
ATOM     43  C   LIG d   1       3.044   0.133  -3.101  0.00  0.00    -0.061 A 
ATOM     44  H   LIG d   1       3.157   1.104  -1.194  0.00  0.00     0.062 H 
ATOM     45  H   LIG d   1       1.981  -0.041  -3.024  0.00  0.00     0.062 H 
ATOM     46  H   LIG d   1       3.184  -0.785  -5.008  0.00  0.00     0.062 H 
ENDBRANCH  28  30
ENDBRANCH  23  26
ENDBRANCH  13  23
BRANCH   1  47
ATOM     47  C   LIG d   1       5.452  -1.730 -11.147  0.00  0.00    -0.059 C 
ATOM     48  H   LIG d   1       5.722  -1.960 -10.116  0.00  0.00     0.024 H 
ATOM     49  H   LIG d   1       5.395  -2.653 -11.723  0.00  0.00     0.024 H 
ATOM     50  H   LIG d   1       6.207  -1.076 -11.583  0.00  0.00     0.024 H 
ENDBRANCH   1  47
BRANCH  11  51
ATOM     51  O   LIG d   1       2.407   1.286  -8.739  0.00  0.00    -0.392 OA
ATOM     52  H   LIG d   1       2.243   2.224  -8.902  0.00  0.00     0.210 HD
ENDBRANCH  11  51
BRANCH   6  53
ATOM     53  C   LIG d   1       2.033  -3.951 -12.601  0.00  0.00    -0.055 C 
ATOM     54  H   LIG d   1       1.297  -3.754 -11.823  0.00  0.00     0.024 H 
ATOM     55  H   LIG d   1       1.554  -3.899 -13.578  0.00  0.00     0.024 H 
ATOM     56  H   LIG d   1       2.458  -4.944 -12.458  0.00  0.00     0.024 H 
ENDBRANCH   6  53
BRANCH   6  57
ATOM     57  C   LIG d   1       4.506  -3.608 -12.496  0.00  0.00     0.052 C 
ATOM     58  H   LIG d   1       5.264  -2.950 -12.921  0.00  0.00     0.056 H 
ATOM     59  H   LIG d   1       4.769  -3.850 -11.467  0.00  0.00     0.056 H 
BRANCH  57  60
ATOM     60  O   LIG d   1       4.436  -4.810 -13.265  0.00  0.00    -0.394 OA
ATOM     61  H   LIG d   1       5.297  -5.210 -13.451  0.00  0.00     0.209 HD
ENDBRANCH  57  60
ENDBRANCH   6  57
BRANCH   4  62
ATOM     62  O   LIG d   1       3.230  -2.765 -14.935  0.00  0.00    -0.391 OA
ATOM     63  H   LIG d   1       4.134  -3.071 -15.088  0.00  0.00     0.210 HD
ENDBRANCH   4  62
TORSDOF 9
ENDMDL
MODEL 9
REMARK VINA RESULT:      -6.1      2.534      8.328
REMARK  9 active torsions:
REMARK  status: ('A' for Active; 'I' for Inactive)
REMARK    1  A    between atoms: C_1  and  C_2 
REMARK    2  A    between atoms: C_5  and  O_34 
REMARK    3  A    between atoms: C_7  and  C_31 
REMARK    4  A    between atoms: C_7  and  C_32 
REMARK    5  A    between atoms: C_12  and  O_30 
REMARK    6  A    between atoms: C_14  and  C_16 
REMARK    7  A    between atoms: C_16  and  C_17 
REMARK       I    between atoms: C_17  and  N_19 
REMARK    8  A    between atoms: N_19  and  C_20 
REMARK    9  A    between atoms: C_32  and  O_33 
ROOT
ATOM      1  C   LIG d   1       6.998  -0.056  -4.210  0.00  0.00    -0.023 C 
ATOM      2  C   LIG d   1       7.065  -1.413  -3.508  0.00  0.00    -0.045 C 
ATOM      3  C   LIG d   1       5.651  -1.870  -3.145  0.00  0.00    -0.026 C 
ATOM      4  C   LIG d   1       4.813  -1.996  -4.420  0.00  0.00     0.063 C 
ATOM      5  H   LIG d   1       5.271  -2.727  -5.086  0.00  0.00     0.060 H 
ATOM      6  C   LIG d   1       4.745  -0.638  -5.122  0.00  0.00     0.020 C 
ATOM      7  C   LIG d   1       6.160  -0.181  -5.484  0.00  0.00    -0.025 C 
ATOM      8  H   LIG d   1       6.113   0.786  -5.985  0.00  0.00     0.031 H 
ATOM      9  C   LIG d   1       6.803  -1.207  -6.419  0.00  0.00    -0.047 C 
ATOM     10  C   LIG d   1       8.218  -0.751  -6.782  0.00  0.00    -0.026 C 
ATOM     11  C   LIG d   1       9.056  -0.625  -5.508  0.00  0.00     0.059 C 
ATOM     12  H   LIG d   1       9.103  -1.592  -5.008  0.00  0.00     0.060 H 
ATOM     13  C   LIG d   1       8.413   0.401  -4.573  0.00  0.00    -0.001 C 
ATOM     14  H   LIG d   1       9.010   0.491  -3.666  0.00  0.00     0.034 H 
ATOM     15  H   LIG d   1       7.662  -1.324  -2.601  0.00  0.00     0.027 H 
ATOM     16  H   LIG d   1       7.524  -2.144  -4.174  0.00  0.00     0.027 H 
ATOM     17  H   LIG d   1       5.192  -1.139  -2.480  0.00  0.00     0.029 H 
ATOM     18  H   LIG d   1       5.698  -2.837  -2.645  0.00  0.00     0.029 H 
ATOM     19  H   LIG d   1       6.206  -1.297  -7.327  0.00  0.00     0.027 H 
ATOM     20  H   LIG d   1       6.852  -2.175  -5.919  0.00  0.00     0.027 H 
ATOM     21  H   LIG d   1       8.677  -1.482  -7.447  0.00  0.00     0.029 H 
ATOM     22  H   LIG d   1       8.171   0.217  -7.282  0.00  0.00     0.029 H 
ENDROOT
BRANCH  13  23
ATOM     23  C   LIG d   1       8.346   1.759  -5.275  0.00  0.00     0.030 C 
ATOM     24  H   LIG d   1       8.547   1.628  -6.339  0.00  0.00     0.036 H 
ATOM     25  H   LIG d   1       7.352   2.188  -5.144  0.00  0.00     0.036 H 
BRANCH  23  26
ATOM     26  C   LIG d   1       9.375   2.684  -4.679  0.00  0.00     0.218 C 
ATOM     27  O   LIG d   1      10.517   2.662  -5.086  0.00  0.00    -0.276 OA
ATOM     28  N   LIG d   1       9.026   3.536  -3.695  0.00  0.00    -0.285 N 
ATOM     29  H   LIG d   1       8.129   3.512  -3.327  0.00  0.00     0.155 HD
BRANCH  28  30
ATOM     30  C   LIG d   1       9.956   4.454  -3.203  0.00  0.00     0.041 A 
ATOM     31  C   LIG d   1      10.020   5.759  -3.737  0.00  0.00     0.003 A 
ATOM     32  C   LIG d   1      10.969   6.674  -3.220  0.00  0.00    -0.016 A 
ATOM     33  C   LIG d   1       9.159   6.166  -4.769  0.00  0.00    -0.052 A 
ATOM     34  C   LIG d   1      11.836   6.265  -2.193  0.00  0.00    -0.054 A 
ATOM     35  C   LIG d   1      11.030   7.975  -3.750  0.00  0.00    -0.054 A 
ATOM     36  C   LIG d   1      11.756   4.999  -1.699  0.00  0.00    -0.059 A 
ATOM     37  H   LIG d   1      12.566   6.955  -1.795  0.00  0.00     0.062 H 
ATOM     38  C   LIG d   1      10.823   4.092  -2.195  0.00  0.00    -0.040 A 
ATOM     39  H   LIG d   1      12.426   4.693  -0.909  0.00  0.00     0.062 H 
ATOM     40  H   LIG d   1      10.781   3.094  -1.786  0.00  0.00     0.064 H 
ATOM     41  C   LIG d   1      10.187   8.332  -4.757  0.00  0.00    -0.061 A 
ATOM     42  H   LIG d   1      11.751   8.683  -3.368  0.00  0.00     0.062 H 
ATOM     43  C   LIG d   1       9.250   7.432  -5.261  0.00  0.00    -0.061 A 
ATOM     44  H   LIG d   1      10.239   9.331  -5.165  0.00  0.00     0.062 H 
ATOM     45  H   LIG d   1       8.587   7.743  -6.054  0.00  0.00     0.062 H 
ATOM     46  H   LIG d   1       8.429   5.479  -5.169  0.00  0.00     0.062 H 
ENDBRANCH  28  30
ENDBRANCH  23  26
ENDBRANCH  13  23
BRANCH   1  47
ATOM     47  C   LIG d   1       6.354   0.971  -3.275  0.00  0.00    -0.059 C 
ATOM     48  H   LIG d   1       7.098   1.712  -2.982  0.00  0.00     0.024 H 
ATOM     49  H   LIG d   1       5.531   1.465  -3.790  0.00  0.00     0.024 H 
ATOM     50  H   LIG d   1       5.976   0.465  -2.387  0.00  0.00     0.024 H 
ENDBRANCH   1  47
BRANCH  11  51
ATOM     51  O   LIG d   1      10.378  -0.198  -5.847  0.00  0.00    -0.392 OA
ATOM     52  H   LIG d   1      11.075  -0.778  -5.513  0.00  0.00     0.210 HD
ENDBRANCH  11  51
BRANCH   6  53
ATOM     53  C   LIG d   1       3.908  -0.764  -6.396  0.00  0.00    -0.055 C 
ATOM     54  H   LIG d   1       3.353  -1.701  -6.374  0.00  0.00     0.024 H 
ATOM     55  H   LIG d   1       3.210   0.071  -6.456  0.00  0.00     0.024 H 
ATOM     56  H   LIG d   1       4.565  -0.751  -7.265  0.00  0.00     0.024 H 
ENDBRANCH   6  53
BRANCH   6  57
ATOM     57  C   LIG d   1       4.102   0.388  -4.187  0.00  0.00     0.052 C 
ATOM     58  H   LIG d   1       4.335   0.135  -3.153  0.00  0.00     0.056 H 
ATOM     59  H   LIG d   1       4.491   1.381  -4.415  0.00  0.00     0.056 H 
BRANCH  57  60
ATOM     60  O   LIG d   1       2.685   0.378  -4.372  0.00  0.00    -0.394 OA
ATOM     61  H   LIG d   1       2.340  -0.456  -4.719  0.00  0.00     0.209 HD
ENDBRANCH  57  60
ENDBRANCH   6  57
BRANCH   4  62
ATOM     62  O   LIG d   1       3.492  -2.423  -4.081  0.00  0.00    -0.391 OA
ATOM     63  H   LIG d   1       3.359  -3.378  -4.142  0.00  0.00     0.210 HD
ENDBRANCH   4  62
TORSDOF 9
ENDMDL
