MODEL 1
REMARK VINA RESULT:      -6.9      0.000      0.000
REMARK  8 active torsions:
REMARK  status: ('A' for Active; 'I' for Inactive)
REMARK    1  A    between atoms: C_1  and  C_2 
REMARK    2  A    between atoms: C_2  and  C_3 
REMARK    3  A    between atoms: C_2  and  C_4 
REMARK    4  A    between atoms: C_4  and  N_5 
REMARK       I    between atoms: N_5  and  C_6 
REMARK    5  A    between atoms: C_6  and  C_8 
REMARK    6  A    between atoms: C_8  and  C_10 
REMARK    7  A    between atoms: C_8  and  N_17 
REMARK    8  A    between atoms: C_10  and  C_11 
ROOT
ATOM      1  C   LIG d   1       5.184  -3.222  -4.954  0.00  0.00     0.107 C 
ATOM      2  H   LIG d   1       4.248  -3.205  -4.394  0.00  0.00     0.060 H 
ENDROOT
BRANCH   1   3
ATOM      3  C   LIG d   1       5.022  -2.425  -6.222  0.00  0.00     0.234 C 
ATOM      4  N   LIG d   1       3.862  -1.785  -6.473  0.00  0.00    -0.314 N 
ATOM      5  H   LIG d   1       3.132  -1.839  -5.839  0.00  0.00     0.149 HD
ATOM      6  O   LIG d   1       5.935  -2.358  -7.018  0.00  0.00    -0.274 OA
BRANCH   4   7
ATOM      7  C   LIG d   1       3.705  -1.011  -7.707  0.00  0.00     0.014 C 
ATOM      8  H   LIG d   1       3.334  -1.660  -8.500  0.00  0.00     0.046 H 
ATOM      9  H   LIG d   1       4.669  -0.596  -8.000  0.00  0.00     0.046 H 
BRANCH   7  10
ATOM     10  C   LIG d   1       2.711   0.128  -7.471  0.00  0.00    -0.031 C 
ATOM     11  H   LIG d   1       1.713  -0.194  -7.770  0.00  0.00     0.031 H 
BRANCH  10  12
ATOM     12  C   LIG d   1       2.704   0.501  -5.987  0.00  0.00    -0.061 C 
ATOM     13  H   LIG d   1       1.766   0.175  -5.536  0.00  0.00     0.023 H 
ATOM     14  H   LIG d   1       3.539   0.012  -5.486  0.00  0.00     0.023 H 
ATOM     15  H   LIG d   1       2.799   1.582  -5.885  0.00  0.00     0.023 H 
ENDBRANCH  10  12
BRANCH  10  16
ATOM     16  C   LIG d   1       3.124   1.345  -8.302  0.00  0.00    -0.061 C 
ATOM     17  H   LIG d   1       4.167   1.588  -8.097  0.00  0.00     0.023 H 
ATOM     18  H   LIG d   1       3.005   1.119  -9.362  0.00  0.00     0.023 H 
ATOM     19  H   LIG d   1       2.494   2.195  -8.039  0.00  0.00     0.023 H 
ENDBRANCH  10  16
ENDBRANCH   7  10
ENDBRANCH   4   7
ENDBRANCH   1   3
BRANCH   1  20
ATOM     20  C   LIG d   1       6.298  -2.608  -4.105  0.00  0.00    -0.000 C 
ATOM     21  H   LIG d   1       6.655  -3.345  -3.386  0.00  0.00     0.034 H 
ATOM     22  H   LIG d   1       7.121  -2.302  -4.751  0.00  0.00     0.034 H 
BRANCH  20  23
ATOM     23  C   LIG d   1       5.764  -1.405  -3.369  0.00  0.00    -0.045 A 
ATOM     24  C   LIG d   1       4.747  -1.555  -2.445  0.00  0.00    -0.059 A 
ATOM     25  C   LIG d   1       4.260  -0.453  -1.767  0.00  0.00    -0.061 A 
ATOM     26  H   LIG d   1       4.335  -2.536  -2.250  0.00  0.00     0.062 H 
ATOM     27  C   LIG d   1       4.784   0.800  -2.022  0.00  0.00    -0.062 A 
ATOM     28  H   LIG d   1       3.469  -0.572  -1.042  0.00  0.00     0.062 H 
ATOM     29  C   LIG d   1       5.797   0.951  -2.949  0.00  0.00    -0.061 A 
ATOM     30  H   LIG d   1       4.402   1.662  -1.493  0.00  0.00     0.062 H 
ATOM     31  C   LIG d   1       6.287  -0.151  -3.624  0.00  0.00    -0.059 A 
ATOM     32  H   LIG d   1       6.206   1.931  -3.147  0.00  0.00     0.062 H 
ATOM     33  H   LIG d   1       7.079  -0.033  -4.349  0.00  0.00     0.062 H 
ENDBRANCH  20  23
ENDBRANCH   1  20
BRANCH   1  34
ATOM     34  N   LIG d   1       5.529  -4.606  -5.287  0.00  0.00    -0.281 N 
ATOM     35  C   LIG d   1       4.660  -5.559  -5.666  0.00  0.00     0.248 A 
ATOM     36  C   LIG d   1       5.372  -6.826  -5.921  0.00  0.00     0.042 A 
ATOM     37  O   LIG d   1       3.461  -5.400  -5.783  0.00  0.00    -0.270 OA
ATOM     38  C   LIG d   1       6.732  -6.623  -5.675  0.00  0.00    -0.018 A 
ATOM     39  C   LIG d   1       4.930  -8.087  -6.330  0.00  0.00    -0.049 A 
ATOM     40  C   LIG d   1       6.879  -5.182  -5.258  0.00  0.00     0.042 A 
ATOM     41  C   LIG d   1       7.628  -7.654  -5.835  0.00  0.00    -0.056 A 
ATOM     42  H   LIG d   1       7.526  -4.652  -5.957  0.00  0.00     0.051 H 
ATOM     43  H   LIG d   1       7.288  -5.123  -4.249  0.00  0.00     0.051 H 
ATOM     44  C   LIG d   1       7.183  -8.901  -6.241  0.00  0.00    -0.061 A 
ATOM     45  H   LIG d   1       8.679  -7.491  -5.644  0.00  0.00     0.062 H 
ATOM     46  C   LIG d   1       5.838  -9.113  -6.487  0.00  0.00    -0.061 A 
ATOM     47  H   LIG d   1       7.888  -9.710  -6.366  0.00  0.00     0.062 H 
ATOM     48  H   LIG d   1       5.498 -10.088  -6.804  0.00  0.00     0.062 H 
ATOM     49  H   LIG d   1       3.881  -8.257  -6.524  0.00  0.00     0.062 H 
ENDBRANCH   1  34
TORSDOF 8
ENDMDL
MODEL 2
REMARK VINA RESULT:      -6.6      1.823      4.738
REMARK  8 active torsions:
REMARK  status: ('A' for Active; 'I' for Inactive)
REMARK    1  A    between atoms: C_1  and  C_2 
REMARK    2  A    between atoms: C_2  and  C_3 
REMARK    3  A    between atoms: C_2  and  C_4 
REMARK    4  A    between atoms: C_4  and  N_5 
REMARK       I    between atoms: N_5  and  C_6 
REMARK    5  A    between atoms: C_6  and  C_8 
REMARK    6  A    between atoms: C_8  and  C_10 
REMARK    7  A    between atoms: C_8  and  N_17 
REMARK    8  A    between atoms: C_10  and  C_11 
ROOT
ATOM      1  C   LIG d   1       4.932  -1.442  -6.942  0.00  0.00     0.107 C 
ATOM      2  H   LIG d   1       5.793  -0.979  -7.426  0.00  0.00     0.060 H 
ENDROOT
BRANCH   1   3
ATOM      3  C   LIG d   1       4.571  -0.659  -5.707  0.00  0.00     0.234 C 
ATOM      4  N   LIG d   1       3.475  -0.990  -4.994  0.00  0.00    -0.314 N 
ATOM      5  H   LIG d   1       2.919  -1.731  -5.277  0.00  0.00     0.149 HD
ATOM      6  O   LIG d   1       5.266   0.270  -5.352  0.00  0.00    -0.274 OA
BRANCH   4   7
ATOM      7  C   LIG d   1       3.124  -0.228  -3.794  0.00  0.00     0.014 C 
ATOM      8  H   LIG d   1       2.054  -0.018  -3.795  0.00  0.00     0.046 H 
ATOM      9  H   LIG d   1       3.677   0.712  -3.785  0.00  0.00     0.046 H 
BRANCH   7  10
ATOM     10  C   LIG d   1       3.483  -1.042  -2.549  0.00  0.00    -0.031 C 
ATOM     11  H   LIG d   1       2.585  -1.211  -1.955  0.00  0.00     0.031 H 
BRANCH  10  12
ATOM     12  C   LIG d   1       4.075  -2.387  -2.973  0.00  0.00    -0.061 C 
ATOM     13  H   LIG d   1       4.431  -2.319  -4.002  0.00  0.00     0.023 H 
ATOM     14  H   LIG d   1       4.907  -2.642  -2.316  0.00  0.00     0.023 H 
ATOM     15  H   LIG d   1       3.309  -3.159  -2.905  0.00  0.00     0.023 H 
ENDBRANCH  10  12
BRANCH  10  16
ATOM     16  C   LIG d   1       4.510  -0.272  -1.715  0.00  0.00    -0.061 C 
ATOM     17  H   LIG d   1       4.840  -0.892  -0.882  0.00  0.00     0.023 H 
ATOM     18  H   LIG d   1       5.367  -0.017  -2.339  0.00  0.00     0.023 H 
ATOM     19  H   LIG d   1       4.055   0.641  -1.332  0.00  0.00     0.023 H 
ENDBRANCH  10  16
ENDBRANCH   7  10
ENDBRANCH   4   7
ENDBRANCH   1   3
BRANCH   1  20
ATOM     20  C   LIG d   1       3.746  -1.445  -7.908  0.00  0.00    -0.000 C 
ATOM     21  H   LIG d   1       3.873  -2.246  -8.636  0.00  0.00     0.034 H 
ATOM     22  H   LIG d   1       2.823  -1.605  -7.349  0.00  0.00     0.034 H 
BRANCH  20  23
ATOM     23  C   LIG d   1       3.676  -0.121  -8.623  0.00  0.00    -0.045 A 
ATOM     24  C   LIG d   1       4.427   0.089  -9.764  0.00  0.00    -0.059 A 
ATOM     25  C   LIG d   1       4.360   1.303 -10.423  0.00  0.00    -0.061 A 
ATOM     26  H   LIG d   1       5.064  -0.697 -10.143  0.00  0.00     0.062 H 
ATOM     27  C   LIG d   1       3.550   2.310  -9.934  0.00  0.00    -0.062 A 
ATOM     28  H   LIG d   1       4.944   1.465 -11.317  0.00  0.00     0.062 H 
ATOM     29  C   LIG d   1       2.802   2.102  -8.791  0.00  0.00    -0.061 A 
ATOM     30  H   LIG d   1       3.499   3.260 -10.448  0.00  0.00     0.062 H 
ATOM     31  C   LIG d   1       2.866   0.887  -8.134  0.00  0.00    -0.059 A 
ATOM     32  H   LIG d   1       2.169   2.889  -8.409  0.00  0.00     0.062 H 
ATOM     33  H   LIG d   1       2.282   0.725  -7.240  0.00  0.00     0.062 H 
ENDBRANCH  20  23
ENDBRANCH   1  20
BRANCH   1  34
ATOM     34  N   LIG d   1       5.262  -2.819  -6.568  0.00  0.00    -0.281 N 
ATOM     35  C   LIG d   1       6.465  -3.248  -6.146  0.00  0.00     0.248 A 
ATOM     36  C   LIG d   1       6.419  -4.694  -5.859  0.00  0.00     0.042 A 
ATOM     37  O   LIG d   1       7.447  -2.544  -6.017  0.00  0.00    -0.270 OA
ATOM     38  C   LIG d   1       5.129  -5.156  -6.132  0.00  0.00    -0.018 A 
ATOM     39  C   LIG d   1       7.386  -5.593  -5.403  0.00  0.00    -0.049 A 
ATOM     40  C   LIG d   1       4.339  -3.959  -6.599  0.00  0.00     0.042 A 
ATOM     41  C   LIG d   1       4.813  -6.481  -5.951  0.00  0.00    -0.056 A 
ATOM     42  H   LIG d   1       3.500  -3.778  -5.926  0.00  0.00     0.051 H 
ATOM     43  H   LIG d   1       3.978  -4.121  -7.614  0.00  0.00     0.051 H 
ATOM     44  C   LIG d   1       5.776  -7.367  -5.498  0.00  0.00    -0.061 A 
ATOM     45  H   LIG d   1       3.813  -6.832  -6.163  0.00  0.00     0.062 H 
ATOM     46  C   LIG d   1       7.058  -6.921  -5.226  0.00  0.00    -0.061 A 
ATOM     47  H   LIG d   1       5.527  -8.409  -5.357  0.00  0.00     0.062 H 
ATOM     48  H   LIG d   1       7.804  -7.617  -4.872  0.00  0.00     0.062 H 
ATOM     49  H   LIG d   1       8.387  -5.250  -5.189  0.00  0.00     0.062 H 
ENDBRANCH   1  34
TORSDOF 8
ENDMDL
MODEL 3
REMARK VINA RESULT:      -6.4      1.624      6.023
REMARK  8 active torsions:
REMARK  status: ('A' for Active; 'I' for Inactive)
REMARK    1  A    between atoms: C_1  and  C_2 
REMARK    2  A    between atoms: C_2  and  C_3 
REMARK    3  A    between atoms: C_2  and  C_4 
REMARK    4  A    between atoms: C_4  and  N_5 
REMARK       I    between atoms: N_5  and  C_6 
REMARK    5  A    between atoms: C_6  and  C_8 
REMARK    6  A    between atoms: C_8  and  C_10 
REMARK    7  A    between atoms: C_8  and  N_17 
REMARK    8  A    between atoms: C_10  and  C_11 
ROOT
ATOM      1  C   LIG d   1       6.260  -2.095  -5.250  0.00  0.00     0.107 C 
ATOM      2  H   LIG d   1       7.019  -1.367  -4.959  0.00  0.00     0.060 H 
ENDROOT
BRANCH   1   3
ATOM      3  C   LIG d   1       6.932  -3.325  -5.803  0.00  0.00     0.234 C 
ATOM      4  N   LIG d   1       6.602  -4.544  -5.330  0.00  0.00    -0.314 N 
ATOM      5  H   LIG d   1       5.933  -4.629  -4.634  0.00  0.00     0.149 HD
ATOM      6  O   LIG d   1       7.771  -3.219  -6.673  0.00  0.00    -0.274 OA
BRANCH   4   7
ATOM      7  C   LIG d   1       7.256  -5.739  -5.867  0.00  0.00     0.014 C 
ATOM      8  H   LIG d   1       8.068  -6.038  -5.205  0.00  0.00     0.046 H 
ATOM      9  H   LIG d   1       7.657  -5.521  -6.857  0.00  0.00     0.046 H 
BRANCH   7  10
ATOM     10  C   LIG d   1       6.237  -6.876  -5.970  0.00  0.00    -0.031 C 
ATOM     11  H   LIG d   1       6.192  -7.231  -7.000  0.00  0.00     0.031 H 
BRANCH  10  12
ATOM     12  C   LIG d   1       6.659  -8.024  -5.051  0.00  0.00    -0.061 C 
ATOM     13  H   LIG d   1       7.104  -7.617  -4.143  0.00  0.00     0.023 H 
ATOM     14  H   LIG d   1       5.785  -8.622  -4.792  0.00  0.00     0.023 H 
ATOM     15  H   LIG d   1       7.389  -8.650  -5.564  0.00  0.00     0.023 H 
ENDBRANCH  10  12
BRANCH  10  16
ATOM     16  C   LIG d   1       4.858  -6.364  -5.547  0.00  0.00    -0.061 C 
ATOM     17  H   LIG d   1       4.909  -5.981  -4.528  0.00  0.00     0.023 H 
ATOM     18  H   LIG d   1       4.546  -5.564  -6.219  0.00  0.00     0.023 H 
ATOM     19  H   LIG d   1       4.138  -7.180  -5.594  0.00  0.00     0.023 H 
ENDBRANCH  10  16
ENDBRANCH   7  10
ENDBRANCH   4   7
ENDBRANCH   1   3
BRANCH   1  20
ATOM     20  C   LIG d   1       5.424  -2.477  -4.028  0.00  0.00    -0.000 C 
ATOM     21  H   LIG d   1       4.598  -3.116  -4.338  0.00  0.00     0.034 H 
ATOM     22  H   LIG d   1       6.049  -3.012  -3.313  0.00  0.00     0.034 H 
BRANCH  20  23
ATOM     23  C   LIG d   1       4.879  -1.229  -3.382  0.00  0.00    -0.045 A 
ATOM     24  C   LIG d   1       5.745  -0.250  -2.930  0.00  0.00    -0.059 A 
ATOM     25  C   LIG d   1       5.246   0.897  -2.341  0.00  0.00    -0.061 A 
ATOM     26  H   LIG d   1       6.812  -0.380  -3.041  0.00  0.00     0.062 H 
ATOM     27  C   LIG d   1       3.882   1.060  -2.195  0.00  0.00    -0.062 A 
ATOM     28  H   LIG d   1       5.922   1.663  -1.993  0.00  0.00     0.062 H 
ATOM     29  C   LIG d   1       3.016   0.080  -2.642  0.00  0.00    -0.061 A 
ATOM     30  H   LIG d   1       3.491   1.956  -1.733  0.00  0.00     0.062 H 
ATOM     31  C   LIG d   1       3.514  -1.065  -3.234  0.00  0.00    -0.059 A 
ATOM     32  H   LIG d   1       1.950   0.208  -2.528  0.00  0.00     0.062 H 
ATOM     33  H   LIG d   1       2.838  -1.831  -3.583  0.00  0.00     0.062 H 
ENDBRANCH  20  23
ENDBRANCH   1  20
BRANCH   1  34
ATOM     34  N   LIG d   1       5.391  -1.511  -6.275  0.00  0.00    -0.281 N 
ATOM     35  C   LIG d   1       5.467  -0.252  -6.740  0.00  0.00     0.248 A 
ATOM     36  C   LIG d   1       4.432  -0.023  -7.767  0.00  0.00     0.042 A 
ATOM     37  O   LIG d   1       6.275   0.578  -6.371  0.00  0.00    -0.270 OA
ATOM     38  C   LIG d   1       3.695  -1.200  -7.916  0.00  0.00    -0.018 A 
ATOM     39  C   LIG d   1       4.104   1.093  -8.538  0.00  0.00    -0.049 A 
ATOM     40  C   LIG d   1       4.290  -2.201  -6.957  0.00  0.00     0.042 A 
ATOM     41  C   LIG d   1       2.656  -1.260  -8.815  0.00  0.00    -0.056 A 
ATOM     42  H   LIG d   1       4.672  -3.063  -7.504  0.00  0.00     0.051 H 
ATOM     43  H   LIG d   1       3.540  -2.517  -6.232  0.00  0.00     0.051 H 
ATOM     44  C   LIG d   1       2.337  -0.149  -9.577  0.00  0.00    -0.061 A 
ATOM     45  H   LIG d   1       2.090  -2.174  -8.927  0.00  0.00     0.062 H 
ATOM     46  C   LIG d   1       3.060   1.022  -9.437  0.00  0.00    -0.061 A 
ATOM     47  H   LIG d   1       1.520  -0.197 -10.283  0.00  0.00     0.062 H 
ATOM     48  H   LIG d   1       2.806   1.885 -10.035  0.00  0.00     0.062 H 
ATOM     49  H   LIG d   1       4.666   2.009  -8.433  0.00  0.00     0.062 H 
ENDBRANCH   1  34
TORSDOF 8
ENDMDL
MODEL 4
REMARK VINA RESULT:      -6.3      1.757      4.572
REMARK  8 active torsions:
REMARK  status: ('A' for Active; 'I' for Inactive)
REMARK    1  A    between atoms: C_1  and  C_2 
REMARK    2  A    between atoms: C_2  and  C_3 
REMARK    3  A    between atoms: C_2  and  C_4 
REMARK    4  A    between atoms: C_4  and  N_5 
REMARK       I    between atoms: N_5  and  C_6 
REMARK    5  A    between atoms: C_6  and  C_8 
REMARK    6  A    between atoms: C_8  and  C_10 
REMARK    7  A    between atoms: C_8  and  N_17 
REMARK    8  A    between atoms: C_10  and  C_11 
ROOT
ATOM      1  C   LIG d   1       5.463  -1.094  -6.465  0.00  0.00     0.107 C 
ATOM      2  H   LIG d   1       6.072  -0.723  -7.291  0.00  0.00     0.060 H 
ENDROOT
BRANCH   1   3
ATOM      3  C   LIG d   1       6.023  -0.585  -5.162  0.00  0.00     0.234 C 
ATOM      4  N   LIG d   1       5.290   0.244  -4.391  0.00  0.00    -0.314 N 
ATOM      5  H   LIG d   1       4.404   0.513  -4.676  0.00  0.00     0.149 HD
ATOM      6  O   LIG d   1       7.132  -0.921  -4.806  0.00  0.00    -0.274 OA
BRANCH   4   7
ATOM      7  C   LIG d   1       5.835   0.739  -3.125  0.00  0.00     0.014 C 
ATOM      8  H   LIG d   1       6.128   1.782  -3.237  0.00  0.00     0.046 H 
ATOM      9  H   LIG d   1       6.707   0.146  -2.848  0.00  0.00     0.046 H 
BRANCH   7  10
ATOM     10  C   LIG d   1       4.771   0.622  -2.031  0.00  0.00    -0.031 C 
ATOM     11  H   LIG d   1       5.162   1.031  -1.099  0.00  0.00     0.031 H 
BRANCH  10  12
ATOM     12  C   LIG d   1       3.524   1.404  -2.448  0.00  0.00    -0.061 C 
ATOM     13  H   LIG d   1       2.669   1.062  -1.863  0.00  0.00     0.023 H 
ATOM     14  H   LIG d   1       3.684   2.467  -2.270  0.00  0.00     0.023 H 
ATOM     15  H   LIG d   1       3.328   1.237  -3.507  0.00  0.00     0.023 H 
ENDBRANCH  10  12
BRANCH  10  16
ATOM     16  C   LIG d   1       4.408  -0.851  -1.829  0.00  0.00    -0.061 C 
ATOM     17  H   LIG d   1       3.442  -1.053  -2.292  0.00  0.00     0.023 H 
ATOM     18  H   LIG d   1       5.170  -1.480  -2.290  0.00  0.00     0.023 H 
ATOM     19  H   LIG d   1       4.353  -1.068  -0.763  0.00  0.00     0.023 H 
ENDBRANCH  10  16
ENDBRANCH   7  10
ENDBRANCH   4   7
ENDBRANCH   1   3
BRANCH   1  20
ATOM     20  C   LIG d   1       4.025  -0.600  -6.629  0.00  0.00    -0.000 C 
ATOM     21  H   LIG d   1       3.380  -1.439  -6.887  0.00  0.00     0.034 H 
ATOM     22  H   LIG d   1       3.685  -0.153  -5.695  0.00  0.00     0.034 H 
BRANCH  20  23
ATOM     23  C   LIG d   1       3.971   0.432  -7.727  0.00  0.00    -0.045 A 
ATOM     24  C   LIG d   1       2.840   1.212  -7.887  0.00  0.00    -0.059 A 
ATOM     25  C   LIG d   1       2.792   2.162  -8.890  0.00  0.00    -0.061 A 
ATOM     26  H   LIG d   1       1.996   1.082  -7.224  0.00  0.00     0.062 H 
ATOM     27  C   LIG d   1       3.869   2.324  -9.740  0.00  0.00    -0.062 A 
ATOM     28  H   LIG d   1       1.911   2.774  -9.012  0.00  0.00     0.062 H 
ATOM     29  C   LIG d   1       4.997   1.541  -9.584  0.00  0.00    -0.061 A 
ATOM     30  H   LIG d   1       3.830   3.064 -10.526  0.00  0.00     0.062 H 
ATOM     31  C   LIG d   1       5.048   0.594  -8.578  0.00  0.00    -0.059 A 
ATOM     32  H   LIG d   1       5.839   1.668 -10.248  0.00  0.00     0.062 H 
ATOM     33  H   LIG d   1       5.929  -0.018  -8.456  0.00  0.00     0.062 H 
ENDBRANCH  20  23
ENDBRANCH   1  20
BRANCH   1  34
ATOM     34  N   LIG d   1       5.480  -2.559  -6.466  0.00  0.00    -0.281 N 
ATOM     35  C   LIG d   1       6.186  -3.332  -7.309  0.00  0.00     0.248 A 
ATOM     36  C   LIG d   1       5.956  -4.758  -7.007  0.00  0.00     0.042 A 
ATOM     37  O   LIG d   1       6.911  -2.917  -8.191  0.00  0.00    -0.270 OA
ATOM     38  C   LIG d   1       5.062  -4.842  -5.937  0.00  0.00    -0.018 A 
ATOM     39  C   LIG d   1       6.448  -5.932  -7.581  0.00  0.00    -0.049 A 
ATOM     40  C   LIG d   1       4.725  -3.423  -5.551  0.00  0.00     0.042 A 
ATOM     41  C   LIG d   1       4.671  -6.068  -5.452  0.00  0.00    -0.056 A 
ATOM     42  H   LIG d   1       5.028  -3.232  -4.521  0.00  0.00     0.051 H 
ATOM     43  H   LIG d   1       3.655  -3.247  -5.667  0.00  0.00     0.051 H 
ATOM     44  C   LIG d   1       5.164  -7.228  -6.026  0.00  0.00    -0.061 A 
ATOM     45  H   LIG d   1       3.980  -6.126  -4.623  0.00  0.00     0.062 H 
ATOM     46  C   LIG d   1       6.050  -7.157  -7.087  0.00  0.00    -0.061 A 
ATOM     47  H   LIG d   1       4.856  -8.190  -5.645  0.00  0.00     0.062 H 
ATOM     48  H   LIG d   1       6.430  -8.065  -7.530  0.00  0.00     0.062 H 
ATOM     49  H   LIG d   1       7.140  -5.882  -8.409  0.00  0.00     0.062 H 
ENDBRANCH   1  34
TORSDOF 8
ENDMDL
MODEL 5
REMARK VINA RESULT:      -6.3      2.935      5.688
REMARK  8 active torsions:
REMARK  status: ('A' for Active; 'I' for Inactive)
REMARK    1  A    between atoms: C_1  and  C_2 
REMARK    2  A    between atoms: C_2  and  C_3 
REMARK    3  A    between atoms: C_2  and  C_4 
REMARK    4  A    between atoms: C_4  and  N_5 
REMARK       I    between atoms: N_5  and  C_6 
REMARK    5  A    between atoms: C_6  and  C_8 
REMARK    6  A    between atoms: C_8  and  C_10 
REMARK    7  A    between atoms: C_8  and  N_17 
REMARK    8  A    between atoms: C_10  and  C_11 
ROOT
ATOM      1  C   LIG d   1       6.826  -1.871  -4.826  0.00  0.00     0.107 C 
ATOM      2  H   LIG d   1       7.196  -0.846  -4.781  0.00  0.00     0.060 H 
ENDROOT
BRANCH   1   3
ATOM      3  C   LIG d   1       7.980  -2.809  -5.069  0.00  0.00     0.234 C 
ATOM      4  N   LIG d   1       8.204  -3.837  -4.224  0.00  0.00    -0.314 N 
ATOM      5  H   LIG d   1       7.623  -3.971  -3.460  0.00  0.00     0.149 HD
ATOM      6  O   LIG d   1       8.708  -2.641  -6.024  0.00  0.00    -0.274 OA
BRANCH   4   7
ATOM      7  C   LIG d   1       9.326  -4.748  -4.460  0.00  0.00     0.014 C 
ATOM      8  H   LIG d   1       9.831  -4.471  -5.385  0.00  0.00     0.046 H 
ATOM      9  H   LIG d   1       8.953  -5.769  -4.543  0.00  0.00     0.046 H 
BRANCH   7  10
ATOM     10  C   LIG d   1      10.311  -4.658  -3.293  0.00  0.00    -0.031 C 
ATOM     11  H   LIG d   1      10.804  -5.621  -3.160  0.00  0.00     0.031 H 
BRANCH  10  12
ATOM     12  C   LIG d   1      11.359  -3.585  -3.592  0.00  0.00    -0.061 C 
ATOM     13  H   LIG d   1      12.149  -3.630  -2.841  0.00  0.00     0.023 H 
ATOM     14  H   LIG d   1      11.786  -3.758  -4.580  0.00  0.00     0.023 H 
ATOM     15  H   LIG d   1      10.889  -2.601  -3.566  0.00  0.00     0.023 H 
ENDBRANCH  10  12
BRANCH  10  16
ATOM     16  C   LIG d   1       9.554  -4.291  -2.015  0.00  0.00    -0.061 C 
ATOM     17  H   LIG d   1       8.834  -3.502  -2.233  0.00  0.00     0.023 H 
ATOM     18  H   LIG d   1       9.027  -5.169  -1.640  0.00  0.00     0.023 H 
ATOM     19  H   LIG d   1      10.260  -3.942  -1.263  0.00  0.00     0.023 H 
ENDBRANCH  10  16
ENDBRANCH   7  10
ENDBRANCH   4   7
ENDBRANCH   1   3
BRANCH   1  20
ATOM     20  C   LIG d   1       6.150  -2.228  -3.501  0.00  0.00    -0.000 C 
ATOM     21  H   LIG d   1       5.574  -3.145  -3.623  0.00  0.00     0.034 H 
ATOM     22  H   LIG d   1       6.910  -2.375  -2.733  0.00  0.00     0.034 H 
BRANCH  20  23
ATOM     23  C   LIG d   1       5.231  -1.107  -3.089  0.00  0.00    -0.045 A 
ATOM     24  C   LIG d   1       5.753   0.131  -2.765  0.00  0.00    -0.059 A 
ATOM     25  C   LIG d   1       4.910   1.161  -2.391  0.00  0.00    -0.061 A 
ATOM     26  H   LIG d   1       6.820   0.296  -2.809  0.00  0.00     0.062 H 
ATOM     27  C   LIG d   1       3.546   0.949  -2.330  0.00  0.00    -0.062 A 
ATOM     28  H   LIG d   1       5.317   2.130  -2.144  0.00  0.00     0.062 H 
ATOM     29  C   LIG d   1       3.024  -0.291  -2.649  0.00  0.00    -0.061 A 
ATOM     30  H   LIG d   1       2.886   1.753  -2.035  0.00  0.00     0.062 H 
ATOM     31  C   LIG d   1       3.866  -1.319  -3.027  0.00  0.00    -0.059 A 
ATOM     32  H   LIG d   1       1.957  -0.456  -2.601  0.00  0.00     0.062 H 
ATOM     33  H   LIG d   1       3.458  -2.288  -3.275  0.00  0.00     0.062 H 
ENDBRANCH  20  23
ENDBRANCH   1  20
BRANCH   1  34
ATOM     34  N   LIG d   1       5.858  -1.994  -5.918  0.00  0.00    -0.281 N 
ATOM     35  C   LIG d   1       5.281  -0.970  -6.571  0.00  0.00     0.248 A 
ATOM     36  C   LIG d   1       4.365  -1.478  -7.609  0.00  0.00     0.042 A 
ATOM     37  O   LIG d   1       5.488   0.205  -6.341  0.00  0.00    -0.270 OA
ATOM     38  C   LIG d   1       4.387  -2.874  -7.570  0.00  0.00    -0.018 A 
ATOM     39  C   LIG d   1       3.546  -0.832  -8.539  0.00  0.00    -0.049 A 
ATOM     40  C   LIG d   1       5.354  -3.254  -6.476  0.00  0.00     0.042 A 
ATOM     41  C   LIG d   1       3.613  -3.606  -8.439  0.00  0.00    -0.056 A 
ATOM     42  H   LIG d   1       6.178  -3.836  -6.889  0.00  0.00     0.051 H 
ATOM     43  H   LIG d   1       4.839  -3.826  -5.704  0.00  0.00     0.051 H 
ATOM     44  C   LIG d   1       2.804  -2.959  -9.358  0.00  0.00    -0.061 A 
ATOM     45  H   LIG d   1       3.635  -4.686  -8.404  0.00  0.00     0.062 H 
ATOM     46  C   LIG d   1       2.773  -1.577  -9.406  0.00  0.00    -0.061 A 
ATOM     47  H   LIG d   1       2.195  -3.535 -10.040  0.00  0.00     0.062 H 
ATOM     48  H   LIG d   1       2.141  -1.078 -10.125  0.00  0.00     0.062 H 
ATOM     49  H   LIG d   1       3.520   0.247  -8.580  0.00  0.00     0.062 H 
ENDBRANCH   1  34
TORSDOF 8
ENDMDL
MODEL 6
REMARK VINA RESULT:      -6.2      4.092      6.107
REMARK  8 active torsions:
REMARK  status: ('A' for Active; 'I' for Inactive)
REMARK    1  A    between atoms: C_1  and  C_2 
REMARK    2  A    between atoms: C_2  and  C_3 
REMARK    3  A    between atoms: C_2  and  C_4 
REMARK    4  A    between atoms: C_4  and  N_5 
REMARK       I    between atoms: N_5  and  C_6 
REMARK    5  A    between atoms: C_6  and  C_8 
REMARK    6  A    between atoms: C_8  and  C_10 
REMARK    7  A    between atoms: C_8  and  N_17 
REMARK    8  A    between atoms: C_10  and  C_11 
ROOT
ATOM      1  C   LIG d   1       4.633  -1.083  -6.586  0.00  0.00     0.107 C 
ATOM      2  H   LIG d   1       5.041  -1.890  -5.977  0.00  0.00     0.060 H 
ENDROOT
BRANCH   1   3
ATOM      3  C   LIG d   1       4.014  -1.661  -7.833  0.00  0.00     0.234 C 
ATOM      4  N   LIG d   1       2.835  -1.185  -8.283  0.00  0.00    -0.314 N 
ATOM      5  H   LIG d   1       2.386  -0.472  -7.805  0.00  0.00     0.149 HD
ATOM      6  O   LIG d   1       4.574  -2.554  -8.431  0.00  0.00    -0.274 OA
BRANCH   4   7
ATOM      7  C   LIG d   1       2.233  -1.747  -9.494  0.00  0.00     0.014 C 
ATOM      8  H   LIG d   1       1.335  -2.305  -9.229  0.00  0.00     0.046 H 
ATOM      9  H   LIG d   1       2.945  -2.416  -9.977  0.00  0.00     0.046 H 
BRANCH   7  10
ATOM     10  C   LIG d   1       1.865  -0.614 -10.454  0.00  0.00    -0.031 C 
ATOM     11  H   LIG d   1       1.239   0.112  -9.936  0.00  0.00     0.031 H 
BRANCH  10  12
ATOM     12  C   LIG d   1       3.142   0.072 -10.947  0.00  0.00    -0.061 C 
ATOM     13  H   LIG d   1       3.893  -0.684 -11.178  0.00  0.00     0.023 H 
ATOM     14  H   LIG d   1       2.921   0.651 -11.843  0.00  0.00     0.023 H 
ATOM     15  H   LIG d   1       3.521   0.734 -10.169  0.00  0.00     0.023 H 
ENDBRANCH  10  12
BRANCH  10  16
ATOM     16  C   LIG d   1       1.100  -1.187 -11.649  0.00  0.00    -0.061 C 
ATOM     17  H   LIG d   1       0.653  -2.142 -11.371  0.00  0.00     0.023 H 
ATOM     18  H   LIG d   1       0.315  -0.491 -11.945  0.00  0.00     0.023 H 
ATOM     19  H   LIG d   1       1.787  -1.336 -12.482  0.00  0.00     0.023 H 
ENDBRANCH  10  16
ENDBRANCH   7  10
ENDBRANCH   4   7
ENDBRANCH   1   3
BRANCH   1  20
ATOM     20  C   LIG d   1       3.566  -0.331  -5.789  0.00  0.00    -0.000 C 
ATOM     21  H   LIG d   1       3.591   0.725  -6.056  0.00  0.00     0.034 H 
ATOM     22  H   LIG d   1       2.583  -0.742  -6.019  0.00  0.00     0.034 H 
BRANCH  20  23
ATOM     23  C   LIG d   1       3.841  -0.483  -4.315  0.00  0.00    -0.045 A 
ATOM     24  C   LIG d   1       3.963   0.638  -3.515  0.00  0.00    -0.059 A 
ATOM     25  C   LIG d   1       4.210   0.499  -2.162  0.00  0.00    -0.061 A 
ATOM     26  H   LIG d   1       3.861   1.623  -3.947  0.00  0.00     0.062 H 
ATOM     27  C   LIG d   1       4.345  -0.761  -1.611  0.00  0.00    -0.062 A 
ATOM     28  H   LIG d   1       4.300   1.375  -1.537  0.00  0.00     0.062 H 
ATOM     29  C   LIG d   1       4.228  -1.882  -2.411  0.00  0.00    -0.061 A 
ATOM     30  H   LIG d   1       4.541  -0.870  -0.553  0.00  0.00     0.062 H 
ATOM     31  C   LIG d   1       3.977  -1.744  -3.763  0.00  0.00    -0.059 A 
ATOM     32  H   LIG d   1       4.334  -2.867  -1.980  0.00  0.00     0.062 H 
ATOM     33  H   LIG d   1       3.886  -2.619  -4.388  0.00  0.00     0.062 H 
ENDBRANCH  20  23
ENDBRANCH   1  20
BRANCH   1  34
ATOM     34  N   LIG d   1       5.708  -0.160  -6.958  0.00  0.00    -0.281 N 
ATOM     35  C   LIG d   1       6.842   0.040  -6.264  0.00  0.00     0.248 A 
ATOM     36  C   LIG d   1       7.688   1.039  -6.944  0.00  0.00     0.042 A 
ATOM     37  O   LIG d   1       7.130  -0.524  -5.227  0.00  0.00    -0.270 OA
ATOM     38  C   LIG d   1       7.023   1.465  -8.097  0.00  0.00    -0.018 A 
ATOM     39  C   LIG d   1       8.938   1.580  -6.636  0.00  0.00    -0.049 A 
ATOM     40  C   LIG d   1       5.722   0.704  -8.144  0.00  0.00     0.042 A 
ATOM     41  C   LIG d   1       7.594   2.406  -8.921  0.00  0.00    -0.056 A 
ATOM     42  H   LIG d   1       5.675   0.097  -9.048  0.00  0.00     0.051 H 
ATOM     43  H   LIG d   1       4.881   1.397  -8.113  0.00  0.00     0.051 H 
ATOM     44  C   LIG d   1       8.835   2.937  -8.608  0.00  0.00    -0.061 A 
ATOM     45  H   LIG d   1       7.076   2.731  -9.812  0.00  0.00     0.062 H 
ATOM     46  C   LIG d   1       9.502   2.523  -7.469  0.00  0.00    -0.061 A 
ATOM     47  H   LIG d   1       9.282   3.677  -9.256  0.00  0.00     0.062 H 
ATOM     48  H   LIG d   1      10.468   2.941  -7.231  0.00  0.00     0.062 H 
ATOM     49  H   LIG d   1       9.462   1.259  -5.747  0.00  0.00     0.062 H 
ENDBRANCH   1  34
TORSDOF 8
ENDMDL
MODEL 7
REMARK VINA RESULT:      -6.1      3.883      5.765
REMARK  8 active torsions:
REMARK  status: ('A' for Active; 'I' for Inactive)
REMARK    1  A    between atoms: C_1  and  C_2 
REMARK    2  A    between atoms: C_2  and  C_3 
REMARK    3  A    between atoms: C_2  and  C_4 
REMARK    4  A    between atoms: C_4  and  N_5 
REMARK       I    between atoms: N_5  and  C_6 
REMARK    5  A    between atoms: C_6  and  C_8 
REMARK    6  A    between atoms: C_8  and  C_10 
REMARK    7  A    between atoms: C_8  and  N_17 
REMARK    8  A    between atoms: C_10  and  C_11 
ROOT
ATOM      1  C   LIG d   1       5.562  -0.240  -6.390  0.00  0.00     0.107 C 
ATOM      2  H   LIG d   1       5.179   0.613  -5.827  0.00  0.00     0.060 H 
ENDROOT
BRANCH   1   3
ATOM      3  C   LIG d   1       6.842   0.150  -7.082  0.00  0.00     0.234 C 
ATOM      4  N   LIG d   1       7.235   1.439  -7.096  0.00  0.00    -0.314 N 
ATOM      5  H   LIG d   1       6.695   2.115  -6.661  0.00  0.00     0.149 HD
ATOM      6  O   LIG d   1       7.518  -0.696  -7.628  0.00  0.00    -0.274 OA
BRANCH   4   7
ATOM      7  C   LIG d   1       8.480   1.818  -7.770  0.00  0.00     0.014 C 
ATOM      8  H   LIG d   1       8.288   2.651  -8.446  0.00  0.00     0.046 H 
ATOM      9  H   LIG d   1       8.857   0.969  -8.339  0.00  0.00     0.046 H 
BRANCH   7  10
ATOM     10  C   LIG d   1       9.518   2.235  -6.727  0.00  0.00    -0.031 C 
ATOM     11  H   LIG d   1      10.090   3.083  -7.103  0.00  0.00     0.031 H 
BRANCH  10  12
ATOM     12  C   LIG d   1       8.809   2.631  -5.430  0.00  0.00    -0.061 C 
ATOM     13  H   LIG d   1       9.177   2.013  -4.611  0.00  0.00     0.023 H 
ATOM     14  H   LIG d   1       9.009   3.680  -5.213  0.00  0.00     0.023 H 
ATOM     15  H   LIG d   1       7.736   2.482  -5.544  0.00  0.00     0.023 H 
ENDBRANCH  10  12
BRANCH  10  16
ATOM     16  C   LIG d   1      10.464   1.063  -6.454  0.00  0.00    -0.061 C 
ATOM     17  H   LIG d   1      11.490   1.366  -6.666  0.00  0.00     0.023 H 
ATOM     18  H   LIG d   1      10.383   0.767  -5.407  0.00  0.00     0.023 H 
ATOM     19  H   LIG d   1      10.194   0.222  -7.091  0.00  0.00     0.023 H 
ENDBRANCH  10  16
ENDBRANCH   7  10
ENDBRANCH   4   7
ENDBRANCH   1   3
BRANCH   1  20
ATOM     20  C   LIG d   1       5.834  -1.402  -5.433  0.00  0.00    -0.000 C 
ATOM     21  H   LIG d   1       5.316  -2.293  -5.787  0.00  0.00     0.034 H 
ATOM     22  H   LIG d   1       6.906  -1.596  -5.392  0.00  0.00     0.034 H 
BRANCH  20  23
ATOM     23  C   LIG d   1       5.337  -1.045  -4.055  0.00  0.00    -0.045 A 
ATOM     24  C   LIG d   1       5.510   0.238  -3.569  0.00  0.00    -0.059 A 
ATOM     25  C   LIG d   1       5.050   0.567  -2.307  0.00  0.00    -0.061 A 
ATOM     26  H   LIG d   1       6.001   0.984  -4.178  0.00  0.00     0.062 H 
ATOM     27  C   LIG d   1       4.428  -0.390  -1.528  0.00  0.00    -0.062 A 
ATOM     28  H   LIG d   1       5.181   1.570  -1.930  0.00  0.00     0.062 H 
ATOM     29  C   LIG d   1       4.259  -1.673  -2.012  0.00  0.00    -0.061 A 
ATOM     30  H   LIG d   1       4.070  -0.133  -0.541  0.00  0.00     0.062 H 
ATOM     31  C   LIG d   1       4.715  -2.002  -3.275  0.00  0.00    -0.059 A 
ATOM     32  H   LIG d   1       3.772  -2.420  -1.402  0.00  0.00     0.062 H 
ATOM     33  H   LIG d   1       4.583  -3.004  -3.653  0.00  0.00     0.062 H 
ENDBRANCH  20  23
ENDBRANCH   1  20
BRANCH   1  34
ATOM     34  N   LIG d   1       4.571  -0.651  -7.388  0.00  0.00    -0.281 N 
ATOM     35  C   LIG d   1       3.731   0.171  -8.040  0.00  0.00     0.248 A 
ATOM     36  C   LIG d   1       2.882  -0.598  -8.970  0.00  0.00     0.042 A 
ATOM     37  O   LIG d   1       3.679   1.376  -7.887  0.00  0.00    -0.270 OA
ATOM     38  C   LIG d   1       3.226  -1.948  -8.863  0.00  0.00    -0.018 A 
ATOM     39  C   LIG d   1       1.874  -0.217  -9.857  0.00  0.00    -0.049 A 
ATOM     40  C   LIG d   1       4.329  -2.027  -7.837  0.00  0.00     0.042 A 
ATOM     41  C   LIG d   1       2.579  -2.892  -9.624  0.00  0.00    -0.056 A 
ATOM     42  H   LIG d   1       5.233  -2.437  -8.289  0.00  0.00     0.051 H 
ATOM     43  H   LIG d   1       4.016  -2.645  -6.996  0.00  0.00     0.051 H 
ATOM     44  C   LIG d   1       1.580  -2.507 -10.503  0.00  0.00    -0.061 A 
ATOM     45  H   LIG d   1       2.850  -3.935  -9.538  0.00  0.00     0.062 H 
ATOM     46  C   LIG d   1       1.231  -1.172 -10.617  0.00  0.00    -0.061 A 
ATOM     47  H   LIG d   1       1.072  -3.249 -11.100  0.00  0.00     0.062 H 
ATOM     48  H   LIG d   1       0.452  -0.878 -11.303  0.00  0.00     0.062 H 
ATOM     49  H   LIG d   1       1.598   0.824  -9.950  0.00  0.00     0.062 H 
ENDBRANCH   1  34
TORSDOF 8
ENDMDL
MODEL 8
REMARK VINA RESULT:      -6.0      2.270      5.708
REMARK  8 active torsions:
REMARK  status: ('A' for Active; 'I' for Inactive)
REMARK    1  A    between atoms: C_1  and  C_2 
REMARK    2  A    between atoms: C_2  and  C_3 
REMARK    3  A    between atoms: C_2  and  C_4 
REMARK    4  A    between atoms: C_4  and  N_5 
REMARK       I    between atoms: N_5  and  C_6 
REMARK    5  A    between atoms: C_6  and  C_8 
REMARK    6  A    between atoms: C_8  and  C_10 
REMARK    7  A    between atoms: C_8  and  N_17 
REMARK    8  A    between atoms: C_10  and  C_11 
ROOT
ATOM      1  C   LIG d   1       5.608  -2.700  -4.352  0.00  0.00     0.107 C 
ATOM      2  H   LIG d   1       6.308  -2.590  -3.523  0.00  0.00     0.060 H 
ENDROOT
BRANCH   1   3
ATOM      3  C   LIG d   1       5.739  -4.081  -4.940  0.00  0.00     0.234 C 
ATOM      4  N   LIG d   1       4.636  -4.813  -5.196  0.00  0.00    -0.314 N 
ATOM      5  H   LIG d   1       3.759  -4.450  -5.002  0.00  0.00     0.149 HD
ATOM      6  O   LIG d   1       6.837  -4.536  -5.182  0.00  0.00    -0.274 OA
BRANCH   4   7
ATOM      7  C   LIG d   1       4.764  -6.156  -5.766  0.00  0.00     0.014 C 
ATOM      8  H   LIG d   1       4.102  -6.841  -5.237  0.00  0.00     0.046 H 
ATOM      9  H   LIG d   1       5.794  -6.497  -5.665  0.00  0.00     0.046 H 
BRANCH   7  10
ATOM     10  C   LIG d   1       4.383  -6.119  -7.248  0.00  0.00    -0.031 C 
ATOM     11  H   LIG d   1       3.740  -6.969  -7.478  0.00  0.00     0.031 H 
BRANCH  10  12
ATOM     12  C   LIG d   1       3.637  -4.818  -7.551  0.00  0.00    -0.061 C 
ATOM     13  H   LIG d   1       4.355  -4.006  -7.662  0.00  0.00     0.023 H 
ATOM     14  H   LIG d   1       3.070  -4.931  -8.475  0.00  0.00     0.023 H 
ATOM     15  H   LIG d   1       2.956  -4.591  -6.731  0.00  0.00     0.023 H 
ENDBRANCH  10  12
BRANCH  10  16
ATOM     16  C   LIG d   1       5.651  -6.192  -8.102  0.00  0.00    -0.061 C 
ATOM     17  H   LIG d   1       6.060  -7.202  -8.060  0.00  0.00     0.023 H 
ATOM     18  H   LIG d   1       5.408  -5.942  -9.135  0.00  0.00     0.023 H 
ATOM     19  H   LIG d   1       6.387  -5.486  -7.720  0.00  0.00     0.023 H 
ENDBRANCH  10  16
ENDBRANCH   7  10
ENDBRANCH   4   7
ENDBRANCH   1   3
BRANCH   1  20
ATOM     20  C   LIG d   1       4.180  -2.495  -3.845  0.00  0.00    -0.000 C 
ATOM     21  H   LIG d   1       3.480  -2.624  -4.670  0.00  0.00     0.034 H 
ATOM     22  H   LIG d   1       3.963  -3.227  -3.067  0.00  0.00     0.034 H 
BRANCH  20  23
ATOM     23  C   LIG d   1       4.042  -1.105  -3.279  0.00  0.00    -0.045 A 
ATOM     24  C   LIG d   1       3.269  -0.166  -3.935  0.00  0.00    -0.059 A 
ATOM     25  C   LIG d   1       3.138   1.108  -3.414  0.00  0.00    -0.061 A 
ATOM     26  H   LIG d   1       2.762  -0.429  -4.853  0.00  0.00     0.062 H 
ATOM     27  C   LIG d   1       3.789   1.445  -2.242  0.00  0.00    -0.062 A 
ATOM     28  H   LIG d   1       2.530   1.840  -3.923  0.00  0.00     0.062 H 
ATOM     29  C   LIG d   1       4.566   0.507  -1.589  0.00  0.00    -0.061 A 
ATOM     30  H   LIG d   1       3.689   2.441  -1.836  0.00  0.00     0.062 H 
ATOM     31  C   LIG d   1       4.694  -0.768  -2.108  0.00  0.00    -0.059 A 
ATOM     32  H   LIG d   1       5.075   0.771  -0.673  0.00  0.00     0.062 H 
ATOM     33  H   LIG d   1       5.301  -1.500  -1.597  0.00  0.00     0.062 H 
ENDBRANCH  20  23
ENDBRANCH   1  20
BRANCH   1  34
ATOM     34  N   LIG d   1       5.910  -1.701  -5.381  0.00  0.00    -0.281 N 
ATOM     35  C   LIG d   1       6.865  -0.759  -5.300  0.00  0.00     0.248 A 
ATOM     36  C   LIG d   1       6.876   0.064  -6.525  0.00  0.00     0.042 A 
ATOM     37  O   LIG d   1       7.614  -0.608  -4.354  0.00  0.00    -0.270 OA
ATOM     38  C   LIG d   1       5.873  -0.403  -7.376  0.00  0.00    -0.018 A 
ATOM     39  C   LIG d   1       7.664   1.146  -6.923  0.00  0.00    -0.049 A 
ATOM     40  C   LIG d   1       5.215  -1.560  -6.666  0.00  0.00     0.042 A 
ATOM     41  C   LIG d   1       5.663   0.195  -8.597  0.00  0.00    -0.056 A 
ATOM     42  H   LIG d   1       5.325  -2.472  -7.252  0.00  0.00     0.051 H 
ATOM     43  H   LIG d   1       4.159  -1.345  -6.499  0.00  0.00     0.051 H 
ATOM     44  C   LIG d   1       6.449   1.267  -8.986  0.00  0.00    -0.061 A 
ATOM     45  H   LIG d   1       4.886  -0.172  -9.252  0.00  0.00     0.062 H 
ATOM     46  C   LIG d   1       7.445   1.738  -8.150  0.00  0.00    -0.061 A 
ATOM     47  H   LIG d   1       6.283   1.736  -9.944  0.00  0.00     0.062 H 
ATOM     48  H   LIG d   1       8.055   2.574  -8.459  0.00  0.00     0.062 H 
ATOM     49  H   LIG d   1       8.444   1.517  -6.274  0.00  0.00     0.062 H 
ENDBRANCH   1  34
TORSDOF 8
ENDMDL
MODEL 9
REMARK VINA RESULT:      -6.0      3.209      5.806
REMARK  8 active torsions:
REMARK  status: ('A' for Active; 'I' for Inactive)
REMARK    1  A    between atoms: C_1  and  C_2 
REMARK    2  A    between atoms: C_2  and  C_3 
REMARK    3  A    between atoms: C_2  and  C_4 
REMARK    4  A    between atoms: C_4  and  N_5 
REMARK       I    between atoms: N_5  and  C_6 
REMARK    5  A    between atoms: C_6  and  C_8 
REMARK    6  A    between atoms: C_8  and  C_10 
REMARK    7  A    between atoms: C_8  and  N_17 
REMARK    8  A    between atoms: C_10  and  C_11 
ROOT
ATOM      1  C   LIG d   1       4.735  -0.993  -6.313  0.00  0.00     0.107 C 
ATOM      2  H   LIG d   1       4.777   0.079  -6.115  0.00  0.00     0.060 H 
ENDROOT
BRANCH   1   3
ATOM      3  C   LIG d   1       6.128  -1.512  -6.561  0.00  0.00     0.234 C 
ATOM      4  N   LIG d   1       6.565  -2.608  -5.910  0.00  0.00    -0.314 N 
ATOM      5  H   LIG d   1       5.985  -3.063  -5.281  0.00  0.00     0.149 HD
ATOM      6  O   LIG d   1       6.856  -0.943  -7.346  0.00  0.00    -0.274 OA
BRANCH   4   7
ATOM      7  C   LIG d   1       7.920  -3.111  -6.151  0.00  0.00     0.014 C 
ATOM      8  H   LIG d   1       8.342  -2.615  -7.024  0.00  0.00     0.046 H 
ATOM      9  H   LIG d   1       7.882  -4.186  -6.328  0.00  0.00     0.046 H 
BRANCH   7  10
ATOM     10  C   LIG d   1       8.795  -2.827  -4.929  0.00  0.00    -0.031 C 
ATOM     11  H   LIG d   1       9.250  -1.841  -5.030  0.00  0.00     0.031 H 
BRANCH  10  12
ATOM     12  C   LIG d   1       7.934  -2.865  -3.664  0.00  0.00    -0.061 C 
ATOM     13  H   LIG d   1       8.497  -3.330  -2.855  0.00  0.00     0.023 H 
ATOM     14  H   LIG d   1       7.660  -1.849  -3.380  0.00  0.00     0.023 H 
ATOM     15  H   LIG d   1       7.031  -3.444  -3.858  0.00  0.00     0.023 H 
ENDBRANCH  10  12
BRANCH  10  16
ATOM     16  C   LIG d   1       9.893  -3.888  -4.830  0.00  0.00    -0.061 C 
ATOM     17  H   LIG d   1      10.860  -3.431  -5.040  0.00  0.00     0.023 H 
ATOM     18  H   LIG d   1       9.902  -4.310  -3.825  0.00  0.00     0.023 H 
ATOM     19  H   LIG d   1       9.700  -4.679  -5.555  0.00  0.00     0.023 H 
ENDBRANCH  10  16
ENDBRANCH   7  10
ENDBRANCH   4   7
ENDBRANCH   1   3
BRANCH   1  20
ATOM     20  C   LIG d   1       4.132  -1.712  -5.105  0.00  0.00    -0.000 C 
ATOM     21  H   LIG d   1       3.104  -1.997  -5.328  0.00  0.00     0.034 H 
ATOM     22  H   LIG d   1       4.717  -2.605  -4.884  0.00  0.00     0.034 H 
BRANCH  20  23
ATOM     23  C   LIG d   1       4.151  -0.792  -3.911  0.00  0.00    -0.045 A 
ATOM     24  C   LIG d   1       3.691   0.506  -4.033  0.00  0.00    -0.059 A 
ATOM     25  C   LIG d   1       3.704   1.350  -2.937  0.00  0.00    -0.061 A 
ATOM     26  H   LIG d   1       3.317   0.860  -4.983  0.00  0.00     0.062 H 
ATOM     27  C   LIG d   1       4.187   0.898  -1.724  0.00  0.00    -0.062 A 
ATOM     28  H   LIG d   1       3.340   2.362  -3.031  0.00  0.00     0.062 H 
ATOM     29  C   LIG d   1       4.652  -0.398  -1.604  0.00  0.00    -0.061 A 
ATOM     30  H   LIG d   1       4.200   1.558  -0.868  0.00  0.00     0.062 H 
ATOM     31  C   LIG d   1       4.635  -1.243  -2.698  0.00  0.00    -0.059 A 
ATOM     32  H   LIG d   1       5.030  -0.751  -0.655  0.00  0.00     0.062 H 
ATOM     33  H   LIG d   1       4.998  -2.255  -2.604  0.00  0.00     0.062 H 
ENDBRANCH  20  23
ENDBRANCH   1  20
BRANCH   1  34
ATOM     34  N   LIG d   1       3.904  -1.240  -7.494  0.00  0.00    -0.281 N 
ATOM     35  C   LIG d   1       3.089  -0.344  -8.077  0.00  0.00     0.248 A 
ATOM     36  C   LIG d   1       2.417  -0.949  -9.243  0.00  0.00     0.042 A 
ATOM     37  O   LIG d   1       2.930   0.800  -7.700  0.00  0.00    -0.270 OA
ATOM     38  C   LIG d   1       2.844  -2.274  -9.358  0.00  0.00    -0.018 A 
ATOM     39  C   LIG d   1       1.496  -0.445 -10.164  0.00  0.00    -0.049 A 
ATOM     40  C   LIG d   1       3.820  -2.506  -8.231  0.00  0.00     0.042 A 
ATOM     41  C   LIG d   1       2.364  -3.074 -10.368  0.00  0.00    -0.056 A 
ATOM     42  H   LIG d   1       4.798  -2.771  -8.631  0.00  0.00     0.051 H 
ATOM     43  H   LIG d   1       3.455  -3.297  -7.576  0.00  0.00     0.051 H 
ATOM     44  C   LIG d   1       1.452  -2.567 -11.278  0.00  0.00    -0.061 A 
ATOM     45  H   LIG d   1       2.699  -4.098 -10.452  0.00  0.00     0.062 H 
ATOM     46  C   LIG d   1       1.021  -1.256 -11.174  0.00  0.00    -0.061 A 
ATOM     47  H   LIG d   1       1.075  -3.197 -12.071  0.00  0.00     0.062 H 
ATOM     48  H   LIG d   1       0.310  -0.867 -11.886  0.00  0.00     0.062 H 
ATOM     49  H   LIG d   1       1.157   0.578 -10.087  0.00  0.00     0.062 H 
ENDBRANCH   1  34
TORSDOF 8
ENDMDL
MODEL 10
REMARK VINA RESULT:      -5.8      1.955      2.525
REMARK  8 active torsions:
REMARK  status: ('A' for Active; 'I' for Inactive)
REMARK    1  A    between atoms: C_1  and  C_2 
REMARK    2  A    between atoms: C_2  and  C_3 
REMARK    3  A    between atoms: C_2  and  C_4 
REMARK    4  A    between atoms: C_4  and  N_5 
REMARK       I    between atoms: N_5  and  C_6 
REMARK    5  A    between atoms: C_6  and  C_8 
REMARK    6  A    between atoms: C_8  and  C_10 
REMARK    7  A    between atoms: C_8  and  N_17 
REMARK    8  A    between atoms: C_10  and  C_11 
ROOT
ATOM      1  C   LIG d   1       4.516  -2.846  -6.855  0.00  0.00     0.107 C 
ATOM      2  H   LIG d   1       3.444  -2.867  -6.654  0.00  0.00     0.060 H 
ENDROOT
BRANCH   1   3
ATOM      3  C   LIG d   1       4.745  -2.670  -8.334  0.00  0.00     0.234 C 
ATOM      4  N   LIG d   1       4.799  -1.432  -8.865  0.00  0.00    -0.314 N 
ATOM      5  H   LIG d   1       4.690  -0.655  -8.297  0.00  0.00     0.149 HD
ATOM      6  O   LIG d   1       4.881  -3.641  -9.047  0.00  0.00    -0.274 OA
BRANCH   4   7
ATOM      7  C   LIG d   1       5.021  -1.261 -10.303  0.00  0.00     0.014 C 
ATOM      8  H   LIG d   1       5.115  -2.239 -10.776  0.00  0.00     0.046 H 
ATOM      9  H   LIG d   1       5.936  -0.691 -10.465  0.00  0.00     0.046 H 
BRANCH   7  10
ATOM     10  C   LIG d   1       3.838  -0.510 -10.917  0.00  0.00    -0.031 C 
ATOM     11  H   LIG d   1       2.940  -0.709 -10.332  0.00  0.00     0.031 H 
BRANCH  10  12
ATOM     12  C   LIG d   1       4.129   0.992 -10.911  0.00  0.00    -0.061 C 
ATOM     13  H   LIG d   1       3.857   1.411  -9.941  0.00  0.00     0.023 H 
ATOM     14  H   LIG d   1       5.191   1.158 -11.094  0.00  0.00     0.023 H 
ATOM     15  H   LIG d   1       3.545   1.478 -11.692  0.00  0.00     0.023 H 
ENDBRANCH  10  12
BRANCH  10  16
ATOM     16  C   LIG d   1       3.625  -0.983 -12.357  0.00  0.00    -0.061 C 
ATOM     17  H   LIG d   1       4.585  -1.255 -12.795  0.00  0.00     0.023 H 
ATOM     18  H   LIG d   1       2.966  -1.851 -12.360  0.00  0.00     0.023 H 
ATOM     19  H   LIG d   1       3.173  -0.181 -12.939  0.00  0.00     0.023 H 
ENDBRANCH  10  16
ENDBRANCH   7  10
ENDBRANCH   4   7
ENDBRANCH   1   3
BRANCH   1  20
ATOM     20  C   LIG d   1       5.154  -1.679  -6.098  0.00  0.00    -0.000 C 
ATOM     21  H   LIG d   1       6.164  -1.952  -5.795  0.00  0.00     0.034 H 
ATOM     22  H   LIG d   1       5.193  -0.804  -6.747  0.00  0.00     0.034 H 
BRANCH  20  23
ATOM     23  C   LIG d   1       4.329  -1.362  -4.877  0.00  0.00    -0.045 A 
ATOM     24  C   LIG d   1       3.468  -0.280  -4.888  0.00  0.00    -0.059 A 
ATOM     25  C   LIG d   1       2.708   0.009  -3.769  0.00  0.00    -0.061 A 
ATOM     26  H   LIG d   1       3.385   0.336  -5.772  0.00  0.00     0.062 H 
ATOM     27  C   LIG d   1       2.818  -0.777  -2.638  0.00  0.00    -0.062 A 
ATOM     28  H   LIG d   1       2.031   0.850  -3.779  0.00  0.00     0.062 H 
ATOM     29  C   LIG d   1       3.683  -1.855  -2.626  0.00  0.00    -0.061 A 
ATOM     30  H   LIG d   1       2.226  -0.550  -1.763  0.00  0.00     0.062 H 
ATOM     31  C   LIG d   1       4.440  -2.147  -3.745  0.00  0.00    -0.059 A 
ATOM     32  H   LIG d   1       3.768  -2.469  -1.741  0.00  0.00     0.062 H 
ATOM     33  H   LIG d   1       5.116  -2.988  -3.735  0.00  0.00     0.062 H 
ENDBRANCH  20  23
ENDBRANCH   1  20
BRANCH   1  34
ATOM     34  N   LIG d   1       5.122  -4.104  -6.413  0.00  0.00    -0.281 N 
ATOM     35  C   LIG d   1       4.456  -5.242  -6.148  0.00  0.00     0.248 A 
ATOM     36  C   LIG d   1       5.396  -6.299  -5.733  0.00  0.00     0.042 A 
ATOM     37  O   LIG d   1       3.252  -5.380  -6.241  0.00  0.00    -0.270 OA
ATOM     38  C   LIG d   1       6.687  -5.766  -5.740  0.00  0.00    -0.018 A 
ATOM     39  C   LIG d   1       5.208  -7.632  -5.360  0.00  0.00    -0.049 A 
ATOM     40  C   LIG d   1       6.553  -4.330  -6.180  0.00  0.00     0.042 A 
ATOM     41  C   LIG d   1       7.763  -6.546  -5.386  0.00  0.00    -0.056 A 
ATOM     42  H   LIG d   1       7.111  -4.166  -7.102  0.00  0.00     0.051 H 
ATOM     43  H   LIG d   1       6.915  -3.663  -5.398  0.00  0.00     0.051 H 
ATOM     44  C   LIG d   1       7.569  -7.867  -5.018  0.00  0.00    -0.061 A 
ATOM     45  H   LIG d   1       8.760  -6.128  -5.395  0.00  0.00     0.062 H 
ATOM     46  C   LIG d   1       6.295  -8.405  -5.007  0.00  0.00    -0.061 A 
ATOM     47  H   LIG d   1       8.415  -8.478  -4.739  0.00  0.00     0.062 H 
ATOM     48  H   LIG d   1       6.150  -9.436  -4.719  0.00  0.00     0.062 H 
ATOM     49  H   LIG d   1       4.215  -8.057  -5.350  0.00  0.00     0.062 H 
ENDBRANCH   1  34
TORSDOF 8
ENDMDL
