MODEL 1
REMARK VINA RESULT:      -6.8      0.000      0.000
REMARK  10 active torsions:
REMARK  status: ('A' for Active; 'I' for Inactive)
REMARK    1  A    between atoms: C_1  and  C_2 
REMARK    2  A    between atoms: C_2  and  C_4 
REMARK    3  A    between atoms: C_2  and  N_15 
REMARK    4  A    between atoms: C_4  and  C_5 
REMARK    5  A    between atoms: C_9  and  C_11 
REMARK    6  A    between atoms: N_15  and  C_16 
REMARK    7  A    between atoms: C_16  and  C_17 
REMARK    8  A    between atoms: C_17  and  O_18 
REMARK    9  A    between atoms: O_18  and  C_19 
REMARK   10  A    between atoms: C_19  and  C_21 
ROOT
ATOM      1  C   LIG d   1       4.878  -2.148  -7.566  0.00  0.00    -0.021 C 
ATOM      2  H   LIG d   1       5.206  -2.725  -6.702  0.00  0.00     0.085 H 
ENDROOT
BRANCH   1   3
ATOM      3  C   LIG d   1       5.879  -2.326  -8.709  0.00  0.00    -0.021 C 
ATOM      4  H   LIG d   1       5.388  -2.818  -9.548  0.00  0.00     0.028 H 
ATOM      5  H   LIG d   1       6.248  -1.350  -9.024  0.00  0.00     0.028 H 
ATOM      6  H   LIG d   1       6.714  -2.937  -8.367  0.00  0.00     0.028 H 
ENDBRANCH   1   3
BRANCH   1   7
ATOM      7  C   LIG d   1       4.794  -0.668  -7.188  0.00  0.00     0.015 C 
ATOM      8  H   LIG d   1       5.800  -0.262  -7.083  0.00  0.00     0.037 H 
ATOM      9  H   LIG d   1       4.261  -0.123  -7.968  0.00  0.00     0.037 H 
BRANCH   7  10
ATOM     10  C   LIG d   1       4.055  -0.524  -5.882  0.00  0.00    -0.042 A 
ATOM     11  C   LIG d   1       4.528  -1.156  -4.747  0.00  0.00    -0.047 A 
ATOM     12  C   LIG d   1       3.854  -1.022  -3.548  0.00  0.00     0.055 A 
ATOM     13  H   LIG d   1       5.428  -1.752  -4.797  0.00  0.00     0.063 H 
ATOM     14  C   LIG d   1       2.701  -0.262  -3.486  0.00  0.00    -0.050 A 
ATOM     15  C   LIG d   1       2.224   0.365  -4.621  0.00  0.00    -0.061 A 
ATOM     16  H   LIG d   1       2.172  -0.159  -2.550  0.00  0.00     0.062 H 
ATOM     17  C   LIG d   1       2.901   0.235  -5.819  0.00  0.00    -0.058 A 
ATOM     18  H   LIG d   1       1.323   0.958  -4.573  0.00  0.00     0.062 H 
ATOM     19  H   LIG d   1       2.529   0.725  -6.706  0.00  0.00     0.062 H 
BRANCH  12  20
ATOM     20  C   LIG d   1       4.374  -1.706  -2.310  0.00  0.00     0.417 C 
ATOM     21  F   LIG d   1       3.557  -2.800  -2.005  0.00  0.00    -0.166 F 
ATOM     22  F   LIG d   1       5.682  -2.148  -2.535  0.00  0.00    -0.166 F 
ATOM     23  F   LIG d   1       4.364  -0.803  -1.240  0.00  0.00    -0.166 F 
ENDBRANCH  12  20
ENDBRANCH   7  10
ENDBRANCH   1   7
BRANCH   1  24
ATOM     24  N   LIG d   1       3.554  -2.619  -7.996  0.00  0.00     0.232 N 
ATOM     25  H   LIG d   1       3.141  -3.176  -7.262  0.00  0.00     0.202 HD
ATOM     26  H   LIG d   1       2.962  -1.826  -8.191  0.00  0.00     0.202 HD
BRANCH  24  27
ATOM     27  C   LIG d   1       3.696  -3.435  -9.209  0.00  0.00     0.002 C 
ATOM     28  H   LIG d   1       4.580  -3.115  -9.761  0.00  0.00     0.085 H 
ATOM     29  H   LIG d   1       3.801  -4.484  -8.932  0.00  0.00     0.085 H 
BRANCH  27  30
ATOM     30  C   LIG d   1       2.456  -3.262 -10.088  0.00  0.00     0.132 C 
ATOM     31  H   LIG d   1       2.762  -3.136 -11.127  0.00  0.00     0.075 H 
ATOM     32  H   LIG d   1       1.821  -4.143 -10.000  0.00  0.00     0.075 H 
BRANCH  30  33
ATOM     33  O   LIG d   1       1.729  -2.106  -9.663  0.00  0.00    -0.456 OA
BRANCH  33  34
ATOM     34  C   LIG d   1       1.773  -1.027 -10.466  0.00  0.00     0.339 C 
ATOM     35  O   LIG d   1       1.078  -0.980 -11.462  0.00  0.00    -0.245 OA
BRANCH  34  36
ATOM     36  C   LIG d   1       2.667   0.102 -10.139  0.00  0.00     0.059 A 
ATOM     37  C   LIG d   1       2.250   1.092  -9.247  0.00  0.00    -0.048 A 
ATOM     38  C   LIG d   1       3.094   2.140  -8.940  0.00  0.00    -0.061 A 
ATOM     39  H   LIG d   1       1.271   1.035  -8.793  0.00  0.00     0.063 H 
ATOM     40  C   LIG d   1       4.346   2.218  -9.524  0.00  0.00    -0.062 A 
ATOM     41  H   LIG d   1       2.774   2.903  -8.245  0.00  0.00     0.062 H 
ATOM     42  C   LIG d   1       4.763   1.243 -10.414  0.00  0.00    -0.061 A 
ATOM     43  H   LIG d   1       5.000   3.042  -9.284  0.00  0.00     0.062 H 
ATOM     44  C   LIG d   1       3.932   0.187 -10.724  0.00  0.00    -0.048 A 
ATOM     45  H   LIG d   1       5.742   1.310 -10.865  0.00  0.00     0.062 H 
ATOM     46  H   LIG d   1       4.260  -0.573 -11.417  0.00  0.00     0.063 H 
ENDBRANCH  34  36
ENDBRANCH  33  34
ENDBRANCH  30  33
ENDBRANCH  27  30
ENDBRANCH  24  27
ENDBRANCH   1  24
TORSDOF 10
ENDMDL
MODEL 2
REMARK VINA RESULT:      -6.5      3.253      5.374
REMARK  10 active torsions:
REMARK  status: ('A' for Active; 'I' for Inactive)
REMARK    1  A    between atoms: C_1  and  C_2 
REMARK    2  A    between atoms: C_2  and  C_4 
REMARK    3  A    between atoms: C_2  and  N_15 
REMARK    4  A    between atoms: C_4  and  C_5 
REMARK    5  A    between atoms: C_9  and  C_11 
REMARK    6  A    between atoms: N_15  and  C_16 
REMARK    7  A    between atoms: C_16  and  C_17 
REMARK    8  A    between atoms: C_17  and  O_18 
REMARK    9  A    between atoms: O_18  and  C_19 
REMARK   10  A    between atoms: C_19  and  C_21 
ROOT
ATOM      1  C   LIG d   1       3.515   0.079  -7.123  0.00  0.00    -0.021 C 
ATOM      2  H   LIG d   1       3.079   0.571  -6.254  0.00  0.00     0.085 H 
ENDROOT
BRANCH   1   3
ATOM      3  C   LIG d   1       2.403  -0.307  -8.101  0.00  0.00    -0.021 C 
ATOM      4  H   LIG d   1       1.472  -0.451  -7.553  0.00  0.00     0.028 H 
ATOM      5  H   LIG d   1       2.274   0.487  -8.836  0.00  0.00     0.028 H 
ATOM      6  H   LIG d   1       2.673  -1.233  -8.609  0.00  0.00     0.028 H 
ENDBRANCH   1   3
BRANCH   1   7
ATOM      7  C   LIG d   1       4.261  -1.180  -6.676  0.00  0.00     0.015 C 
ATOM      8  H   LIG d   1       3.764  -2.060  -7.084  0.00  0.00     0.037 H 
ATOM      9  H   LIG d   1       5.289  -1.142  -7.038  0.00  0.00     0.037 H 
BRANCH   7  10
ATOM     10  C   LIG d   1       4.261  -1.255  -5.171  0.00  0.00    -0.042 A 
ATOM     11  C   LIG d   1       4.319  -0.095  -4.421  0.00  0.00    -0.047 A 
ATOM     12  C   LIG d   1       4.315  -0.162  -3.041  0.00  0.00     0.055 A 
ATOM     13  H   LIG d   1       4.364   0.865  -4.915  0.00  0.00     0.063 H 
ATOM     14  C   LIG d   1       4.261  -1.391  -2.410  0.00  0.00    -0.050 A 
ATOM     15  C   LIG d   1       4.209  -2.551  -3.159  0.00  0.00    -0.061 A 
ATOM     16  H   LIG d   1       4.261  -1.444  -1.331  0.00  0.00     0.062 H 
ATOM     17  C   LIG d   1       4.209  -2.483  -4.539  0.00  0.00    -0.058 A 
ATOM     18  H   LIG d   1       4.168  -3.511  -2.666  0.00  0.00     0.062 H 
ATOM     19  H   LIG d   1       4.167  -3.390  -5.124  0.00  0.00     0.062 H 
BRANCH  12  20
ATOM     20  C   LIG d   1       4.372   1.103  -2.224  0.00  0.00     0.417 C 
ATOM     21  F   LIG d   1       3.106   1.696  -2.193  0.00  0.00    -0.166 F 
ATOM     22  F   LIG d   1       4.776   0.798  -0.920  0.00  0.00    -0.166 F 
ATOM     23  F   LIG d   1       5.289   1.989  -2.801  0.00  0.00    -0.166 F 
ENDBRANCH  12  20
ENDBRANCH   7  10
ENDBRANCH   1   7
BRANCH   1  24
ATOM     24  N   LIG d   1       4.454   0.995  -7.785  0.00  0.00     0.232 N 
ATOM     25  H   LIG d   1       4.003   1.422  -8.580  0.00  0.00     0.202 HD
ATOM     26  H   LIG d   1       4.740   1.712  -7.134  0.00  0.00     0.202 HD
BRANCH  24  27
ATOM     27  C   LIG d   1       5.634   0.244  -8.236  0.00  0.00     0.002 C 
ATOM     28  H   LIG d   1       5.770  -0.633  -7.603  0.00  0.00     0.085 H 
ATOM     29  H   LIG d   1       5.491  -0.071  -9.269  0.00  0.00     0.085 H 
BRANCH  27  30
ATOM     30  C   LIG d   1       6.872   1.137  -8.142  0.00  0.00     0.132 C 
ATOM     31  H   LIG d   1       7.239   1.355  -9.146  0.00  0.00     0.075 H 
ATOM     32  H   LIG d   1       6.612   2.068  -7.640  0.00  0.00     0.075 H 
BRANCH  30  33
ATOM     33  O   LIG d   1       7.891   0.463  -7.399  0.00  0.00    -0.456 OA
BRANCH  33  34
ATOM     34  C   LIG d   1       7.688   0.318  -6.076  0.00  0.00     0.339 C 
ATOM     35  O   LIG d   1       7.468   1.292  -5.384  0.00  0.00    -0.245 OA
BRANCH  34  36
ATOM     36  C   LIG d   1       7.732  -1.026  -5.465  0.00  0.00     0.059 A 
ATOM     37  C   LIG d   1       7.760  -1.164  -4.076  0.00  0.00    -0.048 A 
ATOM     38  C   LIG d   1       7.795  -2.423  -3.512  0.00  0.00    -0.061 A 
ATOM     39  H   LIG d   1       7.750  -0.288  -3.444  0.00  0.00     0.063 H 
ATOM     40  C   LIG d   1       7.815  -3.546  -4.319  0.00  0.00    -0.062 A 
ATOM     41  H   LIG d   1       7.812  -2.531  -2.437  0.00  0.00     0.062 H 
ATOM     42  C   LIG d   1       7.792  -3.416  -5.697  0.00  0.00    -0.061 A 
ATOM     43  H   LIG d   1       7.846  -4.529  -3.873  0.00  0.00     0.062 H 
ATOM     44  C   LIG d   1       7.751  -2.163  -6.274  0.00  0.00    -0.048 A 
ATOM     45  H   LIG d   1       7.807  -4.297  -6.322  0.00  0.00     0.062 H 
ATOM     46  H   LIG d   1       7.733  -2.063  -7.349  0.00  0.00     0.063 H 
ENDBRANCH  34  36
ENDBRANCH  33  34
ENDBRANCH  30  33
ENDBRANCH  27  30
ENDBRANCH  24  27
ENDBRANCH   1  24
TORSDOF 10
ENDMDL
MODEL 3
REMARK VINA RESULT:      -6.5      2.762      5.221
REMARK  10 active torsions:
REMARK  status: ('A' for Active; 'I' for Inactive)
REMARK    1  A    between atoms: C_1  and  C_2 
REMARK    2  A    between atoms: C_2  and  C_4 
REMARK    3  A    between atoms: C_2  and  N_15 
REMARK    4  A    between atoms: C_4  and  C_5 
REMARK    5  A    between atoms: C_9  and  C_11 
REMARK    6  A    between atoms: N_15  and  C_16 
REMARK    7  A    between atoms: C_16  and  C_17 
REMARK    8  A    between atoms: C_17  and  O_18 
REMARK    9  A    between atoms: O_18  and  C_19 
REMARK   10  A    between atoms: C_19  and  C_21 
ROOT
ATOM      1  C   LIG d   1       5.355   0.326  -8.268  0.00  0.00    -0.021 C 
ATOM      2  H   LIG d   1       4.906  -0.599  -7.909  0.00  0.00     0.085 H 
ENDROOT
BRANCH   1   3
ATOM      3  C   LIG d   1       5.783   0.153  -9.727  0.00  0.00    -0.021 C 
ATOM      4  H   LIG d   1       6.672   0.755  -9.918  0.00  0.00     0.028 H 
ATOM      5  H   LIG d   1       6.006  -0.897  -9.918  0.00  0.00     0.028 H 
ATOM      6  H   LIG d   1       4.976   0.479 -10.383  0.00  0.00     0.028 H 
ENDBRANCH   1   3
BRANCH   1   7
ATOM      7  C   LIG d   1       6.579   0.665  -7.415  0.00  0.00     0.015 C 
ATOM      8  H   LIG d   1       7.485   0.515  -8.002  0.00  0.00     0.037 H 
ATOM      9  H   LIG d   1       6.522   1.705  -7.093  0.00  0.00     0.037 H 
BRANCH   7  10
ATOM     10  C   LIG d   1       6.610  -0.233  -6.204  0.00  0.00    -0.042 A 
ATOM     11  C   LIG d   1       5.953  -1.449  -6.228  0.00  0.00    -0.047 A 
ATOM     12  C   LIG d   1       5.984  -2.275  -5.121  0.00  0.00     0.055 A 
ATOM     13  H   LIG d   1       5.416  -1.754  -7.115  0.00  0.00     0.063 H 
ATOM     14  C   LIG d   1       6.667  -1.881  -3.985  0.00  0.00    -0.050 A 
ATOM     15  C   LIG d   1       7.320  -0.663  -3.959  0.00  0.00    -0.061 A 
ATOM     16  H   LIG d   1       6.690  -2.524  -3.118  0.00  0.00     0.062 H 
ATOM     17  C   LIG d   1       7.292   0.161  -5.068  0.00  0.00    -0.058 A 
ATOM     18  H   LIG d   1       7.853  -0.355  -3.071  0.00  0.00     0.062 H 
ATOM     19  H   LIG d   1       7.803   1.112  -5.048  0.00  0.00     0.062 H 
BRANCH  12  20
ATOM     20  C   LIG d   1       5.272  -3.603  -5.149  0.00  0.00     0.417 C 
ATOM     21  F   LIG d   1       4.668  -3.834  -3.909  0.00  0.00    -0.166 F 
ATOM     22  F   LIG d   1       4.294  -3.586  -6.149  0.00  0.00    -0.166 F 
ATOM     23  F   LIG d   1       6.195  -4.621  -5.416  0.00  0.00    -0.166 F 
ENDBRANCH  12  20
ENDBRANCH   7  10
ENDBRANCH   1   7
BRANCH   1  24
ATOM     24  N   LIG d   1       4.374   1.416  -8.171  0.00  0.00     0.232 N 
ATOM     25  H   LIG d   1       4.571   1.973  -7.354  0.00  0.00     0.202 HD
ATOM     26  H   LIG d   1       4.431   1.994  -8.996  0.00  0.00     0.202 HD
BRANCH  24  27
ATOM     27  C   LIG d   1       3.022   0.849  -8.063  0.00  0.00     0.002 C 
ATOM     28  H   LIG d   1       2.307   1.649  -7.874  0.00  0.00     0.085 H 
ATOM     29  H   LIG d   1       2.765   0.343  -8.994  0.00  0.00     0.085 H 
BRANCH  27  30
ATOM     30  C   LIG d   1       2.982  -0.155  -6.909  0.00  0.00     0.132 C 
ATOM     31  H   LIG d   1       2.675  -1.130  -7.287  0.00  0.00     0.075 H 
ATOM     32  H   LIG d   1       3.971  -0.233  -6.461  0.00  0.00     0.075 H 
BRANCH  30  33
ATOM     33  O   LIG d   1       2.046   0.289  -5.924  0.00  0.00    -0.456 OA
BRANCH  33  34
ATOM     34  C   LIG d   1       2.523   1.067  -4.934  0.00  0.00     0.339 C 
ATOM     35  O   LIG d   1       2.418   2.275  -5.004  0.00  0.00    -0.245 OA
BRANCH  34  36
ATOM     36  C   LIG d   1       3.177   0.451  -3.761  0.00  0.00     0.059 A 
ATOM     37  C   LIG d   1       4.065   1.194  -2.982  0.00  0.00    -0.048 A 
ATOM     38  C   LIG d   1       4.667   0.614  -1.884  0.00  0.00    -0.061 A 
ATOM     39  H   LIG d   1       4.277   2.223  -3.235  0.00  0.00     0.063 H 
ATOM     40  C   LIG d   1       4.402  -0.705  -1.562  0.00  0.00    -0.062 A 
ATOM     41  H   LIG d   1       5.351   1.191  -1.277  0.00  0.00     0.062 H 
ATOM     42  C   LIG d   1       3.527  -1.449  -2.334  0.00  0.00    -0.061 A 
ATOM     43  H   LIG d   1       4.879  -1.155  -0.705  0.00  0.00     0.062 H 
ATOM     44  C   LIG d   1       2.913  -0.880  -3.430  0.00  0.00    -0.048 A 
ATOM     45  H   LIG d   1       3.323  -2.478  -2.076  0.00  0.00     0.062 H 
ATOM     46  H   LIG d   1       2.230  -1.462  -4.030  0.00  0.00     0.063 H 
ENDBRANCH  34  36
ENDBRANCH  33  34
ENDBRANCH  30  33
ENDBRANCH  27  30
ENDBRANCH  24  27
ENDBRANCH   1  24
TORSDOF 10
ENDMDL
MODEL 4
REMARK VINA RESULT:      -6.4      1.812      2.248
REMARK  10 active torsions:
REMARK  status: ('A' for Active; 'I' for Inactive)
REMARK    1  A    between atoms: C_1  and  C_2 
REMARK    2  A    between atoms: C_2  and  C_4 
REMARK    3  A    between atoms: C_2  and  N_15 
REMARK    4  A    between atoms: C_4  and  C_5 
REMARK    5  A    between atoms: C_9  and  C_11 
REMARK    6  A    between atoms: N_15  and  C_16 
REMARK    7  A    between atoms: C_16  and  C_17 
REMARK    8  A    between atoms: C_17  and  O_18 
REMARK    9  A    between atoms: O_18  and  C_19 
REMARK   10  A    between atoms: C_19  and  C_21 
ROOT
ATOM      1  C   LIG d   1       4.515  -3.692  -6.287  0.00  0.00    -0.021 C 
ATOM      2  H   LIG d   1       3.945  -4.052  -5.432  0.00  0.00     0.085 H 
ENDROOT
BRANCH   1   3
ATOM      3  C   LIG d   1       5.807  -4.501  -6.416  0.00  0.00    -0.021 C 
ATOM      4  H   LIG d   1       5.598  -5.439  -6.933  0.00  0.00     0.028 H 
ATOM      5  H   LIG d   1       6.540  -3.929  -6.984  0.00  0.00     0.028 H 
ATOM      6  H   LIG d   1       6.202  -4.715  -5.423  0.00  0.00     0.028 H 
ENDBRANCH   1   3
BRANCH   1   7
ATOM      7  C   LIG d   1       4.858  -2.214  -6.085  0.00  0.00     0.015 C 
ATOM      8  H   LIG d   1       5.907  -2.047  -6.333  0.00  0.00     0.037 H 
ATOM      9  H   LIG d   1       4.229  -1.603  -6.733  0.00  0.00     0.037 H 
BRANCH   7  10
ATOM     10  C   LIG d   1       4.615  -1.835  -4.647  0.00  0.00    -0.042 A 
ATOM     11  C   LIG d   1       4.796  -0.526  -4.238  0.00  0.00    -0.047 A 
ATOM     12  C   LIG d   1       4.569  -0.176  -2.921  0.00  0.00     0.055 A 
ATOM     13  H   LIG d   1       5.112   0.223  -4.949  0.00  0.00     0.063 H 
ATOM     14  C   LIG d   1       4.168  -1.136  -2.010  0.00  0.00    -0.050 A 
ATOM     15  C   LIG d   1       3.993  -2.445  -2.417  0.00  0.00    -0.061 A 
ATOM     16  H   LIG d   1       3.994  -0.863  -0.980  0.00  0.00     0.062 H 
ATOM     17  C   LIG d   1       4.215  -2.794  -3.736  0.00  0.00    -0.058 A 
ATOM     18  H   LIG d   1       3.681  -3.195  -1.706  0.00  0.00     0.062 H 
ATOM     19  H   LIG d   1       4.077  -3.817  -4.055  0.00  0.00     0.062 H 
BRANCH  12  20
ATOM     20  C   LIG d   1       4.761   1.251  -2.476  0.00  0.00     0.417 C 
ATOM     21  F   LIG d   1       4.668   1.321  -1.082  0.00  0.00    -0.166 F 
ATOM     22  F   LIG d   1       6.021   1.701  -2.884  0.00  0.00    -0.166 F 
ATOM     23  F   LIG d   1       3.769   2.056  -3.050  0.00  0.00    -0.166 F 
ENDBRANCH  12  20
ENDBRANCH   7  10
ENDBRANCH   1   7
BRANCH   1  24
ATOM     24  N   LIG d   1       3.715  -3.846  -7.510  0.00  0.00     0.232 N 
ATOM     25  H   LIG d   1       3.356  -4.787  -7.560  0.00  0.00     0.202 HD
ATOM     26  H   LIG d   1       2.947  -3.192  -7.493  0.00  0.00     0.202 HD
BRANCH  24  27
ATOM     27  C   LIG d   1       4.559  -3.580  -8.683  0.00  0.00     0.002 C 
ATOM     28  H   LIG d   1       5.195  -2.717  -8.485  0.00  0.00     0.085 H 
ATOM     29  H   LIG d   1       5.181  -4.452  -8.888  0.00  0.00     0.085 H 
BRANCH  27  30
ATOM     30  C   LIG d   1       3.670  -3.292  -9.895  0.00  0.00     0.132 C 
ATOM     31  H   LIG d   1       4.179  -2.594 -10.560  0.00  0.00     0.075 H 
ATOM     32  H   LIG d   1       3.469  -4.221 -10.427  0.00  0.00     0.075 H 
BRANCH  30  33
ATOM     33  O   LIG d   1       2.437  -2.717  -9.455  0.00  0.00    -0.456 OA
BRANCH  33  34
ATOM     34  C   LIG d   1       2.019  -1.608 -10.094  0.00  0.00     0.339 C 
ATOM     35  O   LIG d   1       1.161  -1.686 -10.950  0.00  0.00    -0.245 OA
BRANCH  34  36
ATOM     36  C   LIG d   1       2.604  -0.295  -9.754  0.00  0.00     0.059 A 
ATOM     37  C   LIG d   1       2.488   0.211  -8.458  0.00  0.00    -0.048 A 
ATOM     38  C   LIG d   1       3.042   1.435  -8.146  0.00  0.00    -0.061 A 
ATOM     39  H   LIG d   1       1.970  -0.358  -7.699  0.00  0.00     0.063 H 
ATOM     40  C   LIG d   1       3.701   2.167  -9.118  0.00  0.00    -0.062 A 
ATOM     41  H   LIG d   1       2.958   1.825  -7.142  0.00  0.00     0.062 H 
ATOM     42  C   LIG d   1       3.815   1.675 -10.406  0.00  0.00    -0.061 A 
ATOM     43  H   LIG d   1       4.130   3.127  -8.870  0.00  0.00     0.062 H 
ATOM     44  C   LIG d   1       3.271   0.449 -10.730  0.00  0.00    -0.048 A 
ATOM     45  H   LIG d   1       4.331   2.251 -11.160  0.00  0.00     0.062 H 
ATOM     46  H   LIG d   1       3.361   0.066 -11.735  0.00  0.00     0.063 H 
ENDBRANCH  34  36
ENDBRANCH  33  34
ENDBRANCH  30  33
ENDBRANCH  27  30
ENDBRANCH  24  27
ENDBRANCH   1  24
TORSDOF 10
ENDMDL
MODEL 5
REMARK VINA RESULT:      -6.4      2.518      3.595
REMARK  10 active torsions:
REMARK  status: ('A' for Active; 'I' for Inactive)
REMARK    1  A    between atoms: C_1  and  C_2 
REMARK    2  A    between atoms: C_2  and  C_4 
REMARK    3  A    between atoms: C_2  and  N_15 
REMARK    4  A    between atoms: C_4  and  C_5 
REMARK    5  A    between atoms: C_9  and  C_11 
REMARK    6  A    between atoms: N_15  and  C_16 
REMARK    7  A    between atoms: C_16  and  C_17 
REMARK    8  A    between atoms: C_17  and  O_18 
REMARK    9  A    between atoms: O_18  and  C_19 
REMARK   10  A    between atoms: C_19  and  C_21 
ROOT
ATOM      1  C   LIG d   1       5.296  -1.396  -6.949  0.00  0.00    -0.021 C 
ATOM      2  H   LIG d   1       4.774  -0.535  -6.532  0.00  0.00     0.085 H 
ENDROOT
BRANCH   1   3
ATOM      3  C   LIG d   1       4.327  -2.216  -7.803  0.00  0.00    -0.021 C 
ATOM      4  H   LIG d   1       3.499  -2.561  -7.183  0.00  0.00     0.028 H 
ATOM      5  H   LIG d   1       3.941  -1.596  -8.612  0.00  0.00     0.028 H 
ATOM      6  H   LIG d   1       4.850  -3.076  -8.221  0.00  0.00     0.028 H 
ENDBRANCH   1   3
BRANCH   1   7
ATOM      7  C   LIG d   1       5.833  -2.267  -5.811  0.00  0.00     0.015 C 
ATOM      8  H   LIG d   1       5.610  -3.314  -6.018  0.00  0.00     0.037 H 
ATOM      9  H   LIG d   1       6.912  -2.133  -5.729  0.00  0.00     0.037 H 
BRANCH   7  10
ATOM     10  C   LIG d   1       5.178  -1.860  -4.516  0.00  0.00    -0.042 A 
ATOM     11  C   LIG d   1       5.259  -0.550  -4.082  0.00  0.00    -0.047 A 
ATOM     12  C   LIG d   1       4.655  -0.174  -2.897  0.00  0.00     0.055 A 
ATOM     13  H   LIG d   1       5.793   0.181  -4.672  0.00  0.00     0.063 H 
ATOM     14  C   LIG d   1       3.976  -1.112  -2.141  0.00  0.00    -0.050 A 
ATOM     15  C   LIG d   1       3.899  -2.422  -2.572  0.00  0.00    -0.061 A 
ATOM     16  H   LIG d   1       3.507  -0.820  -1.213  0.00  0.00     0.062 H 
ATOM     17  C   LIG d   1       4.499  -2.797  -3.759  0.00  0.00    -0.058 A 
ATOM     18  H   LIG d   1       3.369  -3.155  -1.981  0.00  0.00     0.062 H 
ATOM     19  H   LIG d   1       4.438  -3.821  -4.096  0.00  0.00     0.062 H 
BRANCH  12  20
ATOM     20  C   LIG d   1       4.739   1.255  -2.427  0.00  0.00     0.417 C 
ATOM     21  F   LIG d   1       5.941   1.820  -2.865  0.00  0.00    -0.166 F 
ATOM     22  F   LIG d   1       3.664   1.982  -2.948  0.00  0.00    -0.166 F 
ATOM     23  F   LIG d   1       4.691   1.289  -1.028  0.00  0.00    -0.166 F 
ENDBRANCH  12  20
ENDBRANCH   7  10
ENDBRANCH   1   7
BRANCH   1  24
ATOM     24  N   LIG d   1       6.414  -0.935  -7.782  0.00  0.00     0.232 N 
ATOM     25  H   LIG d   1       7.287  -1.182  -7.340  0.00  0.00     0.202 HD
ATOM     26  H   LIG d   1       6.360  -1.372  -8.690  0.00  0.00     0.202 HD
BRANCH  24  27
ATOM     27  C   LIG d   1       6.340   0.525  -7.935  0.00  0.00     0.002 C 
ATOM     28  H   LIG d   1       5.422   0.892  -7.477  0.00  0.00     0.085 H 
ATOM     29  H   LIG d   1       7.200   0.986  -7.448  0.00  0.00     0.085 H 
BRANCH  27  30
ATOM     30  C   LIG d   1       6.345   0.882  -9.423  0.00  0.00     0.132 C 
ATOM     31  H   LIG d   1       7.372   1.039  -9.755  0.00  0.00     0.075 H 
ATOM     32  H   LIG d   1       5.899   0.067  -9.993  0.00  0.00     0.075 H 
BRANCH  30  33
ATOM     33  O   LIG d   1       5.590   2.078  -9.629  0.00  0.00    -0.456 OA
BRANCH  33  34
ATOM     34  C   LIG d   1       4.267   2.016  -9.381  0.00  0.00     0.339 C 
ATOM     35  O   LIG d   1       3.747   2.832  -8.646  0.00  0.00    -0.245 OA
BRANCH  34  36
ATOM     36  C   LIG d   1       3.449   0.954 -10.002  0.00  0.00     0.059 A 
ATOM     37  C   LIG d   1       3.761   0.482 -11.277  0.00  0.00    -0.048 A 
ATOM     38  C   LIG d   1       2.996  -0.514 -11.848  0.00  0.00    -0.061 A 
ATOM     39  H   LIG d   1       4.604   0.892 -11.815  0.00  0.00     0.063 H 
ATOM     40  C   LIG d   1       1.913  -1.036 -11.164  0.00  0.00    -0.062 A 
ATOM     41  H   LIG d   1       3.241  -0.884 -12.833  0.00  0.00     0.062 H 
ATOM     42  C   LIG d   1       1.594  -0.569  -9.901  0.00  0.00    -0.061 A 
ATOM     43  H   LIG d   1       1.315  -1.812 -11.617  0.00  0.00     0.062 H 
ATOM     44  C   LIG d   1       2.355   0.422  -9.316  0.00  0.00    -0.048 A 
ATOM     45  H   LIG d   1       0.748  -0.982  -9.372  0.00  0.00     0.062 H 
ATOM     46  H   LIG d   1       2.104   0.785  -8.331  0.00  0.00     0.063 H 
ENDBRANCH  34  36
ENDBRANCH  33  34
ENDBRANCH  30  33
ENDBRANCH  27  30
ENDBRANCH  24  27
ENDBRANCH   1  24
TORSDOF 10
ENDMDL
MODEL 6
REMARK VINA RESULT:      -6.3      4.314      7.235
REMARK  10 active torsions:
REMARK  status: ('A' for Active; 'I' for Inactive)
REMARK    1  A    between atoms: C_1  and  C_2 
REMARK    2  A    between atoms: C_2  and  C_4 
REMARK    3  A    between atoms: C_2  and  N_15 
REMARK    4  A    between atoms: C_4  and  C_5 
REMARK    5  A    between atoms: C_9  and  C_11 
REMARK    6  A    between atoms: N_15  and  C_16 
REMARK    7  A    between atoms: C_16  and  C_17 
REMARK    8  A    between atoms: C_17  and  O_18 
REMARK    9  A    between atoms: O_18  and  C_19 
REMARK   10  A    between atoms: C_19  and  C_21 
ROOT
ATOM      1  C   LIG d   1       2.964   0.242  -6.503  0.00  0.00    -0.021 C 
ATOM      2  H   LIG d   1       2.390  -0.620  -6.841  0.00  0.00     0.085 H 
ENDROOT
BRANCH   1   3
ATOM      3  C   LIG d   1       2.524   0.625  -5.088  0.00  0.00    -0.021 C 
ATOM      4  H   LIG d   1       2.750   1.676  -4.910  0.00  0.00     0.028 H 
ATOM      5  H   LIG d   1       1.452   0.460  -4.984  0.00  0.00     0.028 H 
ATOM      6  H   LIG d   1       3.059   0.011  -4.364  0.00  0.00     0.028 H 
ENDBRANCH   1   3
BRANCH   1   7
ATOM      7  C   LIG d   1       2.719   1.420  -7.449  0.00  0.00     0.015 C 
ATOM      8  H   LIG d   1       1.687   1.757  -7.350  0.00  0.00     0.037 H 
ATOM      9  H   LIG d   1       3.395   2.237  -7.194  0.00  0.00     0.037 H 
BRANCH   7  10
ATOM     10  C   LIG d   1       2.973   0.984  -8.869  0.00  0.00    -0.042 A 
ATOM     11  C   LIG d   1       2.156   0.036  -9.457  0.00  0.00    -0.047 A 
ATOM     12  C   LIG d   1       2.384  -0.362 -10.761  0.00  0.00     0.055 A 
ATOM     13  H   LIG d   1       1.337  -0.392  -8.897  0.00  0.00     0.063 H 
ATOM     14  C   LIG d   1       3.435   0.183 -11.474  0.00  0.00    -0.050 A 
ATOM     15  C   LIG d   1       4.255   1.127 -10.886  0.00  0.00    -0.061 A 
ATOM     16  H   LIG d   1       3.616  -0.129 -12.492  0.00  0.00     0.062 H 
ATOM     17  C   LIG d   1       4.024   1.528  -9.583  0.00  0.00    -0.058 A 
ATOM     18  H   LIG d   1       5.077   1.553 -11.443  0.00  0.00     0.062 H 
ATOM     19  H   LIG d   1       4.664   2.266  -9.123  0.00  0.00     0.062 H 
BRANCH  12  20
ATOM     20  C   LIG d   1       1.491  -1.391 -11.403  0.00  0.00     0.417 C 
ATOM     21  F   LIG d   1       1.215  -2.409 -10.484  0.00  0.00    -0.166 F 
ATOM     22  F   LIG d   1       0.294  -0.786 -11.803  0.00  0.00    -0.166 F 
ATOM     23  F   LIG d   1       2.135  -1.934 -12.521  0.00  0.00    -0.166 F 
ENDBRANCH  12  20
ENDBRANCH   7  10
ENDBRANCH   1   7
BRANCH   1  24
ATOM     24  N   LIG d   1       4.395  -0.093  -6.498  0.00  0.00     0.232 N 
ATOM     25  H   LIG d   1       4.854   0.386  -7.258  0.00  0.00     0.202 HD
ATOM     26  H   LIG d   1       4.804   0.195  -5.622  0.00  0.00     0.202 HD
BRANCH  24  27
ATOM     27  C   LIG d   1       4.558  -1.544  -6.662  0.00  0.00     0.002 C 
ATOM     28  H   LIG d   1       3.971  -2.063  -5.904  0.00  0.00     0.085 H 
ATOM     29  H   LIG d   1       4.213  -1.838  -7.654  0.00  0.00     0.085 H 
BRANCH  27  30
ATOM     30  C   LIG d   1       6.034  -1.911  -6.506  0.00  0.00     0.132 C 
ATOM     31  H   LIG d   1       6.344  -2.537  -7.343  0.00  0.00     0.075 H 
ATOM     32  H   LIG d   1       6.635  -1.002  -6.489  0.00  0.00     0.075 H 
BRANCH  30  33
ATOM     33  O   LIG d   1       6.220  -2.628  -5.283  0.00  0.00    -0.456 OA
BRANCH  33  34
ATOM     34  C   LIG d   1       6.805  -1.963  -4.268  0.00  0.00     0.339 C 
ATOM     35  O   LIG d   1       7.994  -2.101  -4.055  0.00  0.00    -0.245 OA
BRANCH  34  36
ATOM     36  C   LIG d   1       6.002  -1.066  -3.411  0.00  0.00     0.059 A 
ATOM     37  C   LIG d   1       4.988  -1.588  -2.606  0.00  0.00    -0.048 A 
ATOM     38  C   LIG d   1       4.247  -0.745  -1.804  0.00  0.00    -0.061 A 
ATOM     39  H   LIG d   1       4.787  -2.649  -2.607  0.00  0.00     0.063 H 
ATOM     40  C   LIG d   1       4.498   0.616  -1.805  0.00  0.00    -0.062 A 
ATOM     41  H   LIG d   1       3.465  -1.148  -1.176  0.00  0.00     0.062 H 
ATOM     42  C   LIG d   1       5.498   1.140  -2.606  0.00  0.00    -0.061 A 
ATOM     43  H   LIG d   1       3.912   1.271  -1.179  0.00  0.00     0.062 H 
ATOM     44  C   LIG d   1       6.251   0.308  -3.407  0.00  0.00    -0.048 A 
ATOM     45  H   LIG d   1       5.690   2.203  -2.601  0.00  0.00     0.062 H 
ATOM     46  H   LIG d   1       7.032   0.718  -4.031  0.00  0.00     0.063 H 
ENDBRANCH  34  36
ENDBRANCH  33  34
ENDBRANCH  30  33
ENDBRANCH  27  30
ENDBRANCH  24  27
ENDBRANCH   1  24
TORSDOF 10
ENDMDL
MODEL 7
REMARK VINA RESULT:      -6.3      2.025      2.787
REMARK  10 active torsions:
REMARK  status: ('A' for Active; 'I' for Inactive)
REMARK    1  A    between atoms: C_1  and  C_2 
REMARK    2  A    between atoms: C_2  and  C_4 
REMARK    3  A    between atoms: C_2  and  N_15 
REMARK    4  A    between atoms: C_4  and  C_5 
REMARK    5  A    between atoms: C_9  and  C_11 
REMARK    6  A    between atoms: N_15  and  C_16 
REMARK    7  A    between atoms: C_16  and  C_17 
REMARK    8  A    between atoms: C_17  and  O_18 
REMARK    9  A    between atoms: O_18  and  C_19 
REMARK   10  A    between atoms: C_19  and  C_21 
ROOT
ATOM      1  C   LIG d   1       4.544  -5.227  -5.707  0.00  0.00    -0.021 C 
ATOM      2  H   LIG d   1       4.208  -5.051  -4.686  0.00  0.00     0.085 H 
ENDROOT
BRANCH   1   3
ATOM      3  C   LIG d   1       4.739  -6.729  -5.927  0.00  0.00    -0.021 C 
ATOM      4  H   LIG d   1       5.108  -6.903  -6.938  0.00  0.00     0.028 H 
ATOM      5  H   LIG d   1       5.461  -7.112  -5.205  0.00  0.00     0.028 H 
ATOM      6  H   LIG d   1       3.786  -7.242  -5.796  0.00  0.00     0.028 H 
ENDBRANCH   1   3
BRANCH   1   7
ATOM      7  C   LIG d   1       5.871  -4.502  -5.940  0.00  0.00     0.015 C 
ATOM      8  H   LIG d   1       6.696  -5.200  -5.799  0.00  0.00     0.037 H 
ATOM      9  H   LIG d   1       5.897  -4.109  -6.957  0.00  0.00     0.037 H 
BRANCH   7  10
ATOM     10  C   LIG d   1       6.000  -3.365  -4.960  0.00  0.00    -0.042 A 
ATOM     11  C   LIG d   1       4.941  -3.044  -4.131  0.00  0.00    -0.047 A 
ATOM     12  C   LIG d   1       5.059  -2.004  -3.228  0.00  0.00     0.055 A 
ATOM     13  H   LIG d   1       4.021  -3.609  -4.187  0.00  0.00     0.063 H 
ATOM     14  C   LIG d   1       6.235  -1.279  -3.160  0.00  0.00    -0.050 A 
ATOM     15  C   LIG d   1       7.291  -1.597  -3.992  0.00  0.00    -0.061 A 
ATOM     16  H   LIG d   1       6.326  -0.465  -2.457  0.00  0.00     0.062 H 
ATOM     17  C   LIG d   1       7.174  -2.639  -4.891  0.00  0.00    -0.058 A 
ATOM     18  H   LIG d   1       8.209  -1.030  -3.939  0.00  0.00     0.062 H 
ATOM     19  H   LIG d   1       8.000  -2.887  -5.541  0.00  0.00     0.062 H 
BRANCH  12  20
ATOM     20  C   LIG d   1       3.907  -1.658  -2.320  0.00  0.00     0.417 C 
ATOM     21  F   LIG d   1       4.359  -0.829  -1.288  0.00  0.00    -0.166 F 
ATOM     22  F   LIG d   1       2.919  -0.993  -3.055  0.00  0.00    -0.166 F 
ATOM     23  F   LIG d   1       3.373  -2.832  -1.777  0.00  0.00    -0.166 F 
ENDBRANCH  12  20
ENDBRANCH   7  10
ENDBRANCH   1   7
BRANCH   1  24
ATOM     24  N   LIG d   1       3.537  -4.721  -6.649  0.00  0.00     0.232 N 
ATOM     25  H   LIG d   1       2.874  -5.452  -6.858  0.00  0.00     0.202 HD
ATOM     26  H   LIG d   1       3.055  -3.936  -6.237  0.00  0.00     0.202 HD
BRANCH  24  27
ATOM     27  C   LIG d   1       4.199  -4.292  -7.890  0.00  0.00     0.002 C 
ATOM     28  H   LIG d   1       5.280  -4.359  -7.766  0.00  0.00     0.085 H 
ATOM     29  H   LIG d   1       3.886  -4.938  -8.710  0.00  0.00     0.085 H 
BRANCH  27  30
ATOM     30  C   LIG d   1       3.810  -2.846  -8.201  0.00  0.00     0.132 C 
ATOM     31  H   LIG d   1       3.065  -2.507  -7.480  0.00  0.00     0.075 H 
ATOM     32  H   LIG d   1       4.693  -2.211  -8.139  0.00  0.00     0.075 H 
BRANCH  30  33
ATOM     33  O   LIG d   1       3.262  -2.773  -9.520  0.00  0.00    -0.456 OA
BRANCH  33  34
ATOM     34  C   LIG d   1       2.366  -1.797  -9.756  0.00  0.00     0.339 C 
ATOM     35  O   LIG d   1       1.204  -2.077  -9.974  0.00  0.00    -0.245 OA
BRANCH  34  36
ATOM     36  C   LIG d   1       2.795  -0.383  -9.752  0.00  0.00     0.059 A 
ATOM     37  C   LIG d   1       2.426   0.459  -8.702  0.00  0.00    -0.048 A 
ATOM     38  C   LIG d   1       2.836   1.777  -8.702  0.00  0.00    -0.061 A 
ATOM     39  H   LIG d   1       1.825   0.079  -7.888  0.00  0.00     0.063 H 
ATOM     40  C   LIG d   1       3.601   2.267  -9.746  0.00  0.00    -0.062 A 
ATOM     41  H   LIG d   1       2.556   2.428  -7.886  0.00  0.00     0.062 H 
ATOM     42  C   LIG d   1       3.965   1.438 -10.793  0.00  0.00    -0.061 A 
ATOM     43  H   LIG d   1       3.915   3.299  -9.743  0.00  0.00     0.062 H 
ATOM     44  C   LIG d   1       3.567   0.118 -10.802  0.00  0.00    -0.048 A 
ATOM     45  H   LIG d   1       4.563   1.827 -11.604  0.00  0.00     0.062 H 
ATOM     46  H   LIG d   1       3.853  -0.527 -11.620  0.00  0.00     0.063 H 
ENDBRANCH  34  36
ENDBRANCH  33  34
ENDBRANCH  30  33
ENDBRANCH  27  30
ENDBRANCH  24  27
ENDBRANCH   1  24
TORSDOF 10
ENDMDL
MODEL 8
REMARK VINA RESULT:      -6.3      3.013      4.947
REMARK  10 active torsions:
REMARK  status: ('A' for Active; 'I' for Inactive)
REMARK    1  A    between atoms: C_1  and  C_2 
REMARK    2  A    between atoms: C_2  and  C_4 
REMARK    3  A    between atoms: C_2  and  N_15 
REMARK    4  A    between atoms: C_4  and  C_5 
REMARK    5  A    between atoms: C_9  and  C_11 
REMARK    6  A    between atoms: N_15  and  C_16 
REMARK    7  A    between atoms: C_16  and  C_17 
REMARK    8  A    between atoms: C_17  and  O_18 
REMARK    9  A    between atoms: O_18  and  C_19 
REMARK   10  A    between atoms: C_19  and  C_21 
ROOT
ATOM      1  C   LIG d   1       5.050   0.173  -2.735  0.00  0.00    -0.021 C 
ATOM      2  H   LIG d   1       6.137   0.219  -2.794  0.00  0.00     0.085 H 
ENDROOT
BRANCH   1   3
ATOM      3  C   LIG d   1       4.564   1.038  -1.570  0.00  0.00    -0.021 C 
ATOM      4  H   LIG d   1       3.801   1.730  -1.925  0.00  0.00     0.028 H 
ATOM      5  H   LIG d   1       4.144   0.399  -0.794  0.00  0.00     0.028 H 
ATOM      6  H   LIG d   1       5.404   1.601  -1.162  0.00  0.00     0.028 H 
ENDBRANCH   1   3
BRANCH   1   7
ATOM      7  C   LIG d   1       4.613  -1.276  -2.511  0.00  0.00     0.015 C 
ATOM      8  H   LIG d   1       4.776  -1.548  -1.468  0.00  0.00     0.037 H 
ATOM      9  H   LIG d   1       3.554  -1.378  -2.752  0.00  0.00     0.037 H 
BRANCH   7  10
ATOM     10  C   LIG d   1       5.419  -2.187  -3.400  0.00  0.00    -0.042 A 
ATOM     11  C   LIG d   1       4.783  -3.142  -4.171  0.00  0.00    -0.047 A 
ATOM     12  C   LIG d   1       5.521  -3.975  -4.991  0.00  0.00     0.055 A 
ATOM     13  H   LIG d   1       3.707  -3.234  -4.135  0.00  0.00     0.063 H 
ATOM     14  C   LIG d   1       6.898  -3.858  -5.032  0.00  0.00    -0.050 A 
ATOM     15  C   LIG d   1       7.535  -2.908  -4.258  0.00  0.00    -0.061 A 
ATOM     16  H   LIG d   1       7.476  -4.511  -5.670  0.00  0.00     0.062 H 
ATOM     17  C   LIG d   1       6.797  -2.072  -3.442  0.00  0.00    -0.058 A 
ATOM     18  H   LIG d   1       8.611  -2.817  -4.290  0.00  0.00     0.062 H 
ATOM     19  H   LIG d   1       7.295  -1.328  -2.837  0.00  0.00     0.062 H 
BRANCH  12  20
ATOM     20  C   LIG d   1       4.826  -5.012  -5.835  0.00  0.00     0.417 C 
ATOM     21  F   LIG d   1       4.437  -6.086  -5.028  0.00  0.00    -0.166 F 
ATOM     22  F   LIG d   1       3.697  -4.444  -6.435  0.00  0.00    -0.166 F 
ATOM     23  F   LIG d   1       5.702  -5.467  -6.828  0.00  0.00    -0.166 F 
ENDBRANCH  12  20
ENDBRANCH   7  10
ENDBRANCH   1   7
BRANCH   1  24
ATOM     24  N   LIG d   1       4.470   0.671  -3.990  0.00  0.00     0.232 N 
ATOM     25  H   LIG d   1       4.753   1.628  -4.134  0.00  0.00     0.202 HD
ATOM     26  H   LIG d   1       4.796   0.104  -4.759  0.00  0.00     0.202 HD
BRANCH  24  27
ATOM     27  C   LIG d   1       3.004   0.598  -3.915  0.00  0.00     0.002 C 
ATOM     28  H   LIG d   1       2.715  -0.257  -3.304  0.00  0.00     0.085 H 
ATOM     29  H   LIG d   1       2.618   1.513  -3.466  0.00  0.00     0.085 H 
BRANCH  27  30
ATOM     30  C   LIG d   1       2.429   0.438  -5.323  0.00  0.00     0.132 C 
ATOM     31  H   LIG d   1       1.886  -0.505  -5.388  0.00  0.00     0.075 H 
ATOM     32  H   LIG d   1       1.751   1.264  -5.534  0.00  0.00     0.075 H 
BRANCH  30  33
ATOM     33  O   LIG d   1       3.495   0.440  -6.276  0.00  0.00    -0.456 OA
BRANCH  33  34
ATOM     34  C   LIG d   1       3.165   0.674  -7.561  0.00  0.00     0.339 C 
ATOM     35  O   LIG d   1       3.158   1.811  -7.990  0.00  0.00    -0.245 OA
BRANCH  34  36
ATOM     36  C   LIG d   1       2.811  -0.452  -8.449  0.00  0.00     0.059 A 
ATOM     37  C   LIG d   1       1.803  -0.303  -9.404  0.00  0.00    -0.048 A 
ATOM     38  C   LIG d   1       1.482  -1.357 -10.234  0.00  0.00    -0.061 A 
ATOM     39  H   LIG d   1       1.279   0.638  -9.495  0.00  0.00     0.063 H 
ATOM     40  C   LIG d   1       2.148  -2.564 -10.115  0.00  0.00    -0.062 A 
ATOM     41  H   LIG d   1       0.706  -1.240 -10.977  0.00  0.00     0.062 H 
ATOM     42  C   LIG d   1       3.144  -2.720  -9.166  0.00  0.00    -0.061 A 
ATOM     43  H   LIG d   1       1.890  -3.386 -10.764  0.00  0.00     0.062 H 
ATOM     44  C   LIG d   1       3.479  -1.672  -8.334  0.00  0.00    -0.048 A 
ATOM     45  H   LIG d   1       3.661  -3.665  -9.079  0.00  0.00     0.062 H 
ATOM     46  H   LIG d   1       4.257  -1.796  -7.595  0.00  0.00     0.063 H 
ENDBRANCH  34  36
ENDBRANCH  33  34
ENDBRANCH  30  33
ENDBRANCH  27  30
ENDBRANCH  24  27
ENDBRANCH   1  24
TORSDOF 10
ENDMDL
MODEL 9
REMARK VINA RESULT:      -6.2      2.819      3.640
REMARK  10 active torsions:
REMARK  status: ('A' for Active; 'I' for Inactive)
REMARK    1  A    between atoms: C_1  and  C_2 
REMARK    2  A    between atoms: C_2  and  C_4 
REMARK    3  A    between atoms: C_2  and  N_15 
REMARK    4  A    between atoms: C_4  and  C_5 
REMARK    5  A    between atoms: C_9  and  C_11 
REMARK    6  A    between atoms: N_15  and  C_16 
REMARK    7  A    between atoms: C_16  and  C_17 
REMARK    8  A    between atoms: C_17  and  O_18 
REMARK    9  A    between atoms: O_18  and  C_19 
REMARK   10  A    between atoms: C_19  and  C_21 
ROOT
ATOM      1  C   LIG d   1       7.417  -3.472  -4.889  0.00  0.00    -0.021 C 
ATOM      2  H   LIG d   1       6.410  -3.878  -4.802  0.00  0.00     0.085 H 
ENDROOT
BRANCH   1   3
ATOM      3  C   LIG d   1       8.431  -4.522  -4.432  0.00  0.00    -0.021 C 
ATOM      4  H   LIG d   1       8.445  -4.564  -3.343  0.00  0.00     0.028 H 
ATOM      5  H   LIG d   1       8.149  -5.497  -4.830  0.00  0.00     0.028 H 
ATOM      6  H   LIG d   1       9.422  -4.253  -4.798  0.00  0.00     0.028 H 
ENDBRANCH   1   3
BRANCH   1   7
ATOM      7  C   LIG d   1       7.542  -2.226  -4.009  0.00  0.00     0.015 C 
ATOM      8  H   LIG d   1       8.224  -2.431  -3.184  0.00  0.00     0.037 H 
ATOM      9  H   LIG d   1       7.928  -1.398  -4.604  0.00  0.00     0.037 H 
BRANCH   7  10
ATOM     10  C   LIG d   1       6.186  -1.861  -3.462  0.00  0.00    -0.042 A 
ATOM     11  C   LIG d   1       5.935  -0.567  -3.045  0.00  0.00    -0.047 A 
ATOM     12  C   LIG d   1       4.691  -0.229  -2.547  0.00  0.00     0.055 A 
ATOM     13  H   LIG d   1       6.712   0.181  -3.111  0.00  0.00     0.063 H 
ATOM     14  C   LIG d   1       3.699  -1.188  -2.458  0.00  0.00    -0.050 A 
ATOM     15  C   LIG d   1       3.951  -2.483  -2.870  0.00  0.00    -0.061 A 
ATOM     16  H   LIG d   1       2.728  -0.925  -2.066  0.00  0.00     0.062 H 
ATOM     17  C   LIG d   1       5.194  -2.819  -3.372  0.00  0.00    -0.058 A 
ATOM     18  H   LIG d   1       3.177  -3.232  -2.800  0.00  0.00     0.062 H 
ATOM     19  H   LIG d   1       5.391  -3.831  -3.694  0.00  0.00     0.062 H 
BRANCH  12  20
ATOM     20  C   LIG d   1       4.416   1.183  -2.097  0.00  0.00     0.417 C 
ATOM     21  F   LIG d   1       5.122   2.077  -2.909  0.00  0.00    -0.166 F 
ATOM     22  F   LIG d   1       3.045   1.445  -2.195  0.00  0.00    -0.166 F 
ATOM     23  F   LIG d   1       4.826   1.337  -0.768  0.00  0.00    -0.166 F 
ENDBRANCH  12  20
ENDBRANCH   7  10
ENDBRANCH   1   7
BRANCH   1  24
ATOM     24  N   LIG d   1       7.681  -3.111  -6.288  0.00  0.00     0.232 N 
ATOM     25  H   LIG d   1       7.605  -2.111  -6.398  0.00  0.00     0.202 HD
ATOM     26  H   LIG d   1       8.611  -3.408  -6.543  0.00  0.00     0.202 HD
BRANCH  24  27
ATOM     27  C   LIG d   1       6.700  -3.775  -7.158  0.00  0.00     0.002 C 
ATOM     28  H   LIG d   1       7.053  -3.749  -8.189  0.00  0.00     0.085 H 
ATOM     29  H   LIG d   1       6.575  -4.810  -6.842  0.00  0.00     0.085 H 
BRANCH  27  30
ATOM     30  C   LIG d   1       5.358  -3.047  -7.060  0.00  0.00     0.132 C 
ATOM     31  H   LIG d   1       4.613  -3.577  -7.655  0.00  0.00     0.075 H 
ATOM     32  H   LIG d   1       5.037  -3.015  -6.020  0.00  0.00     0.075 H 
BRANCH  30  33
ATOM     33  O   LIG d   1       5.501  -1.714  -7.556  0.00  0.00    -0.456 OA
BRANCH  33  34
ATOM     34  C   LIG d   1       4.617  -0.799  -7.114  0.00  0.00     0.339 C 
ATOM     35  O   LIG d   1       4.035  -0.974  -6.062  0.00  0.00    -0.245 OA
BRANCH  34  36
ATOM     36  C   LIG d   1       4.355   0.419  -7.909  0.00  0.00     0.059 A 
ATOM     37  C   LIG d   1       3.047   0.876  -8.080  0.00  0.00    -0.048 A 
ATOM     38  C   LIG d   1       2.810   2.017  -8.818  0.00  0.00    -0.061 A 
ATOM     39  H   LIG d   1       2.223   0.340  -7.631  0.00  0.00     0.063 H 
ATOM     40  C   LIG d   1       3.863   2.701  -9.398  0.00  0.00    -0.062 A 
ATOM     41  H   LIG d   1       1.798   2.375  -8.946  0.00  0.00     0.062 H 
ATOM     42  C   LIG d   1       5.162   2.250  -9.237  0.00  0.00    -0.061 A 
ATOM     43  H   LIG d   1       3.671   3.591  -9.978  0.00  0.00     0.062 H 
ATOM     44  C   LIG d   1       5.413   1.114  -8.496  0.00  0.00    -0.048 A 
ATOM     45  H   LIG d   1       5.979   2.789  -9.692  0.00  0.00     0.062 H 
ATOM     46  H   LIG d   1       6.427   0.764  -8.371  0.00  0.00     0.063 H 
ENDBRANCH  34  36
ENDBRANCH  33  34
ENDBRANCH  30  33
ENDBRANCH  27  30
ENDBRANCH  24  27
ENDBRANCH   1  24
TORSDOF 10
ENDMDL
MODEL 10
REMARK VINA RESULT:      -6.1      3.306      5.170
REMARK  10 active torsions:
REMARK  status: ('A' for Active; 'I' for Inactive)
REMARK    1  A    between atoms: C_1  and  C_2 
REMARK    2  A    between atoms: C_2  and  C_4 
REMARK    3  A    between atoms: C_2  and  N_15 
REMARK    4  A    between atoms: C_4  and  C_5 
REMARK    5  A    between atoms: C_9  and  C_11 
REMARK    6  A    between atoms: N_15  and  C_16 
REMARK    7  A    between atoms: C_16  and  C_17 
REMARK    8  A    between atoms: C_17  and  O_18 
REMARK    9  A    between atoms: O_18  and  C_19 
REMARK   10  A    between atoms: C_19  and  C_21 
ROOT
ATOM      1  C   LIG d   1       4.713   0.337  -2.919  0.00  0.00    -0.021 C 
ATOM      2  H   LIG d   1       5.737   0.331  -3.291  0.00  0.00     0.085 H 
ENDROOT
BRANCH   1   3
ATOM      3  C   LIG d   1       4.668   1.041  -1.561  0.00  0.00    -0.021 C 
ATOM      4  H   LIG d   1       4.606   0.296  -0.768  0.00  0.00     0.028 H 
ATOM      5  H   LIG d   1       5.571   1.638  -1.431  0.00  0.00     0.028 H 
ATOM      6  H   LIG d   1       3.794   1.691  -1.519  0.00  0.00     0.028 H 
ENDBRANCH   1   3
BRANCH   1   7
ATOM      7  C   LIG d   1       4.219  -1.102  -2.763  0.00  0.00     0.015 C 
ATOM      8  H   LIG d   1       4.165  -1.355  -1.704  0.00  0.00     0.037 H 
ATOM      9  H   LIG d   1       3.229  -1.198  -3.210  0.00  0.00     0.037 H 
BRANCH   7  10
ATOM     10  C   LIG d   1       5.175  -2.039  -3.455  0.00  0.00    -0.042 A 
ATOM     11  C   LIG d   1       4.695  -2.981  -4.347  0.00  0.00    -0.047 A 
ATOM     12  C   LIG d   1       5.571  -3.838  -4.986  0.00  0.00     0.055 A 
ATOM     13  H   LIG d   1       3.635  -3.045  -4.546  0.00  0.00     0.063 H 
ATOM     14  C   LIG d   1       6.927  -3.758  -4.728  0.00  0.00    -0.050 A 
ATOM     15  C   LIG d   1       7.406  -2.820  -3.833  0.00  0.00    -0.061 A 
ATOM     16  H   LIG d   1       7.612  -4.429  -5.225  0.00  0.00     0.062 H 
ATOM     17  C   LIG d   1       6.531  -1.961  -3.197  0.00  0.00    -0.058 A 
ATOM     18  H   LIG d   1       8.465  -2.758  -3.631  0.00  0.00     0.062 H 
ATOM     19  H   LIG d   1       6.905  -1.227  -2.498  0.00  0.00     0.062 H 
BRANCH  12  20
ATOM     20  C   LIG d   1       5.049  -4.861  -5.962  0.00  0.00     0.417 C 
ATOM     21  F   LIG d   1       4.710  -6.030  -5.274  0.00  0.00    -0.166 F 
ATOM     22  F   LIG d   1       3.916  -4.353  -6.608  0.00  0.00    -0.166 F 
ATOM     23  F   LIG d   1       6.038  -5.146  -6.911  0.00  0.00    -0.166 F 
ENDBRANCH  12  20
ENDBRANCH   7  10
ENDBRANCH   1   7
BRANCH   1  24
ATOM     24  N   LIG d   1       3.850   1.050  -3.871  0.00  0.00     0.232 N 
ATOM     25  H   LIG d   1       3.534   1.914  -3.456  0.00  0.00     0.202 HD
ATOM     26  H   LIG d   1       4.370   1.250  -4.712  0.00  0.00     0.202 HD
BRANCH  24  27
ATOM     27  C   LIG d   1       2.689   0.212  -4.201  0.00  0.00     0.002 C 
ATOM     28  H   LIG d   1       2.896  -0.821  -3.921  0.00  0.00     0.085 H 
ATOM     29  H   LIG d   1       1.816   0.569  -3.654  0.00  0.00     0.085 H 
BRANCH  27  30
ATOM     30  C   LIG d   1       2.415   0.290  -5.704  0.00  0.00     0.132 C 
ATOM     31  H   LIG d   1       1.962  -0.643  -6.039  0.00  0.00     0.075 H 
ATOM     32  H   LIG d   1       1.737   1.118  -5.908  0.00  0.00     0.075 H 
BRANCH  30  33
ATOM     33  O   LIG d   1       3.646   0.498  -6.402  0.00  0.00    -0.456 OA
BRANCH  33  34
ATOM     34  C   LIG d   1       4.108  -0.527  -7.144  0.00  0.00     0.339 C 
ATOM     35  O   LIG d   1       3.336  -1.207  -7.789  0.00  0.00    -0.245 OA
BRANCH  34  36
ATOM     36  C   LIG d   1       5.555  -0.824  -7.172  0.00  0.00     0.059 A 
ATOM     37  C   LIG d   1       6.439  -0.085  -6.383  0.00  0.00    -0.048 A 
ATOM     38  C   LIG d   1       7.788  -0.373  -6.410  0.00  0.00    -0.061 A 
ATOM     39  H   LIG d   1       6.066   0.706  -5.749  0.00  0.00     0.063 H 
ATOM     40  C   LIG d   1       8.267  -1.382  -7.226  0.00  0.00    -0.062 A 
ATOM     41  H   LIG d   1       8.472   0.195  -5.795  0.00  0.00     0.062 H 
ATOM     42  C   LIG d   1       7.397  -2.114  -8.015  0.00  0.00    -0.061 A 
ATOM     43  H   LIG d   1       9.324  -1.600  -7.247  0.00  0.00     0.062 H 
ATOM     44  C   LIG d   1       6.045  -1.841  -7.993  0.00  0.00    -0.048 A 
ATOM     45  H   LIG d   1       7.778  -2.902  -8.649  0.00  0.00     0.062 H 
ATOM     46  H   LIG d   1       5.368  -2.414  -8.608  0.00  0.00     0.063 H 
ENDBRANCH  34  36
ENDBRANCH  33  34
ENDBRANCH  30  33
ENDBRANCH  27  30
ENDBRANCH  24  27
ENDBRANCH   1  24
TORSDOF 10
ENDMDL
