MODEL 1
REMARK VINA RESULT:      -5.8      0.000      0.000
REMARK  9 active torsions:
REMARK  status: ('A' for Active; 'I' for Inactive)
REMARK    1  A    between atoms: C_1  and  C_2 
REMARK    2  A    between atoms: C_3  and  C_8 
REMARK    3  A    between atoms: C_4  and  C_7 
REMARK    4  A    between atoms: C_8  and  C_9 
REMARK    5  A    between atoms: C_9  and  C_10 
REMARK       I    between atoms: C_10  and  N_12 
REMARK    6  A    between atoms: N_12  and  C_13 
REMARK    7  A    between atoms: C_16  and  O_22 
REMARK    8  A    between atoms: O_22  and  C_23 
REMARK    9  A    between atoms: N_25  and  C_28 
ROOT
ATOM      1  C   LIG d   1       9.338   2.757  -5.073  0.00  0.00     0.083 A 
ATOM      2  C   LIG d   1       9.373   3.230  -6.381  0.00  0.00    -0.013 A 
ATOM      3  C   LIG d   1       9.769   4.526  -6.634  0.00  0.00     0.017 A 
ATOM      4  C   LIG d   1      10.137   5.355  -5.579  0.00  0.00     0.170 A 
ATOM      5  C   LIG d   1      10.105   4.888  -4.271  0.00  0.00     0.210 A 
ATOM      6  C   LIG d   1       9.702   3.582  -4.017  0.00  0.00     0.191 A 
ATOM      7  O   LIG d   1       9.754   3.364  -2.670  0.00  0.00    -0.451 OA
ATOM      8  C   LIG d   1      10.581   4.418  -2.141  0.00  0.00     0.234 C 
ATOM      9  O   LIG d   1      10.411   5.492  -3.085  0.00  0.00    -0.449 OA
ATOM     10  C   LIG d   1       9.814   5.085  -8.032  0.00  0.00     0.028 C 
ATOM     11  N   LIG d   1       9.805   4.001  -9.019  0.00  0.00    -0.301 N 
ATOM     12  C   LIG d   1       8.677   3.090  -8.765  0.00  0.00     0.003 C 
ATOM     13  C   LIG d   1       8.973   2.294  -7.494  0.00  0.00    -0.013 C 
ATOM     14  H   LIG d   1      10.232   4.688  -1.133  0.00  0.00     0.117 H 
ATOM     15  H   LIG d   1      11.624   4.073  -2.086  0.00  0.00     0.117 H 
ATOM     16  H   LIG d   1       8.936   5.728  -8.198  0.00  0.00     0.048 H 
ATOM     17  H   LIG d   1      10.731   5.679  -8.160  0.00  0.00     0.048 H 
ATOM     18  H   LIG d   1       7.755   3.676  -8.635  0.00  0.00     0.043 H 
ATOM     19  H   LIG d   1       8.560   2.406  -9.617  0.00  0.00     0.043 H 
ATOM     20  H   LIG d   1       9.793   1.588  -7.692  0.00  0.00     0.033 H 
ATOM     21  H   LIG d   1       8.073   1.737  -7.197  0.00  0.00     0.033 H 
ENDROOT
BRANCH   1  22
ATOM     22  N   LIG d   1       8.931   1.438  -4.819  0.00  0.00    -0.282 N 
ATOM     23  C   LIG d   1       7.701   1.195  -4.323  0.00  0.00     0.218 C 
ATOM     24  O   LIG d   1       6.915   2.107  -4.178  0.00  0.00    -0.276 OA
ATOM     25  H   LIG d   1       9.617   0.602  -5.024  0.00  0.00     0.155 HD
BRANCH  23  26
ATOM     26  C   LIG d   1       7.304  -0.209  -3.948  0.00  0.00     0.028 C 
ATOM     27  H   LIG d   1       7.155  -0.270  -2.860  0.00  0.00     0.036 H 
ATOM     28  H   LIG d   1       8.100  -0.908  -4.248  0.00  0.00     0.036 H 
BRANCH  26  29
ATOM     29  C   LIG d   1       6.003  -0.579  -4.663  0.00  0.00    -0.014 C 
ATOM     30  H   LIG d   1       6.232  -1.200  -5.543  0.00  0.00     0.032 H 
ATOM     31  H   LIG d   1       5.489   0.337  -4.986  0.00  0.00     0.032 H 
BRANCH  29  32
ATOM     32  C   LIG d   1       5.115  -1.351  -3.723  0.00  0.00     0.018 A 
ATOM     33  C   LIG d   1       4.493  -0.891  -2.538  0.00  0.00     0.084 A 
ATOM     34  N   LIG d   1       3.826  -1.899  -2.058  0.00  0.00    -0.083 NA
ATOM     35  O   LIG d   1       3.941  -2.882  -2.753  0.00  0.00    -0.359 OA
ATOM     36  C   LIG d   1       4.721  -2.643  -3.817  0.00  0.00     0.138 A 
BRANCH  33  37
ATOM     37  C   LIG d   1       4.587   0.493  -1.949  0.00  0.00    -0.019 C 
ATOM     38  H   LIG d   1       3.680   1.062  -2.203  0.00  0.00     0.029 H 
ATOM     39  H   LIG d   1       5.468   1.007  -2.359  0.00  0.00     0.029 H 
ATOM     40  H   LIG d   1       4.681   0.420  -0.856  0.00  0.00     0.029 H 
ENDBRANCH  33  37
BRANCH  36  41
ATOM     41  C   LIG d   1       5.088  -3.620  -4.904  0.00  0.00    -0.003 C 
ATOM     42  H   LIG d   1       6.105  -3.402  -5.263  0.00  0.00     0.031 H 
ATOM     43  H   LIG d   1       4.377  -3.527  -5.738  0.00  0.00     0.031 H 
ATOM     44  H   LIG d   1       5.053  -4.644  -4.504  0.00  0.00     0.031 H 
ENDBRANCH  36  41
ENDBRANCH  29  32
ENDBRANCH  26  29
ENDBRANCH  23  26
ENDBRANCH   1  22
BRANCH   4  45
ATOM     45  O   LIG d   1      10.529   6.633  -5.830  0.00  0.00    -0.491 OA
BRANCH  45  46
ATOM     46  C   LIG d   1       9.570   7.666  -5.593  0.00  0.00     0.079 C 
ATOM     47  H   LIG d   1       8.868   7.715  -6.438  0.00  0.00     0.066 H 
ATOM     48  H   LIG d   1      10.089   8.630  -5.489  0.00  0.00     0.066 H 
ATOM     49  H   LIG d   1       9.016   7.447  -4.669  0.00  0.00     0.066 H 
ENDBRANCH  45  46
ENDBRANCH   4  45
BRANCH  11  50
ATOM     50  C   LIG d   1       9.753   4.534 -10.386  0.00  0.00    -0.012 C 
ATOM     51  H   LIG d   1      10.383   3.918 -11.045  0.00  0.00     0.039 H 
ATOM     52  H   LIG d   1      10.122   5.570 -10.390  0.00  0.00     0.039 H 
ATOM     53  H   LIG d   1       8.715   4.514 -10.749  0.00  0.00     0.039 H 
ENDBRANCH  11  50
TORSDOF 9
ENDMDL
MODEL 2
REMARK VINA RESULT:      -5.8      6.158      9.152
REMARK  9 active torsions:
REMARK  status: ('A' for Active; 'I' for Inactive)
REMARK    1  A    between atoms: C_1  and  C_2 
REMARK    2  A    between atoms: C_3  and  C_8 
REMARK    3  A    between atoms: C_4  and  C_7 
REMARK    4  A    between atoms: C_8  and  C_9 
REMARK    5  A    between atoms: C_9  and  C_10 
REMARK       I    between atoms: C_10  and  N_12 
REMARK    6  A    between atoms: N_12  and  C_13 
REMARK    7  A    between atoms: C_16  and  O_22 
REMARK    8  A    between atoms: O_22  and  C_23 
REMARK    9  A    between atoms: N_25  and  C_28 
ROOT
ATOM      1  C   LIG d   1       9.964   8.258  -1.356  0.00  0.00     0.083 A 
ATOM      2  C   LIG d   1      10.183   9.632  -1.340  0.00  0.00    -0.013 A 
ATOM      3  C   LIG d   1      10.805  10.218  -0.259  0.00  0.00     0.017 A 
ATOM      4  C   LIG d   1      11.218   9.431   0.812  0.00  0.00     0.170 A 
ATOM      5  C   LIG d   1      11.005   8.059   0.801  0.00  0.00     0.210 A 
ATOM      6  C   LIG d   1      10.374   7.469  -0.288  0.00  0.00     0.191 A 
ATOM      7  O   LIG d   1      10.281   6.125  -0.063  0.00  0.00    -0.451 OA
ATOM      8  C   LIG d   1      11.225   5.845   0.988  0.00  0.00     0.234 C 
ATOM      9  O   LIG d   1      11.310   7.087   1.711  0.00  0.00    -0.449 OA
ATOM     10  C   LIG d   1      11.054  11.702  -0.193  0.00  0.00     0.028 C 
ATOM     11  N   LIG d   1      10.946  12.300  -1.528  0.00  0.00    -0.301 N 
ATOM     12  C   LIG d   1       9.667  11.926  -2.152  0.00  0.00     0.003 C 
ATOM     13  C   LIG d   1       9.725  10.445  -2.525  0.00  0.00    -0.013 C 
ATOM     14  H   LIG d   1      10.845   5.023   1.613  0.00  0.00     0.117 H 
ATOM     15  H   LIG d   1      12.188   5.553   0.546  0.00  0.00     0.117 H 
ATOM     16  H   LIG d   1      10.310  12.170   0.469  0.00  0.00     0.048 H 
ATOM     17  H   LIG d   1      12.063  11.888   0.202  0.00  0.00     0.048 H 
ATOM     18  H   LIG d   1       8.847  12.102  -1.441  0.00  0.00     0.043 H 
ATOM     19  H   LIG d   1       9.507  12.534  -3.054  0.00  0.00     0.043 H 
ATOM     20  H   LIG d   1      10.430  10.308  -3.358  0.00  0.00     0.033 H 
ATOM     21  H   LIG d   1       8.724  10.109  -2.834  0.00  0.00     0.033 H 
ENDROOT
BRANCH   1  22
ATOM     22  N   LIG d   1       9.327   7.665  -2.457  0.00  0.00    -0.282 N 
ATOM     23  C   LIG d   1      10.062   7.118  -3.446  0.00  0.00     0.218 C 
ATOM     24  O   LIG d   1      11.269   7.061  -3.345  0.00  0.00    -0.276 OA
ATOM     25  H   LIG d   1       8.228   7.646  -2.512  0.00  0.00     0.155 HD
BRANCH  23  26
ATOM     26  C   LIG d   1       9.383   6.579  -4.679  0.00  0.00     0.028 C 
ATOM     27  H   LIG d   1       8.526   7.219  -4.936  0.00  0.00     0.036 H 
ATOM     28  H   LIG d   1       9.028   5.556  -4.484  0.00  0.00     0.036 H 
BRANCH  26  29
ATOM     29  C   LIG d   1      10.376   6.563  -5.843  0.00  0.00    -0.014 C 
ATOM     30  H   LIG d   1      10.616   5.522  -6.105  0.00  0.00     0.032 H 
ATOM     31  H   LIG d   1      11.296   7.088  -5.547  0.00  0.00     0.032 H 
BRANCH  29  32
ATOM     32  C   LIG d   1       9.764   7.253  -7.034  0.00  0.00     0.018 A 
ATOM     33  C   LIG d   1       9.431   8.620  -7.172  0.00  0.00     0.084 A 
ATOM     34  N   LIG d   1       8.931   8.759  -8.365  0.00  0.00    -0.083 NA
ATOM     35  O   LIG d   1       8.909   7.708  -8.964  0.00  0.00    -0.359 OA
ATOM     36  C   LIG d   1       9.410   6.709  -8.223  0.00  0.00     0.138 A 
BRANCH  33  37
ATOM     37  C   LIG d   1       9.618   9.703  -6.141  0.00  0.00    -0.019 C 
ATOM     38  H   LIG d   1       8.788  10.422  -6.208  0.00  0.00     0.029 H 
ATOM     39  H   LIG d   1      10.570  10.223  -6.324  0.00  0.00     0.029 H 
ATOM     40  H   LIG d   1       9.633   9.254  -5.137  0.00  0.00     0.029 H 
ENDBRANCH  33  37
BRANCH  36  41
ATOM     41  C   LIG d   1       9.551   5.265  -8.631  0.00  0.00    -0.003 C 
ATOM     42  H   LIG d   1       8.651   4.710  -8.327  0.00  0.00     0.031 H 
ATOM     43  H   LIG d   1      10.434   4.829  -8.142  0.00  0.00     0.031 H 
ATOM     44  H   LIG d   1       9.668   5.203  -9.723  0.00  0.00     0.031 H 
ENDBRANCH  36  41
ENDBRANCH  29  32
ENDBRANCH  26  29
ENDBRANCH  23  26
ENDBRANCH   1  22
BRANCH   4  45
ATOM     45  O   LIG d   1      11.834  10.010   1.877  0.00  0.00    -0.491 OA
BRANCH  45  46
ATOM     46  C   LIG d   1      13.258   9.909   1.938  0.00  0.00     0.079 C 
ATOM     47  H   LIG d   1      13.633  10.501   2.786  0.00  0.00     0.066 H 
ATOM     48  H   LIG d   1      13.694  10.291   1.002  0.00  0.00     0.066 H 
ATOM     49  H   LIG d   1      13.545   8.856   2.071  0.00  0.00     0.066 H 
ENDBRANCH  45  46
ENDBRANCH   4  45
BRANCH  11  50
ATOM     50  C   LIG d   1      11.093  13.760  -1.464  0.00  0.00    -0.012 C 
ATOM     51  H   LIG d   1      12.159  14.025  -1.527  0.00  0.00     0.039 H 
ATOM     52  H   LIG d   1      10.679  14.129  -0.514  0.00  0.00     0.039 H 
ATOM     53  H   LIG d   1      10.550  14.221  -2.303  0.00  0.00     0.039 H 
ENDBRANCH  11  50
TORSDOF 9
ENDMDL
MODEL 3
REMARK VINA RESULT:      -5.8      2.741      4.122
REMARK  9 active torsions:
REMARK  status: ('A' for Active; 'I' for Inactive)
REMARK    1  A    between atoms: C_1  and  C_2 
REMARK    2  A    between atoms: C_3  and  C_8 
REMARK    3  A    between atoms: C_4  and  C_7 
REMARK    4  A    between atoms: C_8  and  C_9 
REMARK    5  A    between atoms: C_9  and  C_10 
REMARK       I    between atoms: C_10  and  N_12 
REMARK    6  A    between atoms: N_12  and  C_13 
REMARK    7  A    between atoms: C_16  and  O_22 
REMARK    8  A    between atoms: O_22  and  C_23 
REMARK    9  A    between atoms: N_25  and  C_28 
ROOT
ATOM      1  C   LIG d   1       8.104   1.782  -5.266  0.00  0.00     0.083 A 
ATOM      2  C   LIG d   1       9.270   2.415  -4.845  0.00  0.00    -0.013 A 
ATOM      3  C   LIG d   1      10.135   2.952  -5.773  0.00  0.00     0.017 A 
ATOM      4  C   LIG d   1       9.836   2.865  -7.130  0.00  0.00     0.170 A 
ATOM      5  C   LIG d   1       8.674   2.236  -7.556  0.00  0.00     0.210 A 
ATOM      6  C   LIG d   1       7.804   1.690  -6.619  0.00  0.00     0.191 A 
ATOM      7  O   LIG d   1       6.746   1.133  -7.279  0.00  0.00    -0.451 OA
ATOM      8  C   LIG d   1       6.775   1.701  -8.602  0.00  0.00     0.234 C 
ATOM      9  O   LIG d   1       8.164   2.023  -8.804  0.00  0.00    -0.449 OA
ATOM     10  C   LIG d   1      11.413   3.638  -5.366  0.00  0.00     0.028 C 
ATOM     11  N   LIG d   1      11.368   4.004  -3.946  0.00  0.00    -0.301 N 
ATOM     12  C   LIG d   1      11.021   2.830  -3.129  0.00  0.00     0.003 C 
ATOM     13  C   LIG d   1       9.549   2.493  -3.365  0.00  0.00    -0.013 C 
ATOM     14  H   LIG d   1       6.408   0.960  -9.328  0.00  0.00     0.117 H 
ATOM     15  H   LIG d   1       6.132   2.592  -8.633  0.00  0.00     0.117 H 
ATOM     16  H   LIG d   1      12.263   2.960  -5.534  0.00  0.00     0.048 H 
ATOM     17  H   LIG d   1      11.548   4.550  -5.966  0.00  0.00     0.048 H 
ATOM     18  H   LIG d   1      11.653   1.979  -3.422  0.00  0.00     0.043 H 
ATOM     19  H   LIG d   1      11.187   3.062  -2.067  0.00  0.00     0.043 H 
ATOM     20  H   LIG d   1       8.921   3.276  -2.914  0.00  0.00     0.033 H 
ATOM     21  H   LIG d   1       9.320   1.525  -2.898  0.00  0.00     0.033 H 
ENDROOT
BRANCH   1  22
ATOM     22  N   LIG d   1       7.227   1.232  -4.318  0.00  0.00    -0.282 N 
ATOM     23  C   LIG d   1       7.232  -0.095  -4.085  0.00  0.00     0.218 C 
ATOM     24  O   LIG d   1       8.053  -0.804  -4.629  0.00  0.00    -0.276 OA
ATOM     25  H   LIG d   1       6.535   1.886  -3.766  0.00  0.00     0.155 HD
BRANCH  23  26
ATOM     26  C   LIG d   1       6.218  -0.700  -3.149  0.00  0.00     0.028 C 
ATOM     27  H   LIG d   1       5.742   0.098  -2.559  0.00  0.00     0.036 H 
ATOM     28  H   LIG d   1       6.720  -1.405  -2.470  0.00  0.00     0.036 H 
BRANCH  26  29
ATOM     29  C   LIG d   1       5.153  -1.440  -3.960  0.00  0.00    -0.014 C 
ATOM     30  H   LIG d   1       4.612  -2.138  -3.303  0.00  0.00     0.032 H 
ATOM     31  H   LIG d   1       5.636  -2.002  -4.772  0.00  0.00     0.032 H 
BRANCH  29  32
ATOM     32  C   LIG d   1       4.183  -0.445  -4.542  0.00  0.00     0.018 A 
ATOM     33  C   LIG d   1       3.480   0.581  -3.870  0.00  0.00     0.084 A 
ATOM     34  N   LIG d   1       2.763   1.187  -4.770  0.00  0.00    -0.083 NA
ATOM     35  O   LIG d   1       2.918   0.698  -5.866  0.00  0.00    -0.359 OA
ATOM     36  C   LIG d   1       3.787  -0.322  -5.832  0.00  0.00     0.138 A 
BRANCH  33  37
ATOM     37  C   LIG d   1       3.549   0.909  -2.400  0.00  0.00    -0.019 C 
ATOM     38  H   LIG d   1       4.142   0.142  -1.880  0.00  0.00     0.029 H 
ATOM     39  H   LIG d   1       2.532   0.932  -1.982  0.00  0.00     0.029 H 
ATOM     40  H   LIG d   1       4.023   1.892  -2.266  0.00  0.00     0.029 H 
ENDBRANCH  33  37
BRANCH  36  41
ATOM     41  C   LIG d   1       4.233  -1.167  -6.996  0.00  0.00    -0.003 C 
ATOM     42  H   LIG d   1       3.647  -0.900  -7.888  0.00  0.00     0.031 H 
ATOM     43  H   LIG d   1       4.076  -2.230  -6.760  0.00  0.00     0.031 H 
ATOM     44  H   LIG d   1       5.300  -0.988  -7.192  0.00  0.00     0.031 H 
ENDBRANCH  36  41
ENDBRANCH  29  32
ENDBRANCH  26  29
ENDBRANCH  23  26
ENDBRANCH   1  22
BRANCH   4  45
ATOM     45  O   LIG d   1      10.690   3.398  -8.044  0.00  0.00    -0.491 OA
BRANCH  45  46
ATOM     46  C   LIG d   1      10.314   4.643  -8.636  0.00  0.00     0.079 C 
ATOM     47  H   LIG d   1      11.217   5.198  -8.929  0.00  0.00     0.066 H 
ATOM     48  H   LIG d   1       9.738   5.235  -7.909  0.00  0.00     0.066 H 
ATOM     49  H   LIG d   1       9.695   4.454  -9.525  0.00  0.00     0.066 H 
ENDBRANCH  45  46
ENDBRANCH   4  45
BRANCH  11  50
ATOM     50  C   LIG d   1      12.645   4.588  -3.513  0.00  0.00    -0.012 C 
ATOM     51  H   LIG d   1      12.501   5.655  -3.285  0.00  0.00     0.039 H 
ATOM     52  H   LIG d   1      13.388   4.482  -4.317  0.00  0.00     0.039 H 
ATOM     53  H   LIG d   1      13.001   4.065  -2.613  0.00  0.00     0.039 H 
ENDBRANCH  11  50
TORSDOF 9
ENDMDL
MODEL 4
REMARK VINA RESULT:      -5.8      4.550      9.500
REMARK  9 active torsions:
REMARK  status: ('A' for Active; 'I' for Inactive)
REMARK    1  A    between atoms: C_1  and  C_2 
REMARK    2  A    between atoms: C_3  and  C_8 
REMARK    3  A    between atoms: C_4  and  C_7 
REMARK    4  A    between atoms: C_8  and  C_9 
REMARK    5  A    between atoms: C_9  and  C_10 
REMARK       I    between atoms: C_10  and  N_12 
REMARK    6  A    between atoms: N_12  and  C_13 
REMARK    7  A    between atoms: C_16  and  O_22 
REMARK    8  A    between atoms: O_22  and  C_23 
REMARK    9  A    between atoms: N_25  and  C_28 
ROOT
ATOM      1  C   LIG d   1       4.187  -4.754  -6.748  0.00  0.00     0.083 A 
ATOM      2  C   LIG d   1       4.089  -4.349  -8.075  0.00  0.00    -0.013 A 
ATOM      3  C   LIG d   1       4.366  -5.241  -9.089  0.00  0.00     0.017 A 
ATOM      4  C   LIG d   1       4.737  -6.546  -8.781  0.00  0.00     0.170 A 
ATOM      5  C   LIG d   1       4.835  -6.956  -7.458  0.00  0.00     0.210 A 
ATOM      6  C   LIG d   1       4.559  -6.056  -6.436  0.00  0.00     0.191 A 
ATOM      7  O   LIG d   1       4.724  -6.691  -5.238  0.00  0.00    -0.451 OA
ATOM      8  C   LIG d   1       4.706  -8.098  -5.543  0.00  0.00     0.234 C 
ATOM      9  O   LIG d   1       5.172  -8.158  -6.904  0.00  0.00    -0.449 OA
ATOM     10  C   LIG d   1       4.283  -4.845 -10.540  0.00  0.00     0.028 C 
ATOM     11  N   LIG d   1       3.501  -3.614 -10.693  0.00  0.00    -0.301 N 
ATOM     12  C   LIG d   1       4.028  -2.564  -9.806  0.00  0.00     0.003 C 
ATOM     13  C   LIG d   1       3.677  -2.927  -8.363  0.00  0.00    -0.013 C 
ATOM     14  H   LIG d   1       5.372  -8.633  -4.849  0.00  0.00     0.117 H 
ATOM     15  H   LIG d   1       3.682  -8.483  -5.436  0.00  0.00     0.117 H 
ATOM     16  H   LIG d   1       5.298  -4.676 -10.933  0.00  0.00     0.048 H 
ATOM     17  H   LIG d   1       3.799  -5.650 -11.113  0.00  0.00     0.048 H 
ATOM     18  H   LIG d   1       5.119  -2.498  -9.922  0.00  0.00     0.043 H 
ATOM     19  H   LIG d   1       3.571  -1.599 -10.071  0.00  0.00     0.043 H 
ATOM     20  H   LIG d   1       2.592  -2.824  -8.217  0.00  0.00     0.033 H 
ATOM     21  H   LIG d   1       4.206  -2.247  -7.680  0.00  0.00     0.033 H 
ENDROOT
BRANCH   1  22
ATOM     22  N   LIG d   1       3.908  -3.843  -5.718  0.00  0.00    -0.282 N 
ATOM     23  C   LIG d   1       4.919  -3.242  -5.057  0.00  0.00     0.218 C 
ATOM     24  O   LIG d   1       6.065  -3.422  -5.409  0.00  0.00    -0.276 OA
ATOM     25  H   LIG d   1       2.865  -3.619  -5.449  0.00  0.00     0.155 HD
BRANCH  23  26
ATOM     26  C   LIG d   1       4.623  -2.348  -3.881  0.00  0.00     0.028 C 
ATOM     27  H   LIG d   1       3.985  -2.884  -3.163  0.00  0.00     0.036 H 
ATOM     28  H   LIG d   1       4.101  -1.444  -4.230  0.00  0.00     0.036 H 
BRANCH  26  29
ATOM     29  C   LIG d   1       5.934  -1.950  -3.200  0.00  0.00    -0.014 C 
ATOM     30  H   LIG d   1       6.765  -2.518  -3.646  0.00  0.00     0.032 H 
ATOM     31  H   LIG d   1       5.872  -2.174  -2.126  0.00  0.00     0.032 H 
BRANCH  29  32
ATOM     32  C   LIG d   1       6.174  -0.475  -3.394  0.00  0.00     0.018 A 
ATOM     33  C   LIG d   1       5.538   0.603  -2.737  0.00  0.00     0.084 A 
ATOM     34  N   LIG d   1       6.062   1.691  -3.222  0.00  0.00    -0.083 NA
ATOM     35  O   LIG d   1       6.904   1.445  -4.056  0.00  0.00    -0.359 OA
ATOM     36  C   LIG d   1       7.051   0.125  -4.234  0.00  0.00     0.138 A 
BRANCH  33  37
ATOM     37  C   LIG d   1       4.465   0.512  -1.683  0.00  0.00    -0.019 C 
ATOM     38  H   LIG d   1       3.841   1.417  -1.714  0.00  0.00     0.029 H 
ATOM     39  H   LIG d   1       4.932   0.422  -0.691  0.00  0.00     0.029 H 
ATOM     40  H   LIG d   1       3.838  -0.372  -1.874  0.00  0.00     0.029 H 
ENDBRANCH  33  37
BRANCH  36  41
ATOM     41  C   LIG d   1       8.003  -0.558  -5.181  0.00  0.00    -0.003 C 
ATOM     42  H   LIG d   1       7.729  -0.311  -6.217  0.00  0.00     0.031 H 
ATOM     43  H   LIG d   1       7.948  -1.647  -5.036  0.00  0.00     0.031 H 
ATOM     44  H   LIG d   1       9.029  -0.213  -4.982  0.00  0.00     0.031 H 
ENDBRANCH  36  41
ENDBRANCH  29  32
ENDBRANCH  26  29
ENDBRANCH  23  26
ENDBRANCH   1  22
BRANCH   4  45
ATOM     45  O   LIG d   1       5.007  -7.425  -9.782  0.00  0.00    -0.491 OA
BRANCH  45  46
ATOM     46  C   LIG d   1       6.383  -7.713 -10.041  0.00  0.00     0.079 C 
ATOM     47  H   LIG d   1       6.588  -7.589 -11.115  0.00  0.00     0.066 H 
ATOM     48  H   LIG d   1       6.603  -8.748  -9.742  0.00  0.00     0.066 H 
ATOM     49  H   LIG d   1       7.016  -7.023  -9.465  0.00  0.00     0.066 H 
ENDBRANCH  45  46
ENDBRANCH   4  45
BRANCH  11  50
ATOM     50  C   LIG d   1       3.493  -3.166 -12.092  0.00  0.00    -0.012 C 
ATOM     51  H   LIG d   1       3.716  -4.018 -12.751  0.00  0.00     0.039 H 
ATOM     52  H   LIG d   1       4.254  -2.385 -12.231  0.00  0.00     0.039 H 
ATOM     53  H   LIG d   1       2.501  -2.760 -12.341  0.00  0.00     0.039 H 
ENDBRANCH  11  50
TORSDOF 9
ENDMDL
MODEL 5
REMARK VINA RESULT:      -5.8      7.039      9.374
REMARK  9 active torsions:
REMARK  status: ('A' for Active; 'I' for Inactive)
REMARK    1  A    between atoms: C_1  and  C_2 
REMARK    2  A    between atoms: C_3  and  C_8 
REMARK    3  A    between atoms: C_4  and  C_7 
REMARK    4  A    between atoms: C_8  and  C_9 
REMARK    5  A    between atoms: C_9  and  C_10 
REMARK       I    between atoms: C_10  and  N_12 
REMARK    6  A    between atoms: N_12  and  C_13 
REMARK    7  A    between atoms: C_16  and  O_22 
REMARK    8  A    between atoms: O_22  and  C_23 
REMARK    9  A    between atoms: N_25  and  C_28 
ROOT
ATOM      1  C   LIG d   1       9.557   9.463  -5.284  0.00  0.00     0.083 A 
ATOM      2  C   LIG d   1       9.551  10.815  -4.954  0.00  0.00    -0.013 A 
ATOM      3  C   LIG d   1       9.754  11.763  -5.933  0.00  0.00     0.017 A 
ATOM      4  C   LIG d   1       9.958  11.364  -7.251  0.00  0.00     0.170 A 
ATOM      5  C   LIG d   1       9.964  10.017  -7.586  0.00  0.00     0.210 A 
ATOM      6  C   LIG d   1       9.763   9.061  -6.597  0.00  0.00     0.191 A 
ATOM      7  O   LIG d   1       9.813   7.822  -7.171  0.00  0.00    -0.451 OA
ATOM      8  C   LIG d   1       9.639   8.045  -8.583  0.00  0.00     0.234 C 
ATOM      9  O   LIG d   1      10.139   9.381  -8.782  0.00  0.00    -0.449 OA
ATOM     10  C   LIG d   1       9.765  13.237  -5.623  0.00  0.00     0.028 C 
ATOM     11  N   LIG d   1       9.139  13.492  -4.322  0.00  0.00    -0.301 N 
ATOM     12  C   LIG d   1       9.756  12.648  -3.286  0.00  0.00     0.003 C 
ATOM     13  C   LIG d   1       9.318  11.202  -3.515  0.00  0.00    -0.013 C 
ATOM     14  H   LIG d   1      10.214   7.295  -9.146  0.00  0.00     0.117 H 
ATOM     15  H   LIG d   1       8.573   7.956  -8.839  0.00  0.00     0.117 H 
ATOM     16  H   LIG d   1      10.805  13.598  -5.597  0.00  0.00     0.048 H 
ATOM     17  H   LIG d   1       9.209  13.780  -6.401  0.00  0.00     0.048 H 
ATOM     18  H   LIG d   1      10.850  12.725  -3.354  0.00  0.00     0.043 H 
ATOM     19  H   LIG d   1       9.425  12.987  -2.293  0.00  0.00     0.043 H 
ATOM     20  H   LIG d   1       8.248  11.105  -3.278  0.00  0.00     0.033 H 
ATOM     21  H   LIG d   1       9.900  10.539  -2.859  0.00  0.00     0.033 H 
ENDROOT
BRANCH   1  22
ATOM     22  N   LIG d   1       9.353   8.500  -4.283  0.00  0.00    -0.282 N 
ATOM     23  C   LIG d   1      10.410   7.957  -3.645  0.00  0.00     0.218 C 
ATOM     24  O   LIG d   1      11.530   8.363  -3.874  0.00  0.00    -0.276 OA
ATOM     25  H   LIG d   1       8.331   8.188  -4.020  0.00  0.00     0.155 HD
BRANCH  23  26
ATOM     26  C   LIG d   1      10.199   6.846  -2.649  0.00  0.00     0.028 C 
ATOM     27  H   LIG d   1      11.175   6.474  -2.303  0.00  0.00     0.036 H 
ATOM     28  H   LIG d   1       9.644   6.026  -3.127  0.00  0.00     0.036 H 
BRANCH  26  29
ATOM     29  C   LIG d   1       9.402   7.376  -1.456  0.00  0.00    -0.014 C 
ATOM     30  H   LIG d   1       8.714   6.595  -1.099  0.00  0.00     0.032 H 
ATOM     31  H   LIG d   1       8.825   8.260  -1.764  0.00  0.00     0.032 H 
BRANCH  29  32
ATOM     32  C   LIG d   1      10.349   7.754  -0.347  0.00  0.00     0.018 A 
ATOM     33  C   LIG d   1      11.244   6.915   0.357  0.00  0.00     0.084 A 
ATOM     34  N   LIG d   1      11.857   7.672   1.220  0.00  0.00    -0.083 NA
ATOM     35  O   LIG d   1      11.481   8.820   1.151  0.00  0.00    -0.359 OA
ATOM     36  C   LIG d   1      10.546   8.976   0.203  0.00  0.00     0.138 A 
BRANCH  33  37
ATOM     37  C   LIG d   1      11.449   5.437   0.148  0.00  0.00    -0.019 C 
ATOM     38  H   LIG d   1      10.574   4.888   0.527  0.00  0.00     0.029 H 
ATOM     39  H   LIG d   1      12.349   5.111   0.690  0.00  0.00     0.029 H 
ATOM     40  H   LIG d   1      11.574   5.232  -0.926  0.00  0.00     0.029 H 
ENDBRANCH  33  37
BRANCH  36  41
ATOM     41  C   LIG d   1       9.849  10.257  -0.175  0.00  0.00    -0.003 C 
ATOM     42  H   LIG d   1      10.102  10.519  -1.214  0.00  0.00     0.031 H 
ATOM     43  H   LIG d   1      10.175  11.065   0.496  0.00  0.00     0.031 H 
ATOM     44  H   LIG d   1       8.761  10.123  -0.087  0.00  0.00     0.031 H 
ENDBRANCH  36  41
ENDBRANCH  29  32
ENDBRANCH  26  29
ENDBRANCH  23  26
ENDBRANCH   1  22
BRANCH   4  45
ATOM     45  O   LIG d   1      10.156  12.301  -8.217  0.00  0.00    -0.491 OA
BRANCH  45  46
ATOM     46  C   LIG d   1      11.495  12.485  -8.680  0.00  0.00     0.079 C 
ATOM     47  H   LIG d   1      11.479  12.796  -9.735  0.00  0.00     0.066 H 
ATOM     48  H   LIG d   1      12.049  11.540  -8.583  0.00  0.00     0.066 H 
ATOM     49  H   LIG d   1      11.987  13.262  -8.077  0.00  0.00     0.066 H 
ENDBRANCH  45  46
ENDBRANCH   4  45
BRANCH  11  50
ATOM     50  C   LIG d   1       9.229  14.914  -3.965  0.00  0.00    -0.012 C 
ATOM     51  H   LIG d   1       9.241  15.017  -2.869  0.00  0.00     0.039 H 
ATOM     52  H   LIG d   1       8.360  15.451  -4.373  0.00  0.00     0.039 H 
ATOM     53  H   LIG d   1      10.153  15.340  -4.383  0.00  0.00     0.039 H 
ENDBRANCH  11  50
TORSDOF 9
ENDMDL
MODEL 6
REMARK VINA RESULT:      -5.7      5.442      7.854
REMARK  9 active torsions:
REMARK  status: ('A' for Active; 'I' for Inactive)
REMARK    1  A    between atoms: C_1  and  C_2 
REMARK    2  A    between atoms: C_3  and  C_8 
REMARK    3  A    between atoms: C_4  and  C_7 
REMARK    4  A    between atoms: C_8  and  C_9 
REMARK    5  A    between atoms: C_9  and  C_10 
REMARK       I    between atoms: C_10  and  N_12 
REMARK    6  A    between atoms: N_12  and  C_13 
REMARK    7  A    between atoms: C_16  and  O_22 
REMARK    8  A    between atoms: O_22  and  C_23 
REMARK    9  A    between atoms: N_25  and  C_28 
ROOT
ATOM      1  C   LIG d   1       3.404  -0.849  -8.316  0.00  0.00     0.083 A 
ATOM      2  C   LIG d   1       3.926  -2.085  -8.684  0.00  0.00    -0.013 A 
ATOM      3  C   LIG d   1       4.484  -2.252  -9.933  0.00  0.00     0.017 A 
ATOM      4  C   LIG d   1       4.528  -1.181 -10.820  0.00  0.00     0.170 A 
ATOM      5  C   LIG d   1       4.010   0.056 -10.458  0.00  0.00     0.210 A 
ATOM      6  C   LIG d   1       3.444   0.223  -9.199  0.00  0.00     0.191 A 
ATOM      7  O   LIG d   1       3.010   1.513  -9.083  0.00  0.00    -0.451 OA
ATOM      8  C   LIG d   1       3.683   2.240 -10.128  0.00  0.00     0.234 C 
ATOM      9  O   LIG d   1       3.934   1.240 -11.133  0.00  0.00    -0.449 OA
ATOM     10  C   LIG d   1       5.053  -3.573 -10.379  0.00  0.00     0.028 C 
ATOM     11  N   LIG d   1       5.301  -4.442  -9.224  0.00  0.00    -0.301 N 
ATOM     12  C   LIG d   1       4.087  -4.550  -8.399  0.00  0.00     0.003 C 
ATOM     13  C   LIG d   1       3.863  -3.215  -7.688  0.00  0.00    -0.013 C 
ATOM     14  H   LIG d   1       3.030   3.046 -10.495  0.00  0.00     0.117 H 
ATOM     15  H   LIG d   1       4.613   2.674  -9.732  0.00  0.00     0.117 H 
ATOM     16  H   LIG d   1       4.339  -4.071 -11.054  0.00  0.00     0.048 H 
ATOM     17  H   LIG d   1       6.001  -3.404 -10.910  0.00  0.00     0.048 H 
ATOM     18  H   LIG d   1       3.226  -4.782  -9.042  0.00  0.00     0.043 H 
ATOM     19  H   LIG d   1       4.219  -5.352  -7.657  0.00  0.00     0.043 H 
ATOM     20  H   LIG d   1       4.643  -3.076  -6.925  0.00  0.00     0.033 H 
ATOM     21  H   LIG d   1       2.875  -3.223  -7.205  0.00  0.00     0.033 H 
ENDROOT
BRANCH   1  22
ATOM     22  N   LIG d   1       2.833  -0.683  -7.044  0.00  0.00    -0.282 N 
ATOM     23  C   LIG d   1       3.552  -0.123  -6.051  0.00  0.00     0.218 C 
ATOM     24  O   LIG d   1       4.660   0.316  -6.277  0.00  0.00    -0.276 OA
ATOM     25  H   LIG d   1       1.798  -1.010  -6.859  0.00  0.00     0.155 HD
BRANCH  23  26
ATOM     26  C   LIG d   1       2.979  -0.044  -4.659  0.00  0.00     0.028 C 
ATOM     27  H   LIG d   1       1.881  -0.006  -4.716  0.00  0.00     0.036 H 
ATOM     28  H   LIG d   1       3.350   0.864  -4.161  0.00  0.00     0.036 H 
BRANCH  26  29
ATOM     29  C   LIG d   1       3.407  -1.277  -3.860  0.00  0.00    -0.014 C 
ATOM     30  H   LIG d   1       3.231  -2.181  -4.461  0.00  0.00     0.032 H 
ATOM     31  H   LIG d   1       2.821  -1.333  -2.932  0.00  0.00     0.032 H 
BRANCH  29  32
ATOM     32  C   LIG d   1       4.873  -1.174  -3.526  0.00  0.00     0.018 A 
ATOM     33  C   LIG d   1       5.915  -2.051  -3.904  0.00  0.00     0.084 A 
ATOM     34  N   LIG d   1       7.009  -1.567  -3.392  0.00  0.00    -0.083 NA
ATOM     35  O   LIG d   1       6.797  -0.550  -2.772  0.00  0.00    -0.359 OA
ATOM     36  C   LIG d   1       5.498  -0.217  -2.799  0.00  0.00     0.138 A 
BRANCH  33  37
ATOM     37  C   LIG d   1       5.786  -3.301  -4.737  0.00  0.00    -0.019 C 
ATOM     38  H   LIG d   1       5.192  -4.047  -4.190  0.00  0.00     0.029 H 
ATOM     39  H   LIG d   1       6.786  -3.708  -4.945  0.00  0.00     0.029 H 
ATOM     40  H   LIG d   1       5.285  -3.058  -5.686  0.00  0.00     0.029 H 
ENDBRANCH  33  37
BRANCH  36  41
ATOM     41  C   LIG d   1       4.860   0.982  -2.148  0.00  0.00    -0.003 C 
ATOM     42  H   LIG d   1       4.848   1.822  -2.859  0.00  0.00     0.031 H 
ATOM     43  H   LIG d   1       5.435   1.265  -1.255  0.00  0.00     0.031 H 
ATOM     44  H   LIG d   1       3.828   0.735  -1.857  0.00  0.00     0.031 H 
ENDBRANCH  36  41
ENDBRANCH  29  32
ENDBRANCH  26  29
ENDBRANCH  23  26
ENDBRANCH   1  22
BRANCH   4  45
ATOM     45  O   LIG d   1       5.082  -1.346 -12.051  0.00  0.00    -0.491 OA
BRANCH  45  46
ATOM     46  C   LIG d   1       6.420  -0.878 -12.230  0.00  0.00     0.079 C 
ATOM     47  H   LIG d   1       6.440  -0.119 -13.026  0.00  0.00     0.066 H 
ATOM     48  H   LIG d   1       7.069  -1.721 -12.511  0.00  0.00     0.066 H 
ATOM     49  H   LIG d   1       6.782  -0.434 -11.291  0.00  0.00     0.066 H 
ENDBRANCH  45  46
ENDBRANCH   4  45
BRANCH  11  50
ATOM     50  C   LIG d   1       5.767  -5.767  -9.652  0.00  0.00    -0.012 C 
ATOM     51  H   LIG d   1       5.228  -6.544  -9.090  0.00  0.00     0.039 H 
ATOM     52  H   LIG d   1       6.846  -5.857  -9.459  0.00  0.00     0.039 H 
ATOM     53  H   LIG d   1       5.575  -5.893 -10.728  0.00  0.00     0.039 H 
ENDBRANCH  11  50
TORSDOF 9
ENDMDL
MODEL 7
REMARK VINA RESULT:      -5.7      5.971      8.053
REMARK  9 active torsions:
REMARK  status: ('A' for Active; 'I' for Inactive)
REMARK    1  A    between atoms: C_1  and  C_2 
REMARK    2  A    between atoms: C_3  and  C_8 
REMARK    3  A    between atoms: C_4  and  C_7 
REMARK    4  A    between atoms: C_8  and  C_9 
REMARK    5  A    between atoms: C_9  and  C_10 
REMARK       I    between atoms: C_10  and  N_12 
REMARK    6  A    between atoms: N_12  and  C_13 
REMARK    7  A    between atoms: C_16  and  O_22 
REMARK    8  A    between atoms: O_22  and  C_23 
REMARK    9  A    between atoms: N_25  and  C_28 
ROOT
ATOM      1  C   LIG d   1       9.499   7.896  -5.611  0.00  0.00     0.083 A 
ATOM      2  C   LIG d   1       9.811   7.057  -6.677  0.00  0.00    -0.013 A 
ATOM      3  C   LIG d   1      10.123   7.595  -7.906  0.00  0.00     0.017 A 
ATOM      4  C   LIG d   1      10.131   8.976  -8.076  0.00  0.00     0.170 A 
ATOM      5  C   LIG d   1       9.822   9.818  -7.016  0.00  0.00     0.210 A 
ATOM      6  C   LIG d   1       9.503   9.275  -5.776  0.00  0.00     0.191 A 
ATOM      7  O   LIG d   1       9.240  10.295  -4.907  0.00  0.00    -0.451 OA
ATOM      8  C   LIG d   1       9.798  11.474  -5.518  0.00  0.00     0.234 C 
ATOM      9  O   LIG d   1       9.760  11.179  -6.927  0.00  0.00    -0.449 OA
ATOM     10  C   LIG d   1      10.458   6.728  -9.092  0.00  0.00     0.028 C 
ATOM     11  N   LIG d   1      10.806   5.372  -8.654  0.00  0.00    -0.301 N 
ATOM     12  C   LIG d   1       9.748   4.831  -7.784  0.00  0.00     0.003 C 
ATOM     13  C   LIG d   1       9.797   5.567  -6.446  0.00  0.00    -0.013 C 
ATOM     14  H   LIG d   1       9.183  12.348  -5.258  0.00  0.00     0.117 H 
ATOM     15  H   LIG d   1      10.824  11.625  -5.151  0.00  0.00     0.117 H 
ATOM     16  H   LIG d   1       9.589   6.674  -9.764  0.00  0.00     0.048 H 
ATOM     17  H   LIG d   1      11.314   7.159  -9.632  0.00  0.00     0.048 H 
ATOM     18  H   LIG d   1       8.769   4.983  -8.260  0.00  0.00     0.043 H 
ATOM     19  H   LIG d   1       9.917   3.756  -7.628  0.00  0.00     0.043 H 
ATOM     20  H   LIG d   1      10.708   5.272  -5.903  0.00  0.00     0.033 H 
ATOM     21  H   LIG d   1       8.913   5.297  -5.851  0.00  0.00     0.033 H 
ENDROOT
BRANCH   1  22
ATOM     22  N   LIG d   1       9.178   7.344  -4.360  0.00  0.00    -0.282 N 
ATOM     23  C   LIG d   1      10.144   7.156  -3.439  0.00  0.00     0.218 C 
ATOM     24  O   LIG d   1      11.273   7.542  -3.656  0.00  0.00    -0.276 OA
ATOM     25  H   LIG d   1       8.138   7.066  -4.133  0.00  0.00     0.155 HD
BRANCH  23  26
ATOM     26  C   LIG d   1       9.820   6.466  -2.139  0.00  0.00     0.028 C 
ATOM     27  H   LIG d   1      10.719   5.956  -1.761  0.00  0.00     0.036 H 
ATOM     28  H   LIG d   1       9.023   5.726  -2.306  0.00  0.00     0.036 H 
BRANCH  26  29
ATOM     29  C   LIG d   1       9.351   7.501  -1.115  0.00  0.00    -0.014 C 
ATOM     30  H   LIG d   1       8.637   7.032  -0.422  0.00  0.00     0.032 H 
ATOM     31  H   LIG d   1       8.862   8.336  -1.636  0.00  0.00     0.032 H 
BRANCH  29  32
ATOM     32  C   LIG d   1      10.537   8.015  -0.341  0.00  0.00     0.018 A 
ATOM     33  C   LIG d   1      11.264   7.356   0.677  0.00  0.00     0.084 A 
ATOM     34  N   LIG d   1      12.200   8.178   1.053  0.00  0.00    -0.083 NA
ATOM     35  O   LIG d   1      12.155   9.216   0.433  0.00  0.00    -0.359 OA
ATOM     36  C   LIG d   1      11.158   9.212  -0.463  0.00  0.00     0.138 A 
BRANCH  33  37
ATOM     37  C   LIG d   1      11.007   5.973   1.219  0.00  0.00    -0.019 C 
ATOM     38  H   LIG d   1      10.123   5.544   0.725  0.00  0.00     0.029 H 
ATOM     39  H   LIG d   1      10.830   6.032   2.303  0.00  0.00     0.029 H 
ATOM     40  H   LIG d   1      11.882   5.335   1.025  0.00  0.00     0.029 H 
ENDBRANCH  33  37
BRANCH  36  41
ATOM     41  C   LIG d   1      10.797  10.322  -1.416  0.00  0.00    -0.003 C 
ATOM     42  H   LIG d   1      11.667  10.563  -2.044  0.00  0.00     0.031 H 
ATOM     43  H   LIG d   1      10.498  11.214  -0.846  0.00  0.00     0.031 H 
ATOM     44  H   LIG d   1       9.962   9.999  -2.056  0.00  0.00     0.031 H 
ENDBRANCH  36  41
ENDBRANCH  29  32
ENDBRANCH  26  29
ENDBRANCH  23  26
ENDBRANCH   1  22
BRANCH   4  45
ATOM     45  O   LIG d   1      10.442   9.505  -9.290  0.00  0.00    -0.491 OA
BRANCH  45  46
ATOM     46  C   LIG d   1      11.757  10.042  -9.447  0.00  0.00     0.079 C 
ATOM     47  H   LIG d   1      12.501   9.267  -9.210  0.00  0.00     0.066 H 
ATOM     48  H   LIG d   1      11.888  10.897  -8.766  0.00  0.00     0.066 H 
ATOM     49  H   LIG d   1      11.895  10.376 -10.486  0.00  0.00     0.066 H 
ENDBRANCH  45  46
ENDBRANCH   4  45
BRANCH  11  50
ATOM     50  C   LIG d   1      11.042   4.491  -9.805  0.00  0.00    -0.012 C 
ATOM     51  H   LIG d   1      10.085   4.270 -10.300  0.00  0.00     0.039 H 
ATOM     52  H   LIG d   1      11.502   3.553  -9.461  0.00  0.00     0.039 H 
ATOM     53  H   LIG d   1      11.717   4.990 -10.516  0.00  0.00     0.039 H 
ENDBRANCH  11  50
TORSDOF 9
ENDMDL
MODEL 8
REMARK VINA RESULT:      -5.6      1.956      3.599
REMARK  9 active torsions:
REMARK  status: ('A' for Active; 'I' for Inactive)
REMARK    1  A    between atoms: C_1  and  C_2 
REMARK    2  A    between atoms: C_3  and  C_8 
REMARK    3  A    between atoms: C_4  and  C_7 
REMARK    4  A    between atoms: C_8  and  C_9 
REMARK    5  A    between atoms: C_9  and  C_10 
REMARK       I    between atoms: C_10  and  N_12 
REMARK    6  A    between atoms: N_12  and  C_13 
REMARK    7  A    between atoms: C_16  and  O_22 
REMARK    8  A    between atoms: O_22  and  C_23 
REMARK    9  A    between atoms: N_25  and  C_28 
ROOT
ATOM      1  C   LIG d   1       8.662   2.604  -5.552  0.00  0.00     0.083 A 
ATOM      2  C   LIG d   1       9.419   3.536  -4.849  0.00  0.00    -0.013 A 
ATOM      3  C   LIG d   1      10.191   4.451  -5.531  0.00  0.00     0.017 A 
ATOM      4  C   LIG d   1      10.206   4.443  -6.922  0.00  0.00     0.170 A 
ATOM      5  C   LIG d   1       9.451   3.516  -7.630  0.00  0.00     0.210 A 
ATOM      6  C   LIG d   1       8.676   2.591  -6.941  0.00  0.00     0.191 A 
ATOM      7  O   LIG d   1       8.035   1.797  -7.848  0.00  0.00    -0.451 OA
ATOM      8  C   LIG d   1       8.107   2.507  -9.099  0.00  0.00     0.234 C 
ATOM      9  O   LIG d   1       9.298   3.306  -8.970  0.00  0.00    -0.449 OA
ATOM     10  C   LIG d   1      11.034   5.472  -4.813  0.00  0.00     0.028 C 
ATOM     11  N   LIG d   1      10.594   5.615  -3.421  0.00  0.00    -0.301 N 
ATOM     12  C   LIG d   1      10.546   4.297  -2.766  0.00  0.00     0.003 C 
ATOM     13  C   LIG d   1       9.367   3.513  -3.342  0.00  0.00    -0.013 C 
ATOM     14  H   LIG d   1       8.176   1.786  -9.927  0.00  0.00     0.117 H 
ATOM     15  H   LIG d   1       7.204   3.123  -9.224  0.00  0.00     0.117 H 
ATOM     16  H   LIG d   1      12.087   5.152  -4.824  0.00  0.00     0.048 H 
ATOM     17  H   LIG d   1      10.943   6.445  -5.319  0.00  0.00     0.048 H 
ATOM     18  H   LIG d   1      11.484   3.758  -2.957  0.00  0.00     0.043 H 
ATOM     19  H   LIG d   1      10.413   4.432  -1.683  0.00  0.00     0.043 H 
ATOM     20  H   LIG d   1       8.426   3.969  -3.000  0.00  0.00     0.033 H 
ATOM     21  H   LIG d   1       9.418   2.472  -2.990  0.00  0.00     0.033 H 
ENDROOT
BRANCH   1  22
ATOM     22  N   LIG d   1       7.879   1.671  -4.854  0.00  0.00    -0.282 N 
ATOM     23  C   LIG d   1       8.321   0.407  -4.693  0.00  0.00     0.218 C 
ATOM     24  O   LIG d   1       9.430   0.099  -5.074  0.00  0.00    -0.276 OA
ATOM     25  H   LIG d   1       6.905   1.972  -4.439  0.00  0.00     0.155 HD
BRANCH  23  26
ATOM     26  C   LIG d   1       7.435  -0.622  -4.039  0.00  0.00     0.028 C 
ATOM     27  H   LIG d   1       7.490  -0.513  -2.946  0.00  0.00     0.036 H 
ATOM     28  H   LIG d   1       7.774  -1.630  -4.323  0.00  0.00     0.036 H 
BRANCH  26  29
ATOM     29  C   LIG d   1       5.991  -0.419  -4.501  0.00  0.00    -0.014 C 
ATOM     30  H   LIG d   1       5.900  -0.708  -5.558  0.00  0.00     0.032 H 
ATOM     31  H   LIG d   1       5.715   0.639  -4.386  0.00  0.00     0.032 H 
BRANCH  29  32
ATOM     32  C   LIG d   1       5.072  -1.273  -3.666  0.00  0.00     0.018 A 
ATOM     33  C   LIG d   1       4.408  -0.923  -2.468  0.00  0.00     0.084 A 
ATOM     34  N   LIG d   1       3.727  -1.971  -2.105  0.00  0.00    -0.083 NA
ATOM     35  O   LIG d   1       3.871  -2.886  -2.883  0.00  0.00    -0.359 OA
ATOM     36  C   LIG d   1       4.686  -2.552  -3.892  0.00  0.00     0.138 A 
BRANCH  33  37
ATOM     37  C   LIG d   1       4.476   0.401  -1.752  0.00  0.00    -0.019 C 
ATOM     38  H   LIG d   1       4.254   1.213  -2.461  0.00  0.00     0.029 H 
ATOM     39  H   LIG d   1       5.484   0.542  -1.337  0.00  0.00     0.029 H 
ATOM     40  H   LIG d   1       3.738   0.415  -0.936  0.00  0.00     0.029 H 
ENDBRANCH  33  37
BRANCH  36  41
ATOM     41  C   LIG d   1       5.095  -3.425  -5.050  0.00  0.00    -0.003 C 
ATOM     42  H   LIG d   1       4.748  -4.454  -4.873  0.00  0.00     0.031 H 
ATOM     43  H   LIG d   1       6.191  -3.420  -5.145  0.00  0.00     0.031 H 
ATOM     44  H   LIG d   1       4.644  -3.041  -5.977  0.00  0.00     0.031 H 
ENDBRANCH  36  41
ENDBRANCH  29  32
ENDBRANCH  26  29
ENDBRANCH  23  26
ENDBRANCH   1  22
BRANCH   4  45
ATOM     45  O   LIG d   1      10.966   5.349  -7.594  0.00  0.00    -0.491 OA
BRANCH  45  46
ATOM     46  C   LIG d   1      10.286   6.456  -8.187  0.00  0.00     0.079 C 
ATOM     47  H   LIG d   1      11.018   7.127  -8.660  0.00  0.00     0.066 H 
ATOM     48  H   LIG d   1       9.732   7.005  -7.411  0.00  0.00     0.066 H 
ATOM     49  H   LIG d   1       9.582   6.089  -8.948  0.00  0.00     0.066 H 
ENDBRANCH  45  46
ENDBRANCH   4  45
BRANCH  11  50
ATOM     50  C   LIG d   1      11.468   6.537  -2.685  0.00  0.00    -0.012 C 
ATOM     51  H   LIG d   1      11.533   6.219  -1.634  0.00  0.00     0.039 H 
ATOM     52  H   LIG d   1      11.053   7.554  -2.735  0.00  0.00     0.039 H 
ATOM     53  H   LIG d   1      12.472   6.528  -3.134  0.00  0.00     0.039 H 
ENDBRANCH  11  50
TORSDOF 9
ENDMDL
MODEL 9
REMARK VINA RESULT:      -5.5      5.484      7.868
REMARK  9 active torsions:
REMARK  status: ('A' for Active; 'I' for Inactive)
REMARK    1  A    between atoms: C_1  and  C_2 
REMARK    2  A    between atoms: C_3  and  C_8 
REMARK    3  A    between atoms: C_4  and  C_7 
REMARK    4  A    between atoms: C_8  and  C_9 
REMARK    5  A    between atoms: C_9  and  C_10 
REMARK       I    between atoms: C_10  and  N_12 
REMARK    6  A    between atoms: N_12  and  C_13 
REMARK    7  A    between atoms: C_16  and  O_22 
REMARK    8  A    between atoms: O_22  and  C_23 
REMARK    9  A    between atoms: N_25  and  C_28 
ROOT
ATOM      1  C   LIG d   1      10.488   7.525  -3.306  0.00  0.00     0.083 A 
ATOM      2  C   LIG d   1      10.197   8.865  -3.538  0.00  0.00    -0.013 A 
ATOM      3  C   LIG d   1       9.881   9.694  -2.483  0.00  0.00     0.017 A 
ATOM      4  C   LIG d   1       9.861   9.187  -1.187  0.00  0.00     0.170 A 
ATOM      5  C   LIG d   1      10.153   7.850  -0.949  0.00  0.00     0.210 A 
ATOM      6  C   LIG d   1      10.467   7.014  -2.014  0.00  0.00     0.191 A 
ATOM      7  O   LIG d   1      10.711   5.761  -1.528  0.00  0.00    -0.451 OA
ATOM      8  C   LIG d   1      10.942   5.933  -0.118  0.00  0.00     0.234 C 
ATOM      9  O   LIG d   1      10.200   7.124   0.207  0.00  0.00    -0.449 OA
ATOM     10  C   LIG d   1       9.550  11.149  -2.685  0.00  0.00     0.028 C 
ATOM     11  N   LIG d   1      10.012  11.602  -4.002  0.00  0.00    -0.301 N 
ATOM     12  C   LIG d   1       9.501  10.709  -5.055  0.00  0.00     0.003 C 
ATOM     13  C   LIG d   1      10.237   9.373  -4.957  0.00  0.00    -0.013 C 
ATOM     14  H   LIG d   1      10.574   5.051   0.426  0.00  0.00     0.117 H 
ATOM     15  H   LIG d   1      12.020   6.052   0.065  0.00  0.00     0.117 H 
ATOM     16  H   LIG d   1       8.460  11.289  -2.621  0.00  0.00     0.048 H 
ATOM     17  H   LIG d   1      10.042  11.750  -1.907  0.00  0.00     0.048 H 
ATOM     18  H   LIG d   1       8.422  10.555  -4.913  0.00  0.00     0.043 H 
ATOM     19  H   LIG d   1       9.681  11.165  -6.040  0.00  0.00     0.043 H 
ATOM     20  H   LIG d   1      11.284   9.512  -5.267  0.00  0.00     0.033 H 
ATOM     21  H   LIG d   1       9.753   8.643  -5.621  0.00  0.00     0.033 H 
ENDROOT
BRANCH   1  22
ATOM     22  N   LIG d   1      10.805   6.683  -4.383  0.00  0.00    -0.282 N 
ATOM     23  C   LIG d   1       9.843   5.934  -4.959  0.00  0.00     0.218 C 
ATOM     24  O   LIG d   1       8.689   6.051  -4.604  0.00  0.00    -0.276 OA
ATOM     25  H   LIG d   1      11.839   6.635  -4.757  0.00  0.00     0.155 HD
BRANCH  23  26
ATOM     26  C   LIG d   1      10.202   4.950  -6.043  0.00  0.00     0.028 C 
ATOM     27  H   LIG d   1       9.305   4.387  -6.339  0.00  0.00     0.036 H 
ATOM     28  H   LIG d   1      10.964   4.251  -5.665  0.00  0.00     0.036 H 
BRANCH  26  29
ATOM     29  C   LIG d   1      10.755   5.704  -7.253  0.00  0.00    -0.014 C 
ATOM     30  H   LIG d   1      11.670   5.208  -7.608  0.00  0.00     0.032 H 
ATOM     31  H   LIG d   1      10.988   6.739  -6.965  0.00  0.00     0.032 H 
BRANCH  29  32
ATOM     32  C   LIG d   1       9.727   5.708  -8.355  0.00  0.00     0.018 A 
ATOM     33  C   LIG d   1       9.312   4.622  -9.161  0.00  0.00     0.084 A 
ATOM     34  N   LIG d   1       8.409   5.091  -9.972  0.00  0.00    -0.083 NA
ATOM     35  O   LIG d   1       8.215   6.271  -9.788  0.00  0.00    -0.359 OA
ATOM     36  C   LIG d   1       8.983   6.748  -8.799  0.00  0.00     0.138 A 
BRANCH  33  37
ATOM     37  C   LIG d   1       9.815   3.203  -9.092  0.00  0.00    -0.019 C 
ATOM     38  H   LIG d   1       9.221   2.570  -9.769  0.00  0.00     0.029 H 
ATOM     39  H   LIG d   1       9.719   2.830  -8.062  0.00  0.00     0.029 H 
ATOM     40  H   LIG d   1      10.872   3.174  -9.396  0.00  0.00     0.029 H 
ENDBRANCH  33  37
BRANCH  36  41
ATOM     41  C   LIG d   1       9.015   8.164  -8.285  0.00  0.00    -0.003 C 
ATOM     42  H   LIG d   1       8.490   8.823  -8.992  0.00  0.00     0.031 H 
ATOM     43  H   LIG d   1      10.059   8.494  -8.182  0.00  0.00     0.031 H 
ATOM     44  H   LIG d   1       8.517   8.209  -7.304  0.00  0.00     0.031 H 
ENDBRANCH  36  41
ENDBRANCH  29  32
ENDBRANCH  26  29
ENDBRANCH  23  26
ENDBRANCH   1  22
BRANCH   4  45
ATOM     45  O   LIG d   1       9.553  10.006  -0.146  0.00  0.00    -0.491 OA
BRANCH  45  46
ATOM     46  C   LIG d   1      10.641  10.501   0.636  0.00  0.00     0.079 C 
ATOM     47  H   LIG d   1      10.285  11.309   1.292  0.00  0.00     0.066 H 
ATOM     48  H   LIG d   1      11.426  10.889  -0.031  0.00  0.00     0.066 H 
ATOM     49  H   LIG d   1      11.052   9.686   1.250  0.00  0.00     0.066 H 
ENDBRANCH  45  46
ENDBRANCH   4  45
BRANCH  11  50
ATOM     50  C   LIG d   1       9.611  12.993  -4.250  0.00  0.00    -0.012 C 
ATOM     51  H   LIG d   1      10.331  13.673  -3.773  0.00  0.00     0.039 H 
ATOM     52  H   LIG d   1       8.609  13.166  -3.831  0.00  0.00     0.039 H 
ATOM     53  H   LIG d   1       9.592  13.181  -5.334  0.00  0.00     0.039 H 
ENDBRANCH  11  50
TORSDOF 9
ENDMDL
MODEL 10
REMARK VINA RESULT:      -5.5      5.981      8.877
REMARK  9 active torsions:
REMARK  status: ('A' for Active; 'I' for Inactive)
REMARK    1  A    between atoms: C_1  and  C_2 
REMARK    2  A    between atoms: C_3  and  C_8 
REMARK    3  A    between atoms: C_4  and  C_7 
REMARK    4  A    between atoms: C_8  and  C_9 
REMARK    5  A    between atoms: C_9  and  C_10 
REMARK       I    between atoms: C_10  and  N_12 
REMARK    6  A    between atoms: N_12  and  C_13 
REMARK    7  A    between atoms: C_16  and  O_22 
REMARK    8  A    between atoms: O_22  and  C_23 
REMARK    9  A    between atoms: N_25  and  C_28 
ROOT
ATOM      1  C   LIG d   1       9.634   9.688  -4.985  0.00  0.00     0.083 A 
ATOM      2  C   LIG d   1       9.680   8.361  -5.399  0.00  0.00    -0.013 A 
ATOM      3  C   LIG d   1       9.744   8.061  -6.743  0.00  0.00     0.017 A 
ATOM      4  C   LIG d   1       9.769   9.089  -7.681  0.00  0.00     0.170 A 
ATOM      5  C   LIG d   1       9.725  10.415  -7.273  0.00  0.00     0.210 A 
ATOM      6  C   LIG d   1       9.656  10.717  -5.918  0.00  0.00     0.191 A 
ATOM      7  O   LIG d   1       9.623  12.075  -5.774  0.00  0.00    -0.451 OA
ATOM      8  C   LIG d   1      10.083  12.606  -7.031  0.00  0.00     0.234 C 
ATOM      9  O   LIG d   1       9.736  11.582  -7.982  0.00  0.00    -0.449 OA
ATOM     10  C   LIG d   1       9.786   6.639  -7.240  0.00  0.00     0.028 C 
ATOM     11  N   LIG d   1      10.166   5.728  -6.155  0.00  0.00    -0.301 N 
ATOM     12  C   LIG d   1       9.297   5.938  -4.986  0.00  0.00     0.003 C 
ATOM     13  C   LIG d   1       9.658   7.280  -4.348  0.00  0.00    -0.013 C 
ATOM     14  H   LIG d   1       9.572  13.558  -7.236  0.00  0.00     0.117 H 
ATOM     15  H   LIG d   1      11.169  12.777  -6.981  0.00  0.00     0.117 H 
ATOM     16  H   LIG d   1       8.792   6.353  -7.616  0.00  0.00     0.048 H 
ATOM     17  H   LIG d   1      10.523   6.556  -8.052  0.00  0.00     0.048 H 
ATOM     18  H   LIG d   1       8.246   5.946  -5.307  0.00  0.00     0.043 H 
ATOM     19  H   LIG d   1       9.454   5.125  -4.262  0.00  0.00     0.043 H 
ATOM     20  H   LIG d   1      10.651   7.203  -3.880  0.00  0.00     0.033 H 
ATOM     21  H   LIG d   1       8.911   7.529  -3.581  0.00  0.00     0.033 H 
ENDROOT
BRANCH   1  22
ATOM     22  N   LIG d   1       9.565   9.990  -3.616  0.00  0.00    -0.282 N 
ATOM     23  C   LIG d   1      10.681  10.340  -2.946  0.00  0.00     0.218 C 
ATOM     24  O   LIG d   1      11.728  10.479  -3.542  0.00  0.00    -0.276 OA
ATOM     25  H   LIG d   1       8.599   9.940  -3.090  0.00  0.00     0.155 HD
BRANCH  23  26
ATOM     26  C   LIG d   1      10.628  10.558  -1.456  0.00  0.00     0.028 C 
ATOM     27  H   LIG d   1      10.165  11.533  -1.244  0.00  0.00     0.036 H 
ATOM     28  H   LIG d   1      11.649  10.541  -1.046  0.00  0.00     0.036 H 
BRANCH  26  29
ATOM     29  C   LIG d   1       9.799   9.448  -0.807  0.00  0.00    -0.014 C 
ATOM     30  H   LIG d   1       9.385   8.795  -1.590  0.00  0.00     0.032 H 
ATOM     31  H   LIG d   1       8.976   9.894  -0.230  0.00  0.00     0.032 H 
BRANCH  29  32
ATOM     32  C   LIG d   1      10.676   8.637   0.111  0.00  0.00     0.018 A 
ATOM     33  C   LIG d   1      11.443   9.092   1.209  0.00  0.00     0.084 A 
ATOM     34  N   LIG d   1      12.036   8.045   1.703  0.00  0.00    -0.083 NA
ATOM     35  O   LIG d   1      11.753   7.042   1.088  0.00  0.00    -0.359 OA
ATOM     36  C   LIG d   1      10.909   7.303   0.080  0.00  0.00     0.138 A 
BRANCH  33  37
ATOM     37  C   LIG d   1      11.551  10.510   1.707  0.00  0.00    -0.019 C 
ATOM     38  H   LIG d   1      10.552  10.970   1.726  0.00  0.00     0.029 H 
ATOM     39  H   LIG d   1      12.208  11.085   1.038  0.00  0.00     0.029 H 
ATOM     40  H   LIG d   1      11.974  10.509   2.723  0.00  0.00     0.029 H 
ENDBRANCH  33  37
BRANCH  36  41
ATOM     41  C   LIG d   1      10.335   6.310  -0.896  0.00  0.00    -0.003 C 
ATOM     42  H   LIG d   1       9.345   6.656  -1.231  0.00  0.00     0.031 H 
ATOM     43  H   LIG d   1      10.233   5.330  -0.407  0.00  0.00     0.031 H 
ATOM     44  H   LIG d   1      11.004   6.220  -1.764  0.00  0.00     0.031 H 
ENDBRANCH  36  41
ENDBRANCH  29  32
ENDBRANCH  26  29
ENDBRANCH  23  26
ENDBRANCH   1  22
BRANCH   4  45
ATOM     45  O   LIG d   1       9.835   8.791  -9.006  0.00  0.00    -0.491 OA
BRANCH  45  46
ATOM     46  C   LIG d   1      11.115   8.897  -9.633  0.00  0.00     0.079 C 
ATOM     47  H   LIG d   1      11.897   8.584  -8.926  0.00  0.00     0.066 H 
ATOM     48  H   LIG d   1      11.290   9.940  -9.936  0.00  0.00     0.066 H 
ATOM     49  H   LIG d   1      11.143   8.248 -10.520  0.00  0.00     0.066 H 
ENDBRANCH  45  46
ENDBRANCH   4  45
BRANCH  11  50
ATOM     50  C   LIG d   1      10.119   4.330  -6.602  0.00  0.00    -0.012 C 
ATOM     51  H   LIG d   1      10.766   3.717  -5.958  0.00  0.00     0.039 H 
ATOM     52  H   LIG d   1      10.469   4.265  -7.642  0.00  0.00     0.039 H 
ATOM     53  H   LIG d   1       9.084   3.960  -6.540  0.00  0.00     0.039 H 
ENDBRANCH  11  50
TORSDOF 9
ENDMDL
