MODEL 1
REMARK VINA RESULT:      -6.4      0.000      0.000
REMARK  6 active torsions:
REMARK  status: ('A' for Active; 'I' for Inactive)
REMARK    1  A    between atoms: C_1  and  C_2 
REMARK    2  A    between atoms: C_8  and  C_16 
REMARK    3  A    between atoms: C_9  and  C_11 
REMARK    4  A    between atoms: C_11  and  C_12 
REMARK    5  A    between atoms: C_12  and  C_13 
REMARK    6  A    between atoms: C_13  and  C_15 
ROOT
ATOM      1  C   LIG d   1       4.085  -0.048  -2.967  0.00  0.00    -0.050 A 
ATOM      2  C   LIG d   1       4.245  -1.366  -2.562  0.00  0.00    -0.055 A 
ATOM      3  C   LIG d   1       4.399  -2.373  -3.491  0.00  0.00    -0.018 A 
ATOM      4  C   LIG d   1       4.394  -2.073  -4.847  0.00  0.00     0.136 A 
ATOM      5  C   LIG d   1       4.231  -0.739  -5.255  0.00  0.00     0.028 A 
ATOM      6  C   LIG d   1       4.072   0.269  -4.308  0.00  0.00    -0.048 A 
ATOM      7  C   LIG d   1       4.272  -0.770  -6.728  0.00  0.00     0.031 A 
ATOM      8  C   LIG d   1       4.450  -2.068  -7.066  0.00  0.00     0.114 A 
ATOM      9  O   LIG d   1       4.520  -2.825  -5.960  0.00  0.00    -0.459 OA
ATOM     10  H   LIG d   1       4.249  -1.604  -1.508  0.00  0.00     0.062 H 
ATOM     11  H   LIG d   1       4.523  -3.394  -3.163  0.00  0.00     0.065 H 
ATOM     12  H   LIG d   1       3.943   1.294  -4.623  0.00  0.00     0.063 H 
ENDROOT
BRANCH   8  13
ATOM     13  C   LIG d   1       4.552  -2.588  -8.478  0.00  0.00     0.013 C 
ATOM     14  H   LIG d   1       4.924  -1.797  -9.130  0.00  0.00     0.035 H 
ATOM     15  H   LIG d   1       5.236  -3.434  -8.506  0.00  0.00     0.035 H 
BRANCH  13  16
ATOM     16  C   LIG d   1       3.168  -3.033  -8.958  0.00  0.00     0.012 C 
ATOM     17  H   LIG d   1       3.256  -3.982  -9.488  0.00  0.00     0.035 H 
ATOM     18  H   LIG d   1       2.508  -3.156  -8.100  0.00  0.00     0.035 H 
BRANCH  16  19
ATOM     19  C   LIG d   1       2.599  -1.990  -9.886  0.00  0.00     0.131 C 
ATOM     20  O   LIG d   1       1.430  -1.697  -9.820  0.00  0.00    -0.298 OA
BRANCH  19  21
ATOM     21  C   LIG d   1       3.491  -1.317 -10.897  0.00  0.00    -0.006 C 
ATOM     22  H   LIG d   1       4.366  -1.939 -11.082  0.00  0.00     0.031 H 
ATOM     23  H   LIG d   1       2.942  -1.177 -11.828  0.00  0.00     0.031 H 
ATOM     24  H   LIG d   1       3.807  -0.347 -10.513  0.00  0.00     0.031 H 
ENDBRANCH  19  21
ENDBRANCH  16  19
ENDBRANCH  13  16
ENDBRANCH   8  13
BRANCH   7  25
ATOM     25  C   LIG d   1       4.145   0.384  -7.650  0.00  0.00    -0.014 A 
ATOM     26  C   LIG d   1       2.904   0.989  -7.847  0.00  0.00    -0.054 A 
ATOM     27  C   LIG d   1       2.793   2.066  -8.702  0.00  0.00    -0.061 A 
ATOM     28  H   LIG d   1       2.033   0.617  -7.329  0.00  0.00     0.062 H 
ATOM     29  C   LIG d   1       3.908   2.540  -9.371  0.00  0.00    -0.062 A 
ATOM     30  H   LIG d   1       1.833   2.538  -8.852  0.00  0.00     0.062 H 
ATOM     31  C   LIG d   1       5.140   1.941  -9.183  0.00  0.00    -0.061 A 
ATOM     32  H   LIG d   1       3.815   3.381 -10.042  0.00  0.00     0.062 H 
ATOM     33  C   LIG d   1       5.264   0.866  -8.326  0.00  0.00    -0.054 A 
ATOM     34  H   LIG d   1       6.006   2.314  -9.708  0.00  0.00     0.062 H 
ATOM     35  H   LIG d   1       6.228   0.400  -8.180  0.00  0.00     0.062 H 
ENDBRANCH   7  25
BRANCH   1  36
ATOM     36  C   LIG d   1       3.918   1.039  -1.937  0.00  0.00    -0.040 C 
ATOM     37  H   LIG d   1       3.223   0.707  -1.167  0.00  0.00     0.028 H 
ATOM     38  H   LIG d   1       4.884   1.261  -1.483  0.00  0.00     0.028 H 
ATOM     39  H   LIG d   1       3.528   1.937  -2.417  0.00  0.00     0.028 H 
ENDBRANCH   1  36
TORSDOF 6
ENDMDL
MODEL 2
REMARK VINA RESULT:      -6.4      2.211      6.414
REMARK  6 active torsions:
REMARK  status: ('A' for Active; 'I' for Inactive)
REMARK    1  A    between atoms: C_1  and  C_2 
REMARK    2  A    between atoms: C_8  and  C_16 
REMARK    3  A    between atoms: C_9  and  C_11 
REMARK    4  A    between atoms: C_11  and  C_12 
REMARK    5  A    between atoms: C_12  and  C_13 
REMARK    6  A    between atoms: C_13  and  C_15 
ROOT
ATOM      1  C   LIG d   1       4.507   0.427  -9.816  0.00  0.00    -0.050 A 
ATOM      2  C   LIG d   1       3.481   1.360  -9.838  0.00  0.00    -0.055 A 
ATOM      3  C   LIG d   1       2.756   1.636  -8.699  0.00  0.00    -0.018 A 
ATOM      4  C   LIG d   1       3.051   0.976  -7.512  0.00  0.00     0.136 A 
ATOM      5  C   LIG d   1       4.089   0.031  -7.491  0.00  0.00     0.028 A 
ATOM      6  C   LIG d   1       4.810  -0.243  -8.650  0.00  0.00    -0.048 A 
ATOM      7  C   LIG d   1       4.136  -0.471  -6.107  0.00  0.00     0.031 A 
ATOM      8  C   LIG d   1       3.162   0.188  -5.440  0.00  0.00     0.114 A 
ATOM      9  O   LIG d   1       2.530   1.034  -6.269  0.00  0.00    -0.459 OA
ATOM     10  H   LIG d   1       3.248   1.876 -10.759  0.00  0.00     0.062 H 
ATOM     11  H   LIG d   1       1.961   2.365  -8.728  0.00  0.00     0.065 H 
ATOM     12  H   LIG d   1       5.607  -0.972  -8.634  0.00  0.00     0.063 H 
ENDROOT
BRANCH   8  13
ATOM     13  C   LIG d   1       2.833  -0.001  -3.981  0.00  0.00     0.013 C 
ATOM     14  H   LIG d   1       1.754   0.079  -3.838  0.00  0.00     0.035 H 
ATOM     15  H   LIG d   1       3.170  -0.984  -3.655  0.00  0.00     0.035 H 
BRANCH  13  16
ATOM     16  C   LIG d   1       3.537   1.080  -3.156  0.00  0.00     0.012 C 
ATOM     17  H   LIG d   1       4.229   1.630  -3.794  0.00  0.00     0.035 H 
ATOM     18  H   LIG d   1       2.796   1.766  -2.747  0.00  0.00     0.035 H 
BRANCH  16  19
ATOM     19  C   LIG d   1       4.299   0.433  -2.028  0.00  0.00     0.131 C 
ATOM     20  O   LIG d   1       4.892   1.117  -1.229  0.00  0.00    -0.298 OA
BRANCH  19  21
ATOM     21  C   LIG d   1       4.323  -1.069  -1.901  0.00  0.00    -0.006 C 
ATOM     22  H   LIG d   1       5.077  -1.359  -1.170  0.00  0.00     0.031 H 
ATOM     23  H   LIG d   1       3.345  -1.421  -1.573  0.00  0.00     0.031 H 
ATOM     24  H   LIG d   1       4.563  -1.512  -2.868  0.00  0.00     0.031 H 
ENDBRANCH  19  21
ENDBRANCH  16  19
ENDBRANCH  13  16
ENDBRANCH   8  13
BRANCH   7  25
ATOM     25  C   LIG d   1       5.062  -1.491  -5.558  0.00  0.00    -0.014 A 
ATOM     26  C   LIG d   1       6.306  -1.109  -5.055  0.00  0.00    -0.054 A 
ATOM     27  C   LIG d   1       7.161  -2.062  -4.541  0.00  0.00    -0.061 A 
ATOM     28  H   LIG d   1       6.597  -0.070  -5.066  0.00  0.00     0.062 H 
ATOM     29  C   LIG d   1       6.791  -3.395  -4.532  0.00  0.00    -0.062 A 
ATOM     30  H   LIG d   1       8.123  -1.766  -4.147  0.00  0.00     0.062 H 
ATOM     31  C   LIG d   1       5.562  -3.780  -5.034  0.00  0.00    -0.061 A 
ATOM     32  H   LIG d   1       7.466  -4.137  -4.132  0.00  0.00     0.062 H 
ATOM     33  C   LIG d   1       4.696  -2.836  -5.546  0.00  0.00    -0.054 A 
ATOM     34  H   LIG d   1       5.279  -4.822  -5.025  0.00  0.00     0.062 H 
ATOM     35  H   LIG d   1       3.735  -3.138  -5.937  0.00  0.00     0.062 H 
ENDBRANCH   7  25
BRANCH   1  36
ATOM     36  C   LIG d   1       5.288   0.139 -11.072  0.00  0.00    -0.040 C 
ATOM     37  H   LIG d   1       4.600   0.020 -11.909  0.00  0.00     0.028 H 
ATOM     38  H   LIG d   1       5.968   0.966 -11.275  0.00  0.00     0.028 H 
ATOM     39  H   LIG d   1       5.862  -0.779 -10.940  0.00  0.00     0.028 H 
ENDBRANCH   1  36
TORSDOF 6
ENDMDL
MODEL 3
REMARK VINA RESULT:      -6.1      1.978      5.242
REMARK  6 active torsions:
REMARK  status: ('A' for Active; 'I' for Inactive)
REMARK    1  A    between atoms: C_1  and  C_2 
REMARK    2  A    between atoms: C_8  and  C_16 
REMARK    3  A    between atoms: C_9  and  C_11 
REMARK    4  A    between atoms: C_11  and  C_12 
REMARK    5  A    between atoms: C_12  and  C_13 
REMARK    6  A    between atoms: C_13  and  C_15 
ROOT
ATOM      1  C   LIG d   1       3.196   0.855  -8.708  0.00  0.00    -0.050 A 
ATOM      2  C   LIG d   1       3.299  -0.186  -9.620  0.00  0.00    -0.055 A 
ATOM      3  C   LIG d   1       3.708  -1.438  -9.214  0.00  0.00    -0.018 A 
ATOM      4  C   LIG d   1       4.023  -1.667  -7.881  0.00  0.00     0.136 A 
ATOM      5  C   LIG d   1       3.919  -0.612  -6.960  0.00  0.00     0.028 A 
ATOM      6  C   LIG d   1       3.509   0.650  -7.382  0.00  0.00    -0.048 A 
ATOM      7  C   LIG d   1       4.317  -1.183  -5.661  0.00  0.00     0.031 A 
ATOM      8  C   LIG d   1       4.615  -2.480  -5.902  0.00  0.00     0.114 A 
ATOM      9  O   LIG d   1       4.441  -2.756  -7.204  0.00  0.00    -0.459 OA
ATOM     10  H   LIG d   1       3.055  -0.013 -10.659  0.00  0.00     0.062 H 
ATOM     11  H   LIG d   1       3.784  -2.240  -9.933  0.00  0.00     0.065 H 
ATOM     12  H   LIG d   1       3.432   1.461  -6.674  0.00  0.00     0.063 H 
ENDROOT
BRANCH   8  13
ATOM     13  C   LIG d   1       5.076  -3.469  -4.862  0.00  0.00     0.013 C 
ATOM     14  H   LIG d   1       5.820  -2.999  -4.217  0.00  0.00     0.035 H 
ATOM     15  H   LIG d   1       4.226  -3.790  -4.262  0.00  0.00     0.035 H 
BRANCH  13  16
ATOM     16  C   LIG d   1       5.700  -4.684  -5.555  0.00  0.00     0.012 C 
ATOM     17  H   LIG d   1       5.977  -4.417  -6.574  0.00  0.00     0.035 H 
ATOM     18  H   LIG d   1       6.587  -4.999  -5.007  0.00  0.00     0.035 H 
BRANCH  16  19
ATOM     19  C   LIG d   1       4.700  -5.811  -5.586  0.00  0.00     0.131 C 
ATOM     20  O   LIG d   1       3.525  -5.574  -5.732  0.00  0.00    -0.298 OA
BRANCH  19  21
ATOM     21  C   LIG d   1       5.168  -7.236  -5.431  0.00  0.00    -0.006 C 
ATOM     22  H   LIG d   1       4.955  -7.789  -6.344  0.00  0.00     0.031 H 
ATOM     23  H   LIG d   1       6.242  -7.246  -5.241  0.00  0.00     0.031 H 
ATOM     24  H   LIG d   1       4.647  -7.700  -4.593  0.00  0.00     0.031 H 
ENDBRANCH  19  21
ENDBRANCH  16  19
ENDBRANCH  13  16
ENDBRANCH   8  13
BRANCH   7  25
ATOM     25  C   LIG d   1       4.380  -0.479  -4.357  0.00  0.00    -0.014 A 
ATOM     26  C   LIG d   1       3.232  -0.349  -3.577  0.00  0.00    -0.054 A 
ATOM     27  C   LIG d   1       3.297   0.302  -2.362  0.00  0.00    -0.061 A 
ATOM     28  H   LIG d   1       2.294  -0.760  -3.921  0.00  0.00     0.062 H 
ATOM     29  C   LIG d   1       4.496   0.834  -1.923  0.00  0.00    -0.062 A 
ATOM     30  H   LIG d   1       2.409   0.399  -1.754  0.00  0.00     0.062 H 
ATOM     31  C   LIG d   1       5.637   0.713  -2.695  0.00  0.00    -0.061 A 
ATOM     32  H   LIG d   1       4.541   1.346  -0.973  0.00  0.00     0.062 H 
ATOM     33  C   LIG d   1       5.585   0.059  -3.909  0.00  0.00    -0.054 A 
ATOM     34  H   LIG d   1       6.570   1.131  -2.347  0.00  0.00     0.062 H 
ATOM     35  H   LIG d   1       6.477  -0.036  -4.511  0.00  0.00     0.062 H 
ENDBRANCH   7  25
BRANCH   1  36
ATOM     36  C   LIG d   1       2.746   2.217  -9.172  0.00  0.00    -0.040 C 
ATOM     37  H   LIG d   1       1.691   2.352  -8.935  0.00  0.00     0.028 H 
ATOM     38  H   LIG d   1       3.333   2.985  -8.667  0.00  0.00     0.028 H 
ATOM     39  H   LIG d   1       2.891   2.300 -10.249  0.00  0.00     0.028 H 
ENDBRANCH   1  36
TORSDOF 6
ENDMDL
MODEL 4
REMARK VINA RESULT:      -6.1      3.127      5.333
REMARK  6 active torsions:
REMARK  status: ('A' for Active; 'I' for Inactive)
REMARK    1  A    between atoms: C_1  and  C_2 
REMARK    2  A    between atoms: C_8  and  C_16 
REMARK    3  A    between atoms: C_9  and  C_11 
REMARK    4  A    between atoms: C_11  and  C_12 
REMARK    5  A    between atoms: C_12  and  C_13 
REMARK    6  A    between atoms: C_13  and  C_15 
ROOT
ATOM      1  C   LIG d   1       9.309  -4.112  -3.666  0.00  0.00    -0.050 A 
ATOM      2  C   LIG d   1       9.336  -4.907  -4.803  0.00  0.00    -0.055 A 
ATOM      3  C   LIG d   1       8.349  -4.800  -5.759  0.00  0.00    -0.018 A 
ATOM      4  C   LIG d   1       7.314  -3.890  -5.590  0.00  0.00     0.136 A 
ATOM      5  C   LIG d   1       7.287  -3.087  -4.438  0.00  0.00     0.028 A 
ATOM      6  C   LIG d   1       8.287  -3.207  -3.476  0.00  0.00    -0.048 A 
ATOM      7  C   LIG d   1       6.081  -2.251  -4.569  0.00  0.00     0.031 A 
ATOM      8  C   LIG d   1       5.508  -2.608  -5.741  0.00  0.00     0.114 A 
ATOM      9  O   LIG d   1       6.235  -3.569  -6.333  0.00  0.00    -0.459 OA
ATOM     10  H   LIG d   1      10.140  -5.616  -4.940  0.00  0.00     0.062 H 
ATOM     11  H   LIG d   1       8.382  -5.423  -6.640  0.00  0.00     0.065 H 
ATOM     12  H   LIG d   1       8.264  -2.592  -2.589  0.00  0.00     0.063 H 
ENDROOT
BRANCH   8  13
ATOM     13  C   LIG d   1       4.239  -2.016  -6.299  0.00  0.00     0.013 C 
ATOM     14  H   LIG d   1       3.783  -2.721  -6.994  0.00  0.00     0.035 H 
ATOM     15  H   LIG d   1       3.545  -1.808  -5.486  0.00  0.00     0.035 H 
BRANCH  13  16
ATOM     16  C   LIG d   1       4.566  -0.714  -7.037  0.00  0.00     0.012 C 
ATOM     17  H   LIG d   1       5.533  -0.340  -6.701  0.00  0.00     0.035 H 
ATOM     18  H   LIG d   1       4.601  -0.903  -8.109  0.00  0.00     0.035 H 
BRANCH  16  19
ATOM     19  C   LIG d   1       3.501   0.311  -6.742  0.00  0.00     0.131 C 
ATOM     20  O   LIG d   1       3.277   1.195  -7.533  0.00  0.00    -0.298 OA
BRANCH  19  21
ATOM     21  C   LIG d   1       2.717   0.232  -5.457  0.00  0.00    -0.006 C 
ATOM     22  H   LIG d   1       2.001   1.053  -5.417  0.00  0.00     0.031 H 
ATOM     23  H   LIG d   1       2.183  -0.718  -5.415  0.00  0.00     0.031 H 
ATOM     24  H   LIG d   1       3.399   0.302  -4.610  0.00  0.00     0.031 H 
ENDBRANCH  19  21
ENDBRANCH  16  19
ENDBRANCH  13  16
ENDBRANCH   8  13
BRANCH   7  25
ATOM     25  C   LIG d   1       5.594  -1.228  -3.612  0.00  0.00    -0.014 A 
ATOM     26  C   LIG d   1       6.046   0.088  -3.704  0.00  0.00    -0.054 A 
ATOM     27  C   LIG d   1       5.586   1.037  -2.814  0.00  0.00    -0.061 A 
ATOM     28  H   LIG d   1       6.752   0.364  -4.473  0.00  0.00     0.062 H 
ATOM     29  C   LIG d   1       4.686   0.682  -1.825  0.00  0.00    -0.062 A 
ATOM     30  H   LIG d   1       5.932   2.057  -2.888  0.00  0.00     0.062 H 
ATOM     31  C   LIG d   1       4.238  -0.623  -1.725  0.00  0.00    -0.061 A 
ATOM     32  H   LIG d   1       4.332   1.427  -1.129  0.00  0.00     0.062 H 
ATOM     33  C   LIG d   1       4.687  -1.579  -2.613  0.00  0.00    -0.054 A 
ATOM     34  H   LIG d   1       3.536  -0.894  -0.951  0.00  0.00     0.062 H 
ATOM     35  H   LIG d   1       4.336  -2.597  -2.534  0.00  0.00     0.062 H 
ENDBRANCH   7  25
BRANCH   1  36
ATOM     36  C   LIG d   1      10.397  -4.243  -2.632  0.00  0.00    -0.040 C 
ATOM     37  H   LIG d   1      10.589  -3.270  -2.181  0.00  0.00     0.028 H 
ATOM     38  H   LIG d   1      10.082  -4.946  -1.860  0.00  0.00     0.028 H 
ATOM     39  H   LIG d   1      11.307  -4.609  -3.107  0.00  0.00     0.028 H 
ENDBRANCH   1  36
TORSDOF 6
ENDMDL
MODEL 5
REMARK VINA RESULT:      -6.0      1.311      1.615
REMARK  6 active torsions:
REMARK  status: ('A' for Active; 'I' for Inactive)
REMARK    1  A    between atoms: C_1  and  C_2 
REMARK    2  A    between atoms: C_8  and  C_16 
REMARK    3  A    between atoms: C_9  and  C_11 
REMARK    4  A    between atoms: C_11  and  C_12 
REMARK    5  A    between atoms: C_12  and  C_13 
REMARK    6  A    between atoms: C_13  and  C_15 
ROOT
ATOM      1  C   LIG d   1       4.151  -0.100  -2.919  0.00  0.00    -0.050 A 
ATOM      2  C   LIG d   1       4.321  -1.409  -2.493  0.00  0.00    -0.055 A 
ATOM      3  C   LIG d   1       4.486  -2.430  -3.405  0.00  0.00    -0.018 A 
ATOM      4  C   LIG d   1       4.483  -2.152  -4.766  0.00  0.00     0.136 A 
ATOM      5  C   LIG d   1       4.310  -0.826  -5.195  0.00  0.00     0.028 A 
ATOM      6  C   LIG d   1       4.139   0.195  -4.265  0.00  0.00    -0.048 A 
ATOM      7  C   LIG d   1       4.355  -0.880  -6.668  0.00  0.00     0.031 A 
ATOM      8  C   LIG d   1       4.545  -2.182  -6.985  0.00  0.00     0.114 A 
ATOM      9  O   LIG d   1       4.618  -2.920  -5.866  0.00  0.00    -0.459 OA
ATOM     10  H   LIG d   1       4.324  -1.631  -1.435  0.00  0.00     0.062 H 
ATOM     11  H   LIG d   1       4.619  -3.444  -3.061  0.00  0.00     0.065 H 
ATOM     12  H   LIG d   1       4.002   1.215  -4.597  0.00  0.00     0.063 H 
ENDROOT
BRANCH   8  13
ATOM     13  C   LIG d   1       4.655  -2.722  -8.388  0.00  0.00     0.013 C 
ATOM     14  H   LIG d   1       4.843  -1.901  -9.080  0.00  0.00     0.035 H 
ATOM     15  H   LIG d   1       5.476  -3.436  -8.440  0.00  0.00     0.035 H 
BRANCH  13  16
ATOM     16  C   LIG d   1       3.347  -3.420  -8.769  0.00  0.00     0.012 C 
ATOM     17  H   LIG d   1       2.554  -3.097  -8.095  0.00  0.00     0.035 H 
ATOM     18  H   LIG d   1       3.082  -3.161  -9.793  0.00  0.00     0.035 H 
BRANCH  16  19
ATOM     19  C   LIG d   1       3.524  -4.913  -8.657  0.00  0.00     0.131 C 
ATOM     20  O   LIG d   1       3.313  -5.470  -7.607  0.00  0.00    -0.298 OA
BRANCH  19  21
ATOM     21  C   LIG d   1       3.967  -5.710  -9.858  0.00  0.00    -0.006 C 
ATOM     22  H   LIG d   1       4.995  -5.450 -10.107  0.00  0.00     0.031 H 
ATOM     23  H   LIG d   1       3.906  -6.774  -9.629  0.00  0.00     0.031 H 
ATOM     24  H   LIG d   1       3.318  -5.483 -10.704  0.00  0.00     0.031 H 
ENDBRANCH  19  21
ENDBRANCH  16  19
ENDBRANCH  13  16
ENDBRANCH   8  13
BRANCH   7  25
ATOM     25  C   LIG d   1       4.221   0.258  -7.608  0.00  0.00    -0.014 A 
ATOM     26  C   LIG d   1       2.966   0.812  -7.862  0.00  0.00    -0.054 A 
ATOM     27  C   LIG d   1       2.848   1.875  -8.734  0.00  0.00    -0.061 A 
ATOM     28  H   LIG d   1       2.090   0.411  -7.375  0.00  0.00     0.062 H 
ATOM     29  C   LIG d   1       3.970   2.384  -9.364  0.00  0.00    -0.062 A 
ATOM     30  H   LIG d   1       1.878   2.307  -8.928  0.00  0.00     0.062 H 
ATOM     31  C   LIG d   1       5.216   1.836  -9.119  0.00  0.00    -0.061 A 
ATOM     32  H   LIG d   1       3.871   3.214 -10.048  0.00  0.00     0.062 H 
ATOM     33  C   LIG d   1       5.347   0.777  -8.245  0.00  0.00    -0.054 A 
ATOM     34  H   LIG d   1       6.088   2.238  -9.614  0.00  0.00     0.062 H 
ATOM     35  H   LIG d   1       6.321   0.350  -8.055  0.00  0.00     0.062 H 
ENDBRANCH   7  25
BRANCH   1  36
ATOM     36  C   LIG d   1       3.972   1.002  -1.907  0.00  0.00    -0.040 C 
ATOM     37  H   LIG d   1       4.177   0.616  -0.909  0.00  0.00     0.028 H 
ATOM     38  H   LIG d   1       4.661   1.817  -2.131  0.00  0.00     0.028 H 
ATOM     39  H   LIG d   1       2.947   1.371  -1.950  0.00  0.00     0.028 H 
ENDBRANCH   1  36
TORSDOF 6
ENDMDL
MODEL 6
REMARK VINA RESULT:      -5.9      1.866      5.572
REMARK  6 active torsions:
REMARK  status: ('A' for Active; 'I' for Inactive)
REMARK    1  A    between atoms: C_1  and  C_2 
REMARK    2  A    between atoms: C_8  and  C_16 
REMARK    3  A    between atoms: C_9  and  C_11 
REMARK    4  A    between atoms: C_11  and  C_12 
REMARK    5  A    between atoms: C_12  and  C_13 
REMARK    6  A    between atoms: C_13  and  C_15 
ROOT
ATOM      1  C   LIG d   1       3.177   0.713  -8.678  0.00  0.00    -0.050 A 
ATOM      2  C   LIG d   1       3.304  -0.348  -9.563  0.00  0.00    -0.055 A 
ATOM      3  C   LIG d   1       3.741  -1.580  -9.125  0.00  0.00    -0.018 A 
ATOM      4  C   LIG d   1       4.060  -1.768  -7.785  0.00  0.00     0.136 A 
ATOM      5  C   LIG d   1       3.931  -0.692  -6.892  0.00  0.00     0.028 A 
ATOM      6  C   LIG d   1       3.494   0.549  -7.347  0.00  0.00    -0.048 A 
ATOM      7  C   LIG d   1       4.342  -1.220  -5.579  0.00  0.00     0.031 A 
ATOM      8  C   LIG d   1       4.669  -2.517  -5.787  0.00  0.00     0.114 A 
ATOM      9  O   LIG d   1       4.501  -2.830  -7.081  0.00  0.00    -0.459 OA
ATOM     10  H   LIG d   1       3.057  -0.207 -10.605  0.00  0.00     0.062 H 
ATOM     11  H   LIG d   1       3.835  -2.399  -9.822  0.00  0.00     0.065 H 
ATOM     12  H   LIG d   1       3.399   1.376  -6.659  0.00  0.00     0.063 H 
ENDROOT
BRANCH   8  13
ATOM     13  C   LIG d   1       5.151  -3.468  -4.722  0.00  0.00     0.013 C 
ATOM     14  H   LIG d   1       5.138  -2.967  -3.753  0.00  0.00     0.035 H 
ATOM     15  H   LIG d   1       4.499  -4.339  -4.688  0.00  0.00     0.035 H 
BRANCH  13  16
ATOM     16  C   LIG d   1       6.580  -3.913  -5.045  0.00  0.00     0.012 C 
ATOM     17  H   LIG d   1       6.790  -4.856  -4.539  0.00  0.00     0.035 H 
ATOM     18  H   LIG d   1       6.684  -4.046  -6.121  0.00  0.00     0.035 H 
BRANCH  16  19
ATOM     19  C   LIG d   1       7.552  -2.862  -4.571  0.00  0.00     0.131 C 
ATOM     20  O   LIG d   1       7.699  -2.664  -3.390  0.00  0.00    -0.298 OA
BRANCH  19  21
ATOM     21  C   LIG d   1       8.338  -2.058  -5.575  0.00  0.00    -0.006 C 
ATOM     22  H   LIG d   1       8.223  -0.996  -5.359  0.00  0.00     0.031 H 
ATOM     23  H   LIG d   1       9.392  -2.330  -5.512  0.00  0.00     0.031 H 
ATOM     24  H   LIG d   1       7.968  -2.268  -6.578  0.00  0.00     0.031 H 
ENDBRANCH  19  21
ENDBRANCH  16  19
ENDBRANCH  13  16
ENDBRANCH   8  13
BRANCH   7  25
ATOM     25  C   LIG d   1       4.388  -0.482  -4.294  0.00  0.00    -0.014 A 
ATOM     26  C   LIG d   1       5.573   0.122  -3.875  0.00  0.00    -0.054 A 
ATOM     27  C   LIG d   1       5.608   0.812  -2.681  0.00  0.00    -0.061 A 
ATOM     28  H   LIG d   1       6.460   0.053  -4.487  0.00  0.00     0.062 H 
ATOM     29  C   LIG d   1       4.473   0.896  -1.894  0.00  0.00    -0.062 A 
ATOM     30  H   LIG d   1       6.524   1.284  -2.359  0.00  0.00     0.062 H 
ATOM     31  C   LIG d   1       3.297   0.294  -2.301  0.00  0.00    -0.061 A 
ATOM     32  H   LIG d   1       4.507   1.434  -0.958  0.00  0.00     0.062 H 
ATOM     33  C   LIG d   1       3.248  -0.394  -3.496  0.00  0.00    -0.054 A 
ATOM     34  H   LIG d   1       2.414   0.363  -1.683  0.00  0.00     0.062 H 
ATOM     35  H   LIG d   1       2.328  -0.863  -3.813  0.00  0.00     0.062 H 
ENDBRANCH   7  25
BRANCH   1  36
ATOM     36  C   LIG d   1       2.698   2.053  -9.176  0.00  0.00    -0.040 C 
ATOM     37  H   LIG d   1       1.714   2.265  -8.758  0.00  0.00     0.028 H 
ATOM     38  H   LIG d   1       3.399   2.827  -8.867  0.00  0.00     0.028 H 
ATOM     39  H   LIG d   1       2.634   2.033 -10.264  0.00  0.00     0.028 H 
ENDBRANCH   1  36
TORSDOF 6
ENDMDL
MODEL 7
REMARK VINA RESULT:      -5.9      1.940      3.775
REMARK  6 active torsions:
REMARK  status: ('A' for Active; 'I' for Inactive)
REMARK    1  A    between atoms: C_1  and  C_2 
REMARK    2  A    between atoms: C_8  and  C_16 
REMARK    3  A    between atoms: C_9  and  C_11 
REMARK    4  A    between atoms: C_11  and  C_12 
REMARK    5  A    between atoms: C_12  and  C_13 
REMARK    6  A    between atoms: C_13  and  C_15 
ROOT
ATOM      1  C   LIG d   1       3.835  -1.027  -3.186  0.00  0.00    -0.050 A 
ATOM      2  C   LIG d   1       3.271   0.164  -2.752  0.00  0.00    -0.055 A 
ATOM      3  C   LIG d   1       2.835   1.107  -3.658  0.00  0.00    -0.018 A 
ATOM      4  C   LIG d   1       2.960   0.870  -5.021  0.00  0.00     0.136 A 
ATOM      5  C   LIG d   1       3.532  -0.335  -5.458  0.00  0.00     0.028 A 
ATOM      6  C   LIG d   1       3.973  -1.278  -4.534  0.00  0.00    -0.048 A 
ATOM      7  C   LIG d   1       3.515  -0.268  -6.931  0.00  0.00     0.031 A 
ATOM      8  C   LIG d   1       2.956   0.924  -7.240  0.00  0.00     0.114 A 
ATOM      9  O   LIG d   1       2.634   1.585  -6.117  0.00  0.00    -0.459 OA
ATOM     10  H   LIG d   1       3.171   0.353  -1.693  0.00  0.00     0.062 H 
ATOM     11  H   LIG d   1       2.397   2.030  -3.308  0.00  0.00     0.065 H 
ATOM     12  H   LIG d   1       4.417  -2.204  -4.871  0.00  0.00     0.063 H 
ENDROOT
BRANCH   8  13
ATOM     13  C   LIG d   1       2.729   1.436  -8.640  0.00  0.00     0.013 C 
ATOM     14  H   LIG d   1       2.638   0.592  -9.325  0.00  0.00     0.035 H 
ATOM     15  H   LIG d   1       1.815   2.027  -8.669  0.00  0.00     0.035 H 
BRANCH  13  16
ATOM     16  C   LIG d   1       3.915   2.307  -9.062  0.00  0.00     0.012 C 
ATOM     17  H   LIG d   1       3.548   3.191  -9.584  0.00  0.00     0.035 H 
ATOM     18  H   LIG d   1       4.474   2.613  -8.179  0.00  0.00     0.035 H 
BRANCH  16  19
ATOM     19  C   LIG d   1       4.815   1.520  -9.980  0.00  0.00     0.131 C 
ATOM     20  O   LIG d   1       6.010   1.529  -9.808  0.00  0.00    -0.298 OA
BRANCH  19  21
ATOM     21  C   LIG d   1       4.221   0.724 -11.114  0.00  0.00    -0.006 C 
ATOM     22  H   LIG d   1       5.022   0.275 -11.701  0.00  0.00     0.031 H 
ATOM     23  H   LIG d   1       3.582  -0.062 -10.710  0.00  0.00     0.031 H 
ATOM     24  H   LIG d   1       3.628   1.383 -11.749  0.00  0.00     0.031 H 
ENDBRANCH  19  21
ENDBRANCH  16  19
ENDBRANCH  13  16
ENDBRANCH   8  13
BRANCH   7  25
ATOM     25  C   LIG d   1       4.009  -1.296  -7.878  0.00  0.00    -0.014 A 
ATOM     26  C   LIG d   1       5.377  -1.546  -7.989  0.00  0.00    -0.054 A 
ATOM     27  C   LIG d   1       5.830  -2.507  -8.868  0.00  0.00    -0.061 A 
ATOM     28  H   LIG d   1       6.078  -0.990  -7.386  0.00  0.00     0.062 H 
ATOM     29  C   LIG d   1       4.932  -3.216  -9.647  0.00  0.00    -0.062 A 
ATOM     30  H   LIG d   1       6.889  -2.705  -8.952  0.00  0.00     0.062 H 
ATOM     31  C   LIG d   1       3.575  -2.969  -9.544  0.00  0.00    -0.061 A 
ATOM     32  H   LIG d   1       5.292  -3.965 -10.336  0.00  0.00     0.062 H 
ATOM     33  C   LIG d   1       3.109  -2.013  -8.664  0.00  0.00    -0.054 A 
ATOM     34  H   LIG d   1       2.879  -3.524 -10.155  0.00  0.00     0.062 H 
ATOM     35  H   LIG d   1       2.049  -1.822  -8.585  0.00  0.00     0.062 H 
ENDBRANCH   7  25
BRANCH   1  36
ATOM     36  C   LIG d   1       4.306  -2.046  -2.180  0.00  0.00    -0.040 C 
ATOM     37  H   LIG d   1       3.448  -2.446  -1.640  0.00  0.00     0.028 H 
ATOM     38  H   LIG d   1       4.821  -2.856  -2.696  0.00  0.00     0.028 H 
ATOM     39  H   LIG d   1       4.989  -1.571  -1.476  0.00  0.00     0.028 H 
ENDBRANCH   1  36
TORSDOF 6
ENDMDL
MODEL 8
REMARK VINA RESULT:      -5.8      3.376      6.146
REMARK  6 active torsions:
REMARK  status: ('A' for Active; 'I' for Inactive)
REMARK    1  A    between atoms: C_1  and  C_2 
REMARK    2  A    between atoms: C_8  and  C_16 
REMARK    3  A    between atoms: C_9  and  C_11 
REMARK    4  A    between atoms: C_11  and  C_12 
REMARK    5  A    between atoms: C_12  and  C_13 
REMARK    6  A    between atoms: C_13  and  C_15 
ROOT
ATOM      1  C   LIG d   1       9.335   1.627  -6.487  0.00  0.00    -0.050 A 
ATOM      2  C   LIG d   1       9.559   2.724  -5.667  0.00  0.00    -0.055 A 
ATOM      3  C   LIG d   1       8.820   2.905  -4.518  0.00  0.00    -0.018 A 
ATOM      4  C   LIG d   1       7.839   1.985  -4.171  0.00  0.00     0.136 A 
ATOM      5  C   LIG d   1       7.613   0.876  -5.002  0.00  0.00     0.028 A 
ATOM      6  C   LIG d   1       8.362   0.706  -6.163  0.00  0.00    -0.048 A 
ATOM      7  C   LIG d   1       6.528   0.115  -4.358  0.00  0.00     0.031 A 
ATOM      8  C   LIG d   1       6.207   0.804  -3.238  0.00  0.00     0.114 A 
ATOM      9  O   LIG d   1       6.979   1.897  -3.136  0.00  0.00    -0.459 OA
ATOM     10  H   LIG d   1      10.321   3.442  -5.932  0.00  0.00     0.062 H 
ATOM     11  H   LIG d   1       9.004   3.762  -3.887  0.00  0.00     0.065 H 
ATOM     12  H   LIG d   1       8.185  -0.145  -6.804  0.00  0.00     0.063 H 
ENDROOT
BRANCH   8  13
ATOM     13  C   LIG d   1       5.139   0.403  -2.253  0.00  0.00     0.013 C 
ATOM     14  H   LIG d   1       4.886  -0.648  -2.398  0.00  0.00     0.035 H 
ATOM     15  H   LIG d   1       5.505   0.551  -1.238  0.00  0.00     0.035 H 
BRANCH  13  16
ATOM     16  C   LIG d   1       3.891   1.261  -2.476  0.00  0.00     0.012 C 
ATOM     17  H   LIG d   1       3.306   1.296  -1.557  0.00  0.00     0.035 H 
ATOM     18  H   LIG d   1       4.190   2.271  -2.755  0.00  0.00     0.035 H 
BRANCH  16  19
ATOM     19  C   LIG d   1       3.059   0.659  -3.579  0.00  0.00     0.131 C 
ATOM     20  O   LIG d   1       2.843   1.290  -4.586  0.00  0.00    -0.298 OA
BRANCH  19  21
ATOM     21  C   LIG d   1       2.495  -0.730  -3.423  0.00  0.00    -0.006 C 
ATOM     22  H   LIG d   1       2.106  -1.073  -4.381  0.00  0.00     0.031 H 
ATOM     23  H   LIG d   1       3.282  -1.405  -3.087  0.00  0.00     0.031 H 
ATOM     24  H   LIG d   1       1.691  -0.715  -2.687  0.00  0.00     0.031 H 
ENDBRANCH  19  21
ENDBRANCH  16  19
ENDBRANCH  13  16
ENDBRANCH   8  13
BRANCH   7  25
ATOM     25  C   LIG d   1       5.913  -1.146  -4.838  0.00  0.00    -0.014 A 
ATOM     26  C   LIG d   1       5.179  -1.160  -6.023  0.00  0.00    -0.054 A 
ATOM     27  C   LIG d   1       4.614  -2.338  -6.468  0.00  0.00    -0.061 A 
ATOM     28  H   LIG d   1       5.055  -0.252  -6.593  0.00  0.00     0.062 H 
ATOM     29  C   LIG d   1       4.766  -3.501  -5.734  0.00  0.00    -0.062 A 
ATOM     30  H   LIG d   1       4.049  -2.351  -7.388  0.00  0.00     0.062 H 
ATOM     31  C   LIG d   1       5.490  -3.492  -4.555  0.00  0.00    -0.061 A 
ATOM     32  H   LIG d   1       4.319  -4.419  -6.085  0.00  0.00     0.062 H 
ATOM     33  C   LIG d   1       6.064  -2.321  -4.104  0.00  0.00    -0.054 A 
ATOM     34  H   LIG d   1       5.605  -4.403  -3.987  0.00  0.00     0.062 H 
ATOM     35  H   LIG d   1       6.629  -2.317  -3.183  0.00  0.00     0.062 H 
ENDBRANCH   7  25
BRANCH   1  36
ATOM     36  C   LIG d   1      10.153   1.446  -7.739  0.00  0.00    -0.040 C 
ATOM     37  H   LIG d   1      10.643   0.473  -7.716  0.00  0.00     0.028 H 
ATOM     38  H   LIG d   1       9.502   1.505  -8.611  0.00  0.00     0.028 H 
ATOM     39  H   LIG d   1      10.908   2.231  -7.796  0.00  0.00     0.028 H 
ENDBRANCH   1  36
TORSDOF 6
ENDMDL
MODEL 9
REMARK VINA RESULT:      -5.7      1.392      2.094
REMARK  6 active torsions:
REMARK  status: ('A' for Active; 'I' for Inactive)
REMARK    1  A    between atoms: C_1  and  C_2 
REMARK    2  A    between atoms: C_8  and  C_16 
REMARK    3  A    between atoms: C_9  and  C_11 
REMARK    4  A    between atoms: C_11  and  C_12 
REMARK    5  A    between atoms: C_12  and  C_13 
REMARK    6  A    between atoms: C_13  and  C_15 
ROOT
ATOM      1  C   LIG d   1       4.321  -0.005  -2.840  0.00  0.00    -0.050 A 
ATOM      2  C   LIG d   1       4.414  -1.316  -2.394  0.00  0.00    -0.055 A 
ATOM      3  C   LIG d   1       4.440  -2.363  -3.290  0.00  0.00    -0.018 A 
ATOM      4  C   LIG d   1       4.373  -2.111  -4.654  0.00  0.00     0.136 A 
ATOM      5  C   LIG d   1       4.278  -0.784  -5.104  0.00  0.00     0.028 A 
ATOM      6  C   LIG d   1       4.247   0.265  -4.190  0.00  0.00    -0.048 A 
ATOM      7  C   LIG d   1       4.226  -0.869  -6.574  0.00  0.00     0.031 A 
ATOM      8  C   LIG d   1       4.292  -2.188  -6.871  0.00  0.00     0.114 A 
ATOM      9  O   LIG d   1       4.378  -2.908  -5.742  0.00  0.00    -0.459 OA
ATOM     10  H   LIG d   1       4.467  -1.516  -1.334  0.00  0.00     0.062 H 
ATOM     11  H   LIG d   1       4.514  -3.378  -2.931  0.00  0.00     0.065 H 
ATOM     12  H   LIG d   1       4.170   1.285  -4.536  0.00  0.00     0.063 H 
ENDROOT
BRANCH   8  13
ATOM     13  C   LIG d   1       4.271  -2.762  -8.265  0.00  0.00     0.013 C 
ATOM     14  H   LIG d   1       3.495  -3.525  -8.333  0.00  0.00     0.035 H 
ATOM     15  H   LIG d   1       4.064  -1.969  -8.983  0.00  0.00     0.035 H 
BRANCH  13  16
ATOM     16  C   LIG d   1       5.631  -3.391  -8.577  0.00  0.00     0.012 C 
ATOM     17  H   LIG d   1       6.123  -3.671  -7.646  0.00  0.00     0.035 H 
ATOM     18  H   LIG d   1       5.488  -4.277  -9.194  0.00  0.00     0.035 H 
BRANCH  16  19
ATOM     19  C   LIG d   1       6.487  -2.395  -9.318  0.00  0.00     0.131 C 
ATOM     20  O   LIG d   1       6.111  -1.941 -10.371  0.00  0.00    -0.298 OA
BRANCH  19  21
ATOM     21  C   LIG d   1       7.813  -1.969  -8.742  0.00  0.00    -0.006 C 
ATOM     22  H   LIG d   1       8.618  -2.487  -9.262  0.00  0.00     0.031 H 
ATOM     23  H   LIG d   1       7.934  -0.893  -8.868  0.00  0.00     0.031 H 
ATOM     24  H   LIG d   1       7.845  -2.216  -7.681  0.00  0.00     0.031 H 
ENDBRANCH  19  21
ENDBRANCH  16  19
ENDBRANCH  13  16
ENDBRANCH   8  13
BRANCH   7  25
ATOM     25  C   LIG d   1       4.122   0.258  -7.531  0.00  0.00    -0.014 A 
ATOM     26  C   LIG d   1       5.265   0.743  -8.168  0.00  0.00    -0.054 A 
ATOM     27  C   LIG d   1       5.161   1.789  -9.062  0.00  0.00    -0.061 A 
ATOM     28  H   LIG d   1       6.227   0.298  -7.964  0.00  0.00     0.062 H 
ATOM     29  C   LIG d   1       3.929   2.364  -9.319  0.00  0.00    -0.062 A 
ATOM     30  H   LIG d   1       6.045   2.162  -9.559  0.00  0.00     0.062 H 
ATOM     31  C   LIG d   1       2.794   1.890  -8.687  0.00  0.00    -0.061 A 
ATOM     32  H   LIG d   1       3.854   3.184 -10.017  0.00  0.00     0.062 H 
ATOM     33  C   LIG d   1       2.884   0.841  -7.795  0.00  0.00    -0.054 A 
ATOM     34  H   LIG d   1       1.835   2.343  -8.891  0.00  0.00     0.062 H 
ATOM     35  H   LIG d   1       1.996   0.472  -7.303  0.00  0.00     0.062 H 
ENDBRANCH   7  25
BRANCH   1  36
ATOM     36  C   LIG d   1       4.293   1.127  -1.845  0.00  0.00    -0.040 C 
ATOM     37  H   LIG d   1       3.350   1.665  -1.933  0.00  0.00     0.028 H 
ATOM     38  H   LIG d   1       4.391   0.726  -0.836  0.00  0.00     0.028 H 
ATOM     39  H   LIG d   1       5.120   1.808  -2.048  0.00  0.00     0.028 H 
ENDBRANCH   1  36
TORSDOF 6
ENDMDL
MODEL 10
REMARK VINA RESULT:      -5.6      2.682      6.298
REMARK  6 active torsions:
REMARK  status: ('A' for Active; 'I' for Inactive)
REMARK    1  A    between atoms: C_1  and  C_2 
REMARK    2  A    between atoms: C_8  and  C_16 
REMARK    3  A    between atoms: C_9  and  C_11 
REMARK    4  A    between atoms: C_11  and  C_12 
REMARK    5  A    between atoms: C_12  and  C_13 
REMARK    6  A    between atoms: C_13  and  C_15 
ROOT
ATOM      1  C   LIG d   1       2.701  -0.293  -9.412  0.00  0.00    -0.050 A 
ATOM      2  C   LIG d   1       3.665   0.144 -10.310  0.00  0.00    -0.055 A 
ATOM      3  C   LIG d   1       4.960   0.368  -9.897  0.00  0.00    -0.018 A 
ATOM      4  C   LIG d   1       5.313   0.155  -8.570  0.00  0.00     0.136 A 
ATOM      5  C   LIG d   1       4.336  -0.287  -7.663  0.00  0.00     0.028 A 
ATOM      6  C   LIG d   1       3.029  -0.504  -8.091  0.00  0.00    -0.048 A 
ATOM      7  C   LIG d   1       5.029  -0.409  -6.368  0.00  0.00     0.031 A 
ATOM      8  C   LIG d   1       6.311  -0.045  -6.598  0.00  0.00     0.114 A 
ATOM      9  O   LIG d   1       6.470   0.284  -7.889  0.00  0.00    -0.459 OA
ATOM     10  H   LIG d   1       3.396   0.311 -11.343  0.00  0.00     0.062 H 
ATOM     11  H   LIG d   1       5.702   0.707 -10.605  0.00  0.00     0.065 H 
ATOM     12  H   LIG d   1       2.278  -0.841  -7.391  0.00  0.00     0.063 H 
ENDROOT
BRANCH   8  13
ATOM     13  C   LIG d   1       7.401  -0.013  -5.556  0.00  0.00     0.013 C 
ATOM     14  H   LIG d   1       6.977  -0.246  -4.579  0.00  0.00     0.035 H 
ATOM     15  H   LIG d   1       8.165  -0.748  -5.805  0.00  0.00     0.035 H 
BRANCH  13  16
ATOM     16  C   LIG d   1       8.028   1.383  -5.519  0.00  0.00     0.012 C 
ATOM     17  H   LIG d   1       9.075   1.318  -5.814  0.00  0.00     0.035 H 
ATOM     18  H   LIG d   1       7.497   2.039  -6.207  0.00  0.00     0.035 H 
BRANCH  16  19
ATOM     19  C   LIG d   1       7.934   1.938  -4.120  0.00  0.00     0.131 C 
ATOM     20  O   LIG d   1       6.911   1.819  -3.490  0.00  0.00    -0.298 OA
BRANCH  19  21
ATOM     21  C   LIG d   1       9.118   2.644  -3.510  0.00  0.00    -0.006 C 
ATOM     22  H   LIG d   1       9.942   2.652  -4.222  0.00  0.00     0.031 H 
ATOM     23  H   LIG d   1       8.841   3.669  -3.263  0.00  0.00     0.031 H 
ATOM     24  H   LIG d   1       9.424   2.122  -2.603  0.00  0.00     0.031 H 
ENDBRANCH  19  21
ENDBRANCH  16  19
ENDBRANCH  13  16
ENDBRANCH   8  13
BRANCH   7  25
ATOM     25  C   LIG d   1       4.440  -0.842  -5.077  0.00  0.00    -0.014 A 
ATOM     26  C   LIG d   1       3.481  -0.052  -4.445  0.00  0.00    -0.054 A 
ATOM     27  C   LIG d   1       2.933  -0.462  -3.248  0.00  0.00    -0.061 A 
ATOM     28  H   LIG d   1       3.165   0.878  -4.895  0.00  0.00     0.062 H 
ATOM     29  C   LIG d   1       3.341  -1.651  -2.668  0.00  0.00    -0.062 A 
ATOM     30  H   LIG d   1       2.186   0.147  -2.760  0.00  0.00     0.062 H 
ATOM     31  C   LIG d   1       4.296  -2.436  -3.288  0.00  0.00    -0.061 A 
ATOM     32  H   LIG d   1       2.912  -1.966  -1.729  0.00  0.00     0.062 H 
ATOM     33  C   LIG d   1       4.847  -2.038  -4.489  0.00  0.00    -0.054 A 
ATOM     34  H   LIG d   1       4.611  -3.362  -2.831  0.00  0.00     0.062 H 
ATOM     35  H   LIG d   1       5.592  -2.653  -4.972  0.00  0.00     0.062 H 
ENDBRANCH   7  25
BRANCH   1  36
ATOM     36  C   LIG d   1       1.289  -0.532  -9.883  0.00  0.00    -0.040 C 
ATOM     37  H   LIG d   1       0.733   0.404  -9.851  0.00  0.00     0.028 H 
ATOM     38  H   LIG d   1       1.306  -0.911 -10.905  0.00  0.00     0.028 H 
ATOM     39  H   LIG d   1       0.809  -1.263  -9.232  0.00  0.00     0.028 H 
ENDBRANCH   1  36
TORSDOF 6
ENDMDL
