MODEL 1
REMARK VINA RESULT:      -5.9      0.000      0.000
REMARK  4 active torsions:
REMARK  status: ('A' for Active; 'I' for Inactive)
REMARK    1  A    between atoms: C_1  and  O_2 
REMARK    2  A    between atoms: O_2  and  C_3 
REMARK    3  A    between atoms: C_9  and  C_14 
REMARK    4  A    between atoms: C_14  and  C_15 
ROOT
ATOM      1  C   LIG d   1       7.599   0.448  -3.850  0.00  0.00     0.120 A 
ATOM      2  C   LIG d   1       7.786  -0.707  -4.602  0.00  0.00    -0.019 A 
ATOM      3  C   LIG d   1       6.866  -1.712  -4.558  0.00  0.00    -0.048 A 
ATOM      4  C   LIG d   1       5.727  -1.595  -3.743  0.00  0.00     0.021 A 
ATOM      5  C   LIG d   1       5.541  -0.435  -2.987  0.00  0.00    -0.030 A 
ATOM      6  C   LIG d   1       6.474   0.579  -3.044  0.00  0.00    -0.016 A 
ATOM      7  C   LIG d   1       4.254  -0.541  -2.204  0.00  0.00    -0.003 A 
ATOM      8  H   LIG d   1       4.460  -0.487  -1.136  0.00  0.00     0.036 H 
ATOM      9  C   LIG d   1       3.649  -1.908  -2.556  0.00  0.00     0.018 A 
ATOM     10  C   LIG d   1       4.617  -2.534  -3.531  0.00  0.00     0.164 A 
ATOM     11  O   LIG d   1       4.499  -3.624  -4.050  0.00  0.00    -0.292 OA
ATOM     12  H   LIG d   1       8.661  -0.805  -5.228  0.00  0.00     0.065 H 
ATOM     13  H   LIG d   1       7.016  -2.605  -5.148  0.00  0.00     0.063 H 
ATOM     14  H   LIG d   1       6.332   1.476  -2.460  0.00  0.00     0.066 H 
ATOM     15  H   LIG d   1       2.745  -1.777  -2.961  0.00  0.00     0.035 H 
ATOM     16  H   LIG d   1       3.563  -2.524  -1.662  0.00  0.00     0.035 H 
ENDROOT
BRANCH   7  17
ATOM     17  C   LIG d   1       3.296   0.579  -2.614  0.00  0.00    -0.006 C 
ATOM     18  H   LIG d   1       2.433   0.581  -1.947  0.00  0.00     0.033 H 
ATOM     19  H   LIG d   1       3.809   1.539  -2.547  0.00  0.00     0.033 H 
BRANCH  17  20
ATOM     20  C   LIG d   1       2.836   0.354  -4.031  0.00  0.00     0.042 C 
ATOM     21  O   LIG d   1       1.789  -0.209  -4.243  0.00  0.00    -0.550 OA
ATOM     22  O   LIG d   1       3.590   0.781  -5.057  0.00  0.00    -0.550 OA
ENDBRANCH  17  20
ENDBRANCH   7  17
BRANCH   1  23
ATOM     23  O   LIG d   1       8.516   1.447  -3.903  0.00  0.00    -0.495 OA
BRANCH  23  24
ATOM     24  C   LIG d   1       8.346   2.430  -4.925  0.00  0.00     0.079 C 
ATOM     25  H   LIG d   1       8.138   1.935  -5.875  0.00  0.00     0.066 H 
ATOM     26  H   LIG d   1       7.513   3.083  -4.667  0.00  0.00     0.066 H 
ATOM     27  H   LIG d   1       9.256   3.022  -5.016  0.00  0.00     0.066 H 
ENDBRANCH  23  24
ENDBRANCH   1  23
TORSDOF 4
ENDMDL
MODEL 2
REMARK VINA RESULT:      -5.7      2.344      3.476
REMARK  4 active torsions:
REMARK  status: ('A' for Active; 'I' for Inactive)
REMARK    1  A    between atoms: C_1  and  O_2 
REMARK    2  A    between atoms: O_2  and  C_3 
REMARK    3  A    between atoms: C_9  and  C_14 
REMARK    4  A    between atoms: C_14  and  C_15 
ROOT
ATOM      1  C   LIG d   1       6.452  -2.989  -5.116  0.00  0.00     0.120 A 
ATOM      2  C   LIG d   1       6.306  -2.257  -6.290  0.00  0.00    -0.019 A 
ATOM      3  C   LIG d   1       5.337  -1.303  -6.389  0.00  0.00    -0.048 A 
ATOM      4  C   LIG d   1       4.470  -1.059  -5.311  0.00  0.00     0.021 A 
ATOM      5  C   LIG d   1       4.616  -1.796  -4.133  0.00  0.00    -0.030 A 
ATOM      6  C   LIG d   1       5.603  -2.753  -4.040  0.00  0.00    -0.016 A 
ATOM      7  C   LIG d   1       3.581  -1.352  -3.127  0.00  0.00    -0.003 A 
ATOM      8  H   LIG d   1       2.934  -2.188  -2.862  0.00  0.00     0.036 H 
ATOM      9  C   LIG d   1       2.762  -0.247  -3.811  0.00  0.00     0.018 A 
ATOM     10  C   LIG d   1       3.363  -0.100  -5.188  0.00  0.00     0.164 A 
ATOM     11  O   LIG d   1       2.996   0.677  -6.044  0.00  0.00    -0.292 OA
ATOM     12  H   LIG d   1       6.967  -2.443  -7.124  0.00  0.00     0.065 H 
ATOM     13  H   LIG d   1       5.233  -0.736  -7.303  0.00  0.00     0.063 H 
ATOM     14  H   LIG d   1       5.718  -3.324  -3.130  0.00  0.00     0.066 H 
ATOM     15  H   LIG d   1       2.835   0.597  -3.280  0.00  0.00     0.035 H 
ATOM     16  H   LIG d   1       1.717  -0.543  -3.885  0.00  0.00     0.035 H 
ENDROOT
BRANCH   7  17
ATOM     17  C   LIG d   1       4.267  -0.800  -1.876  0.00  0.00    -0.006 C 
ATOM     18  H   LIG d   1       3.643  -0.996  -1.003  0.00  0.00     0.033 H 
ATOM     19  H   LIG d   1       5.234  -1.285  -1.747  0.00  0.00     0.033 H 
BRANCH  17  20
ATOM     20  C   LIG d   1       4.467   0.686  -2.027  0.00  0.00     0.042 C 
ATOM     21  O   LIG d   1       3.558   1.445  -1.790  0.00  0.00    -0.550 OA
ATOM     22  O   LIG d   1       5.657   1.166  -2.423  0.00  0.00    -0.550 OA
ENDBRANCH  17  20
ENDBRANCH   7  17
BRANCH   1  23
ATOM     23  O   LIG d   1       7.422  -3.933  -5.021  0.00  0.00    -0.495 OA
BRANCH  23  24
ATOM     24  C   LIG d   1       8.546  -3.627  -4.195  0.00  0.00     0.079 C 
ATOM     25  H   LIG d   1       9.400  -4.232  -4.505  0.00  0.00     0.066 H 
ATOM     26  H   LIG d   1       8.794  -2.571  -4.295  0.00  0.00     0.066 H 
ATOM     27  H   LIG d   1       8.305  -3.847  -3.156  0.00  0.00     0.066 H 
ENDBRANCH  23  24
ENDBRANCH   1  23
TORSDOF 4
ENDMDL
MODEL 3
REMARK VINA RESULT:      -5.5      2.445      4.910
REMARK  4 active torsions:
REMARK  status: ('A' for Active; 'I' for Inactive)
REMARK    1  A    between atoms: C_1  and  O_2 
REMARK    2  A    between atoms: O_2  and  C_3 
REMARK    3  A    between atoms: C_9  and  C_14 
REMARK    4  A    between atoms: C_14  and  C_15 
ROOT
ATOM      1  C   LIG d   1       3.576  -0.660  -6.800  0.00  0.00     0.120 A 
ATOM      2  C   LIG d   1       2.764   0.366  -6.328  0.00  0.00    -0.019 A 
ATOM      3  C   LIG d   1       2.765   0.689  -5.003  0.00  0.00    -0.048 A 
ATOM      4  C   LIG d   1       3.578  -0.020  -4.102  0.00  0.00     0.021 A 
ATOM      5  C   LIG d   1       4.392  -1.051  -4.577  0.00  0.00    -0.030 A 
ATOM      6  C   LIG d   1       4.389  -1.365  -5.920  0.00  0.00    -0.016 A 
ATOM      7  C   LIG d   1       5.169  -1.652  -3.431  0.00  0.00    -0.003 A 
ATOM      8  H   LIG d   1       4.919  -2.708  -3.322  0.00  0.00     0.036 H 
ATOM      9  C   LIG d   1       4.747  -0.878  -2.173  0.00  0.00     0.018 A 
ATOM     10  C   LIG d   1       3.741   0.141  -2.650  0.00  0.00     0.164 A 
ATOM     11  O   LIG d   1       3.168   0.953  -1.956  0.00  0.00    -0.292 OA
ATOM     12  H   LIG d   1       2.134   0.912  -7.014  0.00  0.00     0.065 H 
ATOM     13  H   LIG d   1       2.135   1.489  -4.644  0.00  0.00     0.063 H 
ATOM     14  H   LIG d   1       5.018  -2.162  -6.289  0.00  0.00     0.066 H 
ATOM     15  H   LIG d   1       5.550  -0.446  -1.764  0.00  0.00     0.035 H 
ATOM     16  H   LIG d   1       4.288  -1.552  -1.451  0.00  0.00     0.035 H 
ENDROOT
BRANCH   7  17
ATOM     17  C   LIG d   1       6.671  -1.489  -3.670  0.00  0.00    -0.006 C 
ATOM     18  H   LIG d   1       6.834  -0.842  -4.532  0.00  0.00     0.033 H 
ATOM     19  H   LIG d   1       7.133  -1.042  -2.789  0.00  0.00     0.033 H 
BRANCH  17  20
ATOM     20  C   LIG d   1       7.289  -2.838  -3.929  0.00  0.00     0.042 C 
ATOM     21  O   LIG d   1       8.347  -3.125  -3.421  0.00  0.00    -0.550 OA
ATOM     22  O   LIG d   1       6.663  -3.722  -4.722  0.00  0.00    -0.550 OA
ENDBRANCH  17  20
ENDBRANCH   7  17
BRANCH   1  23
ATOM     23  O   LIG d   1       3.575  -0.972  -8.120  0.00  0.00    -0.495 OA
BRANCH  23  24
ATOM     24  C   LIG d   1       2.374  -0.710  -8.848  0.00  0.00     0.079 C 
ATOM     25  H   LIG d   1       1.516  -1.062  -8.274  0.00  0.00     0.066 H 
ATOM     26  H   LIG d   1       2.281   0.362  -9.020  0.00  0.00     0.066 H 
ATOM     27  H   LIG d   1       2.408  -1.230  -9.805  0.00  0.00     0.066 H 
ENDBRANCH  23  24
ENDBRANCH   1  23
TORSDOF 4
ENDMDL
MODEL 4
REMARK VINA RESULT:      -5.4      1.980      2.196
REMARK  4 active torsions:
REMARK  status: ('A' for Active; 'I' for Inactive)
REMARK    1  A    between atoms: C_1  and  O_2 
REMARK    2  A    between atoms: O_2  and  C_3 
REMARK    3  A    between atoms: C_9  and  C_14 
REMARK    4  A    between atoms: C_14  and  C_15 
ROOT
ATOM      1  C   LIG d   1       6.447  -0.034  -6.244  0.00  0.00     0.120 A 
ATOM      2  C   LIG d   1       6.372  -1.243  -6.928  0.00  0.00    -0.019 A 
ATOM      3  C   LIG d   1       5.776  -2.324  -6.349  0.00  0.00    -0.048 A 
ATOM      4  C   LIG d   1       5.243  -2.229  -5.052  0.00  0.00     0.021 A 
ATOM      5  C   LIG d   1       5.320  -1.015  -4.365  0.00  0.00    -0.030 A 
ATOM      6  C   LIG d   1       5.919   0.074  -4.962  0.00  0.00    -0.016 A 
ATOM      7  C   LIG d   1       4.680  -1.160  -3.006  0.00  0.00    -0.003 A 
ATOM      8  H   LIG d   1       5.412  -0.963  -2.224  0.00  0.00     0.036 H 
ATOM      9  C   LIG d   1       4.188  -2.612  -2.915  0.00  0.00     0.018 A 
ATOM     10  C   LIG d   1       4.569  -3.245  -4.231  0.00  0.00     0.164 A 
ATOM     11  O   LIG d   1       4.353  -4.393  -4.557  0.00  0.00    -0.292 OA
ATOM     12  H   LIG d   1       6.783  -1.324  -7.923  0.00  0.00     0.065 H 
ATOM     13  H   LIG d   1       5.717  -3.259  -6.887  0.00  0.00     0.063 H 
ATOM     14  H   LIG d   1       5.980   1.014  -4.433  0.00  0.00     0.066 H 
ATOM     15  H   LIG d   1       3.199  -2.620  -2.769  0.00  0.00     0.035 H 
ATOM     16  H   LIG d   1       4.683  -3.127  -2.092  0.00  0.00     0.035 H 
ENDROOT
BRANCH   7  17
ATOM     17  C   LIG d   1       3.498  -0.196  -2.876  0.00  0.00    -0.006 C 
ATOM     18  H   LIG d   1       2.988  -0.114  -3.836  0.00  0.00     0.033 H 
ATOM     19  H   LIG d   1       2.803  -0.574  -2.126  0.00  0.00     0.033 H 
BRANCH  17  20
ATOM     20  C   LIG d   1       4.001   1.161  -2.456  0.00  0.00     0.042 C 
ATOM     21  O   LIG d   1       3.762   2.130  -3.136  0.00  0.00    -0.550 OA
ATOM     22  O   LIG d   1       4.712   1.292  -1.325  0.00  0.00    -0.550 OA
ENDBRANCH  17  20
ENDBRANCH   7  17
BRANCH   1  23
ATOM     23  O   LIG d   1       7.036   1.040  -6.828  0.00  0.00    -0.495 OA
BRANCH  23  24
ATOM     24  C   LIG d   1       8.211   1.556  -6.201  0.00  0.00     0.079 C 
ATOM     25  H   LIG d   1       8.012   2.562  -5.827  0.00  0.00     0.066 H 
ATOM     26  H   LIG d   1       8.494   0.910  -5.371  0.00  0.00     0.066 H 
ATOM     27  H   LIG d   1       9.024   1.593  -6.926  0.00  0.00     0.066 H 
ENDBRANCH  23  24
ENDBRANCH   1  23
TORSDOF 4
ENDMDL
MODEL 5
REMARK VINA RESULT:      -5.3      2.347      4.593
REMARK  4 active torsions:
REMARK  status: ('A' for Active; 'I' for Inactive)
REMARK    1  A    between atoms: C_1  and  O_2 
REMARK    2  A    between atoms: O_2  and  C_3 
REMARK    3  A    between atoms: C_9  and  C_14 
REMARK    4  A    between atoms: C_14  and  C_15 
ROOT
ATOM      1  C   LIG d   1       4.646  -0.777  -3.246  0.00  0.00     0.120 A 
ATOM      2  C   LIG d   1       5.875  -0.145  -3.084  0.00  0.00    -0.019 A 
ATOM      3  C   LIG d   1       7.021  -0.754  -3.501  0.00  0.00    -0.048 A 
ATOM      4  C   LIG d   1       6.972  -2.031  -4.086  0.00  0.00     0.021 A 
ATOM      5  C   LIG d   1       5.737  -2.665  -4.247  0.00  0.00    -0.030 A 
ATOM      6  C   LIG d   1       4.584  -2.037  -3.829  0.00  0.00    -0.016 A 
ATOM      7  C   LIG d   1       5.941  -4.012  -4.899  0.00  0.00    -0.003 A 
ATOM      8  H   LIG d   1       5.588  -4.804  -4.240  0.00  0.00     0.036 H 
ATOM      9  C   LIG d   1       7.453  -4.153  -5.130  0.00  0.00     0.018 A 
ATOM     10  C   LIG d   1       8.059  -2.877  -4.600  0.00  0.00     0.164 A 
ATOM     11  O   LIG d   1       9.239  -2.596  -4.599  0.00  0.00    -0.292 OA
ATOM     12  H   LIG d   1       5.920   0.835  -2.631  0.00  0.00     0.065 H 
ATOM     13  H   LIG d   1       7.972  -0.256  -3.375  0.00  0.00     0.063 H 
ATOM     14  H   LIG d   1       3.628  -2.526  -3.952  0.00  0.00     0.066 H 
ATOM     15  H   LIG d   1       7.630  -4.273  -6.107  0.00  0.00     0.035 H 
ATOM     16  H   LIG d   1       7.840  -5.011  -4.582  0.00  0.00     0.035 H 
ENDROOT
BRANCH   7  17
ATOM     17  C   LIG d   1       5.198  -4.067  -6.235  0.00  0.00    -0.006 C 
ATOM     18  H   LIG d   1       4.718  -3.107  -6.424  0.00  0.00     0.033 H 
ATOM     19  H   LIG d   1       5.905  -4.284  -7.036  0.00  0.00     0.033 H 
BRANCH  17  20
ATOM     20  C   LIG d   1       4.152  -5.151  -6.183  0.00  0.00     0.042 C 
ATOM     21  O   LIG d   1       3.996  -5.791  -5.171  0.00  0.00    -0.550 OA
ATOM     22  O   LIG d   1       3.393  -5.402  -7.262  0.00  0.00    -0.550 OA
ENDBRANCH  17  20
ENDBRANCH   7  17
BRANCH   1  23
ATOM     23  O   LIG d   1       3.509  -0.162  -2.835  0.00  0.00    -0.495 OA
BRANCH  23  24
ATOM     24  C   LIG d   1       3.620   1.200  -2.421  0.00  0.00     0.079 C 
ATOM     25  H   LIG d   1       4.558   1.617  -2.791  0.00  0.00     0.066 H 
ATOM     26  H   LIG d   1       2.785   1.772  -2.823  0.00  0.00     0.066 H 
ATOM     27  H   LIG d   1       3.605   1.252  -1.332  0.00  0.00     0.066 H 
ENDBRANCH  23  24
ENDBRANCH   1  23
TORSDOF 4
ENDMDL
MODEL 6
REMARK VINA RESULT:      -5.3      3.110      4.378
REMARK  4 active torsions:
REMARK  status: ('A' for Active; 'I' for Inactive)
REMARK    1  A    between atoms: C_1  and  O_2 
REMARK    2  A    between atoms: O_2  and  C_3 
REMARK    3  A    between atoms: C_9  and  C_14 
REMARK    4  A    between atoms: C_14  and  C_15 
ROOT
ATOM      1  C   LIG d   1       3.128  -0.628  -7.932  0.00  0.00     0.120 A 
ATOM      2  C   LIG d   1       3.589  -1.894  -8.280  0.00  0.00    -0.019 A 
ATOM      3  C   LIG d   1       4.350  -2.612  -7.407  0.00  0.00    -0.048 A 
ATOM      4  C   LIG d   1       4.688  -2.075  -6.153  0.00  0.00     0.021 A 
ATOM      5  C   LIG d   1       4.226  -0.803  -5.805  0.00  0.00    -0.030 A 
ATOM      6  C   LIG d   1       3.450  -0.088  -6.692  0.00  0.00    -0.016 A 
ATOM      7  C   LIG d   1       4.710  -0.451  -4.419  0.00  0.00    -0.003 A 
ATOM      8  H   LIG d   1       5.335   0.442  -4.456  0.00  0.00     0.036 H 
ATOM      9  C   LIG d   1       5.533  -1.652  -3.932  0.00  0.00     0.018 A 
ATOM     10  C   LIG d   1       5.489  -2.650  -5.064  0.00  0.00     0.164 A 
ATOM     11  O   LIG d   1       6.021  -3.740  -5.071  0.00  0.00    -0.292 OA
ATOM     12  H   LIG d   1       3.337  -2.311  -9.244  0.00  0.00     0.065 H 
ATOM     13  H   LIG d   1       4.701  -3.597  -7.682  0.00  0.00     0.063 H 
ATOM     14  H   LIG d   1       3.093   0.896  -6.425  0.00  0.00     0.066 H 
ATOM     15  H   LIG d   1       5.126  -2.018  -3.096  0.00  0.00     0.035 H 
ATOM     16  H   LIG d   1       6.561  -1.350  -3.736  0.00  0.00     0.035 H 
ENDROOT
BRANCH   7  17
ATOM     17  C   LIG d   1       3.517  -0.219  -3.488  0.00  0.00    -0.006 C 
ATOM     18  H   LIG d   1       2.594  -0.243  -4.068  0.00  0.00     0.033 H 
ATOM     19  H   LIG d   1       3.490  -1.003  -2.731  0.00  0.00     0.033 H 
BRANCH  17  20
ATOM     20  C   LIG d   1       3.656   1.123  -2.817  0.00  0.00     0.042 C 
ATOM     21  O   LIG d   1       3.944   1.185  -1.646  0.00  0.00    -0.550 OA
ATOM     22  O   LIG d   1       3.462   2.249  -3.522  0.00  0.00    -0.550 OA
ENDBRANCH  17  20
ENDBRANCH   7  17
BRANCH   1  23
ATOM     23  O   LIG d   1       2.366   0.079  -8.803  0.00  0.00    -0.495 OA
BRANCH  23  24
ATOM     24  C   LIG d   1       1.613  -0.667  -9.761  0.00  0.00     0.079 C 
ATOM     25  H   LIG d   1       0.690  -1.022  -9.301  0.00  0.00     0.066 H 
ATOM     26  H   LIG d   1       1.373  -0.029 -10.611  0.00  0.00     0.066 H 
ATOM     27  H   LIG d   1       2.200  -1.520 -10.101  0.00  0.00     0.066 H 
ENDBRANCH  23  24
ENDBRANCH   1  23
TORSDOF 4
ENDMDL
MODEL 7
REMARK VINA RESULT:      -5.2      3.703      5.088
REMARK  4 active torsions:
REMARK  status: ('A' for Active; 'I' for Inactive)
REMARK    1  A    between atoms: C_1  and  O_2 
REMARK    2  A    between atoms: O_2  and  C_3 
REMARK    3  A    between atoms: C_9  and  C_14 
REMARK    4  A    between atoms: C_14  and  C_15 
ROOT
ATOM      1  C   LIG d   1       3.312  -0.057  -4.304  0.00  0.00     0.120 A 
ATOM      2  C   LIG d   1       4.339  -0.990  -4.414  0.00  0.00    -0.019 A 
ATOM      3  C   LIG d   1       4.755  -1.412  -5.642  0.00  0.00    -0.048 A 
ATOM      4  C   LIG d   1       4.142  -0.917  -6.806  0.00  0.00     0.021 A 
ATOM      5  C   LIG d   1       3.111   0.019  -6.694  0.00  0.00    -0.030 A 
ATOM      6  C   LIG d   1       2.702   0.444  -5.448  0.00  0.00    -0.016 A 
ATOM      7  C   LIG d   1       2.622   0.401  -8.070  0.00  0.00    -0.003 A 
ATOM      8  H   LIG d   1       1.569   0.143  -8.178  0.00  0.00     0.036 H 
ATOM      9  C   LIG d   1       3.467  -0.406  -9.066  0.00  0.00     0.018 A 
ATOM     10  C   LIG d   1       4.412  -1.223  -8.218  0.00  0.00     0.164 A 
ATOM     11  O   LIG d   1       5.250  -1.996  -8.630  0.00  0.00    -0.292 OA
ATOM     12  H   LIG d   1       4.810  -1.378  -3.523  0.00  0.00     0.065 H 
ATOM     13  H   LIG d   1       5.555  -2.133  -5.720  0.00  0.00     0.063 H 
ATOM     14  H   LIG d   1       1.905   1.167  -5.359  0.00  0.00     0.066 H 
ATOM     15  H   LIG d   1       3.957   0.221  -9.672  0.00  0.00     0.035 H 
ATOM     16  H   LIG d   1       2.830  -1.062  -9.658  0.00  0.00     0.035 H 
ENDROOT
BRANCH   7  17
ATOM     17  C   LIG d   1       2.824   1.899  -8.303  0.00  0.00    -0.006 C 
ATOM     18  H   LIG d   1       1.915   2.328  -8.726  0.00  0.00     0.033 H 
ATOM     19  H   LIG d   1       3.048   2.388  -7.355  0.00  0.00     0.033 H 
BRANCH  17  20
ATOM     20  C   LIG d   1       3.970   2.110  -9.259  0.00  0.00     0.042 C 
ATOM     21  O   LIG d   1       3.758   2.208 -10.443  0.00  0.00    -0.550 OA
ATOM     22  O   LIG d   1       5.227   2.189  -8.792  0.00  0.00    -0.550 OA
ENDBRANCH  17  20
ENDBRANCH   7  17
BRANCH   1  23
ATOM     23  O   LIG d   1       2.907   0.363  -3.079  0.00  0.00    -0.495 OA
BRANCH  23  24
ATOM     24  C   LIG d   1       3.827   1.155  -2.327  0.00  0.00     0.079 C 
ATOM     25  H   LIG d   1       4.266   0.549  -1.533  0.00  0.00     0.066 H 
ATOM     26  H   LIG d   1       4.616   1.518  -2.985  0.00  0.00     0.066 H 
ATOM     27  H   LIG d   1       3.303   2.003  -1.888  0.00  0.00     0.066 H 
ENDBRANCH  23  24
ENDBRANCH   1  23
TORSDOF 4
ENDMDL
MODEL 8
REMARK VINA RESULT:      -5.1      2.707      3.901
REMARK  4 active torsions:
REMARK  status: ('A' for Active; 'I' for Inactive)
REMARK    1  A    between atoms: C_1  and  O_2 
REMARK    2  A    between atoms: O_2  and  C_3 
REMARK    3  A    between atoms: C_9  and  C_14 
REMARK    4  A    between atoms: C_14  and  C_15 
ROOT
ATOM      1  C   LIG d   1       6.385  -2.219  -5.513  0.00  0.00     0.120 A 
ATOM      2  C   LIG d   1       6.028  -2.702  -4.258  0.00  0.00    -0.019 A 
ATOM      3  C   LIG d   1       4.905  -2.241  -3.638  0.00  0.00    -0.048 A 
ATOM      4  C   LIG d   1       4.106  -1.263  -4.255  0.00  0.00     0.021 A 
ATOM      5  C   LIG d   1       4.466  -0.777  -5.515  0.00  0.00    -0.030 A 
ATOM      6  C   LIG d   1       5.600  -1.256  -6.136  0.00  0.00    -0.016 A 
ATOM      7  C   LIG d   1       3.458   0.251  -5.968  0.00  0.00    -0.003 A 
ATOM      8  H   LIG d   1       3.946   1.213  -6.119  0.00  0.00     0.036 H 
ATOM      9  C   LIG d   1       2.417   0.357  -4.845  0.00  0.00     0.018 A 
ATOM     10  C   LIG d   1       2.871  -0.619  -3.786  0.00  0.00     0.164 A 
ATOM     11  O   LIG d   1       2.313  -0.835  -2.731  0.00  0.00    -0.292 OA
ATOM     12  H   LIG d   1       6.640  -3.450  -3.776  0.00  0.00     0.065 H 
ATOM     13  H   LIG d   1       4.631  -2.624  -2.666  0.00  0.00     0.063 H 
ATOM     14  H   LIG d   1       5.881  -0.881  -7.110  0.00  0.00     0.066 H 
ATOM     15  H   LIG d   1       1.514   0.123  -5.205  0.00  0.00     0.035 H 
ATOM     16  H   LIG d   1       2.398   1.368  -4.442  0.00  0.00     0.035 H 
ENDROOT
BRANCH   7  17
ATOM     17  C   LIG d   1       2.787  -0.207  -7.265  0.00  0.00    -0.006 C 
ATOM     18  H   LIG d   1       3.320  -1.069  -7.666  0.00  0.00     0.033 H 
ATOM     19  H   LIG d   1       1.752  -0.483  -7.061  0.00  0.00     0.033 H 
BRANCH  17  20
ATOM     20  C   LIG d   1       2.818   0.915  -8.270  0.00  0.00     0.042 C 
ATOM     21  O   LIG d   1       3.192   2.014  -7.937  0.00  0.00    -0.550 OA
ATOM     22  O   LIG d   1       2.430   0.693  -9.536  0.00  0.00    -0.550 OA
ENDBRANCH  17  20
ENDBRANCH   7  17
BRANCH   1  23
ATOM     23  O   LIG d   1       7.501  -2.687  -6.127  0.00  0.00    -0.495 OA
BRANCH  23  24
ATOM     24  C   LIG d   1       8.008  -3.945  -5.681  0.00  0.00     0.079 C 
ATOM     25  H   LIG d   1       7.645  -4.737  -6.338  0.00  0.00     0.066 H 
ATOM     26  H   LIG d   1       9.097  -3.926  -5.703  0.00  0.00     0.066 H 
ATOM     27  H   LIG d   1       7.668  -4.134  -4.663  0.00  0.00     0.066 H 
ENDBRANCH  23  24
ENDBRANCH   1  23
TORSDOF 4
ENDMDL
MODEL 9
REMARK VINA RESULT:      -5.0      5.742      9.458
REMARK  4 active torsions:
REMARK  status: ('A' for Active; 'I' for Inactive)
REMARK    1  A    between atoms: C_1  and  O_2 
REMARK    2  A    between atoms: O_2  and  C_3 
REMARK    3  A    between atoms: C_9  and  C_14 
REMARK    4  A    between atoms: C_14  and  C_15 
ROOT
ATOM      1  C   LIG d   1       9.816   4.202  -3.966  0.00  0.00     0.120 A 
ATOM      2  C   LIG d   1       9.793   5.149  -4.985  0.00  0.00    -0.019 A 
ATOM      3  C   LIG d   1       9.862   6.478  -4.689  0.00  0.00    -0.048 A 
ATOM      4  C   LIG d   1       9.945   6.903  -3.352  0.00  0.00     0.021 A 
ATOM      5  C   LIG d   1       9.968   5.951  -2.330  0.00  0.00    -0.030 A 
ATOM      6  C   LIG d   1       9.904   4.609  -2.640  0.00  0.00    -0.016 A 
ATOM      7  C   LIG d   1      10.066   6.646  -0.993  0.00  0.00    -0.003 A 
ATOM      8  H   LIG d   1       9.196   6.407  -0.382  0.00  0.00     0.036 H 
ATOM      9  C   LIG d   1      10.103   8.151  -1.293  0.00  0.00     0.018 A 
ATOM     10  C   LIG d   1      10.024   8.261  -2.796  0.00  0.00     0.164 A 
ATOM     11  O   LIG d   1      10.026   9.292  -3.435  0.00  0.00    -0.292 OA
ATOM     12  H   LIG d   1       9.724   4.829  -6.015  0.00  0.00     0.065 H 
ATOM     13  H   LIG d   1       9.848   7.208  -5.486  0.00  0.00     0.063 H 
ATOM     14  H   LIG d   1       9.921   3.872  -1.851  0.00  0.00     0.066 H 
ATOM     15  H   LIG d   1      10.951   8.541  -0.935  0.00  0.00     0.035 H 
ATOM     16  H   LIG d   1       9.250   8.649  -0.833  0.00  0.00     0.035 H 
ENDROOT
BRANCH   7  17
ATOM     17  C   LIG d   1      11.348   6.222  -0.273  0.00  0.00    -0.006 C 
ATOM     18  H   LIG d   1      11.579   5.186  -0.522  0.00  0.00     0.033 H 
ATOM     19  H   LIG d   1      12.171   6.863  -0.589  0.00  0.00     0.033 H 
BRANCH  17  20
ATOM     20  C   LIG d   1      11.154   6.351   1.216  0.00  0.00     0.042 C 
ATOM     21  O   LIG d   1      10.656   5.445   1.840  0.00  0.00    -0.550 OA
ATOM     22  O   LIG d   1      11.536   7.473   1.847  0.00  0.00    -0.550 OA
ENDBRANCH  17  20
ENDBRANCH   7  17
BRANCH   1  23
ATOM     23  O   LIG d   1       9.753   2.880  -4.268  0.00  0.00    -0.495 OA
BRANCH  23  24
ATOM     24  C   LIG d   1       8.637   2.151  -3.757  0.00  0.00     0.079 C 
ATOM     25  H   LIG d   1       8.899   1.095  -3.673  0.00  0.00     0.066 H 
ATOM     26  H   LIG d   1       8.369   2.538  -2.774  0.00  0.00     0.066 H 
ATOM     27  H   LIG d   1       7.790   2.261  -4.434  0.00  0.00     0.066 H 
ENDBRANCH  23  24
ENDBRANCH   1  23
TORSDOF 4
ENDMDL
MODEL 10
REMARK VINA RESULT:      -4.9      2.517      3.275
REMARK  4 active torsions:
REMARK  status: ('A' for Active; 'I' for Inactive)
REMARK    1  A    between atoms: C_1  and  O_2 
REMARK    2  A    between atoms: O_2  and  C_3 
REMARK    3  A    between atoms: C_9  and  C_14 
REMARK    4  A    between atoms: C_14  and  C_15 
ROOT
ATOM      1  C   LIG d   1       8.918  -3.404  -3.939  0.00  0.00     0.120 A 
ATOM      2  C   LIG d   1       8.357  -4.261  -4.880  0.00  0.00    -0.019 A 
ATOM      3  C   LIG d   1       7.030  -4.180  -5.179  0.00  0.00    -0.048 A 
ATOM      4  C   LIG d   1       6.214  -3.238  -4.529  0.00  0.00     0.021 A 
ATOM      5  C   LIG d   1       6.777  -2.378  -3.583  0.00  0.00    -0.030 A 
ATOM      6  C   LIG d   1       8.122  -2.464  -3.293  0.00  0.00    -0.016 A 
ATOM      7  C   LIG d   1       5.711  -1.462  -3.034  0.00  0.00    -0.003 A 
ATOM      8  H   LIG d   1       5.608  -1.609  -1.959  0.00  0.00     0.036 H 
ATOM      9  C   LIG d   1       4.406  -1.845  -3.745  0.00  0.00     0.018 A 
ATOM     10  C   LIG d   1       4.776  -2.972  -4.679  0.00  0.00     0.164 A 
ATOM     11  O   LIG d   1       4.019  -3.555  -5.426  0.00  0.00    -0.292 OA
ATOM     12  H   LIG d   1       8.978  -4.990  -5.380  0.00  0.00     0.065 H 
ATOM     13  H   LIG d   1       6.602  -4.846  -5.914  0.00  0.00     0.063 H 
ATOM     14  H   LIG d   1       8.560  -1.800  -2.562  0.00  0.00     0.066 H 
ATOM     15  H   LIG d   1       4.051  -1.052  -4.240  0.00  0.00     0.035 H 
ATOM     16  H   LIG d   1       3.666  -2.184  -3.021  0.00  0.00     0.035 H 
ENDROOT
BRANCH   7  17
ATOM     17  C   LIG d   1       6.065  -0.004  -3.334  0.00  0.00    -0.006 C 
ATOM     18  H   LIG d   1       7.057   0.218  -2.941  0.00  0.00     0.033 H 
ATOM     19  H   LIG d   1       6.057   0.157  -4.412  0.00  0.00     0.033 H 
BRANCH  17  20
ATOM     20  C   LIG d   1       5.052   0.903  -2.684  0.00  0.00     0.042 C 
ATOM     21  O   LIG d   1       4.978   0.960  -1.480  0.00  0.00    -0.550 OA
ATOM     22  O   LIG d   1       4.234   1.649  -3.444  0.00  0.00    -0.550 OA
ENDBRANCH  17  20
ENDBRANCH   7  17
BRANCH   1  23
ATOM     23  O   LIG d   1      10.241  -3.486  -3.650  0.00  0.00    -0.495 OA
BRANCH  23  24
ATOM     24  C   LIG d   1      11.155  -3.152  -4.696  0.00  0.00     0.079 C 
ATOM     25  H   LIG d   1      12.045  -2.688  -4.267  0.00  0.00     0.066 H 
ATOM     26  H   LIG d   1      11.440  -4.056  -5.232  0.00  0.00     0.066 H 
ATOM     27  H   LIG d   1      10.680  -2.455  -5.386  0.00  0.00     0.066 H 
ENDBRANCH  23  24
ENDBRANCH   1  23
TORSDOF 4
ENDMDL
