MODEL 1
REMARK VINA RESULT:      -5.0      0.000      0.000
REMARK  8 active torsions:
REMARK  status: ('A' for Active; 'I' for Inactive)
REMARK    1  A    between atoms: C_1  and  O_2 
REMARK    2  A    between atoms: O_2  and  C_3 
REMARK    3  A    between atoms: C_8  and  O_9 
REMARK    4  A    between atoms: O_9  and  C_10 
REMARK    5  A    between atoms: C_10  and  C_11 
REMARK    6  A    between atoms: C_11  and  C_13 
REMARK    7  A    between atoms: C_11  and  O_15 
REMARK    8  A    between atoms: C_13  and  O_14 
ROOT
ATOM      1  C   LIG d   1       4.010  -0.489  -4.263  0.00  0.00     0.162 A 
ATOM      2  C   LIG d   1       4.091   0.666  -3.500  0.00  0.00    -0.016 A 
ATOM      3  C   LIG d   1       4.311   0.580  -2.138  0.00  0.00    -0.058 A 
ATOM      4  C   LIG d   1       4.451  -0.656  -1.534  0.00  0.00    -0.058 A 
ATOM      5  C   LIG d   1       4.371  -1.811  -2.289  0.00  0.00    -0.016 A 
ATOM      6  C   LIG d   1       4.145  -1.732  -3.653  0.00  0.00     0.162 A 
ATOM      7  H   LIG d   1       3.984   1.632  -3.971  0.00  0.00     0.066 H 
ATOM      8  H   LIG d   1       4.374   1.480  -1.545  0.00  0.00     0.062 H 
ATOM      9  H   LIG d   1       4.623  -0.718  -0.470  0.00  0.00     0.062 H 
ATOM     10  H   LIG d   1       4.480  -2.775  -1.814  0.00  0.00     0.066 H 
ENDROOT
BRANCH   6  11
ATOM     11  O   LIG d   1       4.061  -2.868  -4.396  0.00  0.00    -0.486 OA
BRANCH  11  12
ATOM     12  C   LIG d   1       5.277  -3.375  -4.946  0.00  0.00     0.118 C 
ATOM     13  H   LIG d   1       6.046  -2.605  -4.900  0.00  0.00     0.072 H 
ATOM     14  H   LIG d   1       5.599  -4.246  -4.374  0.00  0.00     0.072 H 
BRANCH  12  15
ATOM     15  C   LIG d   1       5.048  -3.781  -6.404  0.00  0.00     0.112 C 
ATOM     16  H   LIG d   1       5.995  -3.751  -6.942  0.00  0.00     0.065 H 
BRANCH  15  17
ATOM     17  C   LIG d   1       4.478  -5.200  -6.455  0.00  0.00     0.073 C 
ATOM     18  H   LIG d   1       4.662  -5.631  -7.439  0.00  0.00     0.058 H 
ATOM     19  H   LIG d   1       4.960  -5.813  -5.694  0.00  0.00     0.058 H 
BRANCH  17  20
ATOM     20  O   LIG d   1       3.070  -5.156  -6.211  0.00  0.00    -0.392 OA
ATOM     21  H   LIG d   1       2.766  -4.333  -5.806  0.00  0.00     0.209 HD
ENDBRANCH  17  20
ENDBRANCH  15  17
BRANCH  15  22
ATOM     22  O   LIG d   1       4.126  -2.875  -7.012  0.00  0.00    -0.386 OA
ATOM     23  H   LIG d   1       4.485  -2.398  -7.772  0.00  0.00     0.210 HD
ENDBRANCH  15  22
ENDBRANCH  12  15
ENDBRANCH  11  12
ENDBRANCH   6  11
BRANCH   1  24
ATOM     24  O   LIG d   1       3.794  -0.406  -5.603  0.00  0.00    -0.491 OA
BRANCH  24  25
ATOM     25  C   LIG d   1       2.679   0.378  -6.033  0.00  0.00     0.079 C 
ATOM     26  H   LIG d   1       2.029  -0.230  -6.662  0.00  0.00     0.066 H 
ATOM     27  H   LIG d   1       2.122   0.725  -5.163  0.00  0.00     0.066 H 
ATOM     28  H   LIG d   1       3.037   1.236  -6.603  0.00  0.00     0.066 H 
ENDBRANCH  24  25
ENDBRANCH   1  24
TORSDOF 8
ENDMDL
MODEL 2
REMARK VINA RESULT:      -4.8      1.339      3.797
REMARK  8 active torsions:
REMARK  status: ('A' for Active; 'I' for Inactive)
REMARK    1  A    between atoms: C_1  and  O_2 
REMARK    2  A    between atoms: O_2  and  C_3 
REMARK    3  A    between atoms: C_8  and  O_9 
REMARK    4  A    between atoms: O_9  and  C_10 
REMARK    5  A    between atoms: C_10  and  C_11 
REMARK    6  A    between atoms: C_11  and  C_13 
REMARK    7  A    between atoms: C_11  and  O_15 
REMARK    8  A    between atoms: C_13  and  O_14 
ROOT
ATOM      1  C   LIG d   1       4.210  -1.539  -3.876  0.00  0.00     0.162 A 
ATOM      2  C   LIG d   1       4.347  -1.911  -2.547  0.00  0.00    -0.016 A 
ATOM      3  C   LIG d   1       4.466  -0.943  -1.567  0.00  0.00    -0.058 A 
ATOM      4  C   LIG d   1       4.447   0.397  -1.909  0.00  0.00    -0.058 A 
ATOM      5  C   LIG d   1       4.311   0.774  -3.232  0.00  0.00    -0.016 A 
ATOM      6  C   LIG d   1       4.198  -0.191  -4.219  0.00  0.00     0.162 A 
ATOM      7  H   LIG d   1       4.361  -2.957  -2.278  0.00  0.00     0.066 H 
ATOM      8  H   LIG d   1       4.572  -1.233  -0.533  0.00  0.00     0.062 H 
ATOM      9  H   LIG d   1       4.539   1.150  -1.140  0.00  0.00     0.062 H 
ATOM     10  H   LIG d   1       4.297   1.821  -3.496  0.00  0.00     0.066 H 
ENDROOT
BRANCH   6  11
ATOM     11  O   LIG d   1       4.069   0.179  -5.522  0.00  0.00    -0.486 OA
BRANCH  11  12
ATOM     12  C   LIG d   1       2.742   0.328  -6.026  0.00  0.00     0.118 C 
ATOM     13  H   LIG d   1       2.049  -0.233  -5.398  0.00  0.00     0.072 H 
ATOM     14  H   LIG d   1       2.466   1.384  -6.017  0.00  0.00     0.072 H 
BRANCH  12  15
ATOM     15  C   LIG d   1       2.677  -0.202  -7.460  0.00  0.00     0.112 C 
ATOM     16  H   LIG d   1       1.636  -0.363  -7.740  0.00  0.00     0.065 H 
BRANCH  15  17
ATOM     17  C   LIG d   1       3.309   0.816  -8.409  0.00  0.00     0.073 C 
ATOM     18  H   LIG d   1       4.378   0.622  -8.491  0.00  0.00     0.058 H 
ATOM     19  H   LIG d   1       2.848   0.732  -9.393  0.00  0.00     0.058 H 
BRANCH  17  20
ATOM     20  O   LIG d   1       3.104   2.135  -7.898  0.00  0.00    -0.392 OA
ATOM     21  H   LIG d   1       2.186   2.435  -7.937  0.00  0.00     0.209 HD
ENDBRANCH  17  20
ENDBRANCH  15  17
BRANCH  15  22
ATOM     22  O   LIG d   1       3.389  -1.438  -7.543  0.00  0.00    -0.386 OA
ATOM     23  H   LIG d   1       3.771  -1.729  -6.704  0.00  0.00     0.210 HD
ENDBRANCH  15  22
ENDBRANCH  12  15
ENDBRANCH  11  12
ENDBRANCH   6  11
BRANCH   1  24
ATOM     24  O   LIG d   1       4.094  -2.490  -4.840  0.00  0.00    -0.491 OA
BRANCH  24  25
ATOM     25  C   LIG d   1       5.135  -3.467  -4.918  0.00  0.00     0.079 C 
ATOM     26  H   LIG d   1       4.791  -4.318  -5.504  0.00  0.00     0.066 H 
ATOM     27  H   LIG d   1       6.010  -3.027  -5.396  0.00  0.00     0.066 H 
ATOM     28  H   LIG d   1       5.397  -3.799  -3.913  0.00  0.00     0.066 H 
ENDBRANCH  24  25
ENDBRANCH   1  24
TORSDOF 8
ENDMDL
MODEL 3
REMARK VINA RESULT:      -4.7      2.891      4.032
REMARK  8 active torsions:
REMARK  status: ('A' for Active; 'I' for Inactive)
REMARK    1  A    between atoms: C_1  and  O_2 
REMARK    2  A    between atoms: O_2  and  C_3 
REMARK    3  A    between atoms: C_8  and  O_9 
REMARK    4  A    between atoms: O_9  and  C_10 
REMARK    5  A    between atoms: C_10  and  C_11 
REMARK    6  A    between atoms: C_11  and  C_13 
REMARK    7  A    between atoms: C_11  and  O_15 
REMARK    8  A    between atoms: C_13  and  O_14 
ROOT
ATOM      1  C   LIG d   1       5.140   0.024  -3.935  0.00  0.00     0.162 A 
ATOM      2  C   LIG d   1       5.365  -0.503  -2.673  0.00  0.00    -0.016 A 
ATOM      3  C   LIG d   1       4.343  -1.151  -2.003  0.00  0.00    -0.058 A 
ATOM      4  C   LIG d   1       3.097  -1.273  -2.589  0.00  0.00    -0.058 A 
ATOM      5  C   LIG d   1       2.867  -0.749  -3.847  0.00  0.00    -0.016 A 
ATOM      6  C   LIG d   1       3.884  -0.094  -4.521  0.00  0.00     0.162 A 
ATOM      7  H   LIG d   1       6.338  -0.410  -2.214  0.00  0.00     0.066 H 
ATOM      8  H   LIG d   1       4.519  -1.562  -1.020  0.00  0.00     0.062 H 
ATOM      9  H   LIG d   1       2.302  -1.780  -2.062  0.00  0.00     0.062 H 
ATOM     10  H   LIG d   1       1.892  -0.846  -4.303  0.00  0.00     0.066 H 
ENDROOT
BRANCH   6  11
ATOM     11  O   LIG d   1       3.657   0.427  -5.757  0.00  0.00    -0.486 OA
BRANCH  11  12
ATOM     12  C   LIG d   1       3.720  -0.475  -6.863  0.00  0.00     0.118 C 
ATOM     13  H   LIG d   1       4.478  -1.234  -6.670  0.00  0.00     0.072 H 
ATOM     14  H   LIG d   1       2.750  -0.955  -6.996  0.00  0.00     0.072 H 
BRANCH  12  15
ATOM     15  C   LIG d   1       4.083   0.299  -8.133  0.00  0.00     0.112 C 
ATOM     16  H   LIG d   1       4.357  -0.404  -8.919  0.00  0.00     0.065 H 
BRANCH  15  17
ATOM     17  C   LIG d   1       2.881   1.129  -8.585  0.00  0.00     0.073 C 
ATOM     18  H   LIG d   1       2.957   1.328  -9.654  0.00  0.00     0.058 H 
ATOM     19  H   LIG d   1       1.962   0.580  -8.382  0.00  0.00     0.058 H 
BRANCH  17  20
ATOM     20  O   LIG d   1       2.862   2.368  -7.872  0.00  0.00    -0.392 OA
ATOM     21  H   LIG d   1       2.490   2.305  -6.982  0.00  0.00     0.209 HD
ENDBRANCH  17  20
ENDBRANCH  15  17
BRANCH  15  22
ATOM     22  O   LIG d   1       5.187   1.166  -7.863  0.00  0.00    -0.386 OA
ATOM     23  H   LIG d   1       4.962   2.105  -7.880  0.00  0.00     0.210 HD
ENDBRANCH  15  22
ENDBRANCH  12  15
ENDBRANCH  11  12
ENDBRANCH   6  11
BRANCH   1  24
ATOM     24  O   LIG d   1       6.144   0.661  -4.595  0.00  0.00    -0.491 OA
BRANCH  24  25
ATOM     25  C   LIG d   1       7.219   1.174  -3.804  0.00  0.00     0.079 C 
ATOM     26  H   LIG d   1       6.871   1.345  -2.786  0.00  0.00     0.066 H 
ATOM     27  H   LIG d   1       8.036   0.453  -3.791  0.00  0.00     0.066 H 
ATOM     28  H   LIG d   1       7.568   2.113  -4.232  0.00  0.00     0.066 H 
ENDBRANCH  24  25
ENDBRANCH   1  24
TORSDOF 8
ENDMDL
MODEL 4
REMARK VINA RESULT:      -4.5      2.673      3.727
REMARK  8 active torsions:
REMARK  status: ('A' for Active; 'I' for Inactive)
REMARK    1  A    between atoms: C_1  and  O_2 
REMARK    2  A    between atoms: O_2  and  C_3 
REMARK    3  A    between atoms: C_8  and  O_9 
REMARK    4  A    between atoms: O_9  and  C_10 
REMARK    5  A    between atoms: C_10  and  C_11 
REMARK    6  A    between atoms: C_11  and  C_13 
REMARK    7  A    between atoms: C_11  and  O_15 
REMARK    8  A    between atoms: C_13  and  O_14 
ROOT
ATOM      1  C   LIG d   1       4.095  -0.372  -4.633  0.00  0.00     0.162 A 
ATOM      2  C   LIG d   1       2.936  -0.349  -3.873  0.00  0.00    -0.016 A 
ATOM      3  C   LIG d   1       2.856  -1.096  -2.713  0.00  0.00    -0.058 A 
ATOM      4  C   LIG d   1       3.930  -1.866  -2.307  0.00  0.00    -0.058 A 
ATOM      5  C   LIG d   1       5.088  -1.893  -3.061  0.00  0.00    -0.016 A 
ATOM      6  C   LIG d   1       5.173  -1.153  -4.228  0.00  0.00     0.162 A 
ATOM      7  H   LIG d   1       2.096   0.254  -4.188  0.00  0.00     0.066 H 
ATOM      8  H   LIG d   1       1.953  -1.077  -2.121  0.00  0.00     0.062 H 
ATOM      9  H   LIG d   1       3.863  -2.448  -1.399  0.00  0.00     0.062 H 
ATOM     10  H   LIG d   1       5.926  -2.497  -2.742  0.00  0.00     0.066 H 
ENDROOT
BRANCH   6  11
ATOM     11  O   LIG d   1       6.310  -1.183  -4.973  0.00  0.00    -0.486 OA
BRANCH  11  12
ATOM     12  C   LIG d   1       7.497  -0.669  -4.367  0.00  0.00     0.118 C 
ATOM     13  H   LIG d   1       7.312  -0.479  -3.310  0.00  0.00     0.072 H 
ATOM     14  H   LIG d   1       8.302  -1.397  -4.471  0.00  0.00     0.072 H 
BRANCH  12  15
ATOM     15  C   LIG d   1       7.899   0.636  -5.058  0.00  0.00     0.112 C 
ATOM     16  H   LIG d   1       8.920   0.895  -4.778  0.00  0.00     0.065 H 
BRANCH  15  17
ATOM     17  C   LIG d   1       7.816   0.457  -6.575  0.00  0.00     0.073 C 
ATOM     18  H   LIG d   1       8.669   0.945  -7.046  0.00  0.00     0.058 H 
ATOM     19  H   LIG d   1       7.826  -0.606  -6.817  0.00  0.00     0.058 H 
BRANCH  17  20
ATOM     20  O   LIG d   1       6.606   1.044  -7.058  0.00  0.00    -0.392 OA
ATOM     21  H   LIG d   1       6.708   1.952  -7.375  0.00  0.00     0.209 HD
ENDBRANCH  17  20
ENDBRANCH  15  17
BRANCH  15  22
ATOM     22  O   LIG d   1       7.013   1.682  -4.653  0.00  0.00    -0.386 OA
ATOM     23  H   LIG d   1       6.094   1.401  -4.552  0.00  0.00     0.210 HD
ENDBRANCH  15  22
ENDBRANCH  12  15
ENDBRANCH  11  12
ENDBRANCH   6  11
BRANCH   1  24
ATOM     24  O   LIG d   1       4.175   0.362  -5.775  0.00  0.00    -0.491 OA
BRANCH  24  25
ATOM     25  C   LIG d   1       3.191   0.109  -6.780  0.00  0.00     0.079 C 
ATOM     26  H   LIG d   1       2.817   1.055  -7.169  0.00  0.00     0.066 H 
ATOM     27  H   LIG d   1       3.640  -0.465  -7.591  0.00  0.00     0.066 H 
ATOM     28  H   LIG d   1       2.367  -0.458  -6.347  0.00  0.00     0.066 H 
ENDBRANCH  24  25
ENDBRANCH   1  24
TORSDOF 8
ENDMDL
MODEL 5
REMARK VINA RESULT:      -4.4      1.664      2.428
REMARK  8 active torsions:
REMARK  status: ('A' for Active; 'I' for Inactive)
REMARK    1  A    between atoms: C_1  and  O_2 
REMARK    2  A    between atoms: O_2  and  C_3 
REMARK    3  A    between atoms: C_8  and  O_9 
REMARK    4  A    between atoms: O_9  and  C_10 
REMARK    5  A    between atoms: C_10  and  C_11 
REMARK    6  A    between atoms: C_11  and  C_13 
REMARK    7  A    between atoms: C_11  and  O_15 
REMARK    8  A    between atoms: C_13  and  O_14 
ROOT
ATOM      1  C   LIG d   1       5.496  -1.468  -3.274  0.00  0.00     0.162 A 
ATOM      2  C   LIG d   1       5.518  -0.308  -2.515  0.00  0.00    -0.016 A 
ATOM      3  C   LIG d   1       4.334   0.326  -2.188  0.00  0.00    -0.058 A 
ATOM      4  C   LIG d   1       3.126  -0.194  -2.616  0.00  0.00    -0.058 A 
ATOM      5  C   LIG d   1       3.098  -1.351  -3.373  0.00  0.00    -0.016 A 
ATOM      6  C   LIG d   1       4.281  -1.987  -3.709  0.00  0.00     0.162 A 
ATOM      7  H   LIG d   1       6.460   0.100  -2.178  0.00  0.00     0.066 H 
ATOM      8  H   LIG d   1       4.352   1.229  -1.596  0.00  0.00     0.062 H 
ATOM      9  H   LIG d   1       2.204   0.304  -2.357  0.00  0.00     0.062 H 
ATOM     10  H   LIG d   1       2.153  -1.754  -3.706  0.00  0.00     0.066 H 
ENDROOT
BRANCH   6  11
ATOM     11  O   LIG d   1       4.255  -3.122  -4.458  0.00  0.00    -0.486 OA
BRANCH  11  12
ATOM     12  C   LIG d   1       4.589  -2.994  -5.841  0.00  0.00     0.118 C 
ATOM     13  H   LIG d   1       3.908  -2.289  -6.316  0.00  0.00     0.072 H 
ATOM     14  H   LIG d   1       5.613  -2.631  -5.935  0.00  0.00     0.072 H 
BRANCH  12  15
ATOM     15  C   LIG d   1       4.468  -4.359  -6.524  0.00  0.00     0.112 C 
ATOM     16  H   LIG d   1       4.453  -4.223  -7.605  0.00  0.00     0.065 H 
BRANCH  15  17
ATOM     17  C   LIG d   1       5.664  -5.230  -6.136  0.00  0.00     0.073 C 
ATOM     18  H   LIG d   1       5.308  -6.166  -5.704  0.00  0.00     0.058 H 
ATOM     19  H   LIG d   1       6.262  -5.443  -7.021  0.00  0.00     0.058 H 
BRANCH  17  20
ATOM     20  O   LIG d   1       6.465  -4.539  -5.175  0.00  0.00    -0.392 OA
ATOM     21  H   LIG d   1       7.181  -5.072  -4.802  0.00  0.00     0.209 HD
ENDBRANCH  17  20
ENDBRANCH  15  17
BRANCH  15  22
ATOM     22  O   LIG d   1       3.259  -4.995  -6.105  0.00  0.00    -0.386 OA
ATOM     23  H   LIG d   1       3.391  -5.861  -5.697  0.00  0.00     0.210 HD
ENDBRANCH  15  22
ENDBRANCH  12  15
ENDBRANCH  11  12
ENDBRANCH   6  11
BRANCH   1  24
ATOM     24  O   LIG d   1       6.660  -2.092  -3.596  0.00  0.00    -0.491 OA
BRANCH  24  25
ATOM     25  C   LIG d   1       7.625  -1.331  -4.325  0.00  0.00     0.079 C 
ATOM     26  H   LIG d   1       7.449  -1.449  -5.394  0.00  0.00     0.066 H 
ATOM     27  H   LIG d   1       7.536  -0.278  -4.056  0.00  0.00     0.066 H 
ATOM     28  H   LIG d   1       8.627  -1.685  -4.081  0.00  0.00     0.066 H 
ENDBRANCH  24  25
ENDBRANCH   1  24
TORSDOF 8
ENDMDL
MODEL 6
REMARK VINA RESULT:      -4.3     11.055     13.435
REMARK  8 active torsions:
REMARK  status: ('A' for Active; 'I' for Inactive)
REMARK    1  A    between atoms: C_1  and  O_2 
REMARK    2  A    between atoms: O_2  and  C_3 
REMARK    3  A    between atoms: C_8  and  O_9 
REMARK    4  A    between atoms: O_9  and  C_10 
REMARK    5  A    between atoms: C_10  and  C_11 
REMARK    6  A    between atoms: C_11  and  C_13 
REMARK    7  A    between atoms: C_11  and  O_15 
REMARK    8  A    between atoms: C_13  and  O_14 
ROOT
ATOM      1  C   LIG d   1       9.858   8.072  -0.818  0.00  0.00     0.162 A 
ATOM      2  C   LIG d   1      10.657   7.292   0.003  0.00  0.00    -0.016 A 
ATOM      3  C   LIG d   1      11.400   7.883   1.008  0.00  0.00    -0.058 A 
ATOM      4  C   LIG d   1      11.347   9.252   1.197  0.00  0.00    -0.058 A 
ATOM      5  C   LIG d   1      10.552  10.035   0.381  0.00  0.00    -0.016 A 
ATOM      6  C   LIG d   1       9.811   9.449  -0.632  0.00  0.00     0.162 A 
ATOM      7  H   LIG d   1      10.699   6.222  -0.141  0.00  0.00     0.066 H 
ATOM      8  H   LIG d   1      12.021   7.275   1.648  0.00  0.00     0.062 H 
ATOM      9  H   LIG d   1      11.928   9.710   1.984  0.00  0.00     0.062 H 
ATOM     10  H   LIG d   1      10.513  11.104   0.530  0.00  0.00     0.066 H 
ENDROOT
BRANCH   6  11
ATOM     11  O   LIG d   1       9.033  10.219  -1.439  0.00  0.00    -0.486 OA
BRANCH  11  12
ATOM     12  C   LIG d   1       9.673  11.299  -2.120  0.00  0.00     0.118 C 
ATOM     13  H   LIG d   1       9.779  12.145  -1.441  0.00  0.00     0.072 H 
ATOM     14  H   LIG d   1      10.659  10.980  -2.460  0.00  0.00     0.072 H 
BRANCH  12  15
ATOM     15  C   LIG d   1       8.828  11.715  -3.327  0.00  0.00     0.112 C 
ATOM     16  H   LIG d   1       9.009  12.766  -3.551  0.00  0.00     0.065 H 
BRANCH  15  17
ATOM     17  C   LIG d   1       9.213  10.861  -4.537  0.00  0.00     0.073 C 
ATOM     18  H   LIG d   1       8.463  10.979  -5.318  0.00  0.00     0.058 H 
ATOM     19  H   LIG d   1      10.184  11.181  -4.914  0.00  0.00     0.058 H 
BRANCH  17  20
ATOM     20  O   LIG d   1       9.281   9.488  -4.148  0.00  0.00    -0.392 OA
ATOM     21  H   LIG d   1       9.752   9.336  -3.318  0.00  0.00     0.209 HD
ENDBRANCH  17  20
ENDBRANCH  15  17
BRANCH  15  22
ATOM     22  O   LIG d   1       7.445  11.522  -3.028  0.00  0.00    -0.386 OA
ATOM     23  H   LIG d   1       6.993  12.321  -2.725  0.00  0.00     0.210 HD
ENDBRANCH  15  22
ENDBRANCH  12  15
ENDBRANCH  11  12
ENDBRANCH   6  11
BRANCH   1  24
ATOM     24  O   LIG d   1       9.128   7.491  -1.807  0.00  0.00    -0.491 OA
BRANCH  24  25
ATOM     25  C   LIG d   1       9.702   6.354  -2.457  0.00  0.00     0.079 C 
ATOM     26  H   LIG d   1      10.208   6.673  -3.367  0.00  0.00     0.066 H 
ATOM     27  H   LIG d   1      10.421   5.880  -1.790  0.00  0.00     0.066 H 
ATOM     28  H   LIG d   1       8.914   5.644  -2.708  0.00  0.00     0.066 H 
ENDBRANCH  24  25
ENDBRANCH   1  24
TORSDOF 8
ENDMDL
MODEL 7
REMARK VINA RESULT:      -4.2      3.130      5.626
REMARK  8 active torsions:
REMARK  status: ('A' for Active; 'I' for Inactive)
REMARK    1  A    between atoms: C_1  and  O_2 
REMARK    2  A    between atoms: O_2  and  C_3 
REMARK    3  A    between atoms: C_8  and  O_9 
REMARK    4  A    between atoms: O_9  and  C_10 
REMARK    5  A    between atoms: C_10  and  C_11 
REMARK    6  A    between atoms: C_11  and  C_13 
REMARK    7  A    between atoms: C_11  and  O_15 
REMARK    8  A    between atoms: C_13  and  O_14 
ROOT
ATOM      1  C   LIG d   1       4.388   1.171  -8.937  0.00  0.00     0.162 A 
ATOM      2  C   LIG d   1       4.023   1.159 -10.274  0.00  0.00    -0.016 A 
ATOM      3  C   LIG d   1       2.915   0.438 -10.680  0.00  0.00    -0.058 A 
ATOM      4  C   LIG d   1       2.169  -0.270  -9.756  0.00  0.00    -0.058 A 
ATOM      5  C   LIG d   1       2.529  -0.261  -8.421  0.00  0.00    -0.016 A 
ATOM      6  C   LIG d   1       3.642   0.454  -8.008  0.00  0.00     0.162 A 
ATOM      7  H   LIG d   1       4.603   1.712 -10.997  0.00  0.00     0.066 H 
ATOM      8  H   LIG d   1       2.631   0.429 -11.722  0.00  0.00     0.062 H 
ATOM      9  H   LIG d   1       1.305  -0.830 -10.078  0.00  0.00     0.062 H 
ATOM     10  H   LIG d   1       1.945  -0.815  -7.701  0.00  0.00     0.066 H 
ENDROOT
BRANCH   6  11
ATOM     11  O   LIG d   1       3.999   0.458  -6.696  0.00  0.00    -0.486 OA
BRANCH  11  12
ATOM     12  C   LIG d   1       4.293  -0.805  -6.099  0.00  0.00     0.118 C 
ATOM     13  H   LIG d   1       3.698  -1.581  -6.579  0.00  0.00     0.072 H 
ATOM     14  H   LIG d   1       5.353  -1.029  -6.225  0.00  0.00     0.072 H 
BRANCH  12  15
ATOM     15  C   LIG d   1       3.957  -0.755  -4.606  0.00  0.00     0.112 C 
ATOM     16  H   LIG d   1       4.847  -0.474  -4.044  0.00  0.00     0.065 H 
BRANCH  15  17
ATOM     17  C   LIG d   1       2.854   0.277  -4.366  0.00  0.00     0.073 C 
ATOM     18  H   LIG d   1       2.734   0.439  -3.295  0.00  0.00     0.058 H 
ATOM     19  H   LIG d   1       3.123   1.217  -4.848  0.00  0.00     0.058 H 
BRANCH  17  20
ATOM     20  O   LIG d   1       1.624  -0.204  -4.913  0.00  0.00    -0.392 OA
ATOM     21  H   LIG d   1       0.872  -0.139  -4.309  0.00  0.00     0.209 HD
ENDBRANCH  17  20
ENDBRANCH  15  17
BRANCH  15  22
ATOM     22  O   LIG d   1       3.508  -2.041  -4.176  0.00  0.00    -0.386 OA
ATOM     23  H   LIG d   1       2.840  -2.012  -3.479  0.00  0.00     0.210 HD
ENDBRANCH  15  22
ENDBRANCH  12  15
ENDBRANCH  11  12
ENDBRANCH   6  11
BRANCH   1  24
ATOM     24  O   LIG d   1       5.478   1.879  -8.536  0.00  0.00    -0.491 OA
BRANCH  24  25
ATOM     25  C   LIG d   1       6.740   1.496  -9.087  0.00  0.00     0.079 C 
ATOM     26  H   LIG d   1       6.587   1.051 -10.069  0.00  0.00     0.066 H 
ATOM     27  H   LIG d   1       7.376   2.376  -9.181  0.00  0.00     0.066 H 
ATOM     28  H   LIG d   1       7.218   0.770  -8.429  0.00  0.00     0.066 H 
ENDBRANCH  24  25
ENDBRANCH   1  24
TORSDOF 8
ENDMDL
MODEL 8
REMARK VINA RESULT:      -4.2     10.031     12.538
REMARK  8 active torsions:
REMARK  status: ('A' for Active; 'I' for Inactive)
REMARK    1  A    between atoms: C_1  and  O_2 
REMARK    2  A    between atoms: O_2  and  C_3 
REMARK    3  A    between atoms: C_8  and  O_9 
REMARK    4  A    between atoms: O_9  and  C_10 
REMARK    5  A    between atoms: C_10  and  C_11 
REMARK    6  A    between atoms: C_11  and  C_13 
REMARK    7  A    between atoms: C_11  and  O_15 
REMARK    8  A    between atoms: C_13  and  O_14 
ROOT
ATOM      1  C   LIG d   1      10.133   5.939  -1.578  0.00  0.00     0.162 A 
ATOM      2  C   LIG d   1      10.172   4.741  -2.275  0.00  0.00    -0.016 A 
ATOM      3  C   LIG d   1       9.973   4.731  -3.643  0.00  0.00    -0.058 A 
ATOM      4  C   LIG d   1       9.736   5.913  -4.319  0.00  0.00    -0.058 A 
ATOM      5  C   LIG d   1       9.696   7.111  -3.630  0.00  0.00    -0.016 A 
ATOM      6  C   LIG d   1       9.888   7.128  -2.258  0.00  0.00     0.162 A 
ATOM      7  H   LIG d   1      10.358   3.816  -1.748  0.00  0.00     0.066 H 
ATOM      8  H   LIG d   1      10.004   3.797  -4.184  0.00  0.00     0.062 H 
ATOM      9  H   LIG d   1       9.582   5.900  -5.388  0.00  0.00     0.062 H 
ATOM     10  H   LIG d   1       9.510   8.033  -4.161  0.00  0.00     0.066 H 
ENDROOT
BRANCH   6  11
ATOM     11  O   LIG d   1       9.843   8.305  -1.579  0.00  0.00    -0.486 OA
BRANCH  11  12
ATOM     12  C   LIG d   1      10.163   9.489  -2.311  0.00  0.00     0.118 C 
ATOM     13  H   LIG d   1      11.198   9.768  -2.117  0.00  0.00     0.072 H 
ATOM     14  H   LIG d   1      10.029   9.304  -3.377  0.00  0.00     0.072 H 
BRANCH  12  15
ATOM     15  C   LIG d   1       9.237  10.626  -1.872  0.00  0.00     0.112 C 
ATOM     16  H   LIG d   1       9.753  11.253  -1.145  0.00  0.00     0.065 H 
BRANCH  15  17
ATOM     17  C   LIG d   1       8.851  11.468  -3.089  0.00  0.00     0.073 C 
ATOM     18  H   LIG d   1       9.361  12.430  -3.043  0.00  0.00     0.058 H 
ATOM     19  H   LIG d   1       9.142  10.945  -4.001  0.00  0.00     0.058 H 
BRANCH  17  20
ATOM     20  O   LIG d   1       7.438  11.680  -3.093  0.00  0.00    -0.392 OA
ATOM     21  H   LIG d   1       6.918  10.871  -3.000  0.00  0.00     0.209 HD
ENDBRANCH  17  20
ENDBRANCH  15  17
BRANCH  15  22
ATOM     22  O   LIG d   1       8.059  10.078  -1.278  0.00  0.00    -0.386 OA
ATOM     23  H   LIG d   1       7.591  10.691  -0.695  0.00  0.00     0.210 HD
ENDBRANCH  15  22
ENDBRANCH  12  15
ENDBRANCH  11  12
ENDBRANCH   6  11
BRANCH   1  24
ATOM     24  O   LIG d   1      10.328   5.951  -0.233  0.00  0.00    -0.491 OA
BRANCH  24  25
ATOM     25  C   LIG d   1      11.669   5.779   0.231  0.00  0.00     0.079 C 
ATOM     26  H   LIG d   1      12.304   6.552  -0.201  0.00  0.00     0.066 H 
ATOM     27  H   LIG d   1      11.690   5.858   1.318  0.00  0.00     0.066 H 
ATOM     28  H   LIG d   1      12.034   4.798  -0.070  0.00  0.00     0.066 H 
ENDBRANCH  24  25
ENDBRANCH   1  24
TORSDOF 8
ENDMDL
MODEL 9
REMARK VINA RESULT:      -4.1      4.032      5.599
REMARK  8 active torsions:
REMARK  status: ('A' for Active; 'I' for Inactive)
REMARK    1  A    between atoms: C_1  and  O_2 
REMARK    2  A    between atoms: O_2  and  C_3 
REMARK    3  A    between atoms: C_8  and  O_9 
REMARK    4  A    between atoms: O_9  and  C_10 
REMARK    5  A    between atoms: C_10  and  C_11 
REMARK    6  A    between atoms: C_11  and  C_13 
REMARK    7  A    between atoms: C_11  and  O_15 
REMARK    8  A    between atoms: C_13  and  O_14 
ROOT
ATOM      1  C   LIG d   1       6.051  -0.804  -3.520  0.00  0.00     0.162 A 
ATOM      2  C   LIG d   1       5.206  -1.491  -2.663  0.00  0.00    -0.016 A 
ATOM      3  C   LIG d   1       4.370  -0.793  -1.811  0.00  0.00    -0.058 A 
ATOM      4  C   LIG d   1       4.376   0.590  -1.812  0.00  0.00    -0.058 A 
ATOM      5  C   LIG d   1       5.216   1.280  -2.665  0.00  0.00    -0.016 A 
ATOM      6  C   LIG d   1       6.061   0.587  -3.516  0.00  0.00     0.162 A 
ATOM      7  H   LIG d   1       5.199  -2.571  -2.661  0.00  0.00     0.066 H 
ATOM      8  H   LIG d   1       3.712  -1.328  -1.143  0.00  0.00     0.062 H 
ATOM      9  H   LIG d   1       3.721   1.131  -1.145  0.00  0.00     0.062 H 
ATOM     10  H   LIG d   1       5.219   2.361  -2.663  0.00  0.00     0.066 H 
ENDROOT
BRANCH   6  11
ATOM     11  O   LIG d   1       6.892   1.265  -4.352  0.00  0.00    -0.486 OA
BRANCH  11  12
ATOM     12  C   LIG d   1       8.068   1.835  -3.775  0.00  0.00     0.118 C 
ATOM     13  H   LIG d   1       7.991   2.922  -3.794  0.00  0.00     0.072 H 
ATOM     14  H   LIG d   1       8.168   1.496  -2.744  0.00  0.00     0.072 H 
BRANCH  12  15
ATOM     15  C   LIG d   1       9.295   1.396  -4.577  0.00  0.00     0.112 C 
ATOM     16  H   LIG d   1       9.196   1.735  -5.607  0.00  0.00     0.065 H 
BRANCH  15  17
ATOM     17  C   LIG d   1      10.554   2.005  -3.957  0.00  0.00     0.073 C 
ATOM     18  H   LIG d   1      10.332   3.010  -3.597  0.00  0.00     0.058 H 
ATOM     19  H   LIG d   1      10.887   1.386  -3.125  0.00  0.00     0.058 H 
BRANCH  17  20
ATOM     20  O   LIG d   1      11.585   2.072  -4.944  0.00  0.00    -0.392 OA
ATOM     21  H   LIG d   1      11.294   1.836  -5.835  0.00  0.00     0.209 HD
ENDBRANCH  17  20
ENDBRANCH  15  17
BRANCH  15  22
ATOM     22  O   LIG d   1       9.394  -0.029  -4.552  0.00  0.00    -0.386 OA
ATOM     23  H   LIG d   1      10.072  -0.387  -5.140  0.00  0.00     0.210 HD
ENDBRANCH  15  22
ENDBRANCH  12  15
ENDBRANCH  11  12
ENDBRANCH   6  11
BRANCH   1  24
ATOM     24  O   LIG d   1       6.874  -1.490  -4.358  0.00  0.00    -0.491 OA
BRANCH  24  25
ATOM     25  C   LIG d   1       6.279  -2.069  -5.522  0.00  0.00     0.079 C 
ATOM     26  H   LIG d   1       6.523  -3.130  -5.564  0.00  0.00     0.066 H 
ATOM     27  H   LIG d   1       5.197  -1.947  -5.475  0.00  0.00     0.066 H 
ATOM     28  H   LIG d   1       6.663  -1.571  -6.412  0.00  0.00     0.066 H 
ENDBRANCH  24  25
ENDBRANCH   1  24
TORSDOF 8
ENDMDL
MODEL 10
REMARK VINA RESULT:      -4.1      2.161      3.047
REMARK  8 active torsions:
REMARK  status: ('A' for Active; 'I' for Inactive)
REMARK    1  A    between atoms: C_1  and  O_2 
REMARK    2  A    between atoms: O_2  and  C_3 
REMARK    3  A    between atoms: C_8  and  O_9 
REMARK    4  A    between atoms: O_9  and  C_10 
REMARK    5  A    between atoms: C_10  and  C_11 
REMARK    6  A    between atoms: C_11  and  C_13 
REMARK    7  A    between atoms: C_11  and  O_15 
REMARK    8  A    between atoms: C_13  and  O_14 
ROOT
ATOM      1  C   LIG d   1       5.971   0.560  -3.561  0.00  0.00     0.162 A 
ATOM      2  C   LIG d   1       5.334   1.231  -2.529  0.00  0.00    -0.016 A 
ATOM      3  C   LIG d   1       4.505   0.541  -1.664  0.00  0.00    -0.058 A 
ATOM      4  C   LIG d   1       4.310  -0.818  -1.825  0.00  0.00    -0.058 A 
ATOM      5  C   LIG d   1       4.942  -1.493  -2.853  0.00  0.00    -0.016 A 
ATOM      6  C   LIG d   1       5.769  -0.806  -3.727  0.00  0.00     0.162 A 
ATOM      7  H   LIG d   1       5.487   2.293  -2.400  0.00  0.00     0.066 H 
ATOM      8  H   LIG d   1       4.010   1.065  -0.860  0.00  0.00     0.062 H 
ATOM      9  H   LIG d   1       3.662  -1.353  -1.147  0.00  0.00     0.062 H 
ATOM     10  H   LIG d   1       4.787  -2.555  -2.977  0.00  0.00     0.066 H 
ENDROOT
BRANCH   6  11
ATOM     11  O   LIG d   1       6.387  -1.469  -4.741  0.00  0.00    -0.486 OA
BRANCH  11  12
ATOM     12  C   LIG d   1       5.938  -1.188  -6.068  0.00  0.00     0.118 C 
ATOM     13  H   LIG d   1       6.205  -0.165  -6.333  0.00  0.00     0.072 H 
ATOM     14  H   LIG d   1       6.411  -1.880  -6.765  0.00  0.00     0.072 H 
BRANCH  12  15
ATOM     15  C   LIG d   1       4.418  -1.354  -6.139  0.00  0.00     0.112 C 
ATOM     16  H   LIG d   1       4.009  -1.378  -5.129  0.00  0.00     0.065 H 
BRANCH  15  17
ATOM     17  C   LIG d   1       3.812  -0.179  -6.907  0.00  0.00     0.073 C 
ATOM     18  H   LIG d   1       3.642   0.653  -6.225  0.00  0.00     0.058 H 
ATOM     19  H   LIG d   1       4.497   0.133  -7.696  0.00  0.00     0.058 H 
BRANCH  17  20
ATOM     20  O   LIG d   1       2.569  -0.579  -7.488  0.00  0.00    -0.392 OA
ATOM     21  H   LIG d   1       2.599  -0.686  -8.448  0.00  0.00     0.209 HD
ENDBRANCH  17  20
ENDBRANCH  15  17
BRANCH  15  22
ATOM     22  O   LIG d   1       4.104  -2.575  -6.810  0.00  0.00    -0.386 OA
ATOM     23  H   LIG d   1       4.084  -2.501  -7.773  0.00  0.00     0.210 HD
ENDBRANCH  15  22
ENDBRANCH  12  15
ENDBRANCH  11  12
ENDBRANCH   6  11
BRANCH   1  24
ATOM     24  O   LIG d   1       6.786   1.237  -4.413  0.00  0.00    -0.491 OA
BRANCH  24  25
ATOM     25  C   LIG d   1       7.987   1.784  -3.864  0.00  0.00     0.079 C 
ATOM     26  H   LIG d   1       8.075   2.831  -4.152  0.00  0.00     0.066 H 
ATOM     27  H   LIG d   1       7.958   1.708  -2.778  0.00  0.00     0.066 H 
ATOM     28  H   LIG d   1       8.845   1.230  -4.245  0.00  0.00     0.066 H 
ENDBRANCH  24  25
ENDBRANCH   1  24
TORSDOF 8
ENDMDL
