MODEL 1
REMARK VINA RESULT:      -4.2      0.000      0.000
REMARK  4 active torsions:
REMARK  status: ('A' for Active; 'I' for Inactive)
REMARK    1  A    between atoms: C_1  and  C_2 
REMARK    2  A    between atoms: C_2  and  C_3 
REMARK    3  A    between atoms: C_3  and  C_4 
REMARK    4  A    between atoms: C_5  and  C_6 
ROOT
ATOM      1  C   LIG d   1       4.238   0.482  -1.910  0.00  0.00    -0.035 C 
ATOM      2  H   LIG d   1       4.187   0.881  -0.897  0.00  0.00     0.031 H 
ATOM      3  H   LIG d   1       3.261   0.565  -2.384  0.00  0.00     0.031 H 
ENDROOT
BRANCH   1   4
ATOM      4  C   LIG d   1       4.656  -0.989  -1.856  0.00  0.00    -0.052 C 
ATOM      5  H   LIG d   1       5.613  -1.114  -2.363  0.00  0.00     0.027 H 
ATOM      6  H   LIG d   1       4.752  -1.303  -0.817  0.00  0.00     0.027 H 
BRANCH   4   7
ATOM      7  C   LIG d   1       3.596  -1.846  -2.551  0.00  0.00    -0.065 C 
ATOM      8  H   LIG d   1       2.617  -1.632  -2.121  0.00  0.00     0.023 H 
ATOM      9  H   LIG d   1       3.583  -1.616  -3.616  0.00  0.00     0.023 H 
ATOM     10  H   LIG d   1       3.831  -2.901  -2.409  0.00  0.00     0.023 H 
ENDBRANCH   4   7
ENDBRANCH   1   4
BRANCH   1  11
ATOM     11  C   LIG d   1       5.252   1.263  -2.706  0.00  0.00    -0.082 C 
ATOM     12  C   LIG d   1       6.337   0.655  -3.180  0.00  0.00    -0.043 C 
ATOM     13  H   LIG d   1       6.491  -0.398  -2.994  0.00  0.00     0.063 H 
ATOM     14  H   LIG d   1       5.097   2.315  -2.894  0.00  0.00     0.057 H 
BRANCH  12  15
ATOM     15  C   LIG d   1       7.325   1.416  -3.958  0.00  0.00     0.064 C 
ATOM     16  O   LIG d   1       8.167   2.080  -3.387  0.00  0.00    -0.545 OA
ATOM     17  O   LIG d   1       7.297   1.375  -5.305  0.00  0.00    -0.545 OA
ENDBRANCH  12  15
ENDBRANCH   1  11
TORSDOF 4
ENDMDL
MODEL 2
REMARK VINA RESULT:      -4.1      3.020      4.207
REMARK  4 active torsions:
REMARK  status: ('A' for Active; 'I' for Inactive)
REMARK    1  A    between atoms: C_1  and  C_2 
REMARK    2  A    between atoms: C_2  and  C_3 
REMARK    3  A    between atoms: C_3  and  C_4 
REMARK    4  A    between atoms: C_5  and  C_6 
ROOT
ATOM      1  C   LIG d   1       4.387  -0.663  -1.655  0.00  0.00    -0.035 C 
ATOM      2  H   LIG d   1       3.306  -0.787  -1.715  0.00  0.00     0.031 H 
ATOM      3  H   LIG d   1       4.732  -0.949  -0.661  0.00  0.00     0.031 H 
ENDROOT
BRANCH   1   4
ATOM      4  C   LIG d   1       4.747   0.800  -1.918  0.00  0.00    -0.052 C 
ATOM      5  H   LIG d   1       4.939   1.304  -0.971  0.00  0.00     0.027 H 
ATOM      6  H   LIG d   1       5.639   0.849  -2.543  0.00  0.00     0.027 H 
BRANCH   4   7
ATOM      7  C   LIG d   1       3.585   1.491  -2.636  0.00  0.00    -0.065 C 
ATOM      8  H   LIG d   1       3.956   2.367  -3.168  0.00  0.00     0.023 H 
ATOM      9  H   LIG d   1       3.133   0.798  -3.346  0.00  0.00     0.023 H 
ATOM     10  H   LIG d   1       2.838   1.799  -1.904  0.00  0.00     0.023 H 
ENDBRANCH   4   7
ENDBRANCH   1   4
BRANCH   1  11
ATOM     11  C   LIG d   1       5.051  -1.537  -2.688  0.00  0.00    -0.082 C 
ATOM     12  C   LIG d   1       4.329  -2.411  -3.384  0.00  0.00    -0.043 C 
ATOM     13  H   LIG d   1       3.266  -2.494  -3.209  0.00  0.00     0.063 H 
ATOM     14  H   LIG d   1       6.114  -1.453  -2.863  0.00  0.00     0.057 H 
BRANCH  12  15
ATOM     15  C   LIG d   1       4.976  -3.262  -4.392  0.00  0.00     0.064 C 
ATOM     16  O   LIG d   1       4.345  -4.145  -4.938  0.00  0.00    -0.545 OA
ATOM     17  O   LIG d   1       6.271  -3.062  -4.712  0.00  0.00    -0.545 OA
ENDBRANCH  12  15
ENDBRANCH   1  11
TORSDOF 4
ENDMDL
MODEL 3
REMARK VINA RESULT:      -4.1      3.270      4.006
REMARK  4 active torsions:
REMARK  status: ('A' for Active; 'I' for Inactive)
REMARK    1  A    between atoms: C_1  and  C_2 
REMARK    2  A    between atoms: C_2  and  C_3 
REMARK    3  A    between atoms: C_3  and  C_4 
REMARK    4  A    between atoms: C_5  and  C_6 
ROOT
ATOM      1  C   LIG d   1       2.977  -0.724  -2.801  0.00  0.00    -0.035 C 
ATOM      2  H   LIG d   1       2.299   0.093  -2.553  0.00  0.00     0.031 H 
ATOM      3  H   LIG d   1       2.494  -1.677  -2.587  0.00  0.00     0.031 H 
ENDROOT
BRANCH   1   4
ATOM      4  C   LIG d   1       4.252  -0.598  -1.965  0.00  0.00    -0.052 C 
ATOM      5  H   LIG d   1       4.113  -1.110  -1.012  0.00  0.00     0.027 H 
ATOM      6  H   LIG d   1       5.086  -1.050  -2.502  0.00  0.00     0.027 H 
BRANCH   4   7
ATOM      7  C   LIG d   1       4.552   0.881  -1.709  0.00  0.00    -0.065 C 
ATOM      8  H   LIG d   1       5.619   1.008  -1.528  0.00  0.00     0.023 H 
ATOM      9  H   LIG d   1       4.258   1.466  -2.580  0.00  0.00     0.023 H 
ATOM     10  H   LIG d   1       3.992   1.219  -0.837  0.00  0.00     0.023 H 
ENDBRANCH   4   7
ENDBRANCH   1   4
BRANCH   1  11
ATOM     11  C   LIG d   1       3.329  -0.657  -4.265  0.00  0.00    -0.082 C 
ATOM     12  C   LIG d   1       2.746   0.245  -5.050  0.00  0.00    -0.043 C 
ATOM     13  H   LIG d   1       2.020   0.931  -4.638  0.00  0.00     0.063 H 
ATOM     14  H   LIG d   1       4.056  -1.342  -4.678  0.00  0.00     0.057 H 
BRANCH  12  15
ATOM     15  C   LIG d   1       3.090   0.311  -6.477  0.00  0.00     0.064 C 
ATOM     16  O   LIG d   1       2.967   1.356  -7.084  0.00  0.00    -0.545 OA
ATOM     17  O   LIG d   1       3.544  -0.789  -7.112  0.00  0.00    -0.545 OA
ENDBRANCH  12  15
ENDBRANCH   1  11
TORSDOF 4
ENDMDL
MODEL 4
REMARK VINA RESULT:      -3.9      3.713      4.206
REMARK  4 active torsions:
REMARK  status: ('A' for Active; 'I' for Inactive)
REMARK    1  A    between atoms: C_1  and  C_2 
REMARK    2  A    between atoms: C_2  and  C_3 
REMARK    3  A    between atoms: C_3  and  C_4 
REMARK    4  A    between atoms: C_5  and  C_6 
ROOT
ATOM      1  C   LIG d   1       3.152   0.296  -3.264  0.00  0.00    -0.035 C 
ATOM      2  H   LIG d   1       4.229   0.426  -3.167  0.00  0.00     0.031 H 
ATOM      3  H   LIG d   1       2.640   0.948  -2.557  0.00  0.00     0.031 H 
ENDROOT
BRANCH   1   4
ATOM      4  C   LIG d   1       2.787  -1.160  -2.971  0.00  0.00    -0.052 C 
ATOM      5  H   LIG d   1       1.934  -1.192  -2.293  0.00  0.00     0.027 H 
ATOM      6  H   LIG d   1       2.530  -1.666  -3.901  0.00  0.00     0.027 H 
BRANCH   4   7
ATOM      7  C   LIG d   1       3.980  -1.865  -2.321  0.00  0.00    -0.065 C 
ATOM      8  H   LIG d   1       3.665  -2.837  -1.942  0.00  0.00     0.023 H 
ATOM      9  H   LIG d   1       4.768  -2.001  -3.062  0.00  0.00     0.023 H 
ATOM     10  H   LIG d   1       4.355  -1.258  -1.498  0.00  0.00     0.023 H 
ENDBRANCH   4   7
ENDBRANCH   1   4
BRANCH   1  11
ATOM     11  C   LIG d   1       2.728   0.646  -4.668  0.00  0.00    -0.082 C 
ATOM     12  C   LIG d   1       3.343   0.088  -5.708  0.00  0.00    -0.043 C 
ATOM     13  H   LIG d   1       4.146  -0.617  -5.545  0.00  0.00     0.063 H 
ATOM     14  H   LIG d   1       1.924   1.350  -4.830  0.00  0.00     0.057 H 
BRANCH  12  15
ATOM     15  C   LIG d   1       2.929   0.428  -7.076  0.00  0.00     0.064 C 
ATOM     16  O   LIG d   1       3.023   1.573  -7.472  0.00  0.00    -0.545 OA
ATOM     17  O   LIG d   1       2.447  -0.531  -7.892  0.00  0.00    -0.545 OA
ENDBRANCH  12  15
ENDBRANCH   1  11
TORSDOF 4
ENDMDL
MODEL 5
REMARK VINA RESULT:      -3.8      2.303      2.965
REMARK  4 active torsions:
REMARK  status: ('A' for Active; 'I' for Inactive)
REMARK    1  A    between atoms: C_1  and  C_2 
REMARK    2  A    between atoms: C_2  and  C_3 
REMARK    3  A    between atoms: C_3  and  C_4 
REMARK    4  A    between atoms: C_5  and  C_6 
ROOT
ATOM      1  C   LIG d   1       4.229  -1.028  -1.953  0.00  0.00    -0.035 C 
ATOM      2  H   LIG d   1       3.246  -1.066  -2.421  0.00  0.00     0.031 H 
ATOM      3  H   LIG d   1       4.191  -1.525  -0.983  0.00  0.00     0.031 H 
ENDROOT
BRANCH   1   4
ATOM      4  C   LIG d   1       4.645   0.432  -1.761  0.00  0.00    -0.052 C 
ATOM      5  H   LIG d   1       4.692   0.659  -0.696  0.00  0.00     0.027 H 
ATOM      6  H   LIG d   1       5.624   0.593  -2.211  0.00  0.00     0.027 H 
BRANCH   4   7
ATOM      7  C   LIG d   1       3.618   1.347  -2.432  0.00  0.00    -0.065 C 
ATOM      8  H   LIG d   1       3.315   0.914  -3.385  0.00  0.00     0.023 H 
ATOM      9  H   LIG d   1       2.747   1.451  -1.785  0.00  0.00     0.023 H 
ATOM     10  H   LIG d   1       4.064   2.327  -2.603  0.00  0.00     0.023 H 
ENDBRANCH   4   7
ENDBRANCH   1   4
BRANCH   1  11
ATOM     11  C   LIG d   1       5.234  -1.724  -2.835  0.00  0.00    -0.082 C 
ATOM     12  C   LIG d   1       6.375  -1.117  -3.150  0.00  0.00    -0.043 C 
ATOM     13  H   LIG d   1       6.582  -0.126  -2.774  0.00  0.00     0.063 H 
ATOM     14  H   LIG d   1       5.028  -2.716  -3.210  0.00  0.00     0.057 H 
BRANCH  12  15
ATOM     15  C   LIG d   1       7.355  -1.795  -4.009  0.00  0.00     0.064 C 
ATOM     16  O   LIG d   1       7.494  -3.001  -3.938  0.00  0.00    -0.545 OA
ATOM     17  O   LIG d   1       8.100  -1.081  -4.876  0.00  0.00    -0.545 OA
ENDBRANCH  12  15
ENDBRANCH   1  11
TORSDOF 4
ENDMDL
MODEL 6
REMARK VINA RESULT:      -3.7      2.743      3.538
REMARK  4 active torsions:
REMARK  status: ('A' for Active; 'I' for Inactive)
REMARK    1  A    between atoms: C_1  and  C_2 
REMARK    2  A    between atoms: C_2  and  C_3 
REMARK    3  A    between atoms: C_3  and  C_4 
REMARK    4  A    between atoms: C_5  and  C_6 
ROOT
ATOM      1  C   LIG d   1       4.426  -2.759  -3.187  0.00  0.00    -0.035 C 
ATOM      2  H   LIG d   1       4.962  -3.183  -2.338  0.00  0.00     0.031 H 
ATOM      3  H   LIG d   1       3.370  -3.018  -3.119  0.00  0.00     0.031 H 
ENDROOT
BRANCH   1   4
ATOM      4  C   LIG d   1       5.006  -3.323  -4.486  0.00  0.00    -0.052 C 
ATOM      5  H   LIG d   1       5.010  -4.412  -4.440  0.00  0.00     0.027 H 
ATOM      6  H   LIG d   1       4.395  -2.998  -5.329  0.00  0.00     0.027 H 
BRANCH   4   7
ATOM      7  C   LIG d   1       6.437  -2.815  -4.670  0.00  0.00    -0.065 C 
ATOM      8  H   LIG d   1       6.875  -3.276  -5.555  0.00  0.00     0.023 H 
ATOM      9  H   LIG d   1       6.426  -1.732  -4.791  0.00  0.00     0.023 H 
ATOM     10  H   LIG d   1       7.031  -3.077  -3.793  0.00  0.00     0.023 H 
ENDBRANCH   4   7
ENDBRANCH   1   4
BRANCH   1  11
ATOM     11  C   LIG d   1       4.578  -1.260  -3.180  0.00  0.00    -0.082 C 
ATOM     12  C   LIG d   1       4.266  -0.564  -2.089  0.00  0.00    -0.043 C 
ATOM     13  H   LIG d   1       3.904  -1.075  -1.209  0.00  0.00     0.063 H 
ATOM     14  H   LIG d   1       4.941  -0.749  -4.060  0.00  0.00     0.057 H 
BRANCH  12  15
ATOM     15  C   LIG d   1       4.415   0.897  -2.081  0.00  0.00     0.064 C 
ATOM     16  O   LIG d   1       5.522   1.395  -2.129  0.00  0.00    -0.545 OA
ATOM     17  O   LIG d   1       3.323   1.685  -2.022  0.00  0.00    -0.545 OA
ENDBRANCH  12  15
ENDBRANCH   1  11
TORSDOF 4
ENDMDL
MODEL 7
REMARK VINA RESULT:      -3.4      4.943      5.554
REMARK  4 active torsions:
REMARK  status: ('A' for Active; 'I' for Inactive)
REMARK    1  A    between atoms: C_1  and  C_2 
REMARK    2  A    between atoms: C_2  and  C_3 
REMARK    3  A    between atoms: C_3  and  C_4 
REMARK    4  A    between atoms: C_5  and  C_6 
ROOT
ATOM      1  C   LIG d   1       3.215  -0.254  -7.693  0.00  0.00    -0.035 C 
ATOM      2  H   LIG d   1       4.297  -0.234  -7.823  0.00  0.00     0.031 H 
ATOM      3  H   LIG d   1       2.855  -1.279  -7.785  0.00  0.00     0.031 H 
ENDROOT
BRANCH   1   4
ATOM      4  C   LIG d   1       2.557   0.616  -8.765  0.00  0.00    -0.052 C 
ATOM      5  H   LIG d   1       2.925   0.322  -9.748  0.00  0.00     0.027 H 
ATOM      6  H   LIG d   1       1.476   0.485  -8.728  0.00  0.00     0.027 H 
BRANCH   4   7
ATOM      7  C   LIG d   1       2.900   2.086  -8.511  0.00  0.00    -0.065 C 
ATOM      8  H   LIG d   1       2.482   2.699  -9.309  0.00  0.00     0.023 H 
ATOM      9  H   LIG d   1       2.480   2.397  -7.555  0.00  0.00     0.023 H 
ATOM     10  H   LIG d   1       3.983   2.207  -8.490  0.00  0.00     0.023 H 
ENDBRANCH   4   7
ENDBRANCH   1   4
BRANCH   1  11
ATOM     11  C   LIG d   1       2.864   0.280  -6.328  0.00  0.00    -0.082 C 
ATOM     12  C   LIG d   1       3.511  -0.162  -5.253  0.00  0.00    -0.043 C 
ATOM     13  H   LIG d   1       4.289  -0.904  -5.358  0.00  0.00     0.063 H 
ATOM     14  H   LIG d   1       2.086   1.023  -6.222  0.00  0.00     0.057 H 
BRANCH  12  15
ATOM     15  C   LIG d   1       3.169   0.359  -3.922  0.00  0.00     0.064 C 
ATOM     16  O   LIG d   1       2.642  -0.366  -3.102  0.00  0.00    -0.545 OA
ATOM     17  O   LIG d   1       3.442   1.643  -3.611  0.00  0.00    -0.545 OA
ENDBRANCH  12  15
ENDBRANCH   1  11
TORSDOF 4
ENDMDL
MODEL 8
REMARK VINA RESULT:      -3.3      4.386      5.529
REMARK  4 active torsions:
REMARK  status: ('A' for Active; 'I' for Inactive)
REMARK    1  A    between atoms: C_1  and  C_2 
REMARK    2  A    between atoms: C_2  and  C_3 
REMARK    3  A    between atoms: C_3  and  C_4 
REMARK    4  A    between atoms: C_5  and  C_6 
ROOT
ATOM      1  C   LIG d   1       5.345  -2.191  -3.514  0.00  0.00    -0.035 C 
ATOM      2  H   LIG d   1       6.252  -2.327  -2.926  0.00  0.00     0.031 H 
ATOM      3  H   LIG d   1       5.448  -1.308  -4.145  0.00  0.00     0.031 H 
ENDROOT
BRANCH   1   4
ATOM      4  C   LIG d   1       4.152  -2.009  -2.573  0.00  0.00    -0.052 C 
ATOM      5  H   LIG d   1       3.226  -2.061  -3.146  0.00  0.00     0.027 H 
ATOM      6  H   LIG d   1       4.159  -2.798  -1.821  0.00  0.00     0.027 H 
BRANCH   4   7
ATOM      7  C   LIG d   1       4.249  -0.647  -1.883  0.00  0.00    -0.065 C 
ATOM      8  H   LIG d   1       4.259   0.141  -2.636  0.00  0.00     0.023 H 
ATOM      9  H   LIG d   1       3.391  -0.511  -1.226  0.00  0.00     0.023 H 
ATOM     10  H   LIG d   1       5.167  -0.601  -1.298  0.00  0.00     0.023 H 
ENDBRANCH   4   7
ENDBRANCH   1   4
BRANCH   1  11
ATOM     11  C   LIG d   1       5.120  -3.404  -4.380  0.00  0.00    -0.082 C 
ATOM     12  C   LIG d   1       4.599  -3.266  -5.597  0.00  0.00    -0.043 C 
ATOM     13  H   LIG d   1       4.337  -2.284  -5.963  0.00  0.00     0.063 H 
ATOM     14  H   LIG d   1       5.383  -4.386  -4.014  0.00  0.00     0.057 H 
BRANCH  12  15
ATOM     15  C   LIG d   1       4.381  -4.448  -6.441  0.00  0.00     0.064 C 
ATOM     16  O   LIG d   1       5.109  -4.659  -7.391  0.00  0.00    -0.545 OA
ATOM     17  O   LIG d   1       3.373  -5.299  -6.162  0.00  0.00    -0.545 OA
ENDBRANCH  12  15
ENDBRANCH   1  11
TORSDOF 4
ENDMDL
MODEL 9
REMARK VINA RESULT:      -3.0      7.017      7.639
REMARK  4 active torsions:
REMARK  status: ('A' for Active; 'I' for Inactive)
REMARK    1  A    between atoms: C_1  and  C_2 
REMARK    2  A    between atoms: C_2  and  C_3 
REMARK    3  A    between atoms: C_3  and  C_4 
REMARK    4  A    between atoms: C_5  and  C_6 
ROOT
ATOM      1  C   LIG d   1       1.432  -1.224 -10.248  0.00  0.00    -0.035 C 
ATOM      2  H   LIG d   1       1.829  -2.166  -9.872  0.00  0.00     0.031 H 
ATOM      3  H   LIG d   1       0.348  -1.213 -10.133  0.00  0.00     0.031 H 
ENDROOT
BRANCH   1   4
ATOM      4  C   LIG d   1       1.789  -1.076 -11.728  0.00  0.00    -0.052 C 
ATOM      5  H   LIG d   1       1.634  -2.028 -12.236  0.00  0.00     0.027 H 
ATOM      6  H   LIG d   1       1.154  -0.315 -12.181  0.00  0.00     0.027 H 
BRANCH   4   7
ATOM      7  C   LIG d   1       3.255  -0.660 -11.861  0.00  0.00    -0.065 C 
ATOM      8  H   LIG d   1       3.884  -1.371 -11.326  0.00  0.00     0.023 H 
ATOM      9  H   LIG d   1       3.535  -0.646 -12.914  0.00  0.00     0.023 H 
ATOM     10  H   LIG d   1       3.390   0.335 -11.436  0.00  0.00     0.023 H 
ENDBRANCH   4   7
ENDBRANCH   1   4
BRANCH   1  11
ATOM     11  C   LIG d   1       2.031  -0.080  -9.471  0.00  0.00    -0.082 C 
ATOM     12  C   LIG d   1       2.459  -0.273  -8.225  0.00  0.00    -0.043 C 
ATOM     13  H   LIG d   1       2.376  -1.250  -7.772  0.00  0.00     0.063 H 
ATOM     14  H   LIG d   1       2.114   0.897  -9.925  0.00  0.00     0.057 H 
BRANCH  12  15
ATOM     15  C   LIG d   1       3.044   0.842  -7.468  0.00  0.00     0.064 C 
ATOM     16  O   LIG d   1       3.636   1.728  -8.051  0.00  0.00    -0.545 OA
ATOM     17  O   LIG d   1       2.923   0.881  -6.126  0.00  0.00    -0.545 OA
ENDBRANCH  12  15
ENDBRANCH   1  11
TORSDOF 4
ENDMDL
MODEL 10
REMARK VINA RESULT:      -3.0      7.381      7.857
REMARK  4 active torsions:
REMARK  status: ('A' for Active; 'I' for Inactive)
REMARK    1  A    between atoms: C_1  and  C_2 
REMARK    2  A    between atoms: C_2  and  C_3 
REMARK    3  A    between atoms: C_3  and  C_4 
REMARK    4  A    between atoms: C_5  and  C_6 
ROOT
ATOM      1  C   LIG d   1       1.675  -1.122  -9.921  0.00  0.00    -0.035 C 
ATOM      2  H   LIG d   1       2.172  -2.040  -9.609  0.00  0.00     0.031 H 
ATOM      3  H   LIG d   1       0.609  -1.191  -9.700  0.00  0.00     0.031 H 
ENDROOT
BRANCH   1   4
ATOM      4  C   LIG d   1       1.872  -0.921 -11.424  0.00  0.00    -0.052 C 
ATOM      5  H   LIG d   1       1.894   0.145 -11.649  0.00  0.00     0.027 H 
ATOM      6  H   LIG d   1       2.814  -1.376 -11.732  0.00  0.00     0.027 H 
BRANCH   4   7
ATOM      7  C   LIG d   1       0.717  -1.579 -12.183  0.00  0.00    -0.065 C 
ATOM      8  H   LIG d   1       0.014  -0.812 -12.508  0.00  0.00     0.023 H 
ATOM      9  H   LIG d   1       1.108  -2.106 -13.053  0.00  0.00     0.023 H 
ATOM     10  H   LIG d   1       0.208  -2.285 -11.528  0.00  0.00     0.023 H 
ENDBRANCH   4   7
ENDBRANCH   1   4
BRANCH   1  11
ATOM     11  C   LIG d   1       2.267   0.048  -9.176  0.00  0.00    -0.082 C 
ATOM     12  C   LIG d   1       3.084   0.891  -9.803  0.00  0.00    -0.043 C 
ATOM     13  H   LIG d   1       3.322   0.737 -10.845  0.00  0.00     0.063 H 
ATOM     14  H   LIG d   1       2.027   0.202  -8.134  0.00  0.00     0.057 H 
BRANCH  12  15
ATOM     15  C   LIG d   1       3.660   2.031  -9.078  0.00  0.00     0.064 C 
ATOM     16  O   LIG d   1       3.083   2.492  -8.113  0.00  0.00    -0.545 OA
ATOM     17  O   LIG d   1       4.829   2.566  -9.484  0.00  0.00    -0.545 OA
ENDBRANCH  12  15
ENDBRANCH   1  11
TORSDOF 4
ENDMDL
