MODEL 1
REMARK VINA RESULT:      -5.2      0.000      0.000
REMARK  3 active torsions:
REMARK  status: ('A' for Active; 'I' for Inactive)
REMARK    1  A    between atoms: CB_1  and  CA_2 
REMARK       I    between atoms: CA_2  and  C_4 
REMARK       I    between atoms: CA_2  and  N_6 
REMARK       I    between atoms: N_6  and  C_7 
REMARK       I    between atoms: C_7  and  CA_9 
REMARK    2  A    between atoms: CA_9  and  CB_11 
REMARK       I    between atoms: CA_9  and  N_24 
REMARK    3  A    between atoms: CB_11  and  CG_12 
ROOT
ATOM      1  CA  ALA d   2       5.197  -3.673  -5.857  0.00  0.00     0.060 C 
ATOM      2  HA  ALA d   2       5.463  -3.116  -6.755  0.00  0.00     0.056 H 
ATOM      3  C   ALA d   2       4.553  -4.979  -6.247  0.00  0.00     0.062 C 
ATOM      4  O   ALA d   2       3.427  -5.228  -5.888  0.00  0.00    -0.548 OA
ATOM      5  N   ALA d   2       4.258  -2.886  -5.053  0.00  0.00    -0.303 N 
ATOM      6  H   ALA d   2       3.555  -3.331  -4.554  0.00  0.00     0.149 HD
ATOM      7  OXT ALA d   2       5.232  -5.866  -6.991  0.00  0.00    -0.548 OA
ATOM      8  C   ASP d   1       4.370  -1.544  -5.010  0.00  0.00     0.262 C 
ATOM      9  O   ASP d   1       5.249  -0.988  -5.634  0.00  0.00    -0.270 OA
ATOM     10  CA  ASP d   1       3.405  -0.735  -4.183  0.00  0.00     0.058 C 
ATOM     11  HA  ASP d   1       2.402  -1.149  -4.286  0.00  0.00     0.095 H 
ATOM     12  H1  ASP d   1       4.328   1.066  -4.565  0.00  0.00     0.200 HD
ATOM     13  H2  ASP d   1       3.071   0.723  -5.599  0.00  0.00     0.200 HD
ATOM     14  N   ASP d   1       3.392   0.669  -4.634  0.00  0.00     0.228 N 
ATOM     15  H3  ASP d   1       2.754   1.208  -4.038  0.00  0.00     0.200 HD
ENDROOT
BRANCH  10  16
ATOM     16  CB  ASP d   1       3.827  -0.781  -2.713  0.00  0.00     0.038 C 
ATOM     17  HB1 ASP d   1       2.987  -1.116  -2.105  0.00  0.00     0.038 H 
ATOM     18  HB2 ASP d   1       4.660  -1.473  -2.596  0.00  0.00     0.038 H 
BRANCH  16  19
ATOM     19  CG  ASP d   1       4.251   0.595  -2.269  0.00  0.00     0.048 C 
ATOM     20  OD1 ASP d   1       3.428   1.379  -1.859  0.00  0.00    -0.550 OA
ATOM     21  OD2 ASP d   1       5.545   0.949  -2.328  0.00  0.00    -0.550 OA
ENDBRANCH  16  19
ENDBRANCH  10  16
BRANCH   1  22
ATOM     22  CB  ALA d   2       6.459  -3.953  -5.038  0.00  0.00    -0.041 C 
ATOM     23  HB1 ALA d   2       6.183  -4.419  -4.092  0.00  0.00     0.025 H 
ATOM     24  HB2 ALA d   2       7.112  -4.625  -5.596  0.00  0.00     0.025 H 
ATOM     25  HB3 ALA d   2       6.981  -3.017  -4.843  0.00  0.00     0.025 H 
ENDBRANCH   1  22
TORSDOF 7
ENDMDL
MODEL 2
REMARK VINA RESULT:      -5.0      2.610      3.309
REMARK  3 active torsions:
REMARK  status: ('A' for Active; 'I' for Inactive)
REMARK    1  A    between atoms: CB_1  and  CA_2 
REMARK       I    between atoms: CA_2  and  C_4 
REMARK       I    between atoms: CA_2  and  N_6 
REMARK       I    between atoms: N_6  and  C_7 
REMARK       I    between atoms: C_7  and  CA_9 
REMARK    2  A    between atoms: CA_9  and  CB_11 
REMARK       I    between atoms: CA_9  and  N_24 
REMARK    3  A    between atoms: CB_11  and  CG_12 
ROOT
ATOM      1  CA  ALA d   2       3.980  -1.074  -7.411  0.00  0.00     0.060 C 
ATOM      2  HA  ALA d   2       4.886  -0.476  -7.515  0.00  0.00     0.056 H 
ATOM      3  C   ALA d   2       3.164  -0.972  -8.674  0.00  0.00     0.062 C 
ATOM      4  O   ALA d   2       2.039  -0.534  -8.632  0.00  0.00    -0.548 OA
ATOM      5  N   ALA d   2       3.193  -0.578  -6.279  0.00  0.00    -0.303 N 
ATOM      6  H   ALA d   2       2.224  -0.595  -6.318  0.00  0.00     0.149 HD
ATOM      7  OXT ALA d   2       3.685  -1.372  -9.844  0.00  0.00    -0.548 OA
ATOM      8  C   ASP d   1       3.817  -0.097  -5.185  0.00  0.00     0.262 C 
ATOM      9  O   ASP d   1       5.028  -0.077  -5.137  0.00  0.00    -0.270 OA
ATOM     10  CA  ASP d   1       3.007   0.412  -4.021  0.00  0.00     0.058 C 
ATOM     11  HA  ASP d   1       2.148   0.971  -4.392  0.00  0.00     0.095 H 
ATOM     12  H1  ASP d   1       4.646   0.798  -2.836  0.00  0.00     0.200 HD
ATOM     13  H2  ASP d   1       4.123   2.115  -3.707  0.00  0.00     0.200 HD
ATOM     14  N   ASP d   1       3.826   1.299  -3.174  0.00  0.00     0.228 N 
ATOM     15  H3  ASP d   1       3.267   1.608  -2.371  0.00  0.00     0.200 HD
ENDROOT
BRANCH  10  16
ATOM     16  CB  ASP d   1       2.522  -0.770  -3.179  0.00  0.00     0.038 C 
ATOM     17  HB1 ASP d   1       1.910  -0.402  -2.356  0.00  0.00     0.038 H 
ATOM     18  HB2 ASP d   1       1.928  -1.440  -3.802  0.00  0.00     0.038 H 
BRANCH  16  19
ATOM     19  CG  ASP d   1       3.709  -1.517  -2.630  0.00  0.00     0.048 C 
ATOM     20  OD1 ASP d   1       4.357  -1.042  -1.726  0.00  0.00    -0.550 OA
ATOM     21  OD2 ASP d   1       4.047  -2.710  -3.142  0.00  0.00    -0.550 OA
ENDBRANCH  16  19
ENDBRANCH  10  16
BRANCH   1  22
ATOM     22  CB  ALA d   2       4.360  -2.536  -7.167  0.00  0.00    -0.041 C 
ATOM     23  HB1 ALA d   2       4.080  -3.134  -8.034  0.00  0.00     0.025 H 
ATOM     24  HB2 ALA d   2       5.436  -2.610  -7.007  0.00  0.00     0.025 H 
ATOM     25  HB3 ALA d   2       3.836  -2.905  -6.286  0.00  0.00     0.025 H 
ENDBRANCH   1  22
TORSDOF 7
ENDMDL
MODEL 3
REMARK VINA RESULT:      -4.9      1.011      1.212
REMARK  3 active torsions:
REMARK  status: ('A' for Active; 'I' for Inactive)
REMARK    1  A    between atoms: CB_1  and  CA_2 
REMARK       I    between atoms: CA_2  and  C_4 
REMARK       I    between atoms: CA_2  and  N_6 
REMARK       I    between atoms: N_6  and  C_7 
REMARK       I    between atoms: C_7  and  CA_9 
REMARK    2  A    between atoms: CA_9  and  CB_11 
REMARK       I    between atoms: CA_9  and  N_24 
REMARK    3  A    between atoms: CB_11  and  CG_12 
ROOT
ATOM      1  CA  ALA d   2       4.573  -3.322  -6.543  0.00  0.00     0.060 C 
ATOM      2  HA  ALA d   2       4.126  -2.704  -7.322  0.00  0.00     0.056 H 
ATOM      3  C   ALA d   2       4.101  -4.745  -6.699  0.00  0.00     0.062 C 
ATOM      4  O   ALA d   2       3.497  -5.282  -5.801  0.00  0.00    -0.548 OA
ATOM      5  N   ALA d   2       4.175  -2.816  -5.228  0.00  0.00    -0.303 N 
ATOM      6  H   ALA d   2       4.021  -3.434  -4.496  0.00  0.00     0.149 HD
ATOM      7  OXT ALA d   2       4.355  -5.416  -7.833  0.00  0.00    -0.548 OA
ATOM      8  C   ASP d   1       4.019  -1.491  -5.035  0.00  0.00     0.262 C 
ATOM      9  O   ASP d   1       4.211  -0.718  -5.949  0.00  0.00    -0.270 OA
ATOM     10  CA  ASP d   1       3.610  -0.970  -3.681  0.00  0.00     0.058 C 
ATOM     11  HA  ASP d   1       2.856  -1.630  -3.251  0.00  0.00     0.095 H 
ATOM     12  H1  ASP d   1       3.733   1.012  -4.222  0.00  0.00     0.200 HD
ATOM     13  H2  ASP d   1       2.207   0.368  -4.376  0.00  0.00     0.200 HD
ATOM     14  N   ASP d   1       3.048   0.387  -3.801  0.00  0.00     0.228 N 
ATOM     15  H3  ASP d   1       2.806   0.735  -2.866  0.00  0.00     0.200 HD
ENDROOT
BRANCH  10  16
ATOM     16  CB  ASP d   1       4.831  -0.924  -2.760  0.00  0.00     0.038 C 
ATOM     17  HB1 ASP d   1       4.595  -1.423  -1.820  0.00  0.00     0.038 H 
ATOM     18  HB2 ASP d   1       5.668  -1.430  -3.241  0.00  0.00     0.038 H 
BRANCH  16  19
ATOM     19  CG  ASP d   1       5.201   0.511  -2.489  0.00  0.00     0.048 C 
ATOM     20  OD1 ASP d   1       5.854   1.130  -3.297  0.00  0.00    -0.550 OA
ATOM     21  OD2 ASP d   1       4.804   1.103  -1.352  0.00  0.00    -0.550 OA
ENDBRANCH  16  19
ENDBRANCH  10  16
BRANCH   1  22
ATOM     22  CB  ALA d   2       6.098  -3.275  -6.667  0.00  0.00    -0.041 C 
ATOM     23  HB1 ALA d   2       6.416  -3.920  -7.486  0.00  0.00     0.025 H 
ATOM     24  HB2 ALA d   2       6.414  -2.251  -6.868  0.00  0.00     0.025 H 
ATOM     25  HB3 ALA d   2       6.549  -3.619  -5.737  0.00  0.00     0.025 H 
ENDBRANCH   1  22
TORSDOF 7
ENDMDL
MODEL 4
REMARK VINA RESULT:      -4.8      3.176      5.028
REMARK  3 active torsions:
REMARK  status: ('A' for Active; 'I' for Inactive)
REMARK    1  A    between atoms: CB_1  and  CA_2 
REMARK       I    between atoms: CA_2  and  C_4 
REMARK       I    between atoms: CA_2  and  N_6 
REMARK       I    between atoms: N_6  and  C_7 
REMARK       I    between atoms: C_7  and  CA_9 
REMARK    2  A    between atoms: CA_9  and  CB_11 
REMARK       I    between atoms: CA_9  and  N_24 
REMARK    3  A    between atoms: CB_11  and  CG_12 
ROOT
ATOM      1  CA  ALA d   2       4.361  -0.572  -3.820  0.00  0.00     0.060 C 
ATOM      2  HA  ALA d   2       5.424  -0.340  -3.882  0.00  0.00     0.056 H 
ATOM      3  C   ALA d   2       4.142  -1.658  -2.798  0.00  0.00     0.062 C 
ATOM      4  O   ALA d   2       3.636  -2.704  -3.127  0.00  0.00    -0.548 OA
ATOM      5  N   ALA d   2       3.883  -1.029  -5.128  0.00  0.00    -0.303 N 
ATOM      6  H   ALA d   2       3.199  -1.714  -5.182  0.00  0.00     0.149 HD
ATOM      7  OXT ALA d   2       4.506  -1.460  -1.521  0.00  0.00    -0.548 OA
ATOM      8  C   ASP d   1       4.395  -0.497  -6.255  0.00  0.00     0.262 C 
ATOM      9  O   ASP d   1       5.251   0.360  -6.187  0.00  0.00    -0.270 OA
ATOM     10  CA  ASP d   1       3.904  -0.967  -7.600  0.00  0.00     0.058 C 
ATOM     11  HA  ASP d   1       3.760  -2.047  -7.577  0.00  0.00     0.095 H 
ATOM     12  H1  ASP d   1       5.047   0.370  -8.671  0.00  0.00     0.200 HD
ATOM     13  H2  ASP d   1       5.763  -1.118  -8.473  0.00  0.00     0.200 HD
ATOM     14  N   ASP d   1       4.884  -0.636  -8.651  0.00  0.00     0.228 N 
ATOM     15  H3  ASP d   1       4.516  -0.934  -9.561  0.00  0.00     0.200 HD
ENDROOT
BRANCH  10  16
ATOM     16  CB  ASP d   1       2.575  -0.282  -7.926  0.00  0.00     0.038 C 
ATOM     17  HB1 ASP d   1       1.947  -0.964  -8.501  0.00  0.00     0.038 H 
ATOM     18  HB2 ASP d   1       2.067  -0.014  -6.999  0.00  0.00     0.038 H 
BRANCH  16  19
ATOM     19  CG  ASP d   1       2.836   0.963  -8.733  0.00  0.00     0.048 C 
ATOM     20  OD1 ASP d   1       2.801   0.919  -9.941  0.00  0.00    -0.550 OA
ATOM     21  OD2 ASP d   1       3.106   2.121  -8.111  0.00  0.00    -0.550 OA
ENDBRANCH  16  19
ENDBRANCH  10  16
BRANCH   1  22
ATOM     22  CB  ALA d   2       3.588   0.682  -3.405  0.00  0.00    -0.041 C 
ATOM     23  HB1 ALA d   2       2.550   0.592  -3.726  0.00  0.00     0.025 H 
ATOM     24  HB2 ALA d   2       3.624   0.787  -2.320  0.00  0.00     0.025 H 
ATOM     25  HB3 ALA d   2       4.038   1.558  -3.870  0.00  0.00     0.025 H 
ENDBRANCH   1  22
TORSDOF 7
ENDMDL
MODEL 5
REMARK VINA RESULT:      -4.7      3.889      5.485
REMARK  3 active torsions:
REMARK  status: ('A' for Active; 'I' for Inactive)
REMARK    1  A    between atoms: CB_1  and  CA_2 
REMARK       I    between atoms: CA_2  and  C_4 
REMARK       I    between atoms: CA_2  and  N_6 
REMARK       I    between atoms: N_6  and  C_7 
REMARK       I    between atoms: C_7  and  CA_9 
REMARK    2  A    between atoms: CA_9  and  CB_11 
REMARK       I    between atoms: CA_9  and  N_24 
REMARK    3  A    between atoms: CB_11  and  CG_12 
ROOT
ATOM      1  CA  ALA d   2       4.510  -0.055  -3.354  0.00  0.00     0.060 C 
ATOM      2  HA  ALA d   2       4.758  -1.113  -3.279  0.00  0.00     0.056 H 
ATOM      3  C   ALA d   2       3.230   0.109  -4.132  0.00  0.00     0.062 C 
ATOM      4  O   ALA d   2       3.223   0.754  -5.154  0.00  0.00    -0.548 OA
ATOM      5  N   ALA d   2       5.594   0.653  -4.040  0.00  0.00    -0.303 N 
ATOM      6  H   ALA d   2       5.391   1.399  -4.627  0.00  0.00     0.149 HD
ATOM      7  OXT ALA d   2       2.098  -0.458  -3.689  0.00  0.00    -0.548 OA
ATOM      8  C   ASP d   1       6.872   0.267  -3.858  0.00  0.00     0.262 C 
ATOM      9  O   ASP d   1       7.125  -0.665  -3.124  0.00  0.00    -0.270 OA
ATOM     10  CA  ASP d   1       7.987   0.995  -4.563  0.00  0.00     0.058 C 
ATOM     11  HA  ASP d   1       7.677   1.234  -5.581  0.00  0.00     0.095 H 
ATOM     12  H1  ASP d   1       9.488  -0.094  -3.671  0.00  0.00     0.200 HD
ATOM     13  H2  ASP d   1       9.014  -0.691  -5.149  0.00  0.00     0.200 HD
ATOM     14  N   ASP d   1       9.198   0.157  -4.615  0.00  0.00     0.228 N 
ATOM     15  H3  ASP d   1       9.953   0.682  -5.069  0.00  0.00     0.200 HD
ENDROOT
BRANCH  10  16
ATOM     16  CB  ASP d   1       8.309   2.289  -3.812  0.00  0.00     0.038 C 
ATOM     17  HB1 ASP d   1       7.742   3.112  -4.247  0.00  0.00     0.038 H 
ATOM     18  HB2 ASP d   1       8.039   2.176  -2.762  0.00  0.00     0.038 H 
BRANCH  16  19
ATOM     19  CG  ASP d   1       9.783   2.579  -3.922  0.00  0.00     0.048 C 
ATOM     20  OD1 ASP d   1      10.249   2.955  -4.972  0.00  0.00    -0.550 OA
ATOM     21  OD2 ASP d   1      10.579   2.422  -2.852  0.00  0.00    -0.550 OA
ENDBRANCH  16  19
ENDBRANCH  10  16
BRANCH   1  22
ATOM     22  CB  ALA d   2       4.330   0.528  -1.950  0.00  0.00    -0.041 C 
ATOM     23  HB1 ALA d   2       3.269   0.681  -1.753  0.00  0.00     0.025 H 
ATOM     24  HB2 ALA d   2       4.739  -0.166  -1.214  0.00  0.00     0.025 H 
ATOM     25  HB3 ALA d   2       4.854   1.481  -1.881  0.00  0.00     0.025 H 
ENDBRANCH   1  22
TORSDOF 7
ENDMDL
MODEL 6
REMARK VINA RESULT:      -4.6      3.264      4.677
REMARK  3 active torsions:
REMARK  status: ('A' for Active; 'I' for Inactive)
REMARK    1  A    between atoms: CB_1  and  CA_2 
REMARK       I    between atoms: CA_2  and  C_4 
REMARK       I    between atoms: CA_2  and  N_6 
REMARK       I    between atoms: N_6  and  C_7 
REMARK       I    between atoms: C_7  and  CA_9 
REMARK    2  A    between atoms: CA_9  and  CB_11 
REMARK       I    between atoms: CA_9  and  N_24 
REMARK    3  A    between atoms: CB_11  and  CG_12 
ROOT
ATOM      1  CA  ALA d   2       3.758   0.120  -8.412  0.00  0.00     0.060 C 
ATOM      2  HA  ALA d   2       4.530  -0.529  -8.827  0.00  0.00     0.056 H 
ATOM      3  C   ALA d   2       3.760   1.436  -9.145  0.00  0.00     0.062 C 
ATOM      4  O   ALA d   2       3.960   2.463  -8.542  0.00  0.00    -0.548 OA
ATOM      5  N   ALA d   2       4.026   0.351  -6.990  0.00  0.00    -0.303 N 
ATOM      6  H   ALA d   2       3.818   1.211  -6.591  0.00  0.00     0.149 HD
ATOM      7  OXT ALA d   2       3.534   1.468 -10.468  0.00  0.00    -0.548 OA
ATOM      8  C   ASP d   1       4.564  -0.629  -6.238  0.00  0.00     0.262 C 
ATOM      9  O   ASP d   1       4.825  -1.703  -6.738  0.00  0.00    -0.270 OA
ATOM     10  CA  ASP d   1       4.839  -0.391  -4.776  0.00  0.00     0.058 C 
ATOM     11  HA  ASP d   1       5.233   0.617  -4.640  0.00  0.00     0.095 H 
ATOM     12  H1  ASP d   1       5.483  -2.312  -4.413  0.00  0.00     0.200 HD
ATOM     13  H2  ASP d   1       6.712  -1.247  -4.763  0.00  0.00     0.200 HD
ATOM     14  N   ASP d   1       5.827  -1.363  -4.273  0.00  0.00     0.228 N 
ATOM     15  H3  ASP d   1       5.975  -1.205  -3.270  0.00  0.00     0.200 HD
ENDROOT
BRANCH  10  16
ATOM     16  CB  ASP d   1       3.542  -0.543  -3.980  0.00  0.00     0.038 C 
ATOM     17  HB1 ASP d   1       3.147   0.444  -3.738  0.00  0.00     0.038 H 
ATOM     18  HB2 ASP d   1       2.812  -1.090  -4.576  0.00  0.00     0.038 H 
BRANCH  16  19
ATOM     19  CG  ASP d   1       3.819  -1.300  -2.707  0.00  0.00     0.048 C 
ATOM     20  OD1 ASP d   1       3.601  -2.488  -2.651  0.00  0.00    -0.550 OA
ATOM     21  OD2 ASP d   1       4.310  -0.656  -1.637  0.00  0.00    -0.550 OA
ENDBRANCH  16  19
ENDBRANCH  10  16
BRANCH   1  22
ATOM     22  CB  ALA d   2       2.391  -0.550  -8.571  0.00  0.00    -0.041 C 
ATOM     23  HB1 ALA d   2       2.119  -0.575  -9.626  0.00  0.00     0.025 H 
ATOM     24  HB2 ALA d   2       2.438  -1.568  -8.183  0.00  0.00     0.025 H 
ATOM     25  HB3 ALA d   2       1.643   0.016  -8.016  0.00  0.00     0.025 H 
ENDBRANCH   1  22
TORSDOF 7
ENDMDL
MODEL 7
REMARK VINA RESULT:      -4.5      2.320      2.675
REMARK  3 active torsions:
REMARK  status: ('A' for Active; 'I' for Inactive)
REMARK    1  A    between atoms: CB_1  and  CA_2 
REMARK       I    between atoms: CA_2  and  C_4 
REMARK       I    between atoms: CA_2  and  N_6 
REMARK       I    between atoms: N_6  and  C_7 
REMARK       I    between atoms: C_7  and  CA_9 
REMARK    2  A    between atoms: CA_9  and  CB_11 
REMARK       I    between atoms: CA_9  and  N_24 
REMARK    3  A    between atoms: CB_11  and  CG_12 
ROOT
ATOM      1  CA  ALA d   2       6.716  -1.092  -5.773  0.00  0.00     0.060 C 
ATOM      2  HA  ALA d   2       6.130  -0.721  -6.614  0.00  0.00     0.056 H 
ATOM      3  C   ALA d   2       7.553  -2.263  -6.220  0.00  0.00     0.062 C 
ATOM      4  O   ALA d   2       7.414  -3.341  -5.694  0.00  0.00    -0.548 OA
ATOM      5  N   ALA d   2       5.815  -1.518  -4.699  0.00  0.00    -0.303 N 
ATOM      6  H   ALA d   2       6.046  -2.280  -4.146  0.00  0.00     0.149 HD
ATOM      7  OXT ALA d   2       8.455  -2.107  -7.201  0.00  0.00    -0.548 OA
ATOM      8  C   ASP d   1       4.664  -0.850  -4.481  0.00  0.00     0.262 C 
ATOM      9  O   ASP d   1       4.376   0.103  -5.173  0.00  0.00    -0.270 OA
ATOM     10  CA  ASP d   1       3.738  -1.288  -3.377  0.00  0.00     0.058 C 
ATOM     11  HA  ASP d   1       3.697  -2.377  -3.346  0.00  0.00     0.095 H 
ATOM     12  H1  ASP d   1       2.402   0.254  -3.660  0.00  0.00     0.200 HD
ATOM     13  H2  ASP d   1       2.001  -1.140  -4.475  0.00  0.00     0.200 HD
ATOM     14  N   ASP d   1       2.379  -0.764  -3.607  0.00  0.00     0.228 N 
ATOM     15  H3  ASP d   1       1.773  -1.045  -2.828  0.00  0.00     0.200 HD
ENDROOT
BRANCH  10  16
ATOM     16  CB  ASP d   1       4.254  -0.759  -2.037  0.00  0.00     0.038 C 
ATOM     17  HB1 ASP d   1       3.576  -1.067  -1.240  0.00  0.00     0.038 H 
ATOM     18  HB2 ASP d   1       5.248  -1.164  -1.845  0.00  0.00     0.038 H 
BRANCH  16  19
ATOM     19  CG  ASP d   1       4.326   0.745  -2.084  0.00  0.00     0.048 C 
ATOM     20  OD1 ASP d   1       3.312   1.401  -2.025  0.00  0.00    -0.550 OA
ATOM     21  OD2 ASP d   1       5.516   1.356  -2.190  0.00  0.00    -0.550 OA
ENDBRANCH  16  19
ENDBRANCH  10  16
BRANCH   1  22
ATOM     22  CB  ALA d   2       7.631   0.021  -5.259  0.00  0.00    -0.041 C 
ATOM     23  HB1 ALA d   2       7.895   0.684  -6.083  0.00  0.00     0.025 H 
ATOM     24  HB2 ALA d   2       7.112   0.590  -4.487  0.00  0.00     0.025 H 
ATOM     25  HB3 ALA d   2       8.537  -0.417  -4.841  0.00  0.00     0.025 H 
ENDBRANCH   1  22
TORSDOF 7
ENDMDL
MODEL 8
REMARK VINA RESULT:      -4.5      3.319      4.178
REMARK  3 active torsions:
REMARK  status: ('A' for Active; 'I' for Inactive)
REMARK    1  A    between atoms: CB_1  and  CA_2 
REMARK       I    between atoms: CA_2  and  C_4 
REMARK       I    between atoms: CA_2  and  N_6 
REMARK       I    between atoms: N_6  and  C_7 
REMARK       I    between atoms: C_7  and  CA_9 
REMARK    2  A    between atoms: CA_9  and  CB_11 
REMARK       I    between atoms: CA_9  and  N_24 
REMARK    3  A    between atoms: CB_11  and  CG_12 
ROOT
ATOM      1  CA  ALA d   2       2.489   0.107  -7.991  0.00  0.00     0.060 C 
ATOM      2  HA  ALA d   2       1.566   0.413  -7.498  0.00  0.00     0.056 H 
ATOM      3  C   ALA d   2       2.171  -0.870  -9.093  0.00  0.00     0.062 C 
ATOM      4  O   ALA d   2       2.640  -1.983  -9.068  0.00  0.00    -0.548 OA
ATOM      5  N   ALA d   2       3.376  -0.531  -7.014  0.00  0.00    -0.303 N 
ATOM      6  H   ALA d   2       3.945  -1.269  -7.284  0.00  0.00     0.149 HD
ATOM      7  OXT ALA d   2       1.370  -0.502 -10.105  0.00  0.00    -0.548 OA
ATOM      8  C   ASP d   1       3.401  -0.091  -5.740  0.00  0.00     0.262 C 
ATOM      9  O   ASP d   1       2.691   0.832  -5.403  0.00  0.00    -0.270 OA
ATOM     10  CA  ASP d   1       4.314  -0.747  -4.736  0.00  0.00     0.058 C 
ATOM     11  HA  ASP d   1       4.312  -1.825  -4.893  0.00  0.00     0.095 H 
ATOM     12  H1  ASP d   1       3.833   0.546  -3.207  0.00  0.00     0.200 HD
ATOM     13  H2  ASP d   1       2.928  -0.850  -3.215  0.00  0.00     0.200 HD
ATOM     14  N   ASP d   1       3.858  -0.461  -3.363  0.00  0.00     0.228 N 
ATOM     15  H3  ASP d   1       4.510  -0.888  -2.696  0.00  0.00     0.200 HD
ENDROOT
BRANCH  10  16
ATOM     16  CB  ASP d   1       5.736  -0.209  -4.910  0.00  0.00     0.038 C 
ATOM     17  HB1 ASP d   1       6.349  -0.959  -5.410  0.00  0.00     0.038 H 
ATOM     18  HB2 ASP d   1       5.710   0.699  -5.512  0.00  0.00     0.038 H 
BRANCH  16  19
ATOM     19  CG  ASP d   1       6.324   0.102  -3.558  0.00  0.00     0.048 C 
ATOM     20  OD1 ASP d   1       6.872  -0.768  -2.922  0.00  0.00    -0.550 OA
ATOM     21  OD2 ASP d   1       6.240   1.346  -3.060  0.00  0.00    -0.550 OA
ENDBRANCH  16  19
ENDBRANCH  10  16
BRANCH   1  22
ATOM     22  CB  ALA d   2       3.183   1.335  -8.584  0.00  0.00    -0.041 C 
ATOM     23  HB1 ALA d   2       3.955   1.015  -9.283  0.00  0.00     0.025 H 
ATOM     24  HB2 ALA d   2       2.450   1.948  -9.109  0.00  0.00     0.025 H 
ATOM     25  HB3 ALA d   2       3.637   1.918  -7.783  0.00  0.00     0.025 H 
ENDBRANCH   1  22
TORSDOF 7
ENDMDL
MODEL 9
REMARK VINA RESULT:      -4.3      2.476      5.954
REMARK  3 active torsions:
REMARK  status: ('A' for Active; 'I' for Inactive)
REMARK    1  A    between atoms: CB_1  and  CA_2 
REMARK       I    between atoms: CA_2  and  C_4 
REMARK       I    between atoms: CA_2  and  N_6 
REMARK       I    between atoms: N_6  and  C_7 
REMARK       I    between atoms: C_7  and  CA_9 
REMARK    2  A    between atoms: CA_9  and  CB_11 
REMARK       I    between atoms: CA_9  and  N_24 
REMARK    3  A    between atoms: CB_11  and  CG_12 
ROOT
ATOM      1  CA  ALA d   2       4.657  -0.587  -3.086  0.00  0.00     0.060 C 
ATOM      2  HA  ALA d   2       4.049  -0.568  -3.991  0.00  0.00     0.056 H 
ATOM      3  C   ALA d   2       4.594   0.759  -2.410  0.00  0.00     0.062 C 
ATOM      4  O   ALA d   2       5.606   1.395  -2.236  0.00  0.00    -0.548 OA
ATOM      5  N   ALA d   2       6.046  -0.893  -3.437  0.00  0.00    -0.303 N 
ATOM      6  H   ALA d   2       6.773  -0.486  -2.940  0.00  0.00     0.149 HD
ATOM      7  OXT ALA d   2       3.414   1.249  -1.999  0.00  0.00    -0.548 OA
ATOM      8  C   ASP d   1       6.314  -1.740  -4.450  0.00  0.00     0.262 C 
ATOM      9  O   ASP d   1       5.405  -2.250  -5.071  0.00  0.00    -0.270 OA
ATOM     10  CA  ASP d   1       7.742  -2.055  -4.811  0.00  0.00     0.058 C 
ATOM     11  HA  ASP d   1       8.342  -1.148  -4.746  0.00  0.00     0.095 H 
ATOM     12  H1  ASP d   1       7.248  -3.425  -6.266  0.00  0.00     0.200 HD
ATOM     13  H2  ASP d   1       7.497  -1.887  -6.849  0.00  0.00     0.200 HD
ATOM     14  N   ASP d   1       7.822  -2.587  -6.183  0.00  0.00     0.228 N 
ATOM     15  H3  ASP d   1       8.797  -2.825  -6.397  0.00  0.00     0.200 HD
ENDROOT
BRANCH  10  16
ATOM     16  CB  ASP d   1       8.296  -3.101  -3.840  0.00  0.00     0.038 C 
ATOM     17  HB1 ASP d   1       9.219  -2.730  -3.395  0.00  0.00     0.038 H 
ATOM     18  HB2 ASP d   1       7.564  -3.291  -3.055  0.00  0.00     0.038 H 
BRANCH  16  19
ATOM     19  CG  ASP d   1       8.575  -4.380  -4.586  0.00  0.00     0.048 C 
ATOM     20  OD1 ASP d   1       7.672  -5.146  -4.832  0.00  0.00    -0.550 OA
ATOM     21  OD2 ASP d   1       9.826  -4.669  -4.978  0.00  0.00    -0.550 OA
ENDBRANCH  16  19
ENDBRANCH  10  16
BRANCH   1  22
ATOM     22  CB  ALA d   2       4.123  -1.660  -2.135  0.00  0.00    -0.041 C 
ATOM     23  HB1 ALA d   2       3.641  -1.182  -1.282  0.00  0.00     0.025 H 
ATOM     24  HB2 ALA d   2       3.397  -2.282  -2.660  0.00  0.00     0.025 H 
ATOM     25  HB3 ALA d   2       4.948  -2.280  -1.786  0.00  0.00     0.025 H 
ENDBRANCH   1  22
TORSDOF 7
ENDMDL
