MODEL 1
REMARK VINA RESULT:      -7.2      0.000      0.000
REMARK  4 active torsions:
REMARK  status: ('A' for Active; 'I' for Inactive)
REMARK    1  A    between atoms: C_4  and  C_7 
REMARK    2  A    between atoms: C_8  and  C_9 
REMARK    3  A    between atoms: C_14  and  N_15 
REMARK    4  A    between atoms: C_17  and  C_20 
ROOT
ATOM      1  C   LIG d   1       5.961  -3.969  -5.023  0.00  0.00    -0.004 A 
ATOM      2  C   LIG d   1       4.984  -4.751  -5.645  0.00  0.00    -0.048 A 
ATOM      3  C   LIG d   1       5.286  -6.026  -6.072  0.00  0.00    -0.024 A 
ATOM      4  C   LIG d   1       6.563  -6.549  -5.902  0.00  0.00     0.033 A 
ATOM      5  C   LIG d   1       7.543  -5.772  -5.280  0.00  0.00    -0.019 A 
ATOM      6  C   LIG d   1       7.252  -4.493  -4.844  0.00  0.00     0.034 A 
ATOM      7  N   LIG d   1       6.658  -7.844  -6.407  0.00  0.00    -0.336 N 
ATOM      8  C   LIG d   1       5.372  -8.262  -6.974  0.00  0.00     0.050 A 
ATOM      9  H   LIG d   1       5.480  -8.480  -8.036  0.00  0.00     0.055 H 
ATOM     10  C   LIG d   1       4.433  -7.062  -6.767  0.00  0.00    -0.003 A 
ATOM     11  H   LIG d   1       3.988  -4.357  -5.788  0.00  0.00     0.063 H 
ATOM     12  H   LIG d   1       8.536  -6.173  -5.142  0.00  0.00     0.066 H 
ATOM     13  H   LIG d   1       7.459  -8.390  -6.387  0.00  0.00     0.147 HD
ATOM     14  H   LIG d   1       4.079  -6.687  -7.728  0.00  0.00     0.034 H 
ATOM     15  H   LIG d   1       3.590  -7.344  -6.136  0.00  0.00     0.034 H 
ENDROOT
BRANCH   1  16
ATOM     16  C   LIG d   1       5.641  -2.609  -4.561  0.00  0.00    -0.052 C 
ATOM     17  C   LIG d   1       4.598  -2.408  -3.737  0.00  0.00    -0.054 C 
ATOM     18  H   LIG d   1       3.995  -3.244  -3.414  0.00  0.00     0.062 H 
ATOM     19  H   LIG d   1       6.243  -1.774  -4.883  0.00  0.00     0.062 H 
BRANCH  17  20
ATOM     20  C   LIG d   1       4.277  -1.047  -3.274  0.00  0.00    -0.025 A 
ATOM     21  C   LIG d   1       3.457  -0.218  -4.044  0.00  0.00    -0.055 A 
ATOM     22  C   LIG d   1       3.161   1.055  -3.604  0.00  0.00    -0.061 A 
ATOM     23  H   LIG d   1       3.056  -0.573  -4.982  0.00  0.00     0.062 H 
ATOM     24  C   LIG d   1       3.674   1.512  -2.402  0.00  0.00    -0.062 A 
ATOM     25  H   LIG d   1       2.528   1.697  -4.197  0.00  0.00     0.062 H 
ATOM     26  C   LIG d   1       4.488   0.697  -1.634  0.00  0.00    -0.061 A 
ATOM     27  H   LIG d   1       3.440   2.510  -2.062  0.00  0.00     0.062 H 
ATOM     28  C   LIG d   1       4.786  -0.581  -2.058  0.00  0.00    -0.055 A 
ATOM     29  H   LIG d   1       4.884   1.061  -0.698  0.00  0.00     0.062 H 
ATOM     30  H   LIG d   1       5.417  -1.217  -1.455  0.00  0.00     0.062 H 
ENDBRANCH  17  20
ENDBRANCH   1  16
BRANCH   6  31
ATOM     31  N   LIG d   1       8.236  -3.725  -4.226  0.00  0.00    -0.357 N 
ATOM     32  H   LIG d   1       9.104  -3.618  -4.648  0.00  0.00     0.142 HD
ATOM     33  H   LIG d   1       8.056  -3.298  -3.374  0.00  0.00     0.142 HD
ENDBRANCH   6  31
BRANCH   8  34
ATOM     34  C   LIG d   1       4.847  -9.470  -6.243  0.00  0.00    -0.027 A 
ATOM     35  C   LIG d   1       4.576 -10.633  -6.938  0.00  0.00    -0.057 A 
ATOM     36  C   LIG d   1       4.094 -11.742  -6.267  0.00  0.00    -0.061 A 
ATOM     37  H   LIG d   1       4.742 -10.677  -8.004  0.00  0.00     0.062 H 
ATOM     38  C   LIG d   1       3.882 -11.687  -4.903  0.00  0.00    -0.062 A 
ATOM     39  H   LIG d   1       3.883 -12.652  -6.810  0.00  0.00     0.062 H 
ATOM     40  C   LIG d   1       4.153 -10.523  -4.208  0.00  0.00    -0.061 A 
ATOM     41  H   LIG d   1       3.505 -12.553  -4.379  0.00  0.00     0.062 H 
ATOM     42  C   LIG d   1       4.640  -9.416  -4.877  0.00  0.00    -0.057 A 
ATOM     43  H   LIG d   1       3.987 -10.479  -3.142  0.00  0.00     0.062 H 
ATOM     44  H   LIG d   1       4.856  -8.508  -4.334  0.00  0.00     0.062 H 
ENDBRANCH   8  34
TORSDOF 4
ENDMDL
MODEL 2
REMARK VINA RESULT:      -7.0      6.766     12.526
REMARK  4 active torsions:
REMARK  status: ('A' for Active; 'I' for Inactive)
REMARK    1  A    between atoms: C_4  and  C_7 
REMARK    2  A    between atoms: C_8  and  C_9 
REMARK    3  A    between atoms: C_14  and  N_15 
REMARK    4  A    between atoms: C_17  and  C_20 
ROOT
ATOM      1  C   LIG d   1       8.534   2.116  -4.270  0.00  0.00    -0.004 A 
ATOM      2  C   LIG d   1       9.177   2.699  -3.174  0.00  0.00    -0.048 A 
ATOM      3  C   LIG d   1       9.952   3.825  -3.345  0.00  0.00    -0.024 A 
ATOM      4  C   LIG d   1      10.115   4.391  -4.605  0.00  0.00     0.033 A 
ATOM      5  C   LIG d   1       9.475   3.813  -5.703  0.00  0.00    -0.019 A 
ATOM      6  C   LIG d   1       8.691   2.685  -5.544  0.00  0.00     0.034 A 
ATOM      7  N   LIG d   1      10.939   5.515  -4.559  0.00  0.00    -0.336 N 
ATOM      8  C   LIG d   1      11.390   5.755  -3.186  0.00  0.00     0.050 A 
ATOM      9  H   LIG d   1      12.477   5.695  -3.129  0.00  0.00     0.055 H 
ATOM     10  C   LIG d   1      10.748   4.637  -2.349  0.00  0.00    -0.003 A 
ATOM     11  H   LIG d   1       9.063   2.268  -2.190  0.00  0.00     0.063 H 
ATOM     12  H   LIG d   1       9.594   4.250  -6.684  0.00  0.00     0.066 H 
ATOM     13  H   LIG d   1      11.179   6.058  -5.326  0.00  0.00     0.147 HD
ATOM     14  H   LIG d   1      11.517   4.023  -1.881  0.00  0.00     0.034 H 
ATOM     15  H   LIG d   1      10.087   5.060  -1.592  0.00  0.00     0.034 H 
ENDROOT
BRANCH   1  16
ATOM     16  C   LIG d   1       7.701   0.917  -4.090  0.00  0.00    -0.052 C 
ATOM     17  C   LIG d   1       6.561   0.990  -3.381  0.00  0.00    -0.054 C 
ATOM     18  H   LIG d   1       6.257   1.930  -2.943  0.00  0.00     0.062 H 
ATOM     19  H   LIG d   1       8.005  -0.022  -4.528  0.00  0.00     0.062 H 
BRANCH  17  20
ATOM     20  C   LIG d   1       5.727  -0.211  -3.201  0.00  0.00    -0.025 A 
ATOM     21  C   LIG d   1       4.745  -0.241  -2.208  0.00  0.00    -0.055 A 
ATOM     22  C   LIG d   1       3.968  -1.369  -2.045  0.00  0.00    -0.061 A 
ATOM     23  H   LIG d   1       4.595   0.616  -1.568  0.00  0.00     0.062 H 
ATOM     24  C   LIG d   1       4.159  -2.469  -2.863  0.00  0.00    -0.062 A 
ATOM     25  H   LIG d   1       3.209  -1.394  -1.278  0.00  0.00     0.062 H 
ATOM     26  C   LIG d   1       5.130  -2.447  -3.850  0.00  0.00    -0.061 A 
ATOM     27  H   LIG d   1       3.548  -3.350  -2.731  0.00  0.00     0.062 H 
ATOM     28  C   LIG d   1       5.910  -1.323  -4.028  0.00  0.00    -0.055 A 
ATOM     29  H   LIG d   1       5.272  -3.308  -4.484  0.00  0.00     0.062 H 
ATOM     30  H   LIG d   1       6.663  -1.305  -4.802  0.00  0.00     0.062 H 
ENDBRANCH  17  20
ENDBRANCH   1  16
BRANCH   6  31
ATOM     31  N   LIG d   1       8.057   2.116  -6.646  0.00  0.00    -0.357 N 
ATOM     32  H   LIG d   1       8.384   1.280  -7.015  0.00  0.00     0.142 HD
ATOM     33  H   LIG d   1       7.288   2.554  -7.044  0.00  0.00     0.142 HD
ENDBRANCH   6  31
BRANCH   8  34
ATOM     34  C   LIG d   1      10.916   7.104  -2.709  0.00  0.00    -0.027 A 
ATOM     35  C   LIG d   1      11.465   8.256  -3.240  0.00  0.00    -0.057 A 
ATOM     36  C   LIG d   1      11.029   9.493  -2.803  0.00  0.00    -0.061 A 
ATOM     37  H   LIG d   1      12.231   8.190  -3.998  0.00  0.00     0.062 H 
ATOM     38  C   LIG d   1      10.048   9.578  -1.833  0.00  0.00    -0.062 A 
ATOM     39  H   LIG d   1      11.457  10.394  -3.218  0.00  0.00     0.062 H 
ATOM     40  C   LIG d   1       9.500   8.425  -1.302  0.00  0.00    -0.061 A 
ATOM     41  H   LIG d   1       9.708  10.545  -1.491  0.00  0.00     0.062 H 
ATOM     42  C   LIG d   1       9.930   7.188  -1.743  0.00  0.00    -0.057 A 
ATOM     43  H   LIG d   1       8.733   8.491  -0.545  0.00  0.00     0.062 H 
ATOM     44  H   LIG d   1       9.499   6.288  -1.332  0.00  0.00     0.062 H 
ENDBRANCH   8  34
TORSDOF 4
ENDMDL
MODEL 3
REMARK VINA RESULT:      -7.0      1.682      8.808
REMARK  4 active torsions:
REMARK  status: ('A' for Active; 'I' for Inactive)
REMARK    1  A    between atoms: C_4  and  C_7 
REMARK    2  A    between atoms: C_8  and  C_9 
REMARK    3  A    between atoms: C_14  and  N_15 
REMARK    4  A    between atoms: C_17  and  C_20 
ROOT
ATOM      1  C   LIG d   1       4.600  -5.489  -6.326  0.00  0.00    -0.004 A 
ATOM      2  C   LIG d   1       5.234  -4.863  -5.248  0.00  0.00    -0.048 A 
ATOM      3  C   LIG d   1       5.410  -3.497  -5.247  0.00  0.00    -0.024 A 
ATOM      4  C   LIG d   1       4.974  -2.723  -6.317  0.00  0.00     0.033 A 
ATOM      5  C   LIG d   1       4.340  -3.343  -7.396  0.00  0.00    -0.019 A 
ATOM      6  C   LIG d   1       4.152  -4.712  -7.407  0.00  0.00     0.034 A 
ATOM      7  N   LIG d   1       5.255  -1.372  -6.120  0.00  0.00    -0.336 N 
ATOM      8  C   LIG d   1       5.936  -1.179  -4.837  0.00  0.00     0.050 A 
ATOM      9  H   LIG d   1       6.924  -0.747  -4.995  0.00  0.00     0.055 H 
ATOM     10  C   LIG d   1       6.059  -2.586  -4.230  0.00  0.00    -0.003 A 
ATOM     11  H   LIG d   1       5.582  -5.453  -4.413  0.00  0.00     0.063 H 
ATOM     12  H   LIG d   1       3.995  -2.747  -8.228  0.00  0.00     0.066 H 
ATOM     13  H   LIG d   1       5.032  -0.662  -6.743  0.00  0.00     0.147 HD
ATOM     14  H   LIG d   1       7.107  -2.850  -4.090  0.00  0.00     0.034 H 
ATOM     15  H   LIG d   1       5.524  -2.638  -3.281  0.00  0.00     0.034 H 
ENDROOT
BRANCH   1  16
ATOM     16  C   LIG d   1       4.404  -6.947  -6.328  0.00  0.00    -0.052 C 
ATOM     17  C   LIG d   1       4.971  -7.703  -5.372  0.00  0.00    -0.054 C 
ATOM     18  H   LIG d   1       5.571  -7.239  -4.602  0.00  0.00     0.062 H 
ATOM     19  H   LIG d   1       3.806  -7.410  -7.098  0.00  0.00     0.062 H 
BRANCH  17  20
ATOM     20  C   LIG d   1       4.776  -9.162  -5.374  0.00  0.00    -0.025 A 
ATOM     21  C   LIG d   1       4.969  -9.896  -6.548  0.00  0.00    -0.055 A 
ATOM     22  C   LIG d   1       4.784 -11.263  -6.542  0.00  0.00    -0.061 A 
ATOM     23  H   LIG d   1       5.262  -9.394  -7.458  0.00  0.00     0.062 H 
ATOM     24  C   LIG d   1       4.407 -11.908  -5.376  0.00  0.00    -0.062 A 
ATOM     25  H   LIG d   1       4.932 -11.831  -7.448  0.00  0.00     0.062 H 
ATOM     26  C   LIG d   1       4.214 -11.189  -4.210  0.00  0.00    -0.061 A 
ATOM     27  H   LIG d   1       4.263 -12.978  -5.377  0.00  0.00     0.062 H 
ATOM     28  C   LIG d   1       4.402  -9.822  -4.199  0.00  0.00    -0.055 A 
ATOM     29  H   LIG d   1       3.921 -11.699  -3.304  0.00  0.00     0.062 H 
ATOM     30  H   LIG d   1       4.256  -9.263  -3.287  0.00  0.00     0.062 H 
ENDBRANCH  17  20
ENDBRANCH   1  16
BRANCH   6  31
ATOM     31  N   LIG d   1       3.520  -5.321  -8.489  0.00  0.00    -0.357 N 
ATOM     32  H   LIG d   1       3.639  -4.965  -9.384  0.00  0.00     0.142 HD
ATOM     33  H   LIG d   1       2.960  -6.101  -8.347  0.00  0.00     0.142 HD
ENDBRANCH   6  31
BRANCH   8  34
ATOM     34  C   LIG d   1       5.116  -0.290  -3.938  0.00  0.00    -0.027 A 
ATOM     35  C   LIG d   1       5.635   0.140  -2.732  0.00  0.00    -0.057 A 
ATOM     36  C   LIG d   1       4.882   0.956  -1.908  0.00  0.00    -0.061 A 
ATOM     37  H   LIG d   1       6.629  -0.159  -2.434  0.00  0.00     0.062 H 
ATOM     38  C   LIG d   1       3.610   1.339  -2.288  0.00  0.00    -0.062 A 
ATOM     39  H   LIG d   1       5.288   1.292  -0.965  0.00  0.00     0.062 H 
ATOM     40  C   LIG d   1       3.091   0.908  -3.495  0.00  0.00    -0.061 A 
ATOM     41  H   LIG d   1       3.022   1.975  -1.644  0.00  0.00     0.062 H 
ATOM     42  C   LIG d   1       3.845   0.097  -4.322  0.00  0.00    -0.057 A 
ATOM     43  H   LIG d   1       2.097   1.207  -3.793  0.00  0.00     0.062 H 
ATOM     44  H   LIG d   1       3.442  -0.236  -5.266  0.00  0.00     0.062 H 
ENDBRANCH   8  34
TORSDOF 4
ENDMDL
MODEL 4
REMARK VINA RESULT:      -7.0      7.289     12.247
REMARK  4 active torsions:
REMARK  status: ('A' for Active; 'I' for Inactive)
REMARK    1  A    between atoms: C_4  and  C_7 
REMARK    2  A    between atoms: C_8  and  C_9 
REMARK    3  A    between atoms: C_14  and  N_15 
REMARK    4  A    between atoms: C_17  and  C_20 
ROOT
ATOM      1  C   LIG d   1       9.083   2.174  -4.320  0.00  0.00    -0.004 A 
ATOM      2  C   LIG d   1       8.637   3.498  -4.357  0.00  0.00    -0.048 A 
ATOM      3  C   LIG d   1       9.487   4.502  -4.767  0.00  0.00    -0.024 A 
ATOM      4  C   LIG d   1      10.797   4.219  -5.137  0.00  0.00     0.033 A 
ATOM      5  C   LIG d   1      11.247   2.897  -5.101  0.00  0.00    -0.019 A 
ATOM      6  C   LIG d   1      10.403   1.879  -4.697  0.00  0.00     0.034 A 
ATOM      7  N   LIG d   1      11.486   5.372  -5.509  0.00  0.00    -0.336 N 
ATOM      8  C   LIG d   1      10.613   6.543  -5.391  0.00  0.00     0.050 A 
ATOM      9  H   LIG d   1      11.024   7.250  -4.671  0.00  0.00     0.055 H 
ATOM     10  C   LIG d   1       9.266   5.993  -4.891  0.00  0.00    -0.003 A 
ATOM     11  H   LIG d   1       7.624   3.734  -4.069  0.00  0.00     0.063 H 
ATOM     12  H   LIG d   1      12.262   2.669  -5.391  0.00  0.00     0.066 H 
ATOM     13  H   LIG d   1      12.410   5.396  -5.804  0.00  0.00     0.147 HD
ATOM     14  H   LIG d   1       9.014   6.426  -3.923  0.00  0.00     0.034 H 
ATOM     15  H   LIG d   1       8.479   6.199  -5.617  0.00  0.00     0.034 H 
ENDROOT
BRANCH   1  16
ATOM     16  C   LIG d   1       8.177   1.098  -3.888  0.00  0.00    -0.052 C 
ATOM     17  C   LIG d   1       6.919   1.388  -3.512  0.00  0.00    -0.054 C 
ATOM     18  H   LIG d   1       6.574   2.412  -3.526  0.00  0.00     0.062 H 
ATOM     19  H   LIG d   1       8.521   0.075  -3.874  0.00  0.00     0.062 H 
BRANCH  17  20
ATOM     20  C   LIG d   1       6.012   0.311  -3.080  0.00  0.00    -0.025 A 
ATOM     21  C   LIG d   1       4.941   0.594  -2.228  0.00  0.00    -0.055 A 
ATOM     22  C   LIG d   1       4.096  -0.420  -1.828  0.00  0.00    -0.061 A 
ATOM     23  H   LIG d   1       4.776   1.604  -1.882  0.00  0.00     0.062 H 
ATOM     24  C   LIG d   1       4.306  -1.715  -2.269  0.00  0.00    -0.062 A 
ATOM     25  H   LIG d   1       3.268  -0.203  -1.169  0.00  0.00     0.062 H 
ATOM     26  C   LIG d   1       5.364  -2.003  -3.114  0.00  0.00    -0.061 A 
ATOM     27  H   LIG d   1       3.641  -2.505  -1.952  0.00  0.00     0.062 H 
ATOM     28  C   LIG d   1       6.214  -0.998  -3.527  0.00  0.00    -0.055 A 
ATOM     29  H   LIG d   1       5.521  -3.016  -3.454  0.00  0.00     0.062 H 
ATOM     30  H   LIG d   1       7.036  -1.224  -4.190  0.00  0.00     0.062 H 
ENDBRANCH  17  20
ENDBRANCH   1  16
BRANCH   6  31
ATOM     31  N   LIG d   1      10.862   0.565  -4.664  0.00  0.00    -0.357 N 
ATOM     32  H   LIG d   1      10.859   0.070  -3.828  0.00  0.00     0.142 HD
ATOM     33  H   LIG d   1      11.183   0.142  -5.476  0.00  0.00     0.142 HD
ENDBRANCH   6  31
BRANCH   8  34
ATOM     34  C   LIG d   1      10.442   7.205  -6.733  0.00  0.00    -0.027 A 
ATOM     35  C   LIG d   1       9.331   7.989  -6.980  0.00  0.00    -0.057 A 
ATOM     36  C   LIG d   1       9.175   8.598  -8.212  0.00  0.00    -0.061 A 
ATOM     37  H   LIG d   1       8.586   8.128  -6.210  0.00  0.00     0.062 H 
ATOM     38  C   LIG d   1      10.128   8.420  -9.197  0.00  0.00    -0.062 A 
ATOM     39  H   LIG d   1       8.306   9.211  -8.405  0.00  0.00     0.062 H 
ATOM     40  C   LIG d   1      11.239   7.635  -8.949  0.00  0.00    -0.061 A 
ATOM     41  H   LIG d   1      10.005   8.895 -10.159  0.00  0.00     0.062 H 
ATOM     42  C   LIG d   1      11.399   7.032  -7.716  0.00  0.00    -0.057 A 
ATOM     43  H   LIG d   1      11.984   7.496  -9.718  0.00  0.00     0.062 H 
ATOM     44  H   LIG d   1      12.268   6.423  -7.522  0.00  0.00     0.062 H 
ENDBRANCH   8  34
TORSDOF 4
ENDMDL
MODEL 5
REMARK VINA RESULT:      -6.9      6.240      9.748
REMARK  4 active torsions:
REMARK  status: ('A' for Active; 'I' for Inactive)
REMARK    1  A    between atoms: C_4  and  C_7 
REMARK    2  A    between atoms: C_8  and  C_9 
REMARK    3  A    between atoms: C_14  and  N_15 
REMARK    4  A    between atoms: C_17  and  C_20 
ROOT
ATOM      1  C   LIG d   1       3.053  -0.418  -9.750  0.00  0.00    -0.004 A 
ATOM      2  C   LIG d   1       3.105  -1.225  -8.609  0.00  0.00    -0.048 A 
ATOM      3  C   LIG d   1       3.994  -0.937  -7.598  0.00  0.00    -0.024 A 
ATOM      4  C   LIG d   1       4.858   0.148  -7.698  0.00  0.00     0.033 A 
ATOM      5  C   LIG d   1       4.810   0.958  -8.835  0.00  0.00    -0.019 A 
ATOM      6  C   LIG d   1       3.919   0.682  -9.855  0.00  0.00     0.034 A 
ATOM      7  N   LIG d   1       5.677   0.257  -6.575  0.00  0.00    -0.336 N 
ATOM      8  C   LIG d   1       5.379  -0.819  -5.626  0.00  0.00     0.050 A 
ATOM      9  H   LIG d   1       6.260  -1.440  -5.469  0.00  0.00     0.055 H 
ATOM     10  C   LIG d   1       4.257  -1.639  -6.284  0.00  0.00    -0.003 A 
ATOM     11  H   LIG d   1       2.442  -2.074  -8.520  0.00  0.00     0.063 H 
ATOM     12  H   LIG d   1       5.476   1.804  -8.918  0.00  0.00     0.066 H 
ATOM     13  H   LIG d   1       6.347   0.944  -6.442  0.00  0.00     0.147 HD
ATOM     14  H   LIG d   1       4.586  -2.664  -6.456  0.00  0.00     0.034 H 
ATOM     15  H   LIG d   1       3.362  -1.625  -5.663  0.00  0.00     0.034 H 
ENDROOT
BRANCH   1  16
ATOM     16  C   LIG d   1       2.099  -0.719 -10.829  0.00  0.00    -0.052 C 
ATOM     17  C   LIG d   1       2.425  -1.605 -11.786  0.00  0.00    -0.054 C 
ATOM     18  H   LIG d   1       3.387  -2.097 -11.762  0.00  0.00     0.062 H 
ATOM     19  H   LIG d   1       1.139  -0.228 -10.853  0.00  0.00     0.062 H 
BRANCH  17  20
ATOM     20  C   LIG d   1       1.471  -1.906 -12.867  0.00  0.00    -0.025 A 
ATOM     21  C   LIG d   1       1.936  -2.292 -14.127  0.00  0.00    -0.055 A 
ATOM     22  C   LIG d   1       1.037  -2.572 -15.135  0.00  0.00    -0.061 A 
ATOM     23  H   LIG d   1       2.997  -2.370 -14.313  0.00  0.00     0.062 H 
ATOM     24  C   LIG d   1      -0.323  -2.472 -14.900  0.00  0.00    -0.062 A 
ATOM     25  H   LIG d   1       1.394  -2.870 -16.109  0.00  0.00     0.062 H 
ATOM     26  C   LIG d   1      -0.792  -2.091 -13.654  0.00  0.00    -0.061 A 
ATOM     27  H   LIG d   1      -1.024  -2.692 -15.692  0.00  0.00     0.062 H 
ATOM     28  C   LIG d   1       0.096  -1.814 -12.636  0.00  0.00    -0.055 A 
ATOM     29  H   LIG d   1      -1.855  -2.016 -13.479  0.00  0.00     0.062 H 
ATOM     30  H   LIG d   1      -0.272  -1.521 -11.663  0.00  0.00     0.062 H 
ENDBRANCH  17  20
ENDBRANCH   1  16
BRANCH   6  31
ATOM     31  N   LIG d   1       3.879   1.496 -10.985  0.00  0.00    -0.357 N 
ATOM     32  H   LIG d   1       3.190   1.361 -11.656  0.00  0.00     0.142 HD
ATOM     33  H   LIG d   1       4.540   2.196 -11.102  0.00  0.00     0.142 HD
ENDBRANCH   6  31
BRANCH   8  34
ATOM     34  C   LIG d   1       4.906  -0.243  -4.316  0.00  0.00    -0.027 A 
ATOM     35  C   LIG d   1       5.770   0.503  -3.538  0.00  0.00    -0.057 A 
ATOM     36  C   LIG d   1       5.336   1.032  -2.336  0.00  0.00    -0.061 A 
ATOM     37  H   LIG d   1       6.784   0.675  -3.869  0.00  0.00     0.062 H 
ATOM     38  C   LIG d   1       4.039   0.812  -1.912  0.00  0.00    -0.062 A 
ATOM     39  H   LIG d   1       6.011   1.616  -1.728  0.00  0.00     0.062 H 
ATOM     40  C   LIG d   1       3.175   0.065  -2.691  0.00  0.00    -0.061 A 
ATOM     41  H   LIG d   1       3.701   1.224  -0.973  0.00  0.00     0.062 H 
ATOM     42  C   LIG d   1       3.607  -0.459  -3.895  0.00  0.00    -0.057 A 
ATOM     43  H   LIG d   1       2.161  -0.107  -2.360  0.00  0.00     0.062 H 
ATOM     44  H   LIG d   1       2.931  -1.038  -4.505  0.00  0.00     0.062 H 
ENDBRANCH   8  34
TORSDOF 4
ENDMDL
MODEL 6
REMARK VINA RESULT:      -6.9      7.028     12.608
REMARK  4 active torsions:
REMARK  status: ('A' for Active; 'I' for Inactive)
REMARK    1  A    between atoms: C_4  and  C_7 
REMARK    2  A    between atoms: C_8  and  C_9 
REMARK    3  A    between atoms: C_14  and  N_15 
REMARK    4  A    between atoms: C_17  and  C_20 
ROOT
ATOM      1  C   LIG d   1       8.455   2.294  -4.845  0.00  0.00    -0.004 A 
ATOM      2  C   LIG d   1       8.845   3.250  -3.903  0.00  0.00    -0.048 A 
ATOM      3  C   LIG d   1       9.666   4.293  -4.274  0.00  0.00    -0.024 A 
ATOM      4  C   LIG d   1      10.127   4.404  -5.581  0.00  0.00     0.033 A 
ATOM      5  C   LIG d   1       9.741   3.451  -6.526  0.00  0.00    -0.019 A 
ATOM      6  C   LIG d   1       8.913   2.403  -6.168  0.00  0.00     0.034 A 
ATOM      7  N   LIG d   1      10.946   5.520  -5.742  0.00  0.00    -0.336 N 
ATOM      8  C   LIG d   1      11.077   6.239  -4.472  0.00  0.00     0.050 A 
ATOM      9  H   LIG d   1      12.120   6.263  -4.157  0.00  0.00     0.055 H 
ATOM     10  C   LIG d   1      10.233   5.438  -3.467  0.00  0.00    -0.003 A 
ATOM     11  H   LIG d   1       8.497   3.175  -2.883  0.00  0.00     0.063 H 
ATOM     12  H   LIG d   1      10.092   3.533  -7.544  0.00  0.00     0.066 H 
ATOM     13  H   LIG d   1      11.369   5.782  -6.575  0.00  0.00     0.147 HD
ATOM     14  H   LIG d   1      10.859   5.065  -2.657  0.00  0.00     0.034 H 
ATOM     15  H   LIG d   1       9.427   6.056  -3.071  0.00  0.00     0.034 H 
ENDROOT
BRANCH   1  16
ATOM     16  C   LIG d   1       7.573   1.183  -4.454  0.00  0.00    -0.052 C 
ATOM     17  C   LIG d   1       6.718   1.332  -3.427  0.00  0.00    -0.054 C 
ATOM     18  H   LIG d   1       6.678   2.269  -2.889  0.00  0.00     0.062 H 
ATOM     19  H   LIG d   1       7.613   0.248  -4.991  0.00  0.00     0.062 H 
BRANCH  17  20
ATOM     20  C   LIG d   1       5.835   0.221  -3.036  0.00  0.00    -0.025 A 
ATOM     21  C   LIG d   1       4.704   0.464  -2.253  0.00  0.00    -0.055 A 
ATOM     22  C   LIG d   1       3.881  -0.582  -1.890  0.00  0.00    -0.061 A 
ATOM     23  H   LIG d   1       4.473   1.469  -1.932  0.00  0.00     0.062 H 
ATOM     24  C   LIG d   1       4.176  -1.871  -2.299  0.00  0.00    -0.062 A 
ATOM     25  H   LIG d   1       3.007  -0.396  -1.285  0.00  0.00     0.062 H 
ATOM     26  C   LIG d   1       5.295  -2.121  -3.074  0.00  0.00    -0.061 A 
ATOM     27  H   LIG d   1       3.529  -2.687  -2.012  0.00  0.00     0.062 H 
ATOM     28  C   LIG d   1       6.122  -1.083  -3.450  0.00  0.00    -0.055 A 
ATOM     29  H   LIG d   1       5.517  -3.129  -3.390  0.00  0.00     0.062 H 
ATOM     30  H   LIG d   1       6.992  -1.279  -4.060  0.00  0.00     0.062 H 
ENDBRANCH  17  20
ENDBRANCH   1  16
BRANCH   6  31
ATOM     31  N   LIG d   1       8.534   1.457  -7.117  0.00  0.00    -0.357 N 
ATOM     32  H   LIG d   1       8.057   1.735  -7.916  0.00  0.00     0.142 HD
ATOM     33  H   LIG d   1       8.747   0.520  -6.981  0.00  0.00     0.142 HD
ENDBRANCH   6  31
BRANCH   8  34
ATOM     34  C   LIG d   1      10.541   7.640  -4.608  0.00  0.00    -0.027 A 
ATOM     35  C   LIG d   1      10.716   8.549  -3.581  0.00  0.00    -0.057 A 
ATOM     36  C   LIG d   1      10.224   9.835  -3.706  0.00  0.00    -0.061 A 
ATOM     37  H   LIG d   1      11.238   8.255  -2.683  0.00  0.00     0.062 H 
ATOM     38  C   LIG d   1       9.555  10.212  -4.855  0.00  0.00    -0.062 A 
ATOM     39  H   LIG d   1      10.361  10.545  -2.904  0.00  0.00     0.062 H 
ATOM     40  C   LIG d   1       9.380   9.302  -5.882  0.00  0.00    -0.061 A 
ATOM     41  H   LIG d   1       9.171  11.216  -4.952  0.00  0.00     0.062 H 
ATOM     42  C   LIG d   1       9.877   8.018  -5.760  0.00  0.00    -0.057 A 
ATOM     43  H   LIG d   1       8.858   9.595  -6.780  0.00  0.00     0.062 H 
ATOM     44  H   LIG d   1       9.744   7.309  -6.564  0.00  0.00     0.062 H 
ENDBRANCH   8  34
TORSDOF 4
ENDMDL
MODEL 7
REMARK VINA RESULT:      -6.7      5.643      9.184
REMARK  4 active torsions:
REMARK  status: ('A' for Active; 'I' for Inactive)
REMARK    1  A    between atoms: C_4  and  C_7 
REMARK    2  A    between atoms: C_8  and  C_9 
REMARK    3  A    between atoms: C_14  and  N_15 
REMARK    4  A    between atoms: C_17  and  C_20 
ROOT
ATOM      1  C   LIG d   1       3.337  -0.766  -9.420  0.00  0.00    -0.004 A 
ATOM      2  C   LIG d   1       3.536  -1.614  -8.326  0.00  0.00    -0.048 A 
ATOM      3  C   LIG d   1       4.422  -1.264  -7.332  0.00  0.00    -0.024 A 
ATOM      4  C   LIG d   1       5.138  -0.075  -7.404  0.00  0.00     0.033 A 
ATOM      5  C   LIG d   1       4.943   0.777  -8.493  0.00  0.00    -0.019 A 
ATOM      6  C   LIG d   1       4.053   0.440  -9.496  0.00  0.00     0.034 A 
ATOM      7  N   LIG d   1       5.982   0.084  -6.305  0.00  0.00    -0.336 N 
ATOM      8  C   LIG d   1       5.860  -1.066  -5.404  0.00  0.00     0.050 A 
ATOM      9  H   LIG d   1       6.818  -1.577  -5.311  0.00  0.00     0.055 H 
ATOM     10  C   LIG d   1       4.824  -1.989  -6.067  0.00  0.00    -0.003 A 
ATOM     11  H   LIG d   1       2.990  -2.544  -8.259  0.00  0.00     0.063 H 
ATOM     12  H   LIG d   1       5.493   1.705  -8.554  0.00  0.00     0.066 H 
ATOM     13  H   LIG d   1       6.565   0.844  -6.158  0.00  0.00     0.147 HD
ATOM     14  H   LIG d   1       5.272  -2.955  -6.304  0.00  0.00     0.034 H 
ATOM     15  H   LIG d   1       3.960  -2.120  -5.416  0.00  0.00     0.034 H 
ENDROOT
BRANCH   1  16
ATOM     16  C   LIG d   1       2.386  -1.133 -10.481  0.00  0.00    -0.052 C 
ATOM     17  C   LIG d   1       1.705  -2.289 -10.403  0.00  0.00    -0.054 C 
ATOM     18  H   LIG d   1       1.855  -2.949  -9.560  0.00  0.00     0.062 H 
ATOM     19  H   LIG d   1       2.236  -0.474 -11.322  0.00  0.00     0.062 H 
BRANCH  17  20
ATOM     20  C   LIG d   1       0.753  -2.657 -11.465  0.00  0.00    -0.025 A 
ATOM     21  C   LIG d   1       0.443  -1.745 -12.477  0.00  0.00    -0.055 A 
ATOM     22  C   LIG d   1      -0.449  -2.097 -13.469  0.00  0.00    -0.061 A 
ATOM     23  H   LIG d   1       0.901  -0.767 -12.484  0.00  0.00     0.062 H 
ATOM     24  C   LIG d   1      -1.037  -3.350 -13.462  0.00  0.00    -0.062 A 
ATOM     25  H   LIG d   1      -0.689  -1.394 -14.252  0.00  0.00     0.062 H 
ATOM     26  C   LIG d   1      -0.736  -4.258 -12.462  0.00  0.00    -0.061 A 
ATOM     27  H   LIG d   1      -1.736  -3.620 -14.240  0.00  0.00     0.062 H 
ATOM     28  C   LIG d   1       0.160  -3.923 -11.468  0.00  0.00    -0.055 A 
ATOM     29  H   LIG d   1      -1.199  -5.234 -12.464  0.00  0.00     0.062 H 
ATOM     30  H   LIG d   1       0.397  -4.635 -10.692  0.00  0.00     0.062 H 
ENDBRANCH  17  20
ENDBRANCH   1  16
BRANCH   6  31
ATOM     31  N   LIG d   1       3.866   1.295 -10.579  0.00  0.00    -0.357 N 
ATOM     32  H   LIG d   1       3.056   1.234 -11.111  0.00  0.00     0.142 HD
ATOM     33  H   LIG d   1       4.544   1.952 -10.802  0.00  0.00     0.142 HD
ENDBRANCH   6  31
BRANCH   8  34
ATOM     34  C   LIG d   1       5.372  -0.620  -4.050  0.00  0.00    -0.027 A 
ATOM     35  C   LIG d   1       4.717  -1.513  -3.224  0.00  0.00    -0.057 A 
ATOM     36  C   LIG d   1       4.270  -1.103  -1.981  0.00  0.00    -0.061 A 
ATOM     37  H   LIG d   1       4.555  -2.530  -3.547  0.00  0.00     0.062 H 
ATOM     38  C   LIG d   1       4.475   0.199  -1.567  0.00  0.00    -0.062 A 
ATOM     39  H   LIG d   1       3.758  -1.800  -1.335  0.00  0.00     0.062 H 
ATOM     40  C   LIG d   1       5.131   1.092  -2.394  0.00  0.00    -0.061 A 
ATOM     41  H   LIG d   1       4.125   0.519  -0.596  0.00  0.00     0.062 H 
ATOM     42  C   LIG d   1       5.583   0.682  -3.634  0.00  0.00    -0.057 A 
ATOM     43  H   LIG d   1       5.292   2.110  -2.071  0.00  0.00     0.062 H 
ATOM     44  H   LIG d   1       6.099   1.378  -4.278  0.00  0.00     0.062 H 
ENDBRANCH   8  34
TORSDOF 4
ENDMDL
MODEL 8
REMARK VINA RESULT:      -6.6      5.067      9.353
REMARK  4 active torsions:
REMARK  status: ('A' for Active; 'I' for Inactive)
REMARK    1  A    between atoms: C_4  and  C_7 
REMARK    2  A    between atoms: C_8  and  C_9 
REMARK    3  A    between atoms: C_14  and  N_15 
REMARK    4  A    between atoms: C_17  and  C_20 
ROOT
ATOM      1  C   LIG d   1       2.550  -2.352  -9.464  0.00  0.00    -0.004 A 
ATOM      2  C   LIG d   1       3.600  -2.700  -8.608  0.00  0.00    -0.048 A 
ATOM      3  C   LIG d   1       4.049  -1.804  -7.664  0.00  0.00    -0.024 A 
ATOM      4  C   LIG d   1       3.477  -0.541  -7.554  0.00  0.00     0.033 A 
ATOM      5  C   LIG d   1       2.428  -0.188  -8.406  0.00  0.00    -0.019 A 
ATOM      6  C   LIG d   1       1.965  -1.080  -9.355  0.00  0.00     0.034 A 
ATOM      7  N   LIG d   1       4.080   0.209  -6.545  0.00  0.00    -0.336 N 
ATOM      8  C   LIG d   1       5.146  -0.568  -5.907  0.00  0.00     0.050 A 
ATOM      9  H   LIG d   1       6.106  -0.066  -6.030  0.00  0.00     0.055 H 
ATOM     10  C   LIG d   1       5.152  -1.921  -6.637  0.00  0.00    -0.003 A 
ATOM     11  H   LIG d   1       4.056  -3.676  -8.685  0.00  0.00     0.063 H 
ATOM     12  H   LIG d   1       1.977   0.790  -8.323  0.00  0.00     0.066 H 
ATOM     13  H   LIG d   1       3.831   1.114  -6.301  0.00  0.00     0.147 HD
ATOM     14  H   LIG d   1       6.114  -2.085  -7.124  0.00  0.00     0.034 H 
ATOM     15  H   LIG d   1       4.936  -2.730  -5.940  0.00  0.00     0.034 H 
ENDROOT
BRANCH   1  16
ATOM     16  C   LIG d   1       2.064  -3.309 -10.470  0.00  0.00    -0.052 C 
ATOM     17  C   LIG d   1       2.030  -4.623 -10.187  0.00  0.00    -0.054 C 
ATOM     18  H   LIG d   1       2.359  -4.976  -9.220  0.00  0.00     0.062 H 
ATOM     19  H   LIG d   1       1.735  -2.957 -11.435  0.00  0.00     0.062 H 
BRANCH  17  20
ATOM     20  C   LIG d   1       1.543  -5.581 -11.194  0.00  0.00    -0.025 A 
ATOM     21  C   LIG d   1       0.846  -6.725 -10.796  0.00  0.00    -0.055 A 
ATOM     22  C   LIG d   1       0.393  -7.618 -11.744  0.00  0.00    -0.061 A 
ATOM     23  H   LIG d   1       0.663  -6.911  -9.747  0.00  0.00     0.062 H 
ATOM     24  C   LIG d   1       0.628  -7.383 -13.088  0.00  0.00    -0.062 A 
ATOM     25  H   LIG d   1      -0.145  -8.503 -11.438  0.00  0.00     0.062 H 
ATOM     26  C   LIG d   1       1.317  -6.252 -13.490  0.00  0.00    -0.061 A 
ATOM     27  H   LIG d   1       0.271  -8.086 -13.827  0.00  0.00     0.062 H 
ATOM     28  C   LIG d   1       1.770  -5.347 -12.553  0.00  0.00    -0.055 A 
ATOM     29  H   LIG d   1       1.495  -6.076 -14.541  0.00  0.00     0.062 H 
ATOM     30  H   LIG d   1       2.303  -4.463 -12.869  0.00  0.00     0.062 H 
ENDBRANCH  17  20
ENDBRANCH   1  16
BRANCH   6  31
ATOM     31  N   LIG d   1       0.920  -0.718 -10.201  0.00  0.00    -0.357 N 
ATOM     32  H   LIG d   1       0.130  -1.280 -10.265  0.00  0.00     0.142 HD
ATOM     33  H   LIG d   1       0.980   0.095 -10.726  0.00  0.00     0.142 HD
ENDBRANCH   6  31
BRANCH   8  34
ATOM     34  C   LIG d   1       4.845  -0.765  -4.443  0.00  0.00    -0.027 A 
ATOM     35  C   LIG d   1       5.117   0.246  -3.540  0.00  0.00    -0.057 A 
ATOM     36  C   LIG d   1       4.839   0.065  -2.198  0.00  0.00    -0.061 A 
ATOM     37  H   LIG d   1       5.544   1.176  -3.883  0.00  0.00     0.062 H 
ATOM     38  C   LIG d   1       4.292  -1.126  -1.759  0.00  0.00    -0.062 A 
ATOM     39  H   LIG d   1       5.052   0.854  -1.492  0.00  0.00     0.062 H 
ATOM     40  C   LIG d   1       4.020  -2.136  -2.663  0.00  0.00    -0.061 A 
ATOM     41  H   LIG d   1       4.077  -1.267  -0.710  0.00  0.00     0.062 H 
ATOM     42  C   LIG d   1       4.292  -1.954  -4.006  0.00  0.00    -0.057 A 
ATOM     43  H   LIG d   1       3.593  -3.067  -2.320  0.00  0.00     0.062 H 
ATOM     44  H   LIG d   1       4.075  -2.741  -4.712  0.00  0.00     0.062 H 
ENDBRANCH   8  34
TORSDOF 4
ENDMDL
MODEL 9
REMARK VINA RESULT:      -6.5      6.745     11.547
REMARK  4 active torsions:
REMARK  status: ('A' for Active; 'I' for Inactive)
REMARK    1  A    between atoms: C_4  and  C_7 
REMARK    2  A    between atoms: C_8  and  C_9 
REMARK    3  A    between atoms: C_14  and  N_15 
REMARK    4  A    between atoms: C_17  and  C_20 
ROOT
ATOM      1  C   LIG d   1       7.979   1.084  -6.111  0.00  0.00    -0.004 A 
ATOM      2  C   LIG d   1       8.375   2.240  -5.433  0.00  0.00    -0.048 A 
ATOM      3  C   LIG d   1       9.206   3.151  -6.047  0.00  0.00    -0.024 A 
ATOM      4  C   LIG d   1       9.670   2.933  -7.339  0.00  0.00     0.033 A 
ATOM      5  C   LIG d   1       9.276   1.779  -8.021  0.00  0.00    -0.019 A 
ATOM      6  C   LIG d   1       8.439   0.859  -7.418  0.00  0.00     0.034 A 
ATOM      7  N   LIG d   1      10.499   3.968  -7.768  0.00  0.00    -0.336 N 
ATOM      8  C   LIG d   1      10.635   4.977  -6.714  0.00  0.00     0.050 A 
ATOM      9  H   LIG d   1      11.678   5.069  -6.411  0.00  0.00     0.055 H 
ATOM     10  C   LIG d   1       9.782   4.456  -5.545  0.00  0.00    -0.003 A 
ATOM     11  H   LIG d   1       8.026   2.421  -4.427  0.00  0.00     0.063 H 
ATOM     12  H   LIG d   1       9.630   1.605  -9.027  0.00  0.00     0.066 H 
ATOM     13  H   LIG d   1      10.926   4.013  -8.638  0.00  0.00     0.147 HD
ATOM     14  H   LIG d   1      10.404   4.289  -4.666  0.00  0.00     0.034 H 
ATOM     15  H   LIG d   1       8.982   5.159  -5.316  0.00  0.00     0.034 H 
ENDROOT
BRANCH   1  16
ATOM     16  C   LIG d   1       7.086   0.111  -5.461  0.00  0.00    -0.052 C 
ATOM     17  C   LIG d   1       6.507   0.411  -4.286  0.00  0.00    -0.054 C 
ATOM     18  H   LIG d   1       6.696   1.366  -3.818  0.00  0.00     0.062 H 
ATOM     19  H   LIG d   1       6.897  -0.844  -5.928  0.00  0.00     0.062 H 
BRANCH  17  20
ATOM     20  C   LIG d   1       5.614  -0.563  -3.635  0.00  0.00    -0.025 A 
ATOM     21  C   LIG d   1       4.990  -0.246  -2.425  0.00  0.00    -0.055 A 
ATOM     22  C   LIG d   1       4.155  -1.162  -1.821  0.00  0.00    -0.061 A 
ATOM     23  H   LIG d   1       5.162   0.716  -1.963  0.00  0.00     0.062 H 
ATOM     24  C   LIG d   1       3.934  -2.395  -2.411  0.00  0.00    -0.062 A 
ATOM     25  H   LIG d   1       3.673  -0.919  -0.887  0.00  0.00     0.062 H 
ATOM     26  C   LIG d   1       4.548  -2.717  -3.609  0.00  0.00    -0.061 A 
ATOM     27  H   LIG d   1       3.280  -3.110  -1.934  0.00  0.00     0.062 H 
ATOM     28  C   LIG d   1       5.380  -1.807  -4.228  0.00  0.00    -0.055 A 
ATOM     29  H   LIG d   1       4.370  -3.681  -4.063  0.00  0.00     0.062 H 
ATOM     30  H   LIG d   1       5.854  -2.058  -5.165  0.00  0.00     0.062 H 
ENDBRANCH  17  20
ENDBRANCH   1  16
BRANCH   6  31
ATOM     31  N   LIG d   1       8.053  -0.289  -8.107  0.00  0.00    -0.357 N 
ATOM     32  H   LIG d   1       7.654  -0.215  -8.988  0.00  0.00     0.142 HD
ATOM     33  H   LIG d   1       8.183  -1.162  -7.705  0.00  0.00     0.142 HD
ENDBRANCH   6  31
BRANCH   8  34
ATOM     34  C   LIG d   1      10.111   6.306  -7.193  0.00  0.00    -0.027 A 
ATOM     35  C   LIG d   1      10.019   6.564  -8.547  0.00  0.00    -0.057 A 
ATOM     36  C   LIG d   1       9.538   7.784  -8.986  0.00  0.00    -0.061 A 
ATOM     37  H   LIG d   1      10.322   5.814  -9.263  0.00  0.00     0.062 H 
ATOM     38  C   LIG d   1       9.150   8.745  -8.072  0.00  0.00    -0.062 A 
ATOM     39  H   LIG d   1       9.466   7.987 -10.045  0.00  0.00     0.062 H 
ATOM     40  C   LIG d   1       9.242   8.485  -6.716  0.00  0.00    -0.061 A 
ATOM     41  H   LIG d   1       8.775   9.697  -8.415  0.00  0.00     0.062 H 
ATOM     42  C   LIG d   1       9.718   7.264  -6.277  0.00  0.00    -0.057 A 
ATOM     43  H   LIG d   1       8.940   9.235  -6.001  0.00  0.00     0.062 H 
ATOM     44  H   LIG d   1       9.786   7.060  -5.219  0.00  0.00     0.062 H 
ENDBRANCH   8  34
TORSDOF 4
ENDMDL
