MODEL 1
REMARK VINA RESULT:      -5.9      0.000      0.000
REMARK  7 active torsions:
REMARK  status: ('A' for Active; 'I' for Inactive)
REMARK    1  A    between atoms: C_1  and  O_2 
REMARK    2  A    between atoms: O_2  and  C_3 
REMARK    3  A    between atoms: C_6  and  C_9 
REMARK       I    between atoms: C_9  and  N_11 
REMARK    4  A    between atoms: N_11  and  C_12 
REMARK    5  A    between atoms: C_24  and  O_30 
REMARK    6  A    between atoms: O_30  and  C_31 
REMARK    7  A    between atoms: C_31  and  C_32 
ROOT
ATOM      1  C   LIG d   1       5.376   0.890  -2.406  0.00  0.00    -0.077 C 
ATOM      2  C   LIG d   1       4.562   1.027  -1.571  0.00  0.00    -0.117 C 
ATOM      3  H   LIG d   1       3.835   1.150  -0.823  0.00  0.00     0.123 H 
ENDROOT
BRANCH   1   4
ATOM      4  C   LIG d   1       6.396   0.718  -3.454  0.00  0.00     0.108 C 
ATOM      5  H   LIG d   1       6.841   1.685  -3.689  0.00  0.00     0.070 H 
ATOM      6  H   LIG d   1       7.169   0.037  -3.099  0.00  0.00     0.070 H 
BRANCH   4   7
ATOM      7  O   LIG d   1       5.785   0.177  -4.628  0.00  0.00    -0.362 OA
BRANCH   7   8
ATOM      8  C   LIG d   1       5.023  -1.008  -4.391  0.00  0.00     0.088 C 
ATOM      9  C   LIG d   1       5.879  -2.283  -4.635  0.00  0.00    -0.008 C 
ATOM     10  C   LIG d   1       5.827  -2.439  -6.172  0.00  0.00     0.018 C 
ATOM     11  H   LIG d   1       6.903  -2.130  -4.296  0.00  0.00     0.031 H 
ATOM     12  H   LIG d   1       5.435  -3.148  -4.140  0.00  0.00     0.031 H 
ATOM     13  N   LIG d   1       4.626  -1.735  -6.634  0.00  0.00    -0.286 N 
ATOM     14  H   LIG d   1       6.715  -1.993  -6.620  0.00  0.00     0.046 H 
ATOM     15  H   LIG d   1       5.765  -3.494  -6.436  0.00  0.00     0.046 H 
ATOM     16  C   LIG d   1       4.212  -1.589  -7.911  0.00  0.00     0.239 C 
ATOM     17  CA  LIG d   1       3.920  -1.184  -5.461  0.00  0.00     0.129 C 
ATOM     18  CA  LIG d   1       3.091  -0.622  -8.193  0.00  0.00     0.121 C 
ATOM     19  O   LIG d   1       4.730  -2.219  -8.808  0.00  0.00    -0.274 OA
ATOM     20  C   LIG d   1       3.389   0.167  -9.489  0.00  0.00     0.052 C 
ATOM     21  N   LIG d   1       3.074   0.405  -7.131  0.00  0.00    -0.286 N 
ATOM     22  HA  LIG d   1       2.130  -1.131  -8.259  0.00  0.00     0.061 H 
ATOM     23  H   LIG d   1       4.452   0.394  -9.577  0.00  0.00     0.052 H 
ATOM     24  C   LIG d   1       2.560   1.460  -9.250  0.00  0.00    -0.016 C 
ATOM     25  C   LIG d   1       2.731   1.698  -7.733  0.00  0.00     0.017 C 
ATOM     26  H   LIG d   1       1.511   1.297  -9.500  0.00  0.00     0.030 H 
ATOM     27  H   LIG d   1       2.969   2.293  -9.820  0.00  0.00     0.030 H 
ATOM     28  H   LIG d   1       1.799   2.069  -7.308  0.00  0.00     0.046 H 
ATOM     29  H   LIG d   1       3.534   2.414  -7.557  0.00  0.00     0.046 H 
ATOM     30  C   LIG d   1       3.346   0.161  -5.832  0.00  0.00     0.239 C 
ATOM     31  O   LIG d   1       3.135   1.002  -4.984  0.00  0.00    -0.273 OA
ATOM     32  HA  LIG d   1       3.144  -1.866  -5.114  0.00  0.00     0.062 H 
ATOM     33  H   LIG d   1       4.599  -1.007  -3.386  0.00  0.00     0.062 H 
BRANCH  20  34
ATOM     34  N   LIG d   1       2.909  -0.556 -10.670  0.00  0.00    -0.306 N 
ATOM     35  C   LIG d   1       3.586  -0.473 -11.832  0.00  0.00     0.244 C 
ATOM     36  O   LIG d   1       4.594   0.203 -11.902  0.00  0.00    -0.270 OA
ATOM     37  H   LIG d   1       2.105  -1.095 -10.614  0.00  0.00     0.149 HD
BRANCH  35  38
ATOM     38  C   LIG d   1       3.102  -1.203 -13.021  0.00  0.00     0.037 A 
ATOM     39  C   LIG d   1       3.797  -1.109 -14.231  0.00  0.00    -0.046 A 
ATOM     40  C   LIG d   1       3.342  -1.791 -15.336  0.00  0.00    -0.019 A 
ATOM     41  H   LIG d   1       4.688  -0.503 -14.296  0.00  0.00     0.063 H 
ATOM     42  C   LIG d   1       2.196  -2.572 -15.252  0.00  0.00     0.120 A 
ATOM     43  H   LIG d   1       3.878  -1.719 -16.272  0.00  0.00     0.065 H 
ATOM     44  C   LIG d   1       1.503  -2.667 -14.051  0.00  0.00    -0.019 A 
ATOM     45  C   LIG d   1       1.953  -1.993 -12.939  0.00  0.00    -0.046 A 
ATOM     46  H   LIG d   1       0.612  -3.274 -13.990  0.00  0.00     0.065 H 
ATOM     47  H   LIG d   1       1.416  -2.071 -12.005  0.00  0.00     0.063 H 
BRANCH  42  48
ATOM     48  O   LIG d   1       1.752  -3.243 -16.345  0.00  0.00    -0.495 OA
BRANCH  48  49
ATOM     49  C   LIG d   1       1.477  -2.469 -17.515  0.00  0.00     0.079 C 
ATOM     50  H   LIG d   1       0.949  -3.085 -18.243  0.00  0.00     0.066 H 
ATOM     51  H   LIG d   1       0.859  -1.613 -17.247  0.00  0.00     0.066 H 
ATOM     52  H   LIG d   1       2.415  -2.119 -17.947  0.00  0.00     0.066 H 
ENDBRANCH  48  49
ENDBRANCH  42  48
ENDBRANCH  35  38
ENDBRANCH  20  34
ENDBRANCH   7   8
ENDBRANCH   4   7
ENDBRANCH   1   4
TORSDOF 7
ENDMDL
MODEL 2
REMARK VINA RESULT:      -5.8      5.364      9.826
REMARK  7 active torsions:
REMARK  status: ('A' for Active; 'I' for Inactive)
REMARK    1  A    between atoms: C_1  and  O_2 
REMARK    2  A    between atoms: O_2  and  C_3 
REMARK    3  A    between atoms: C_6  and  C_9 
REMARK       I    between atoms: C_9  and  N_11 
REMARK    4  A    between atoms: N_11  and  C_12 
REMARK    5  A    between atoms: C_24  and  O_30 
REMARK    6  A    between atoms: O_30  and  C_31 
REMARK    7  A    between atoms: C_31  and  C_32 
ROOT
ATOM      1  C   LIG d   1       2.716   0.554  -6.276  0.00  0.00    -0.077 C 
ATOM      2  C   LIG d   1       2.927   0.550  -7.431  0.00  0.00    -0.117 C 
ATOM      3  H   LIG d   1       3.115   0.545  -8.465  0.00  0.00     0.123 H 
ENDROOT
BRANCH   1   4
ATOM      4  C   LIG d   1       2.452   0.561  -4.828  0.00  0.00     0.108 C 
ATOM      5  H   LIG d   1       2.913   1.439  -4.378  0.00  0.00     0.070 H 
ATOM      6  H   LIG d   1       1.376   0.586  -4.656  0.00  0.00     0.070 H 
BRANCH   4   7
ATOM      7  O   LIG d   1       3.001  -0.620  -4.239  0.00  0.00    -0.362 OA
BRANCH   7   8
ATOM      8  C   LIG d   1       3.317  -0.484  -2.852  0.00  0.00     0.088 C 
ATOM      9  C   LIG d   1       3.568   1.005  -2.479  0.00  0.00    -0.008 C 
ATOM     10  C   LIG d   1       5.028   1.228  -2.934  0.00  0.00     0.018 C 
ATOM     11  H   LIG d   1       2.889   1.659  -3.025  0.00  0.00     0.031 H 
ATOM     12  H   LIG d   1       3.467   1.156  -1.404  0.00  0.00     0.031 H 
ATOM     13  N   LIG d   1       5.672  -0.089  -2.972  0.00  0.00    -0.286 N 
ATOM     14  H   LIG d   1       5.043   1.676  -3.927  0.00  0.00     0.046 H 
ATOM     15  H   LIG d   1       5.544   1.874  -2.224  0.00  0.00     0.046 H 
ATOM     16  C   LIG d   1       6.939  -0.363  -3.348  0.00  0.00     0.239 C 
ATOM     17  CA  LIG d   1       4.696  -1.106  -2.532  0.00  0.00     0.129 C 
ATOM     18  CA  LIG d   1       7.330  -1.804  -3.554  0.00  0.00     0.121 C 
ATOM     19  O   LIG d   1       7.743   0.529  -3.518  0.00  0.00    -0.274 OA
ATOM     20  C   LIG d   1       8.229  -1.934  -4.805  0.00  0.00     0.052 C 
ATOM     21  N   LIG d   1       6.117  -2.579  -3.888  0.00  0.00    -0.286 N 
ATOM     22  HA  LIG d   1       7.824  -2.214  -2.673  0.00  0.00     0.061 H 
ATOM     23  H   LIG d   1       7.909  -1.251  -5.592  0.00  0.00     0.052 H 
ATOM     24  C   LIG d   1       7.969  -3.412  -5.208  0.00  0.00    -0.016 C 
ATOM     25  C   LIG d   1       6.468  -3.594  -4.887  0.00  0.00     0.017 C 
ATOM     26  H   LIG d   1       8.577  -4.089  -4.607  0.00  0.00     0.030 H 
ATOM     27  H   LIG d   1       8.158  -3.562  -6.270  0.00  0.00     0.030 H 
ATOM     28  H   LIG d   1       6.293  -4.590  -4.482  0.00  0.00     0.046 H 
ATOM     29  H   LIG d   1       5.875  -3.447  -5.790  0.00  0.00     0.046 H 
ATOM     30  C   LIG d   1       4.899  -2.355  -3.352  0.00  0.00     0.239 C 
ATOM     31  O   LIG d   1       3.990  -3.139  -3.526  0.00  0.00    -0.273 OA
ATOM     32  HA  LIG d   1       4.794  -1.309  -1.465  0.00  0.00     0.062 H 
ATOM     33  H   LIG d   1       2.535  -0.918  -2.229  0.00  0.00     0.062 H 
BRANCH  20  34
ATOM     34  N   LIG d   1       9.639  -1.719  -4.466  0.00  0.00    -0.306 N 
ATOM     35  C   LIG d   1      10.390  -0.883  -5.209  0.00  0.00     0.244 C 
ATOM     36  O   LIG d   1       9.899  -0.308  -6.162  0.00  0.00    -0.270 OA
ATOM     37  H   LIG d   1      10.030  -2.179  -3.707  0.00  0.00     0.149 HD
BRANCH  35  38
ATOM     38  C   LIG d   1      11.810  -0.667  -4.868  0.00  0.00     0.037 A 
ATOM     39  C   LIG d   1      12.308   0.631  -4.730  0.00  0.00    -0.046 A 
ATOM     40  C   LIG d   1      13.633   0.827  -4.412  0.00  0.00    -0.019 A 
ATOM     41  H   LIG d   1      11.654   1.479  -4.874  0.00  0.00     0.063 H 
ATOM     42  C   LIG d   1      14.475  -0.262  -4.226  0.00  0.00     0.120 A 
ATOM     43  H   LIG d   1      14.018   1.831  -4.305  0.00  0.00     0.065 H 
ATOM     44  C   LIG d   1      13.983  -1.555  -4.362  0.00  0.00    -0.019 A 
ATOM     45  C   LIG d   1      12.658  -1.761  -4.676  0.00  0.00    -0.046 A 
ATOM     46  H   LIG d   1      14.641  -2.400  -4.218  0.00  0.00     0.065 H 
ATOM     47  H   LIG d   1      12.276  -2.766  -4.777  0.00  0.00     0.063 H 
BRANCH  42  48
ATOM     48  O   LIG d   1      15.779  -0.064  -3.911  0.00  0.00    -0.495 OA
BRANCH  48  49
ATOM     49  C   LIG d   1      16.058   0.847  -2.845  0.00  0.00     0.079 C 
ATOM     50  H   LIG d   1      16.102   1.863  -3.237  0.00  0.00     0.066 H 
ATOM     51  H   LIG d   1      15.270   0.781  -2.096  0.00  0.00     0.066 H 
ATOM     52  H   LIG d   1      17.016   0.591  -2.390  0.00  0.00     0.066 H 
ENDBRANCH  48  49
ENDBRANCH  42  48
ENDBRANCH  35  38
ENDBRANCH  20  34
ENDBRANCH   7   8
ENDBRANCH   4   7
ENDBRANCH   1   4
TORSDOF 7
ENDMDL
MODEL 3
REMARK VINA RESULT:      -5.4      6.055     10.493
REMARK  7 active torsions:
REMARK  status: ('A' for Active; 'I' for Inactive)
REMARK    1  A    between atoms: C_1  and  O_2 
REMARK    2  A    between atoms: O_2  and  C_3 
REMARK    3  A    between atoms: C_6  and  C_9 
REMARK       I    between atoms: C_9  and  N_11 
REMARK    4  A    between atoms: N_11  and  C_12 
REMARK    5  A    between atoms: C_24  and  O_30 
REMARK    6  A    between atoms: O_30  and  C_31 
REMARK    7  A    between atoms: C_31  and  C_32 
ROOT
ATOM      1  C   LIG d   1       5.024  -4.935  -5.865  0.00  0.00    -0.077 C 
ATOM      2  C   LIG d   1       5.565  -5.960  -5.678  0.00  0.00    -0.117 C 
ATOM      3  H   LIG d   1       6.049  -6.877  -5.511  0.00  0.00     0.123 H 
ENDROOT
BRANCH   1   4
ATOM      4  C   LIG d   1       4.345  -3.650  -6.100  0.00  0.00     0.108 C 
ATOM      5  H   LIG d   1       4.293  -3.457  -7.171  0.00  0.00     0.070 H 
ATOM      6  H   LIG d   1       3.337  -3.691  -5.688  0.00  0.00     0.070 H 
BRANCH   4   7
ATOM      7  O   LIG d   1       5.078  -2.601  -5.462  0.00  0.00    -0.362 OA
BRANCH   7   8
ATOM      8  C   LIG d   1       5.131  -2.713  -4.039  0.00  0.00     0.088 C 
ATOM      9  C   LIG d   1       3.896  -2.036  -3.378  0.00  0.00    -0.008 C 
ATOM     10  C   LIG d   1       4.290  -0.542  -3.373  0.00  0.00     0.018 C 
ATOM     11  H   LIG d   1       3.001  -2.199  -3.977  0.00  0.00     0.031 H 
ATOM     12  H   LIG d   1       3.751  -2.404  -2.362  0.00  0.00     0.031 H 
ATOM     13  N   LIG d   1       5.754  -0.483  -3.442  0.00  0.00    -0.286 N 
ATOM     14  H   LIG d   1       3.857  -0.041  -4.239  0.00  0.00     0.046 H 
ATOM     15  H   LIG d   1       3.941  -0.069  -2.455  0.00  0.00     0.046 H 
ATOM     16  C   LIG d   1       6.520   0.627  -3.495  0.00  0.00     0.239 C 
ATOM     17  CA  LIG d   1       6.283  -1.862  -3.456  0.00  0.00     0.129 C 
ATOM     18  CA  LIG d   1       7.985   0.472  -3.814  0.00  0.00     0.121 C 
ATOM     19  O   LIG d   1       6.041   1.723  -3.294  0.00  0.00    -0.274 OA
ATOM     20  C   LIG d   1       8.439   1.595  -4.774  0.00  0.00     0.052 C 
ATOM     21  N   LIG d   1       8.170  -0.773  -4.587  0.00  0.00    -0.286 N 
ATOM     22  HA  LIG d   1       8.592   0.463  -2.909  0.00  0.00     0.061 H 
ATOM     23  H   LIG d   1       7.660   1.832  -5.499  0.00  0.00     0.052 H 
ATOM     24  C   LIG d   1       9.659   0.924  -5.464  0.00  0.00    -0.016 C 
ATOM     25  C   LIG d   1       9.207  -0.547  -5.601  0.00  0.00     0.017 C 
ATOM     26  H   LIG d   1      10.547   0.999  -4.835  0.00  0.00     0.030 H 
ATOM     27  H   LIG d   1       9.840   1.365  -6.443  0.00  0.00     0.030 H 
ATOM     28  H   LIG d   1      10.051  -1.213  -5.423  0.00  0.00     0.046 H 
ATOM     29  H   LIG d   1       8.797  -0.719  -6.596  0.00  0.00     0.046 H 
ATOM     30  C   LIG d   1       7.475  -1.910  -4.377  0.00  0.00     0.239 C 
ATOM     31  O   LIG d   1       7.802  -2.947  -4.917  0.00  0.00    -0.273 OA
ATOM     32  HA  LIG d   1       6.542  -2.191  -2.450  0.00  0.00     0.062 H 
ATOM     33  H   LIG d   1       5.218  -3.756  -3.731  0.00  0.00     0.062 H 
BRANCH  20  34
ATOM     34  N   LIG d   1       8.844   2.792  -4.032  0.00  0.00    -0.306 N 
ATOM     35  C   LIG d   1       9.233   3.897  -4.697  0.00  0.00     0.244 C 
ATOM     36  O   LIG d   1       9.250   3.902  -5.913  0.00  0.00    -0.270 OA
ATOM     37  H   LIG d   1       8.831   2.788  -3.062  0.00  0.00     0.149 HD
BRANCH  35  38
ATOM     38  C   LIG d   1       9.642   5.103  -3.949  0.00  0.00     0.037 A 
ATOM     39  C   LIG d   1       9.635   6.352  -4.576  0.00  0.00    -0.046 A 
ATOM     40  C   LIG d   1      10.016   7.474  -3.874  0.00  0.00    -0.019 A 
ATOM     41  H   LIG d   1       9.331   6.436  -5.609  0.00  0.00     0.063 H 
ATOM     42  C   LIG d   1      10.407   7.366  -2.545  0.00  0.00     0.120 A 
ATOM     43  H   LIG d   1      10.011   8.439  -4.358  0.00  0.00     0.065 H 
ATOM     44  C   LIG d   1      10.415   6.125  -1.918  0.00  0.00    -0.019 A 
ATOM     45  C   LIG d   1      10.030   4.999  -2.611  0.00  0.00    -0.046 A 
ATOM     46  H   LIG d   1      10.720   6.045  -0.886  0.00  0.00     0.065 H 
ATOM     47  H   LIG d   1      10.033   4.036  -2.122  0.00  0.00     0.063 H 
BRANCH  42  48
ATOM     48  O   LIG d   1      10.781   8.474  -1.858  0.00  0.00    -0.495 OA
BRANCH  48  49
ATOM     49  C   LIG d   1       9.987   9.649  -2.040  0.00  0.00     0.079 C 
ATOM     50  H   LIG d   1       9.335   9.786  -1.177  0.00  0.00     0.066 H 
ATOM     51  H   LIG d   1      10.640  10.516  -2.143  0.00  0.00     0.066 H 
ATOM     52  H   LIG d   1       9.381   9.542  -2.940  0.00  0.00     0.066 H 
ENDBRANCH  48  49
ENDBRANCH  42  48
ENDBRANCH  35  38
ENDBRANCH  20  34
ENDBRANCH   7   8
ENDBRANCH   4   7
ENDBRANCH   1   4
TORSDOF 7
ENDMDL
MODEL 4
REMARK VINA RESULT:      -5.4      2.593      3.708
REMARK  7 active torsions:
REMARK  status: ('A' for Active; 'I' for Inactive)
REMARK    1  A    between atoms: C_1  and  O_2 
REMARK    2  A    between atoms: O_2  and  C_3 
REMARK    3  A    between atoms: C_6  and  C_9 
REMARK       I    between atoms: C_9  and  N_11 
REMARK    4  A    between atoms: N_11  and  C_12 
REMARK    5  A    between atoms: C_24  and  O_30 
REMARK    6  A    between atoms: O_30  and  C_31 
REMARK    7  A    between atoms: C_31  and  C_32 
ROOT
ATOM      1  C   LIG d   1       9.219   3.721  -4.850  0.00  0.00    -0.077 C 
ATOM      2  C   LIG d   1       9.531   4.392  -5.761  0.00  0.00    -0.117 C 
ATOM      3  H   LIG d   1       9.810   4.993  -6.576  0.00  0.00     0.123 H 
ENDROOT
BRANCH   1   4
ATOM      4  C   LIG d   1       8.828   2.878  -3.708  0.00  0.00     0.108 C 
ATOM      5  H   LIG d   1       9.701   2.344  -3.334  0.00  0.00     0.070 H 
ATOM      6  H   LIG d   1       8.420   3.507  -2.916  0.00  0.00     0.070 H 
BRANCH   4   7
ATOM      7  O   LIG d   1       7.837   1.938  -4.128  0.00  0.00    -0.362 OA
BRANCH   7   8
ATOM      8  C   LIG d   1       8.315   0.595  -4.223  0.00  0.00     0.088 C 
ATOM      9  C   LIG d   1       9.263   0.423  -5.444  0.00  0.00    -0.008 C 
ATOM     10  C   LIG d   1       8.274   0.258  -6.621  0.00  0.00     0.018 C 
ATOM     11  H   LIG d   1       9.881   1.309  -5.579  0.00  0.00     0.031 H 
ATOM     12  H   LIG d   1       9.884  -0.466  -5.329  0.00  0.00     0.031 H 
ATOM     13  N   LIG d   1       7.006  -0.213  -6.054  0.00  0.00    -0.286 N 
ATOM     14  H   LIG d   1       8.126   1.217  -7.117  0.00  0.00     0.046 H 
ATOM     15  H   LIG d   1       8.660  -0.475  -7.329  0.00  0.00     0.046 H 
ATOM     16  C   LIG d   1       5.859  -0.456  -6.722  0.00  0.00     0.239 C 
ATOM     17  CA  LIG d   1       7.172  -0.378  -4.596  0.00  0.00     0.129 C 
ATOM     18  CA  LIG d   1       4.602  -0.692  -5.925  0.00  0.00     0.121 C 
ATOM     19  O   LIG d   1       5.839  -0.480  -7.935  0.00  0.00    -0.274 OA
ATOM     20  C   LIG d   1       3.408   0.023  -6.597  0.00  0.00     0.052 C 
ATOM     21  N   LIG d   1       4.742  -0.026  -4.614  0.00  0.00    -0.286 N 
ATOM     22  HA  LIG d   1       4.400  -1.756  -5.803  0.00  0.00     0.061 H 
ATOM     23  H   LIG d   1       3.711   0.980  -7.023  0.00  0.00     0.052 H 
ATOM     24  C   LIG d   1       2.459   0.228  -5.383  0.00  0.00    -0.016 C 
ATOM     25  C   LIG d   1       3.442   0.537  -4.231  0.00  0.00     0.017 C 
ATOM     26  H   LIG d   1       1.895  -0.683  -5.176  0.00  0.00     0.030 H 
ATOM     27  H   LIG d   1       1.788   1.068  -5.553  0.00  0.00     0.030 H 
ATOM     28  H   LIG d   1       3.093   0.071  -3.310  0.00  0.00     0.046 H 
ATOM     29  H   LIG d   1       3.529   1.615  -4.096  0.00  0.00     0.046 H 
ATOM     30  C   LIG d   1       5.894   0.045  -3.915  0.00  0.00     0.239 C 
ATOM     31  O   LIG d   1       5.903   0.440  -2.768  0.00  0.00    -0.273 OA
ATOM     32  HA  LIG d   1       7.436  -1.406  -4.345  0.00  0.00     0.062 H 
ATOM     33  H   LIG d   1       8.806   0.288  -3.298  0.00  0.00     0.062 H 
BRANCH  20  34
ATOM     34  N   LIG d   1       2.786  -0.829  -7.615  0.00  0.00    -0.306 N 
ATOM     35  C   LIG d   1       2.578  -0.351  -8.857  0.00  0.00     0.244 C 
ATOM     36  O   LIG d   1       2.905   0.787  -9.135  0.00  0.00    -0.270 OA
ATOM     37  H   LIG d   1       2.525  -1.736  -7.393  0.00  0.00     0.149 HD
BRANCH  35  38
ATOM     38  C   LIG d   1       1.952  -1.210  -9.882  0.00  0.00     0.037 A 
ATOM     39  C   LIG d   1       1.252  -0.635 -10.946  0.00  0.00    -0.046 A 
ATOM     40  C   LIG d   1       0.671  -1.439 -11.899  0.00  0.00    -0.019 A 
ATOM     41  H   LIG d   1       1.169   0.440 -11.020  0.00  0.00     0.063 H 
ATOM     42  C   LIG d   1       0.778  -2.822 -11.806  0.00  0.00     0.120 A 
ATOM     43  H   LIG d   1       0.130  -0.995 -12.722  0.00  0.00     0.065 H 
ATOM     44  C   LIG d   1       1.473  -3.398 -10.749  0.00  0.00    -0.019 A 
ATOM     45  C   LIG d   1       2.063  -2.600  -9.794  0.00  0.00    -0.046 A 
ATOM     46  H   LIG d   1       1.554  -4.472 -10.679  0.00  0.00     0.065 H 
ATOM     47  H   LIG d   1       2.606  -3.049  -8.975  0.00  0.00     0.063 H 
BRANCH  42  48
ATOM     48  O   LIG d   1       0.204  -3.611 -12.748  0.00  0.00    -0.495 OA
BRANCH  48  49
ATOM     49  C   LIG d   1       0.345  -3.202 -14.111  0.00  0.00     0.079 C 
ATOM     50  H   LIG d   1       1.026  -2.352 -14.166  0.00  0.00     0.066 H 
ATOM     51  H   LIG d   1       0.746  -4.027 -14.698  0.00  0.00     0.066 H 
ATOM     52  H   LIG d   1      -0.629  -2.914 -14.507  0.00  0.00     0.066 H 
ENDBRANCH  48  49
ENDBRANCH  42  48
ENDBRANCH  35  38
ENDBRANCH  20  34
ENDBRANCH   7   8
ENDBRANCH   4   7
ENDBRANCH   1   4
TORSDOF 7
ENDMDL
MODEL 5
REMARK VINA RESULT:      -5.1      8.755     14.518
REMARK  7 active torsions:
REMARK  status: ('A' for Active; 'I' for Inactive)
REMARK    1  A    between atoms: C_1  and  O_2 
REMARK    2  A    between atoms: O_2  and  C_3 
REMARK    3  A    between atoms: C_6  and  C_9 
REMARK       I    between atoms: C_9  and  N_11 
REMARK    4  A    between atoms: N_11  and  C_12 
REMARK    5  A    between atoms: C_24  and  O_30 
REMARK    6  A    between atoms: O_30  and  C_31 
REMARK    7  A    between atoms: C_31  and  C_32 
ROOT
ATOM      1  C   LIG d   1       8.269   1.417  -7.692  0.00  0.00    -0.077 C 
ATOM      2  C   LIG d   1       8.407   1.304  -8.852  0.00  0.00    -0.117 C 
ATOM      3  H   LIG d   1       8.530   1.201  -9.890  0.00  0.00     0.123 H 
ENDROOT
BRANCH   1   4
ATOM      4  C   LIG d   1       8.095   1.560  -6.237  0.00  0.00     0.108 C 
ATOM      5  H   LIG d   1       7.039   1.703  -6.009  0.00  0.00     0.070 H 
ATOM      6  H   LIG d   1       8.456   0.661  -5.739  0.00  0.00     0.070 H 
BRANCH   4   7
ATOM      7  O   LIG d   1       8.839   2.691  -5.778  0.00  0.00    -0.362 OA
BRANCH   7   8
ATOM      8  C   LIG d   1      10.220   2.416  -5.532  0.00  0.00     0.088 C 
ATOM      9  C   LIG d   1      10.398   1.542  -4.258  0.00  0.00    -0.008 C 
ATOM     10  C   LIG d   1      10.300   2.580  -3.117  0.00  0.00     0.018 C 
ATOM     11  H   LIG d   1       9.599   0.806  -4.181  0.00  0.00     0.031 H 
ATOM     12  H   LIG d   1      11.373   1.053  -4.258  0.00  0.00     0.031 H 
ATOM     13  N   LIG d   1      10.643   3.885  -3.693  0.00  0.00    -0.286 N 
ATOM     14  H   LIG d   1       9.285   2.603  -2.723  0.00  0.00     0.046 H 
ATOM     15  H   LIG d   1      11.003   2.327  -2.324  0.00  0.00     0.046 H 
ATOM     16  C   LIG d   1      10.651   5.075  -3.057  0.00  0.00     0.239 C 
ATOM     17  CA  LIG d   1      10.978   3.699  -5.119  0.00  0.00     0.129 C 
ATOM     18  CA  LIG d   1      10.788   6.328  -3.885  0.00  0.00     0.121 C 
ATOM     19  O   LIG d   1      10.549   5.136  -1.850  0.00  0.00    -0.274 OA
ATOM     20  C   LIG d   1       9.846   7.426  -3.340  0.00  0.00     0.052 C 
ATOM     21  N   LIG d   1      10.287   6.051  -5.246  0.00  0.00    -0.286 N 
ATOM     22  HA  LIG d   1      11.820   6.677  -3.912  0.00  0.00     0.061 H 
ATOM     23  H   LIG d   1       8.903   7.001  -2.996  0.00  0.00     0.052 H 
ATOM     24  C   LIG d   1       9.636   8.296  -4.611  0.00  0.00    -0.016 C 
ATOM     25  C   LIG d   1       9.588   7.243  -5.741  0.00  0.00     0.017 C 
ATOM     26  H   LIG d   1      10.474   8.980  -4.754  0.00  0.00     0.030 H 
ATOM     27  H   LIG d   1       8.696   8.844  -4.553  0.00  0.00     0.030 H 
ATOM     28  H   LIG d   1      10.092   7.627  -6.627  0.00  0.00     0.046 H 
ATOM     29  H   LIG d   1       8.553   6.997  -5.976  0.00  0.00     0.046 H 
ATOM     30  C   LIG d   1      10.451   4.880  -5.895  0.00  0.00     0.239 C 
ATOM     31  O   LIG d   1      10.181   4.778  -7.073  0.00  0.00    -0.273 OA
ATOM     32  HA  LIG d   1      12.053   3.579  -5.256  0.00  0.00     0.062 H 
ATOM     33  H   LIG d   1      10.686   1.946  -6.399  0.00  0.00     0.062 H 
BRANCH  20  34
ATOM     34  N   LIG d   1      10.493   8.196  -2.274  0.00  0.00    -0.306 N 
ATOM     35  C   LIG d   1       9.865   8.376  -1.097  0.00  0.00     0.244 C 
ATOM     36  O   LIG d   1       8.760   7.900  -0.917  0.00  0.00    -0.270 OA
ATOM     37  H   LIG d   1      11.374   8.576  -2.418  0.00  0.00     0.149 HD
BRANCH  35  38
ATOM     38  C   LIG d   1      10.517   9.152  -0.023  0.00  0.00     0.037 A 
ATOM     39  C   LIG d   1      10.356  10.539   0.036  0.00  0.00    -0.046 A 
ATOM     40  C   LIG d   1      10.966  11.258   1.039  0.00  0.00    -0.019 A 
ATOM     41  H   LIG d   1       9.754  11.045  -0.705  0.00  0.00     0.063 H 
ATOM     42  C   LIG d   1      11.740  10.608   1.992  0.00  0.00     0.120 A 
ATOM     43  H   LIG d   1      10.842  12.330   1.085  0.00  0.00     0.065 H 
ATOM     44  C   LIG d   1      11.902   9.228   1.937  0.00  0.00    -0.019 A 
ATOM     45  C   LIG d   1      11.292   8.501   0.940  0.00  0.00    -0.046 A 
ATOM     46  H   LIG d   1      12.505   8.726   2.679  0.00  0.00     0.065 H 
ATOM     47  H   LIG d   1      11.415   7.428   0.901  0.00  0.00     0.063 H 
BRANCH  42  48
ATOM     48  O   LIG d   1      12.339  11.321   2.979  0.00  0.00    -0.495 OA
BRANCH  48  49
ATOM     49  C   LIG d   1      12.774  10.595   4.131  0.00  0.00     0.079 C 
ATOM     50  H   LIG d   1      13.858  10.672   4.221  0.00  0.00     0.066 H 
ATOM     51  H   LIG d   1      12.306  11.012   5.022  0.00  0.00     0.066 H 
ATOM     52  H   LIG d   1      12.492   9.547   4.028  0.00  0.00     0.066 H 
ENDBRANCH  48  49
ENDBRANCH  42  48
ENDBRANCH  35  38
ENDBRANCH  20  34
ENDBRANCH   7   8
ENDBRANCH   4   7
ENDBRANCH   1   4
TORSDOF 7
ENDMDL
MODEL 6
REMARK VINA RESULT:      -5.0      8.374     11.759
REMARK  7 active torsions:
REMARK  status: ('A' for Active; 'I' for Inactive)
REMARK    1  A    between atoms: C_1  and  O_2 
REMARK    2  A    between atoms: O_2  and  C_3 
REMARK    3  A    between atoms: C_6  and  C_9 
REMARK       I    between atoms: C_9  and  N_11 
REMARK    4  A    between atoms: N_11  and  C_12 
REMARK    5  A    between atoms: C_24  and  O_30 
REMARK    6  A    between atoms: O_30  and  C_31 
REMARK    7  A    between atoms: C_31  and  C_32 
ROOT
ATOM      1  C   LIG d   1      12.990  11.698  -0.319  0.00  0.00    -0.077 C 
ATOM      2  C   LIG d   1      12.603  12.798  -0.457  0.00  0.00    -0.117 C 
ATOM      3  H   LIG d   1      12.256  13.781  -0.581  0.00  0.00     0.123 H 
ENDROOT
BRANCH   1   4
ATOM      4  C   LIG d   1      13.476  10.319  -0.146  0.00  0.00     0.108 C 
ATOM      5  H   LIG d   1      14.428  10.201  -0.664  0.00  0.00     0.070 H 
ATOM      6  H   LIG d   1      13.612  10.113   0.916  0.00  0.00     0.070 H 
BRANCH   4   7
ATOM      7  O   LIG d   1      12.521   9.406  -0.690  0.00  0.00    -0.362 OA
BRANCH   7   8
ATOM      8  C   LIG d   1      11.334   9.272   0.095  0.00  0.00     0.088 C 
ATOM      9  C   LIG d   1      11.514   8.194   1.202  0.00  0.00    -0.008 C 
ATOM     10  C   LIG d   1      11.273   6.875   0.434  0.00  0.00     0.018 C 
ATOM     11  H   LIG d   1      12.523   8.225   1.610  0.00  0.00     0.031 H 
ATOM     12  H   LIG d   1      10.775   8.326   1.993  0.00  0.00     0.031 H 
ATOM     13  N   LIG d   1      10.475   7.207  -0.751  0.00  0.00    -0.286 N 
ATOM     14  H   LIG d   1      12.226   6.443   0.130  0.00  0.00     0.046 H 
ATOM     15  H   LIG d   1      10.728   6.172   1.065  0.00  0.00     0.046 H 
ATOM     16  C   LIG d   1      10.065   6.359  -1.718  0.00  0.00     0.239 C 
ATOM     17  CA  LIG d   1      10.184   8.655  -0.735  0.00  0.00     0.129 C 
ATOM     18  CA  LIG d   1       9.470   6.940  -2.975  0.00  0.00     0.121 C 
ATOM     19  O   LIG d   1      10.175   5.159  -1.579  0.00  0.00    -0.274 OA
ATOM     20  C   LIG d   1       9.980   6.160  -4.209  0.00  0.00     0.052 C 
ATOM     21  N   LIG d   1       9.997   8.308  -3.158  0.00  0.00    -0.286 N 
ATOM     22  HA  LIG d   1       8.381   6.942  -2.938  0.00  0.00     0.061 H 
ATOM     23  H   LIG d   1      11.022   5.865  -4.086  0.00  0.00     0.052 H 
ATOM     24  C   LIG d   1       9.832   7.234  -5.323  0.00  0.00    -0.016 C 
ATOM     25  C   LIG d   1      10.215   8.540  -4.591  0.00  0.00     0.017 C 
ATOM     26  H   LIG d   1       8.803   7.279  -5.682  0.00  0.00     0.030 H 
ATOM     27  H   LIG d   1      10.519   7.036  -6.145  0.00  0.00     0.030 H 
ATOM     28  H   LIG d   1       9.582   9.357  -4.934  0.00  0.00     0.046 H 
ATOM     29  H   LIG d   1      11.263   8.775  -4.774  0.00  0.00     0.046 H 
ATOM     30  C   LIG d   1      10.238   9.172  -2.151  0.00  0.00     0.239 C 
ATOM     31  O   LIG d   1      10.491  10.336  -2.378  0.00  0.00    -0.273 OA
ATOM     32  HA  LIG d   1       9.218   8.856  -0.273  0.00  0.00     0.062 H 
ATOM     33  H   LIG d   1      11.039  10.230   0.524  0.00  0.00     0.062 H 
BRANCH  20  34
ATOM     34  N   LIG d   1       9.134   4.995  -4.484  0.00  0.00    -0.306 N 
ATOM     35  C   LIG d   1       9.693   3.779  -4.639  0.00  0.00     0.244 C 
ATOM     36  O   LIG d   1      10.899   3.648  -4.553  0.00  0.00    -0.270 OA
ATOM     37  H   LIG d   1       8.173   5.100  -4.553  0.00  0.00     0.149 HD
BRANCH  35  38
ATOM     38  C   LIG d   1       8.841   2.605  -4.916  0.00  0.00     0.037 A 
ATOM     39  C   LIG d   1       8.701   2.133  -6.224  0.00  0.00    -0.046 A 
ATOM     40  C   LIG d   1       7.906   1.039  -6.477  0.00  0.00    -0.019 A 
ATOM     41  H   LIG d   1       9.218   2.628  -7.034  0.00  0.00     0.063 H 
ATOM     42  C   LIG d   1       7.243   0.403  -5.435  0.00  0.00     0.120 A 
ATOM     43  H   LIG d   1       7.798   0.674  -7.488  0.00  0.00     0.065 H 
ATOM     44  C   LIG d   1       7.379   0.869  -4.132  0.00  0.00    -0.019 A 
ATOM     45  C   LIG d   1       8.177   1.960  -3.870  0.00  0.00    -0.046 A 
ATOM     46  H   LIG d   1       6.861   0.373  -3.325  0.00  0.00     0.065 H 
ATOM     47  H   LIG d   1       8.285   2.319  -2.857  0.00  0.00     0.063 H 
BRANCH  42  48
ATOM     48  O   LIG d   1       6.461  -0.677  -5.689  0.00  0.00    -0.495 OA
BRANCH  48  49
ATOM     49  C   LIG d   1       5.884  -1.340  -4.561  0.00  0.00     0.079 C 
ATOM     50  H   LIG d   1       4.988  -0.806  -4.245  0.00  0.00     0.066 H 
ATOM     51  H   LIG d   1       5.620  -2.360  -4.836  0.00  0.00     0.066 H 
ATOM     52  H   LIG d   1       6.604  -1.358  -3.743  0.00  0.00     0.066 H 
ENDBRANCH  48  49
ENDBRANCH  42  48
ENDBRANCH  35  38
ENDBRANCH  20  34
ENDBRANCH   7   8
ENDBRANCH   4   7
ENDBRANCH   1   4
TORSDOF 7
ENDMDL
MODEL 7
REMARK VINA RESULT:      -5.0     10.398     15.664
REMARK  7 active torsions:
REMARK  status: ('A' for Active; 'I' for Inactive)
REMARK    1  A    between atoms: C_1  and  O_2 
REMARK    2  A    between atoms: O_2  and  C_3 
REMARK    3  A    between atoms: C_6  and  C_9 
REMARK       I    between atoms: C_9  and  N_11 
REMARK    4  A    between atoms: N_11  and  C_12 
REMARK    5  A    between atoms: C_24  and  O_30 
REMARK    6  A    between atoms: O_30  and  C_31 
REMARK    7  A    between atoms: C_31  and  C_32 
ROOT
ATOM      1  C   LIG d   1       4.529  -8.069  -7.253  0.00  0.00    -0.077 C 
ATOM      2  C   LIG d   1       4.511  -6.912  -7.454  0.00  0.00    -0.117 C 
ATOM      3  H   LIG d   1       4.496  -5.877  -7.633  0.00  0.00     0.123 H 
ENDROOT
BRANCH   1   4
ATOM      4  C   LIG d   1       4.550  -9.519  -7.002  0.00  0.00     0.108 C 
ATOM      5  H   LIG d   1       3.547  -9.925  -7.131  0.00  0.00     0.070 H 
ATOM      6  H   LIG d   1       5.230  -9.999  -7.705  0.00  0.00     0.070 H 
BRANCH   4   7
ATOM      7  O   LIG d   1       4.995  -9.764  -5.666  0.00  0.00    -0.362 OA
BRANCH   7   8
ATOM      8  C   LIG d   1       4.573 -11.021  -5.135  0.00  0.00     0.088 C 
ATOM      9  C   LIG d   1       3.448 -10.833  -4.078  0.00  0.00    -0.008 C 
ATOM     10  C   LIG d   1       4.238 -10.450  -2.805  0.00  0.00     0.018 C 
ATOM     11  H   LIG d   1       2.774 -10.029  -4.371  0.00  0.00     0.031 H 
ATOM     12  H   LIG d   1       2.897 -11.763  -3.929  0.00  0.00     0.031 H 
ATOM     13  N   LIG d   1       5.603 -10.959  -2.977  0.00  0.00    -0.286 N 
ATOM     14  H   LIG d   1       4.257  -9.366  -2.693  0.00  0.00     0.046 H 
ATOM     15  H   LIG d   1       3.777 -10.909  -1.930  0.00  0.00     0.046 H 
ATOM     16  C   LIG d   1       6.636 -10.817  -2.121  0.00  0.00     0.239 C 
ATOM     17  CA  LIG d   1       5.685 -11.663  -4.273  0.00  0.00     0.129 C 
ATOM     18  CA  LIG d   1       8.016 -11.195  -2.594  0.00  0.00     0.121 C 
ATOM     19  O   LIG d   1       6.458 -10.394  -0.998  0.00  0.00    -0.274 OA
ATOM     20  C   LIG d   1       9.049 -10.161  -2.090  0.00  0.00     0.052 C 
ATOM     21  N   LIG d   1       8.060 -11.075  -4.066  0.00  0.00    -0.286 N 
ATOM     22  HA  LIG d   1       8.285 -12.203  -2.277  0.00  0.00     0.061 H 
ATOM     23  H   LIG d   1       8.634  -9.153  -2.102  0.00  0.00     0.052 H 
ATOM     24  C   LIG d   1      10.172 -10.317  -3.153  0.00  0.00    -0.016 C 
ATOM     25  C   LIG d   1       9.376 -10.557  -4.456  0.00  0.00     0.017 C 
ATOM     26  H   LIG d   1      10.805 -11.175  -2.923  0.00  0.00     0.030 H 
ATOM     27  H   LIG d   1      10.765  -9.406  -3.225  0.00  0.00     0.030 H 
ATOM     28  H   LIG d   1       9.893 -11.288  -5.077  0.00  0.00     0.046 H 
ATOM     29  H   LIG d   1       9.260  -9.619  -4.999  0.00  0.00     0.046 H 
ATOM     30  C   LIG d   1       7.035 -11.386  -4.886  0.00  0.00     0.239 C 
ATOM     31  O   LIG d   1       7.195 -11.442  -6.087  0.00  0.00    -0.273 OA
ATOM     32  HA  LIG d   1       5.515 -12.733  -4.149  0.00  0.00     0.062 H 
ATOM     33  H   LIG d   1       4.254 -11.695  -5.931  0.00  0.00     0.062 H 
BRANCH  20  34
ATOM     34  N   LIG d   1       9.536 -10.511  -0.753  0.00  0.00    -0.306 N 
ATOM     35  C   LIG d   1      10.254  -9.619  -0.043  0.00  0.00     0.244 C 
ATOM     36  O   LIG d   1      10.499  -8.524  -0.512  0.00  0.00    -0.270 OA
ATOM     37  H   LIG d   1       9.341 -11.384  -0.379  0.00  0.00     0.149 HD
BRANCH  35  38
ATOM     38  C   LIG d   1      10.745  -9.971   1.304  0.00  0.00     0.037 A 
ATOM     39  C   LIG d   1      11.252  -8.978   2.147  0.00  0.00    -0.046 A 
ATOM     40  C   LIG d   1      11.708  -9.312   3.402  0.00  0.00    -0.019 A 
ATOM     41  H   LIG d   1      11.286  -7.951   1.813  0.00  0.00     0.063 H 
ATOM     42  C   LIG d   1      11.665 -10.632   3.832  0.00  0.00     0.120 A 
ATOM     43  H   LIG d   1      12.100  -8.545   4.054  0.00  0.00     0.065 H 
ATOM     44  C   LIG d   1      11.161 -11.622   2.997  0.00  0.00    -0.019 A 
ATOM     45  C   LIG d   1      10.697 -11.297   1.742  0.00  0.00    -0.046 A 
ATOM     46  H   LIG d   1      11.129 -12.648   3.335  0.00  0.00     0.065 H 
ATOM     47  H   LIG d   1      10.302 -12.067   1.095  0.00  0.00     0.063 H 
BRANCH  42  48
ATOM     48  O   LIG d   1      12.115 -10.956   5.071  0.00  0.00    -0.495 OA
BRANCH  48  49
ATOM     49  C   LIG d   1      13.500 -11.285   5.193  0.00  0.00     0.079 C 
ATOM     50  H   LIG d   1      13.892 -11.575   4.217  0.00  0.00     0.066 H 
ATOM     51  H   LIG d   1      14.048 -10.419   5.561  0.00  0.00     0.066 H 
ATOM     52  H   LIG d   1      13.617 -12.114   5.891  0.00  0.00     0.066 H 
ENDBRANCH  48  49
ENDBRANCH  42  48
ENDBRANCH  35  38
ENDBRANCH  20  34
ENDBRANCH   7   8
ENDBRANCH   4   7
ENDBRANCH   1   4
TORSDOF 7
ENDMDL
MODEL 8
REMARK VINA RESULT:      -4.9     12.592     15.999
REMARK  7 active torsions:
REMARK  status: ('A' for Active; 'I' for Inactive)
REMARK    1  A    between atoms: C_1  and  O_2 
REMARK    2  A    between atoms: O_2  and  C_3 
REMARK    3  A    between atoms: C_6  and  C_9 
REMARK       I    between atoms: C_9  and  N_11 
REMARK    4  A    between atoms: N_11  and  C_12 
REMARK    5  A    between atoms: C_24  and  O_30 
REMARK    6  A    between atoms: O_30  and  C_31 
REMARK    7  A    between atoms: C_31  and  C_32 
ROOT
ATOM      1  C   LIG d   1      16.582 -10.754   4.651  0.00  0.00    -0.077 C 
ATOM      2  C   LIG d   1      17.235  -9.779   4.689  0.00  0.00    -0.117 C 
ATOM      3  H   LIG d   1      17.819  -8.907   4.723  0.00  0.00     0.123 H 
ENDROOT
BRANCH   1   4
ATOM      4  C   LIG d   1      15.763 -11.977   4.603  0.00  0.00     0.108 C 
ATOM      5  H   LIG d   1      16.279 -12.737   4.016  0.00  0.00     0.070 H 
ATOM      6  H   LIG d   1      15.603 -12.346   5.616  0.00  0.00     0.070 H 
BRANCH   4   7
ATOM      7  O   LIG d   1      14.503 -11.682   3.998  0.00  0.00    -0.362 OA
BRANCH   7   8
ATOM      8  C   LIG d   1      13.376 -12.020   4.810  0.00  0.00     0.088 C 
ATOM      9  C   LIG d   1      12.934 -13.492   4.569  0.00  0.00    -0.008 C 
ATOM     10  C   LIG d   1      12.095 -13.387   3.275  0.00  0.00     0.018 C 
ATOM     11  H   LIG d   1      13.801 -14.134   4.416  0.00  0.00     0.031 H 
ATOM     12  H   LIG d   1      12.328 -13.854   5.399  0.00  0.00     0.031 H 
ATOM     13  N   LIG d   1      11.630 -11.999   3.176  0.00  0.00    -0.286 N 
ATOM     14  H   LIG d   1      12.711 -13.635   2.412  0.00  0.00     0.046 H 
ATOM     15  H   LIG d   1      11.241 -14.062   3.332  0.00  0.00     0.046 H 
ATOM     16  C   LIG d   1      10.893 -11.459   2.182  0.00  0.00     0.239 C 
ATOM     17  CA  LIG d   1      12.112 -11.253   4.356  0.00  0.00     0.129 C 
ATOM     18  CA  LIG d   1      10.733  -9.961   2.143  0.00  0.00     0.121 C 
ATOM     19  O   LIG d   1      10.375 -12.162   1.341  0.00  0.00    -0.274 OA
ATOM     20  C   LIG d   1      10.835  -9.457   0.684  0.00  0.00     0.052 C 
ATOM     21  N   LIG d   1      11.887  -9.345   2.828  0.00  0.00    -0.286 N 
ATOM     22  HA  LIG d   1       9.795  -9.647   2.599  0.00  0.00     0.061 H 
ATOM     23  H   LIG d   1      11.577 -10.025   0.123  0.00  0.00     0.052 H 
ATOM     24  C   LIG d   1      11.303  -7.992   0.906  0.00  0.00    -0.016 C 
ATOM     25  C   LIG d   1      12.259  -8.118   2.113  0.00  0.00     0.017 C 
ATOM     26  H   LIG d   1      10.456  -7.349   1.149  0.00  0.00     0.030 H 
ATOM     27  H   LIG d   1      11.833  -7.619   0.031  0.00  0.00     0.030 H 
ATOM     28  H   LIG d   1      12.143  -7.256   2.770  0.00  0.00     0.046 H 
ATOM     29  H   LIG d   1      13.289  -8.189   1.765  0.00  0.00     0.046 H 
ATOM     30  C   LIG d   1      12.486  -9.858   3.923  0.00  0.00     0.239 C 
ATOM     31  O   LIG d   1      13.303  -9.213   4.545  0.00  0.00    -0.273 OA
ATOM     32  HA  LIG d   1      11.360 -11.239   5.144  0.00  0.00     0.062 H 
ATOM     33  H   LIG d   1      13.587 -11.841   5.865  0.00  0.00     0.062 H 
BRANCH  20  34
ATOM     34  N   LIG d   1       9.530  -9.500   0.019  0.00  0.00    -0.306 N 
ATOM     35  C   LIG d   1       9.454  -9.781  -1.297  0.00  0.00     0.244 C 
ATOM     36  O   LIG d   1      10.467  -9.997  -1.933  0.00  0.00    -0.270 OA
ATOM     37  H   LIG d   1       8.722  -9.327   0.526  0.00  0.00     0.149 HD
BRANCH  35  38
ATOM     38  C   LIG d   1       8.139  -9.824  -1.967  0.00  0.00     0.037 A 
ATOM     39  C   LIG d   1       7.055 -10.448  -1.344  0.00  0.00    -0.046 A 
ATOM     40  C   LIG d   1       5.831 -10.486  -1.972  0.00  0.00    -0.019 A 
ATOM     41  H   LIG d   1       7.179 -10.901  -0.370  0.00  0.00     0.063 H 
ATOM     42  C   LIG d   1       5.671  -9.903  -3.223  0.00  0.00     0.120 A 
ATOM     43  H   LIG d   1       4.993 -10.968  -1.491  0.00  0.00     0.065 H 
ATOM     44  C   LIG d   1       6.746  -9.281  -3.846  0.00  0.00    -0.019 A 
ATOM     45  C   LIG d   1       7.973  -9.235  -3.222  0.00  0.00    -0.046 A 
ATOM     46  H   LIG d   1       6.619  -8.830  -4.819  0.00  0.00     0.065 H 
ATOM     47  H   LIG d   1       8.807  -8.747  -3.706  0.00  0.00     0.063 H 
BRANCH  42  48
ATOM     48  O   LIG d   1       4.462  -9.942  -3.839  0.00  0.00    -0.495 OA
BRANCH  48  49
ATOM     49  C   LIG d   1       3.582 -11.008  -3.475  0.00  0.00     0.079 C 
ATOM     50  H   LIG d   1       2.689 -10.598  -3.004  0.00  0.00     0.066 H 
ATOM     51  H   LIG d   1       3.300 -11.566  -4.367  0.00  0.00     0.066 H 
ATOM     52  H   LIG d   1       4.089 -11.673  -2.775  0.00  0.00     0.066 H 
ENDBRANCH  48  49
ENDBRANCH  42  48
ENDBRANCH  35  38
ENDBRANCH  20  34
ENDBRANCH   7   8
ENDBRANCH   4   7
ENDBRANCH   1   4
TORSDOF 7
ENDMDL
MODEL 9
REMARK VINA RESULT:      -4.8      7.747     10.964
REMARK  7 active torsions:
REMARK  status: ('A' for Active; 'I' for Inactive)
REMARK    1  A    between atoms: C_1  and  O_2 
REMARK    2  A    between atoms: O_2  and  C_3 
REMARK    3  A    between atoms: C_6  and  C_9 
REMARK       I    between atoms: C_9  and  N_11 
REMARK    4  A    between atoms: N_11  and  C_12 
REMARK    5  A    between atoms: C_24  and  O_30 
REMARK    6  A    between atoms: O_30  and  C_31 
REMARK    7  A    between atoms: C_31  and  C_32 
ROOT
ATOM      1  C   LIG d   1      15.169   7.344  -6.272  0.00  0.00    -0.077 C 
ATOM      2  C   LIG d   1      15.433   7.208  -7.407  0.00  0.00    -0.117 C 
ATOM      3  H   LIG d   1      15.669   7.086  -8.423  0.00  0.00     0.123 H 
ENDROOT
BRANCH   1   4
ATOM      4  C   LIG d   1      14.838   7.515  -4.847  0.00  0.00     0.108 C 
ATOM      5  H   LIG d   1      15.635   7.091  -4.236  0.00  0.00     0.070 H 
ATOM      6  H   LIG d   1      14.733   8.576  -4.624  0.00  0.00     0.070 H 
BRANCH   4   7
ATOM      7  O   LIG d   1      13.610   6.843  -4.560  0.00  0.00    -0.362 OA
BRANCH   7   8
ATOM      8  C   LIG d   1      12.637   7.665  -3.913  0.00  0.00     0.088 C 
ATOM      9  C   LIG d   1      12.726   7.525  -2.367  0.00  0.00    -0.008 C 
ATOM     10  C   LIG d   1      11.944   6.219  -2.098  0.00  0.00     0.018 C 
ATOM     11  H   LIG d   1      13.763   7.428  -2.047  0.00  0.00     0.031 H 
ATOM     12  H   LIG d   1      12.249   8.373  -1.874  0.00  0.00     0.031 H 
ATOM     13  N   LIG d   1      11.043   6.016  -3.237  0.00  0.00    -0.286 N 
ATOM     14  H   LIG d   1      12.637   5.382  -2.019  0.00  0.00     0.046 H 
ATOM     15  H   LIG d   1      11.367   6.314  -1.178  0.00  0.00     0.046 H 
ATOM     16  C   LIG d   1      10.201   4.979  -3.431  0.00  0.00     0.239 C 
ATOM     17  CA  LIG d   1      11.204   7.145  -4.175  0.00  0.00     0.129 C 
ATOM     18  CA  LIG d   1       9.547   4.830  -4.781  0.00  0.00     0.121 C 
ATOM     19  O   LIG d   1       9.979   4.184  -2.542  0.00  0.00    -0.274 OA
ATOM     20  C   LIG d   1       9.522   3.341  -5.195  0.00  0.00     0.052 C 
ATOM     21  N   LIG d   1      10.401   5.482  -5.794  0.00  0.00    -0.286 N 
ATOM     22  HA  LIG d   1       8.542   5.254  -4.786  0.00  0.00     0.061 H 
ATOM     23  H   LIG d   1      10.431   2.829  -4.878  0.00  0.00     0.052 H 
ATOM     24  C   LIG d   1       9.460   3.462  -6.743  0.00  0.00    -0.016 C 
ATOM     25  C   LIG d   1      10.361   4.686  -7.025  0.00  0.00     0.017 C 
ATOM     26  H   LIG d   1       8.438   3.650  -7.075  0.00  0.00     0.030 H 
ATOM     27  H   LIG d   1       9.863   2.568  -7.217  0.00  0.00     0.030 H 
ATOM     28  H   LIG d   1       9.939   5.278  -7.837  0.00  0.00     0.046 H 
ATOM     29  H   LIG d   1      11.366   4.354  -7.286  0.00  0.00     0.046 H 
ATOM     30  C   LIG d   1      11.100   6.618  -5.584  0.00  0.00     0.239 C 
ATOM     31  O   LIG d   1      11.630   7.200  -6.507  0.00  0.00    -0.273 OA
ATOM     32  HA  LIG d   1      10.465   7.922  -3.984  0.00  0.00     0.062 H 
ATOM     33  H   LIG d   1      12.739   8.707  -4.219  0.00  0.00     0.062 H 
BRANCH  20  34
ATOM     34  N   LIG d   1       8.331   2.667  -4.670  0.00  0.00    -0.306 N 
ATOM     35  C   LIG d   1       8.411   1.389  -4.251  0.00  0.00     0.244 C 
ATOM     36  O   LIG d   1       9.470   0.794  -4.308  0.00  0.00    -0.270 OA
ATOM     37  H   LIG d   1       7.487   3.141  -4.625  0.00  0.00     0.149 HD
BRANCH  35  38
ATOM     38  C   LIG d   1       7.211   0.710  -3.722  0.00  0.00     0.037 A 
ATOM     39  C   LIG d   1       7.099  -0.681  -3.805  0.00  0.00    -0.046 A 
ATOM     40  C   LIG d   1       5.979  -1.309  -3.310  0.00  0.00    -0.019 A 
ATOM     41  H   LIG d   1       7.892  -1.260  -4.256  0.00  0.00     0.063 H 
ATOM     42  C   LIG d   1       4.960  -0.564  -2.729  0.00  0.00     0.120 A 
ATOM     43  H   LIG d   1       5.892  -2.384  -3.374  0.00  0.00     0.065 H 
ATOM     44  C   LIG d   1       5.068   0.819  -2.645  0.00  0.00    -0.019 A 
ATOM     45  C   LIG d   1       6.187   1.455  -3.132  0.00  0.00    -0.046 A 
ATOM     46  H   LIG d   1       4.273   1.395  -2.194  0.00  0.00     0.065 H 
ATOM     47  H   LIG d   1       6.271   2.530  -3.063  0.00  0.00     0.063 H 
BRANCH  42  48
ATOM     48  O   LIG d   1       3.858  -1.189  -2.242  0.00  0.00    -0.495 OA
BRANCH  48  49
ATOM     49  C   LIG d   1       2.631  -0.982  -2.946  0.00  0.00     0.079 C 
ATOM     50  H   LIG d   1       2.537   0.072  -3.211  0.00  0.00     0.066 H 
ATOM     51  H   LIG d   1       2.626  -1.586  -3.853  0.00  0.00     0.066 H 
ATOM     52  H   LIG d   1       1.794  -1.273  -2.311  0.00  0.00     0.066 H 
ENDBRANCH  48  49
ENDBRANCH  42  48
ENDBRANCH  35  38
ENDBRANCH  20  34
ENDBRANCH   7   8
ENDBRANCH   4   7
ENDBRANCH   1   4
TORSDOF 7
ENDMDL
