MODEL 1
REMARK VINA RESULT:      -5.6      0.000      0.000
REMARK  6 active torsions:
REMARK  status: ('A' for Active; 'I' for Inactive)
REMARK    1  A    between atoms: C_1  and  N_2 
REMARK    2  A    between atoms: C_10  and  C_11 
REMARK       I    between atoms: C_11  and  N_13 
REMARK    3  A    between atoms: C_18  and  O_25 
REMARK    4  A    between atoms: C_19  and  O_23 
REMARK    5  A    between atoms: O_23  and  C_24 
REMARK    6  A    between atoms: O_25  and  C_26 
ROOT
ATOM      1  C   LIG d   1       4.539   0.366  -7.917  0.00  0.00     0.247 C 
ATOM      2  O   LIG d   1       5.250   1.352  -7.956  0.00  0.00    -0.270 OA
ATOM      3  N   LIG d   1       3.511   0.242  -8.781  0.00  0.00    -0.293 N 
ATOM      4  C   LIG d   1       3.283   1.232  -9.846  0.00  0.00     0.019 C 
ATOM      5  C   LIG d   1       3.471   0.529 -11.190  0.00  0.00    -0.011 C 
ATOM      6  C   LIG d   1       2.720  -0.777 -11.220  0.00  0.00    -0.037 A 
ATOM      7  C   LIG d   1       2.430  -1.322 -12.466  0.00  0.00    -0.013 A 
ATOM      8  C   LIG d   1       1.753  -2.523 -12.568  0.00  0.00     0.162 A 
ATOM      9  C   LIG d   1       1.358  -3.192 -11.414  0.00  0.00     0.162 A 
ATOM     10  C   LIG d   1       1.645  -2.646 -10.177  0.00  0.00    -0.011 A 
ATOM     11  C   LIG d   1       2.321  -1.437 -10.079  0.00  0.00    -0.023 A 
ATOM     12  C   LIG d   1       2.580  -0.889  -8.702  0.00  0.00     0.040 C 
ATOM     13  H   LIG d   1       2.269   1.624  -9.774  0.00  0.00     0.047 H 
ATOM     14  H   LIG d   1       4.001   2.046  -9.754  0.00  0.00     0.047 H 
ATOM     15  H   LIG d   1       3.100   1.173 -11.987  0.00  0.00     0.033 H 
ATOM     16  H   LIG d   1       4.532   0.336 -11.348  0.00  0.00     0.033 H 
ATOM     17  H   LIG d   1       2.736  -0.804 -13.362  0.00  0.00     0.066 H 
ATOM     18  H   LIG d   1       1.342  -3.163  -9.279  0.00  0.00     0.066 H 
ATOM     19  H   LIG d   1       3.011  -1.670  -8.076  0.00  0.00     0.051 H 
ATOM     20  H   LIG d   1       1.640  -0.553  -8.265  0.00  0.00     0.051 H 
ENDROOT
BRANCH   1  21
ATOM     21  C   LIG d   1       4.799  -0.692  -6.925  0.00  0.00     0.046 A 
ATOM     22  C   LIG d   1       4.170  -0.656  -5.664  0.00  0.00     0.012 A 
ATOM     23  C   LIG d   1       3.227   0.259  -5.026  0.00  0.00    -0.036 A 
ATOM     24  C   LIG d   1       4.430  -1.668  -4.722  0.00  0.00     0.050 A 
ATOM     25  C   LIG d   1       2.978  -0.228  -3.796  0.00  0.00     0.005 A 
ATOM     26  H   LIG d   1       2.810   1.157  -5.458  0.00  0.00     0.064 H 
ATOM     27  N   LIG d   1       3.684  -1.379  -3.601  0.00  0.00    -0.350 N 
ATOM     28  H   LIG d   1       2.316   0.225  -3.072  0.00  0.00     0.081 H 
ATOM     29  C   LIG d   1       5.308  -2.695  -5.047  0.00  0.00    -0.038 A 
ATOM     30  C   LIG d   1       5.923  -2.720  -6.283  0.00  0.00    -0.059 A 
ATOM     31  H   LIG d   1       5.511  -3.477  -4.330  0.00  0.00     0.064 H 
ATOM     32  C   LIG d   1       5.680  -1.730  -7.217  0.00  0.00    -0.049 A 
ATOM     33  H   LIG d   1       6.604  -3.523  -6.523  0.00  0.00     0.062 H 
ATOM     34  H   LIG d   1       6.170  -1.766  -8.180  0.00  0.00     0.062 H 
BRANCH  27  35
ATOM     35  C   LIG d   1       3.660  -2.184  -2.377  0.00  0.00     0.012 C 
ATOM     36  H   LIG d   1       4.439  -1.837  -1.698  0.00  0.00     0.046 H 
ATOM     37  H   LIG d   1       2.687  -2.084  -1.896  0.00  0.00     0.046 H 
ATOM     38  H   LIG d   1       3.835  -3.230  -2.627  0.00  0.00     0.046 H 
ENDBRANCH  27  35
ENDBRANCH   1  21
BRANCH   9  39
ATOM     39  O   LIG d   1       0.695  -4.376 -11.501  0.00  0.00    -0.491 OA
BRANCH  39  40
ATOM     40  C   LIG d   1      -0.338  -4.614 -10.541  0.00  0.00     0.079 C 
ATOM     41  H   LIG d   1       0.089  -4.602  -9.539  0.00  0.00     0.066 H 
ATOM     42  H   LIG d   1      -1.096  -3.836 -10.624  0.00  0.00     0.066 H 
ATOM     43  H   LIG d   1      -0.793  -5.586 -10.732  0.00  0.00     0.066 H 
ENDBRANCH  39  40
ENDBRANCH   9  39
BRANCH   8  44
ATOM     44  O   LIG d   1       1.472  -3.047 -13.792  0.00  0.00    -0.491 OA
BRANCH  44  45
ATOM     45  C   LIG d   1       0.350  -2.503 -14.489  0.00  0.00     0.079 C 
ATOM     46  H   LIG d   1       0.452  -2.706 -15.555  0.00  0.00     0.066 H 
ATOM     47  H   LIG d   1      -0.565  -2.962 -14.118  0.00  0.00     0.066 H 
ATOM     48  H   LIG d   1       0.308  -1.427 -14.326  0.00  0.00     0.066 H 
ENDBRANCH  44  45
ENDBRANCH   8  44
TORSDOF 6
ENDMDL
MODEL 2
REMARK VINA RESULT:      -5.6      3.219      5.320
REMARK  6 active torsions:
REMARK  status: ('A' for Active; 'I' for Inactive)
REMARK    1  A    between atoms: C_1  and  N_2 
REMARK    2  A    between atoms: C_10  and  C_11 
REMARK       I    between atoms: C_11  and  N_13 
REMARK    3  A    between atoms: C_18  and  O_25 
REMARK    4  A    between atoms: C_19  and  O_23 
REMARK    5  A    between atoms: O_23  and  C_24 
REMARK    6  A    between atoms: O_25  and  C_26 
ROOT
ATOM      1  C   LIG d   1       7.756  -2.836  -4.134  0.00  0.00     0.247 C 
ATOM      2  O   LIG d   1       8.398  -3.417  -3.280  0.00  0.00    -0.270 OA
ATOM      3  N   LIG d   1       7.454  -3.460  -5.291  0.00  0.00    -0.293 N 
ATOM      4  C   LIG d   1       7.801  -4.873  -5.511  0.00  0.00     0.019 C 
ATOM      5  C   LIG d   1       6.499  -5.658  -5.661  0.00  0.00    -0.011 C 
ATOM      6  C   LIG d   1       5.564  -4.968  -6.619  0.00  0.00    -0.037 A 
ATOM      7  C   LIG d   1       4.552  -5.731  -7.191  0.00  0.00    -0.013 A 
ATOM      8  C   LIG d   1       3.651  -5.159  -8.071  0.00  0.00     0.162 A 
ATOM      9  C   LIG d   1       3.760  -3.809  -8.386  0.00  0.00     0.162 A 
ATOM     10  C   LIG d   1       4.769  -3.054  -7.819  0.00  0.00    -0.011 A 
ATOM     11  C   LIG d   1       5.674  -3.633  -6.939  0.00  0.00    -0.023 A 
ATOM     12  C   LIG d   1       6.761  -2.759  -6.377  0.00  0.00     0.040 C 
ATOM     13  H   LIG d   1       8.396  -4.969  -6.419  0.00  0.00     0.047 H 
ATOM     14  H   LIG d   1       8.364  -5.252  -4.659  0.00  0.00     0.047 H 
ATOM     15  H   LIG d   1       6.724  -6.657  -6.037  0.00  0.00     0.033 H 
ATOM     16  H   LIG d   1       6.017  -5.742  -4.687  0.00  0.00     0.033 H 
ATOM     17  H   LIG d   1       4.468  -6.779  -6.946  0.00  0.00     0.066 H 
ATOM     18  H   LIG d   1       4.854  -2.004  -8.061  0.00  0.00     0.066 H 
ATOM     19  H   LIG d   1       6.323  -1.838  -5.993  0.00  0.00     0.051 H 
ATOM     20  H   LIG d   1       7.475  -2.518  -7.165  0.00  0.00     0.051 H 
ENDROOT
BRANCH   1  21
ATOM     21  C   LIG d   1       7.308  -1.451  -3.905  0.00  0.00     0.046 A 
ATOM     22  C   LIG d   1       6.042  -1.195  -3.343  0.00  0.00     0.012 A 
ATOM     23  C   LIG d   1       4.946  -2.043  -2.881  0.00  0.00    -0.036 A 
ATOM     24  C   LIG d   1       5.623   0.131  -3.134  0.00  0.00     0.050 A 
ATOM     25  C   LIG d   1       3.976  -1.225  -2.435  0.00  0.00     0.005 A 
ATOM     26  H   LIG d   1       4.920  -3.123  -2.894  0.00  0.00     0.064 H 
ATOM     27  N   LIG d   1       4.364   0.076  -2.576  0.00  0.00    -0.350 N 
ATOM     28  H   LIG d   1       3.029  -1.549  -2.027  0.00  0.00     0.081 H 
ATOM     29  C   LIG d   1       6.466   1.178  -3.487  0.00  0.00    -0.038 A 
ATOM     30  C   LIG d   1       7.704   0.919  -4.041  0.00  0.00    -0.059 A 
ATOM     31  H   LIG d   1       6.152   2.199  -3.327  0.00  0.00     0.064 H 
ATOM     32  C   LIG d   1       8.127  -0.379  -4.255  0.00  0.00    -0.049 A 
ATOM     33  H   LIG d   1       8.349   1.741  -4.311  0.00  0.00     0.062 H 
ATOM     34  H   LIG d   1       9.099  -0.564  -4.690  0.00  0.00     0.062 H 
BRANCH  27  35
ATOM     35  C   LIG d   1       3.561   1.240  -2.197  0.00  0.00     0.012 C 
ATOM     36  H   LIG d   1       3.882   2.108  -2.774  0.00  0.00     0.046 H 
ATOM     37  H   LIG d   1       2.509   1.038  -2.401  0.00  0.00     0.046 H 
ATOM     38  H   LIG d   1       3.692   1.442  -1.134  0.00  0.00     0.046 H 
ENDBRANCH  27  35
ENDBRANCH   1  21
BRANCH   9  39
ATOM     39  O   LIG d   1       2.878  -3.234  -9.248  0.00  0.00    -0.491 OA
BRANCH  39  40
ATOM     40  C   LIG d   1       2.772  -1.809  -9.214  0.00  0.00     0.079 C 
ATOM     41  H   LIG d   1       2.278  -1.460 -10.120  0.00  0.00     0.066 H 
ATOM     42  H   LIG d   1       2.191  -1.508  -8.343  0.00  0.00     0.066 H 
ATOM     43  H   LIG d   1       3.770  -1.373  -9.153  0.00  0.00     0.066 H 
ENDBRANCH  39  40
ENDBRANCH   9  39
BRANCH   8  44
ATOM     44  O   LIG d   1       2.667  -5.915  -8.626  0.00  0.00    -0.491 OA
BRANCH  44  45
ATOM     45  C   LIG d   1       3.058  -6.864  -9.620  0.00  0.00     0.079 C 
ATOM     46  H   LIG d   1       3.801  -7.543  -9.201  0.00  0.00     0.066 H 
ATOM     47  H   LIG d   1       2.186  -7.433  -9.942  0.00  0.00     0.066 H 
ATOM     48  H   LIG d   1       3.485  -6.340 -10.474  0.00  0.00     0.066 H 
ENDBRANCH  44  45
ENDBRANCH   8  44
TORSDOF 6
ENDMDL
MODEL 3
REMARK VINA RESULT:      -5.6      6.920      9.522
REMARK  6 active torsions:
REMARK  status: ('A' for Active; 'I' for Inactive)
REMARK    1  A    between atoms: C_1  and  N_2 
REMARK    2  A    between atoms: C_10  and  C_11 
REMARK       I    between atoms: C_11  and  N_13 
REMARK    3  A    between atoms: C_18  and  O_25 
REMARK    4  A    between atoms: C_19  and  O_23 
REMARK    5  A    between atoms: O_23  and  C_24 
REMARK    6  A    between atoms: O_25  and  C_26 
ROOT
ATOM      1  C   LIG d   1      10.444   2.780  -5.014  0.00  0.00     0.247 C 
ATOM      2  O   LIG d   1      11.451   2.496  -5.634  0.00  0.00    -0.270 OA
ATOM      3  N   LIG d   1       9.304   2.093  -5.230  0.00  0.00    -0.293 N 
ATOM      4  C   LIG d   1       9.270   0.933  -6.135  0.00  0.00     0.019 C 
ATOM      5  C   LIG d   1       8.929  -0.302  -5.302  0.00  0.00    -0.011 C 
ATOM      6  C   LIG d   1       7.754  -0.033  -4.398  0.00  0.00    -0.037 A 
ATOM      7  C   LIG d   1       7.058  -1.131  -3.907  0.00  0.00    -0.013 A 
ATOM      8  C   LIG d   1       5.975  -0.957  -3.065  0.00  0.00     0.162 A 
ATOM      9  C   LIG d   1       5.580   0.328  -2.706  0.00  0.00     0.162 A 
ATOM     10  C   LIG d   1       6.273   1.417  -3.199  0.00  0.00    -0.011 A 
ATOM     11  C   LIG d   1       7.357   1.239  -4.049  0.00  0.00    -0.023 A 
ATOM     12  C   LIG d   1       8.051   2.468  -4.567  0.00  0.00     0.040 C 
ATOM     13  H   LIG d   1       8.507   1.084  -6.899  0.00  0.00     0.047 H 
ATOM     14  H   LIG d   1      10.243   0.803  -6.606  0.00  0.00     0.047 H 
ATOM     15  H   LIG d   1       8.686  -1.129  -5.970  0.00  0.00     0.033 H 
ATOM     16  H   LIG d   1       9.793  -0.574  -4.695  0.00  0.00     0.033 H 
ATOM     17  H   LIG d   1       7.364  -2.128  -4.185  0.00  0.00     0.066 H 
ATOM     18  H   LIG d   1       5.970   2.416  -2.921  0.00  0.00     0.066 H 
ATOM     19  H   LIG d   1       8.267   3.140  -3.736  0.00  0.00     0.051 H 
ATOM     20  H   LIG d   1       7.401   2.975  -5.281  0.00  0.00     0.051 H 
ENDROOT
BRANCH   1  21
ATOM     21  C   LIG d   1      10.470   3.875  -4.028  0.00  0.00     0.046 A 
ATOM     22  C   LIG d   1      10.227   5.203  -4.432  0.00  0.00     0.012 A 
ATOM     23  C   LIG d   1       9.924   5.835  -5.713  0.00  0.00    -0.036 A 
ATOM     24  C   LIG d   1      10.259   6.241  -3.483  0.00  0.00     0.050 A 
ATOM     25  C   LIG d   1       9.792   7.153  -5.480  0.00  0.00     0.005 A 
ATOM     26  H   LIG d   1       9.826   5.337  -6.668  0.00  0.00     0.064 H 
ATOM     27  N   LIG d   1       9.985   7.412  -4.154  0.00  0.00    -0.350 N 
ATOM     28  H   LIG d   1       9.566   7.896  -6.231  0.00  0.00     0.081 H 
ATOM     29  C   LIG d   1      10.532   5.943  -2.154  0.00  0.00    -0.038 A 
ATOM     30  C   LIG d   1      10.773   4.640  -1.767  0.00  0.00    -0.059 A 
ATOM     31  H   LIG d   1      10.556   6.735  -1.419  0.00  0.00     0.064 H 
ATOM     32  C   LIG d   1      10.748   3.610  -2.689  0.00  0.00    -0.049 A 
ATOM     33  H   LIG d   1      10.985   4.422  -0.731  0.00  0.00     0.062 H 
ATOM     34  H   LIG d   1      10.939   2.596  -2.369  0.00  0.00     0.062 H 
BRANCH  27  35
ATOM     35  C   LIG d   1       9.918   8.739  -3.538  0.00  0.00     0.012 C 
ATOM     36  H   LIG d   1       9.610   8.641  -2.496  0.00  0.00     0.046 H 
ATOM     37  H   LIG d   1      10.900   9.211  -3.583  0.00  0.00     0.046 H 
ATOM     38  H   LIG d   1       9.195   9.353  -4.074  0.00  0.00     0.046 H 
ENDBRANCH  27  35
ENDBRANCH   1  21
BRANCH   9  39
ATOM     39  O   LIG d   1       4.519   0.511  -1.875  0.00  0.00    -0.491 OA
BRANCH  39  40
ATOM     40  C   LIG d   1       3.501   1.415  -2.312  0.00  0.00     0.079 C 
ATOM     41  H   LIG d   1       2.580   0.864  -2.494  0.00  0.00     0.066 H 
ATOM     42  H   LIG d   1       3.330   2.168  -1.543  0.00  0.00     0.066 H 
ATOM     43  H   LIG d   1       3.821   1.903  -3.233  0.00  0.00     0.066 H 
ENDBRANCH  39  40
ENDBRANCH   9  39
BRANCH   8  44
ATOM     44  O   LIG d   1       5.298  -2.038  -2.591  0.00  0.00    -0.491 OA
BRANCH  44  45
ATOM     45  C   LIG d   1       4.293  -2.598  -3.438  0.00  0.00     0.079 C 
ATOM     46  H   LIG d   1       4.159  -3.652  -3.195  0.00  0.00     0.066 H 
ATOM     47  H   LIG d   1       3.354  -2.068  -3.285  0.00  0.00     0.066 H 
ATOM     48  H   LIG d   1       4.600  -2.501  -4.479  0.00  0.00     0.066 H 
ENDBRANCH  44  45
ENDBRANCH   8  44
TORSDOF 6
ENDMDL
MODEL 4
REMARK VINA RESULT:      -5.5      2.399      4.075
REMARK  6 active torsions:
REMARK  status: ('A' for Active; 'I' for Inactive)
REMARK    1  A    between atoms: C_1  and  N_2 
REMARK    2  A    between atoms: C_10  and  C_11 
REMARK       I    between atoms: C_11  and  N_13 
REMARK    3  A    between atoms: C_18  and  O_25 
REMARK    4  A    between atoms: C_19  and  O_23 
REMARK    5  A    between atoms: O_23  and  C_24 
REMARK    6  A    between atoms: O_25  and  C_26 
ROOT
ATOM      1  C   LIG d   1       4.966  -3.722  -5.463  0.00  0.00     0.247 C 
ATOM      2  O   LIG d   1       4.581  -4.764  -4.970  0.00  0.00    -0.270 OA
ATOM      3  N   LIG d   1       5.005  -3.585  -6.804  0.00  0.00    -0.293 N 
ATOM      4  C   LIG d   1       4.495  -4.640  -7.695  0.00  0.00     0.019 C 
ATOM      5  C   LIG d   1       3.299  -4.073  -8.459  0.00  0.00    -0.011 C 
ATOM      6  C   LIG d   1       3.621  -2.715  -9.028  0.00  0.00    -0.037 A 
ATOM      7  C   LIG d   1       2.835  -2.257 -10.078  0.00  0.00    -0.013 A 
ATOM      8  C   LIG d   1       3.069  -1.015 -10.642  0.00  0.00     0.162 A 
ATOM      9  C   LIG d   1       4.098  -0.219 -10.151  0.00  0.00     0.162 A 
ATOM     10  C   LIG d   1       4.880  -0.679  -9.108  0.00  0.00    -0.011 A 
ATOM     11  C   LIG d   1       4.646  -1.929  -8.549  0.00  0.00    -0.023 A 
ATOM     12  C   LIG d   1       5.549  -2.377  -7.433  0.00  0.00     0.040 C 
ATOM     13  H   LIG d   1       5.274  -4.937  -8.398  0.00  0.00     0.047 H 
ATOM     14  H   LIG d   1       4.181  -5.501  -7.107  0.00  0.00     0.047 H 
ATOM     15  H   LIG d   1       3.040  -4.750  -9.273  0.00  0.00     0.033 H 
ATOM     16  H   LIG d   1       2.450  -3.986  -7.781  0.00  0.00     0.033 H 
ATOM     17  H   LIG d   1       2.036  -2.874 -10.459  0.00  0.00     0.066 H 
ATOM     18  H   LIG d   1       5.679  -0.063  -8.724  0.00  0.00     0.066 H 
ATOM     19  H   LIG d   1       5.625  -1.584  -6.689  0.00  0.00     0.051 H 
ATOM     20  H   LIG d   1       6.539  -2.593  -7.834  0.00  0.00     0.051 H 
ENDROOT
BRANCH   1  21
ATOM     21  C   LIG d   1       5.393  -2.609  -4.597  0.00  0.00     0.046 A 
ATOM     22  C   LIG d   1       4.487  -1.584  -4.257  0.00  0.00     0.012 A 
ATOM     23  C   LIG d   1       3.087  -1.318  -4.578  0.00  0.00    -0.036 A 
ATOM     24  C   LIG d   1       4.906  -0.523  -3.433  0.00  0.00     0.050 A 
ATOM     25  C   LIG d   1       2.752  -0.171  -3.959  0.00  0.00     0.005 A 
ATOM     26  H   LIG d   1       2.443  -1.926  -5.197  0.00  0.00     0.064 H 
ATOM     27  N   LIG d   1       3.825   0.314  -3.269  0.00  0.00    -0.350 N 
ATOM     28  H   LIG d   1       1.779   0.295  -4.002  0.00  0.00     0.081 H 
ATOM     29  C   LIG d   1       6.214  -0.498  -2.964  0.00  0.00    -0.038 A 
ATOM     30  C   LIG d   1       7.096  -1.504  -3.306  0.00  0.00    -0.059 A 
ATOM     31  H   LIG d   1       6.543   0.313  -2.330  0.00  0.00     0.064 H 
ATOM     32  C   LIG d   1       6.699  -2.550  -4.117  0.00  0.00    -0.049 A 
ATOM     33  H   LIG d   1       8.110  -1.472  -2.935  0.00  0.00     0.062 H 
ATOM     34  H   LIG d   1       7.402  -3.329  -4.374  0.00  0.00     0.062 H 
BRANCH  27  35
ATOM     35  C   LIG d   1       3.828   1.546  -2.476  0.00  0.00     0.012 C 
ATOM     36  H   LIG d   1       4.003   1.304  -1.428  0.00  0.00     0.046 H 
ATOM     37  H   LIG d   1       4.619   2.206  -2.833  0.00  0.00     0.046 H 
ATOM     38  H   LIG d   1       2.865   2.046  -2.578  0.00  0.00     0.046 H 
ENDBRANCH  27  35
ENDBRANCH   1  21
BRANCH   9  39
ATOM     39  O   LIG d   1       4.335   1.005 -10.695  0.00  0.00    -0.491 OA
BRANCH  39  40
ATOM     40  C   LIG d   1       3.781   2.134 -10.015  0.00  0.00     0.079 C 
ATOM     41  H   LIG d   1       2.906   1.823  -9.447  0.00  0.00     0.066 H 
ATOM     42  H   LIG d   1       4.525   2.551  -9.337  0.00  0.00     0.066 H 
ATOM     43  H   LIG d   1       3.491   2.891 -10.745  0.00  0.00     0.066 H 
ENDBRANCH  39  40
ENDBRANCH   9  39
BRANCH   8  44
ATOM     44  O   LIG d   1       2.295  -0.577 -11.671  0.00  0.00    -0.491 OA
BRANCH  44  45
ATOM     45  C   LIG d   1       1.045  -1.239 -11.872  0.00  0.00     0.079 C 
ATOM     46  H   LIG d   1       1.215  -2.190 -12.376  0.00  0.00     0.066 H 
ATOM     47  H   LIG d   1       0.571  -1.419 -10.908  0.00  0.00     0.066 H 
ATOM     48  H   LIG d   1       0.397  -0.613 -12.484  0.00  0.00     0.066 H 
ENDBRANCH  44  45
ENDBRANCH   8  44
TORSDOF 6
ENDMDL
MODEL 5
REMARK VINA RESULT:      -5.4      4.993      7.278
REMARK  6 active torsions:
REMARK  status: ('A' for Active; 'I' for Inactive)
REMARK    1  A    between atoms: C_1  and  N_2 
REMARK    2  A    between atoms: C_10  and  C_11 
REMARK       I    between atoms: C_11  and  N_13 
REMARK    3  A    between atoms: C_18  and  O_25 
REMARK    4  A    between atoms: C_19  and  O_23 
REMARK    5  A    between atoms: O_23  and  C_24 
REMARK    6  A    between atoms: O_25  and  C_26 
ROOT
ATOM      1  C   LIG d   1       6.476   0.944  -3.452  0.00  0.00     0.247 C 
ATOM      2  O   LIG d   1       5.689   1.786  -3.063  0.00  0.00    -0.270 OA
ATOM      3  N   LIG d   1       6.260  -0.358  -3.179  0.00  0.00    -0.293 N 
ATOM      4  C   LIG d   1       5.033  -0.804  -2.500  0.00  0.00     0.019 C 
ATOM      5  C   LIG d   1       4.252  -1.688  -3.471  0.00  0.00    -0.011 C 
ATOM      6  C   LIG d   1       5.157  -2.709  -4.111  0.00  0.00    -0.037 A 
ATOM      7  C   LIG d   1       4.561  -3.834  -4.669  0.00  0.00    -0.013 A 
ATOM      8  C   LIG d   1       5.330  -4.807  -5.282  0.00  0.00     0.162 A 
ATOM      9  C   LIG d   1       6.711  -4.657  -5.340  0.00  0.00     0.162 A 
ATOM     10  C   LIG d   1       7.301  -3.539  -4.781  0.00  0.00    -0.011 A 
ATOM     11  C   LIG d   1       6.526  -2.567  -4.162  0.00  0.00    -0.023 A 
ATOM     12  C   LIG d   1       7.234  -1.388  -3.554  0.00  0.00     0.040 C 
ATOM     13  H   LIG d   1       5.292  -1.375  -1.608  0.00  0.00     0.047 H 
ATOM     14  H   LIG d   1       4.429   0.060  -2.222  0.00  0.00     0.047 H 
ATOM     15  H   LIG d   1       3.459  -2.203  -2.929  0.00  0.00     0.033 H 
ATOM     16  H   LIG d   1       3.811  -1.064  -4.247  0.00  0.00     0.033 H 
ATOM     17  H   LIG d   1       3.488  -3.950  -4.625  0.00  0.00     0.066 H 
ATOM     18  H   LIG d   1       8.374  -3.419  -4.825  0.00  0.00     0.066 H 
ATOM     19  H   LIG d   1       7.937  -0.976  -4.278  0.00  0.00     0.051 H 
ATOM     20  H   LIG d   1       7.778  -1.712  -2.666  0.00  0.00     0.051 H 
ENDROOT
BRANCH   1  21
ATOM     21  C   LIG d   1       7.667   1.349  -4.220  0.00  0.00     0.046 A 
ATOM     22  C   LIG d   1       7.748   1.080  -5.601  0.00  0.00     0.012 A 
ATOM     23  C   LIG d   1       6.859   0.436  -6.564  0.00  0.00    -0.036 A 
ATOM     24  C   LIG d   1       8.892   1.465  -6.324  0.00  0.00     0.050 A 
ATOM     25  C   LIG d   1       7.480   0.469  -7.757  0.00  0.00     0.005 A 
ATOM     26  H   LIG d   1       5.887   0.012  -6.357  0.00  0.00     0.064 H 
ATOM     27  N   LIG d   1       8.693   1.083  -7.632  0.00  0.00    -0.350 N 
ATOM     28  H   LIG d   1       7.079   0.070  -8.677  0.00  0.00     0.081 H 
ATOM     29  C   LIG d   1       9.933   2.108  -5.664  0.00  0.00    -0.038 A 
ATOM     30  C   LIG d   1       9.847   2.364  -4.310  0.00  0.00    -0.059 A 
ATOM     31  H   LIG d   1      10.814   2.409  -6.213  0.00  0.00     0.064 H 
ATOM     32  C   LIG d   1       8.730   1.988  -3.587  0.00  0.00    -0.049 A 
ATOM     33  H   LIG d   1      10.662   2.863  -3.809  0.00  0.00     0.062 H 
ATOM     34  H   LIG d   1       8.679   2.196  -2.528  0.00  0.00     0.062 H 
BRANCH  27  35
ATOM     35  C   LIG d   1       9.644   1.298  -8.725  0.00  0.00     0.012 C 
ATOM     36  H   LIG d   1      10.537   0.697  -8.553  0.00  0.00     0.046 H 
ATOM     37  H   LIG d   1       9.185   1.005  -9.669  0.00  0.00     0.046 H 
ATOM     38  H   LIG d   1       9.918   2.352  -8.767  0.00  0.00     0.046 H 
ENDBRANCH  27  35
ENDBRANCH   1  21
BRANCH   9  39
ATOM     39  O   LIG d   1       7.478  -5.605  -5.943  0.00  0.00    -0.491 OA
BRANCH  39  40
ATOM     40  C   LIG d   1       8.217  -6.482  -5.089  0.00  0.00     0.079 C 
ATOM     41  H   LIG d   1       9.191  -6.684  -5.531  0.00  0.00     0.066 H 
ATOM     42  H   LIG d   1       8.350  -6.013  -4.115  0.00  0.00     0.066 H 
ATOM     43  H   LIG d   1       7.670  -7.418  -4.970  0.00  0.00     0.066 H 
ENDBRANCH  39  40
ENDBRANCH   9  39
BRANCH   8  44
ATOM     44  O   LIG d   1       4.737  -5.905  -5.823  0.00  0.00    -0.491 OA
BRANCH  44  45
ATOM     45  C   LIG d   1       4.092  -5.738  -7.087  0.00  0.00     0.079 C 
ATOM     46  H   LIG d   1       4.827  -5.437  -7.833  0.00  0.00     0.066 H 
ATOM     47  H   LIG d   1       3.634  -6.680  -7.388  0.00  0.00     0.066 H 
ATOM     48  H   LIG d   1       3.323  -4.971  -7.004  0.00  0.00     0.066 H 
ENDBRANCH  44  45
ENDBRANCH   8  44
TORSDOF 6
ENDMDL
MODEL 6
REMARK VINA RESULT:      -5.3     10.034     13.561
REMARK  6 active torsions:
REMARK  status: ('A' for Active; 'I' for Inactive)
REMARK    1  A    between atoms: C_1  and  N_2 
REMARK    2  A    between atoms: C_10  and  C_11 
REMARK       I    between atoms: C_11  and  N_13 
REMARK    3  A    between atoms: C_18  and  O_25 
REMARK    4  A    between atoms: C_19  and  O_23 
REMARK    5  A    between atoms: O_23  and  C_24 
REMARK    6  A    between atoms: O_25  and  C_26 
ROOT
ATOM      1  C   LIG d   1      10.921   4.488  -6.501  0.00  0.00     0.247 C 
ATOM      2  O   LIG d   1      11.677   3.657  -6.966  0.00  0.00    -0.270 OA
ATOM      3  N   LIG d   1      10.445   4.340  -5.248  0.00  0.00    -0.293 N 
ATOM      4  C   LIG d   1      10.898   3.238  -4.383  0.00  0.00     0.019 C 
ATOM      5  C   LIG d   1      11.631   3.848  -3.190  0.00  0.00    -0.011 C 
ATOM      6  C   LIG d   1      10.835   4.979  -2.592  0.00  0.00    -0.037 A 
ATOM      7  C   LIG d   1      11.129   5.351  -1.286  0.00  0.00    -0.013 A 
ATOM      8  C   LIG d   1      10.445   6.388  -0.678  0.00  0.00     0.162 A 
ATOM      9  C   LIG d   1       9.453   7.064  -1.381  0.00  0.00     0.162 A 
ATOM     10  C   LIG d   1       9.160   6.689  -2.679  0.00  0.00    -0.011 A 
ATOM     11  C   LIG d   1       9.847   5.644  -3.284  0.00  0.00    -0.023 A 
ATOM     12  C   LIG d   1       9.462   5.274  -4.690  0.00  0.00     0.040 C 
ATOM     13  H   LIG d   1      10.038   2.666  -4.034  0.00  0.00     0.047 H 
ATOM     14  H   LIG d   1      11.573   2.587  -4.937  0.00  0.00     0.047 H 
ATOM     15  H   LIG d   1      11.786   3.080  -2.432  0.00  0.00     0.033 H 
ATOM     16  H   LIG d   1      12.599   4.226  -3.520  0.00  0.00     0.033 H 
ATOM     17  H   LIG d   1      11.899   4.827  -0.740  0.00  0.00     0.066 H 
ATOM     18  H   LIG d   1       8.392   7.213  -3.228  0.00  0.00     0.066 H 
ATOM     19  H   LIG d   1       9.427   6.173  -5.305  0.00  0.00     0.051 H 
ATOM     20  H   LIG d   1       8.479   4.802  -4.682  0.00  0.00     0.051 H 
ENDROOT
BRANCH   1  21
ATOM     21  C   LIG d   1      10.524   5.656  -7.307  0.00  0.00     0.046 A 
ATOM     22  C   LIG d   1      11.120   6.913  -7.081  0.00  0.00     0.012 A 
ATOM     23  C   LIG d   1      12.137   7.402  -6.155  0.00  0.00    -0.036 A 
ATOM     24  C   LIG d   1      10.729   8.023  -7.852  0.00  0.00     0.050 A 
ATOM     25  C   LIG d   1      12.302   8.714  -6.407  0.00  0.00     0.005 A 
ATOM     26  H   LIG d   1      12.659   6.821  -5.408  0.00  0.00     0.064 H 
ATOM     27  N   LIG d   1      11.471   9.099  -7.419  0.00  0.00    -0.350 N 
ATOM     28  H   LIG d   1      12.989   9.364  -5.886  0.00  0.00     0.081 H 
ATOM     29  C   LIG d   1       9.755   7.865  -8.831  0.00  0.00    -0.038 A 
ATOM     30  C   LIG d   1       9.173   6.631  -9.043  0.00  0.00    -0.059 A 
ATOM     31  H   LIG d   1       9.451   8.713  -9.429  0.00  0.00     0.064 H 
ATOM     32  C   LIG d   1       9.545   5.533  -8.290  0.00  0.00    -0.049 A 
ATOM     33  H   LIG d   1       8.417   6.523  -9.806  0.00  0.00     0.062 H 
ATOM     34  H   LIG d   1       9.079   4.575  -8.469  0.00  0.00     0.062 H 
BRANCH  27  35
ATOM     35  C   LIG d   1      11.378  10.457  -7.961  0.00  0.00     0.012 C 
ATOM     36  H   LIG d   1      11.929  10.513  -8.900  0.00  0.00     0.046 H 
ATOM     37  H   LIG d   1      10.332  10.707  -8.138  0.00  0.00     0.046 H 
ATOM     38  H   LIG d   1      11.804  11.162  -7.247  0.00  0.00     0.046 H 
ENDBRANCH  27  35
ENDBRANCH   1  21
BRANCH   9  39
ATOM     39  O   LIG d   1       8.775   8.087  -0.795  0.00  0.00    -0.491 OA
BRANCH  39  40
ATOM     40  C   LIG d   1       9.199   9.414  -1.117  0.00  0.00     0.079 C 
ATOM     41  H   LIG d   1       9.064   9.590  -2.183  0.00  0.00     0.066 H 
ATOM     42  H   LIG d   1       8.606  10.132  -0.552  0.00  0.00     0.066 H 
ATOM     43  H   LIG d   1      10.252   9.530  -0.859  0.00  0.00     0.066 H 
ENDBRANCH  39  40
ENDBRANCH   9  39
BRANCH   8  44
ATOM     44  O   LIG d   1      10.739   6.742   0.602  0.00  0.00    -0.491 OA
BRANCH  44  45
ATOM     45  C   LIG d   1      10.999   5.684   1.526  0.00  0.00     0.079 C 
ATOM     46  H   LIG d   1      10.331   4.848   1.317  0.00  0.00     0.066 H 
ATOM     47  H   LIG d   1      12.033   5.357   1.422  0.00  0.00     0.066 H 
ATOM     48  H   LIG d   1      10.830   6.039   2.541  0.00  0.00     0.066 H 
ENDBRANCH  44  45
ENDBRANCH   8  44
TORSDOF 6
ENDMDL
MODEL 7
REMARK VINA RESULT:      -5.3     12.446     16.435
REMARK  6 active torsions:
REMARK  status: ('A' for Active; 'I' for Inactive)
REMARK    1  A    between atoms: C_1  and  N_2 
REMARK    2  A    between atoms: C_10  and  C_11 
REMARK       I    between atoms: C_11  and  N_13 
REMARK    3  A    between atoms: C_18  and  O_25 
REMARK    4  A    between atoms: C_19  and  O_23 
REMARK    5  A    between atoms: O_23  and  C_24 
REMARK    6  A    between atoms: O_25  and  C_26 
ROOT
ATOM      1  C   LIG d   1      10.648   6.397  -2.846  0.00  0.00     0.247 C 
ATOM      2  O   LIG d   1      11.117   5.283  -2.980  0.00  0.00    -0.270 OA
ATOM      3  N   LIG d   1      10.350   6.859  -1.615  0.00  0.00    -0.293 N 
ATOM      4  C   LIG d   1      10.672   6.081  -0.408  0.00  0.00     0.019 C 
ATOM      5  C   LIG d   1      11.699   6.871   0.401  0.00  0.00    -0.011 C 
ATOM      6  C   LIG d   1      11.280   8.312   0.539  0.00  0.00    -0.037 A 
ATOM      7  C   LIG d   1      11.849   9.050   1.571  0.00  0.00    -0.013 A 
ATOM      8  C   LIG d   1      11.517  10.381   1.749  0.00  0.00     0.162 A 
ATOM      9  C   LIG d   1      10.606  10.985   0.889  0.00  0.00     0.162 A 
ATOM     10  C   LIG d   1      10.040  10.247  -0.134  0.00  0.00    -0.011 A 
ATOM     11  C   LIG d   1      10.372   8.910  -0.307  0.00  0.00    -0.023 A 
ATOM     12  C   LIG d   1       9.701   8.160  -1.425  0.00  0.00     0.040 C 
ATOM     13  H   LIG d   1       9.770   5.933   0.187  0.00  0.00     0.047 H 
ATOM     14  H   LIG d   1      11.090   5.116  -0.691  0.00  0.00     0.047 H 
ATOM     15  H   LIG d   1      11.792   6.429   1.393  0.00  0.00     0.033 H 
ATOM     16  H   LIG d   1      12.664   6.826  -0.103  0.00  0.00     0.033 H 
ATOM     17  H   LIG d   1      12.556   8.582   2.238  0.00  0.00     0.066 H 
ATOM     18  H   LIG d   1       9.333  10.714  -0.804  0.00  0.00     0.066 H 
ATOM     19  H   LIG d   1       9.774   8.740  -2.345  0.00  0.00     0.051 H 
ATOM     20  H   LIG d   1       8.650   8.007  -1.177  0.00  0.00     0.051 H 
ENDROOT
BRANCH   1  21
ATOM     21  C   LIG d   1      10.404   7.242  -4.029  0.00  0.00     0.046 A 
ATOM     22  C   LIG d   1      11.286   8.294  -4.347  0.00  0.00     0.012 A 
ATOM     23  C   LIG d   1      12.508   8.813  -3.739  0.00  0.00    -0.036 A 
ATOM     24  C   LIG d   1      11.040   9.097  -5.475  0.00  0.00     0.050 A 
ATOM     25  C   LIG d   1      12.917   9.847  -4.497  0.00  0.00     0.005 A 
ATOM     26  H   LIG d   1      12.992   8.438  -2.848  0.00  0.00     0.064 H 
ATOM     27  N   LIG d   1      12.054  10.027  -5.539  0.00  0.00    -0.350 N 
ATOM     28  H   LIG d   1      13.797  10.444  -4.309  0.00  0.00     0.081 H 
ATOM     29  C   LIG d   1       9.925   8.843  -6.265  0.00  0.00    -0.038 A 
ATOM     30  C   LIG d   1       9.064   7.813  -5.944  0.00  0.00    -0.059 A 
ATOM     31  H   LIG d   1       9.731   9.455  -7.135  0.00  0.00     0.064 H 
ATOM     32  C   LIG d   1       9.291   7.018  -4.836  0.00  0.00    -0.049 A 
ATOM     33  H   LIG d   1       8.201   7.627  -6.566  0.00  0.00     0.062 H 
ATOM     34  H   LIG d   1       8.607   6.216  -4.600  0.00  0.00     0.062 H 
BRANCH  27  35
ATOM     35  C   LIG d   1      12.183  11.061  -6.569  0.00  0.00     0.012 C 
ATOM     36  H   LIG d   1      12.398  12.020  -6.097  0.00  0.00     0.046 H 
ATOM     37  H   LIG d   1      12.996  10.800  -7.247  0.00  0.00     0.046 H 
ATOM     38  H   LIG d   1      11.252  11.133  -7.130  0.00  0.00     0.046 H 
ENDBRANCH  27  35
ENDBRANCH   1  21
BRANCH   9  39
ATOM     39  O   LIG d   1      10.274  12.294   1.052  0.00  0.00    -0.491 OA
BRANCH  39  40
ATOM     40  C   LIG d   1      10.673  13.198   0.019  0.00  0.00     0.079 C 
ATOM     41  H   LIG d   1      11.395  12.708  -0.633  0.00  0.00     0.066 H 
ATOM     42  H   LIG d   1       9.800  13.495  -0.561  0.00  0.00     0.066 H 
ATOM     43  H   LIG d   1      11.129  14.082   0.467  0.00  0.00     0.066 H 
ENDBRANCH  39  40
ENDBRANCH   9  39
BRANCH   8  44
ATOM     44  O   LIG d   1      12.077  11.094   2.763  0.00  0.00    -0.491 OA
BRANCH  44  45
ATOM     45  C   LIG d   1      12.587  10.353   3.874  0.00  0.00     0.079 C 
ATOM     46  H   LIG d   1      12.559   9.288   3.643  0.00  0.00     0.066 H 
ATOM     47  H   LIG d   1      13.615  10.656   4.069  0.00  0.00     0.066 H 
ATOM     48  H   LIG d   1      11.976  10.551   4.753  0.00  0.00     0.066 H 
ENDBRANCH  44  45
ENDBRANCH   8  44
TORSDOF 6
ENDMDL
MODEL 8
REMARK VINA RESULT:      -5.3      2.934      7.321
REMARK  6 active torsions:
REMARK  status: ('A' for Active; 'I' for Inactive)
REMARK    1  A    between atoms: C_1  and  N_2 
REMARK    2  A    between atoms: C_10  and  C_11 
REMARK       I    between atoms: C_11  and  N_13 
REMARK    3  A    between atoms: C_18  and  O_25 
REMARK    4  A    between atoms: C_19  and  O_23 
REMARK    5  A    between atoms: O_23  and  C_24 
REMARK    6  A    between atoms: O_25  and  C_26 
ROOT
ATOM      1  C   LIG d   1       3.136   0.154  -6.482  0.00  0.00     0.247 C 
ATOM      2  O   LIG d   1       2.072   0.287  -5.907  0.00  0.00    -0.270 OA
ATOM      3  N   LIG d   1       4.210  -0.311  -5.812  0.00  0.00    -0.293 N 
ATOM      4  C   LIG d   1       4.105  -0.759  -4.414  0.00  0.00     0.019 C 
ATOM      5  C   LIG d   1       4.416  -2.254  -4.375  0.00  0.00    -0.011 C 
ATOM      6  C   LIG d   1       5.665  -2.563  -5.159  0.00  0.00    -0.037 A 
ATOM      7  C   LIG d   1       6.317  -3.759  -4.882  0.00  0.00    -0.013 A 
ATOM      8  C   LIG d   1       7.464  -4.110  -5.571  0.00  0.00     0.162 A 
ATOM      9  C   LIG d   1       7.968  -3.259  -6.549  0.00  0.00     0.162 A 
ATOM     10  C   LIG d   1       7.319  -2.069  -6.820  0.00  0.00    -0.011 A 
ATOM     11  C   LIG d   1       6.170  -1.718  -6.122  0.00  0.00    -0.023 A 
ATOM     12  C   LIG d   1       5.528  -0.398  -6.450  0.00  0.00     0.040 C 
ATOM     13  H   LIG d   1       4.823  -0.217  -3.798  0.00  0.00     0.047 H 
ATOM     14  H   LIG d   1       3.095  -0.583  -4.045  0.00  0.00     0.047 H 
ATOM     15  H   LIG d   1       4.557  -2.564  -3.339  0.00  0.00     0.033 H 
ATOM     16  H   LIG d   1       3.579  -2.805  -4.803  0.00  0.00     0.033 H 
ATOM     17  H   LIG d   1       5.926  -4.419  -4.123  0.00  0.00     0.066 H 
ATOM     18  H   LIG d   1       7.706  -1.407  -7.579  0.00  0.00     0.066 H 
ATOM     19  H   LIG d   1       5.414  -0.309  -7.531  0.00  0.00     0.051 H 
ATOM     20  H   LIG d   1       6.160   0.412  -6.085  0.00  0.00     0.051 H 
ENDROOT
BRANCH   1  21
ATOM     21  C   LIG d   1       3.251   0.501  -7.909  0.00  0.00     0.046 A 
ATOM     22  C   LIG d   1       3.239  -0.509  -8.892  0.00  0.00     0.012 A 
ATOM     23  C   LIG d   1       3.129  -1.965  -8.849  0.00  0.00    -0.036 A 
ATOM     24  C   LIG d   1       3.355  -0.166 -10.251  0.00  0.00     0.050 A 
ATOM     25  C   LIG d   1       3.177  -2.400 -10.121  0.00  0.00     0.005 A 
ATOM     26  H   LIG d   1       3.028  -2.576  -7.964  0.00  0.00     0.064 H 
ATOM     27  N   LIG d   1       3.309  -1.340 -10.970  0.00  0.00    -0.350 N 
ATOM     28  H   LIG d   1       3.120  -3.435 -10.425  0.00  0.00     0.081 H 
ATOM     29  C   LIG d   1       3.482   1.170 -10.610  0.00  0.00    -0.038 A 
ATOM     30  C   LIG d   1       3.498   2.154  -9.641  0.00  0.00    -0.059 A 
ATOM     31  H   LIG d   1       3.570   1.441 -11.652  0.00  0.00     0.064 H 
ATOM     32  C   LIG d   1       3.388   1.831  -8.301  0.00  0.00    -0.049 A 
ATOM     33  H   LIG d   1       3.598   3.188  -9.933  0.00  0.00     0.062 H 
ATOM     34  H   LIG d   1       3.401   2.613  -7.556  0.00  0.00     0.062 H 
BRANCH  27  35
ATOM     35  C   LIG d   1       3.394  -1.436 -12.430  0.00  0.00     0.012 C 
ATOM     36  H   LIG d   1       4.236  -2.072 -12.703  0.00  0.00     0.046 H 
ATOM     37  H   LIG d   1       2.472  -1.866 -12.821  0.00  0.00     0.046 H 
ATOM     38  H   LIG d   1       3.538  -0.441 -12.851  0.00  0.00     0.046 H 
ENDBRANCH  27  35
ENDBRANCH   1  21
BRANCH   9  39
ATOM     39  O   LIG d   1       9.093  -3.596  -7.236  0.00  0.00    -0.491 OA
BRANCH  39  40
ATOM     40  C   LIG d   1      10.293  -2.898  -6.896  0.00  0.00     0.079 C 
ATOM     41  H   LIG d   1      10.405  -2.875  -5.813  0.00  0.00     0.066 H 
ATOM     42  H   LIG d   1      11.148  -3.408  -7.339  0.00  0.00     0.066 H 
ATOM     43  H   LIG d   1      10.241  -1.878  -7.279  0.00  0.00     0.066 H 
ENDBRANCH  39  40
ENDBRANCH   9  39
BRANCH   8  44
ATOM     44  O   LIG d   1       8.096  -5.281  -5.291  0.00  0.00    -0.491 OA
BRANCH  44  45
ATOM     45  C   LIG d   1       8.947  -5.303  -4.143  0.00  0.00     0.079 C 
ATOM     46  H   LIG d   1       9.046  -6.327  -3.784  0.00  0.00     0.066 H 
ATOM     47  H   LIG d   1       9.929  -4.915  -4.413  0.00  0.00     0.066 H 
ATOM     48  H   LIG d   1       8.514  -4.683  -3.359  0.00  0.00     0.066 H 
ENDBRANCH  44  45
ENDBRANCH   8  44
TORSDOF 6
ENDMDL
MODEL 9
REMARK VINA RESULT:      -5.3     10.941     13.528
REMARK  6 active torsions:
REMARK  status: ('A' for Active; 'I' for Inactive)
REMARK    1  A    between atoms: C_1  and  N_2 
REMARK    2  A    between atoms: C_10  and  C_11 
REMARK       I    between atoms: C_11  and  N_13 
REMARK    3  A    between atoms: C_18  and  O_25 
REMARK    4  A    between atoms: C_19  and  O_23 
REMARK    5  A    between atoms: O_23  and  C_24 
REMARK    6  A    between atoms: O_25  and  C_26 
ROOT
ATOM      1  C   LIG d   1      10.564   6.600  -0.509  0.00  0.00     0.247 C 
ATOM      2  O   LIG d   1      10.404   5.857   0.440  0.00  0.00    -0.270 OA
ATOM      3  N   LIG d   1      11.028   6.112  -1.677  0.00  0.00    -0.293 N 
ATOM      4  C   LIG d   1      11.255   4.670  -1.867  0.00  0.00     0.019 C 
ATOM      5  C   LIG d   1      10.293   4.180  -2.948  0.00  0.00    -0.011 C 
ATOM      6  C   LIG d   1      10.318   5.097  -4.143  0.00  0.00    -0.037 A 
ATOM      7  C   LIG d   1       9.852   4.590  -5.351  0.00  0.00    -0.013 A 
ATOM      8  C   LIG d   1       9.837   5.380  -6.486  0.00  0.00     0.162 A 
ATOM      9  C   LIG d   1      10.292   6.692  -6.418  0.00  0.00     0.162 A 
ATOM     10  C   LIG d   1      10.758   7.192  -5.217  0.00  0.00    -0.011 A 
ATOM     11  C   LIG d   1      10.776   6.395  -4.080  0.00  0.00    -0.023 A 
ATOM     12  C   LIG d   1      11.318   6.995  -2.812  0.00  0.00     0.040 C 
ATOM     13  H   LIG d   1      12.284   4.498  -2.184  0.00  0.00     0.047 H 
ATOM     14  H   LIG d   1      11.063   4.140  -0.935  0.00  0.00     0.047 H 
ATOM     15  H   LIG d   1      10.584   3.177  -3.260  0.00  0.00     0.033 H 
ATOM     16  H   LIG d   1       9.283   4.150  -2.540  0.00  0.00     0.033 H 
ATOM     17  H   LIG d   1       9.498   3.572  -5.403  0.00  0.00     0.066 H 
ATOM     18  H   LIG d   1      11.111   8.212  -5.160  0.00  0.00     0.066 H 
ATOM     19  H   LIG d   1      10.853   7.966  -2.643  0.00  0.00     0.051 H 
ATOM     20  H   LIG d   1      12.397   7.121  -2.905  0.00  0.00     0.051 H 
ENDROOT
BRANCH   1  21
ATOM     21  C   LIG d   1      10.252   8.035  -0.382  0.00  0.00     0.046 A 
ATOM     22  C   LIG d   1      11.167   8.910   0.237  0.00  0.00     0.012 A 
ATOM     23  C   LIG d   1      12.483   8.738   0.847  0.00  0.00    -0.036 A 
ATOM     24  C   LIG d   1      10.857  10.277   0.358  0.00  0.00     0.050 A 
ATOM     25  C   LIG d   1      12.878   9.950   1.278  0.00  0.00     0.005 A 
ATOM     26  H   LIG d   1      13.033   7.813   0.937  0.00  0.00     0.064 H 
ATOM     27  N   LIG d   1      11.922  10.880   0.990  0.00  0.00    -0.350 N 
ATOM     28  H   LIG d   1      13.814  10.156   1.776  0.00  0.00     0.081 H 
ATOM     29  C   LIG d   1       9.647  10.749  -0.136  0.00  0.00    -0.038 A 
ATOM     30  C   LIG d   1       8.755   9.884  -0.737  0.00  0.00    -0.059 A 
ATOM     31  H   LIG d   1       9.403  11.798  -0.049  0.00  0.00     0.064 H 
ATOM     32  C   LIG d   1       9.045   8.538  -0.859  0.00  0.00    -0.049 A 
ATOM     33  H   LIG d   1       7.818  10.264  -1.116  0.00  0.00     0.062 H 
ATOM     34  H   LIG d   1       8.335   7.876  -1.333  0.00  0.00     0.062 H 
BRANCH  27  35
ATOM     35  C   LIG d   1      12.011  12.306   1.313  0.00  0.00     0.012 C 
ATOM     36  H   LIG d   1      12.897  12.731   0.841  0.00  0.00     0.046 H 
ATOM     37  H   LIG d   1      11.122  12.818   0.944  0.00  0.00     0.046 H 
ATOM     38  H   LIG d   1      12.079  12.431   2.393  0.00  0.00     0.046 H 
ENDBRANCH  27  35
ENDBRANCH   1  21
BRANCH   9  39
ATOM     39  O   LIG d   1      10.279   7.480  -7.527  0.00  0.00    -0.491 OA
BRANCH  39  40
ATOM     40  C   LIG d   1       9.180   8.384  -7.667  0.00  0.00     0.079 C 
ATOM     41  H   LIG d   1       9.366   9.054  -8.506  0.00  0.00     0.066 H 
ATOM     42  H   LIG d   1       8.266   7.820  -7.848  0.00  0.00     0.066 H 
ATOM     43  H   LIG d   1       9.073   8.968  -6.752  0.00  0.00     0.066 H 
ENDBRANCH  39  40
ENDBRANCH   9  39
BRANCH   8  44
ATOM     44  O   LIG d   1       9.381   4.873  -7.663  0.00  0.00    -0.491 OA
BRANCH  44  45
ATOM     45  C   LIG d   1       9.469   3.458  -7.840  0.00  0.00     0.079 C 
ATOM     46  H   LIG d   1       8.705   2.969  -7.236  0.00  0.00     0.066 H 
ATOM     47  H   LIG d   1       9.315   3.213  -8.890  0.00  0.00     0.066 H 
ATOM     48  H   LIG d   1      10.455   3.115  -7.528  0.00  0.00     0.066 H 
ENDBRANCH  44  45
ENDBRANCH   8  44
TORSDOF 6
ENDMDL
