MODEL 1
REMARK VINA RESULT:      -6.1      0.000      0.000
REMARK  5 active torsions:
REMARK  status: ('A' for Active; 'I' for Inactive)
REMARK    1  A    between atoms: C_1  and  C_2 
REMARK    2  A    between atoms: C_2  and  C_3 
REMARK    3  A    between atoms: C_2  and  C_4 
REMARK    4  A    between atoms: C_2  and  C_6 
REMARK    5  A    between atoms: C_4  and  O_5 
ROOT
ATOM      1  C   LIG d   1       5.204  -0.088  -4.057  0.00  0.00     0.070 C 
ATOM      2  H   LIG d   1       5.812   0.717  -3.646  0.00  0.00     0.060 H 
ATOM      3  C   LIG d   1       6.101  -1.260  -4.446  0.00  0.00    -0.007 C 
ATOM      4  H   LIG d   1       6.830  -0.928  -5.186  0.00  0.00     0.033 H 
ATOM      5  C   LIG d   1       6.846  -1.844  -3.246  0.00  0.00    -0.044 C 
ATOM      6  C   LIG d   1       7.852  -2.875  -3.769  0.00  0.00    -0.034 C 
ATOM      7  C   LIG d   1       7.222  -3.775  -4.789  0.00  0.00    -0.088 C 
ATOM      8  C   LIG d   1       6.079  -3.558  -5.364  0.00  0.00    -0.084 C 
ATOM      9  C   LIG d   1       5.230  -2.368  -5.048  0.00  0.00    -0.013 C 
ATOM     10  H   LIG d   1       4.473  -2.656  -4.320  0.00  0.00     0.035 H 
ATOM     11  C   LIG d   1       4.537  -1.800  -6.285  0.00  0.00    -0.008 C 
ATOM     12  H   LIG d   1       3.882  -2.555  -6.720  0.00  0.00     0.033 H 
ATOM     13  C   LIG d   1       5.594  -1.357  -7.300  0.00  0.00    -0.047 C 
ATOM     14  C   LIG d   1       4.909  -0.738  -8.519  0.00  0.00    -0.053 C 
ATOM     15  C   LIG d   1       4.094   0.480  -8.079  0.00  0.00    -0.051 C 
ATOM     16  C   LIG d   1       3.020   0.009  -7.094  0.00  0.00    -0.026 C 
ATOM     17  C   LIG d   1       3.699  -0.601  -5.868  0.00  0.00     0.062 C 
ATOM     18  H   LIG d   1       2.935  -0.940  -5.168  0.00  0.00     0.060 H 
ATOM     19  O   LIG d   1       4.523   0.372  -5.230  0.00  0.00    -0.372 OA
ATOM     20  H   LIG d   1       6.137  -2.329  -2.573  0.00  0.00     0.027 H 
ATOM     21  H   LIG d   1       7.373  -1.050  -2.717  0.00  0.00     0.027 H 
ATOM     22  H   LIG d   1       8.213  -3.477  -2.934  0.00  0.00     0.031 H 
ATOM     23  H   LIG d   1       8.694  -2.353  -4.223  0.00  0.00     0.031 H 
ATOM     24  H   LIG d   1       7.760  -4.669  -5.066  0.00  0.00     0.057 H 
ATOM     25  H   LIG d   1       5.725  -4.265  -6.099  0.00  0.00     0.057 H 
ATOM     26  H   LIG d   1       6.252  -0.619  -6.839  0.00  0.00     0.027 H 
ATOM     27  H   LIG d   1       6.180  -2.220  -7.613  0.00  0.00     0.027 H 
ATOM     28  H   LIG d   1       5.664  -0.428  -9.241  0.00  0.00     0.026 H 
ATOM     29  H   LIG d   1       4.247  -1.473  -8.977  0.00  0.00     0.026 H 
ATOM     30  H   LIG d   1       4.753   1.213  -7.617  0.00  0.00     0.027 H 
ATOM     31  H   LIG d   1       3.606   0.924  -8.947  0.00  0.00     0.027 H 
ATOM     32  H   LIG d   1       2.366  -0.732  -7.553  0.00  0.00     0.029 H 
ATOM     33  H   LIG d   1       2.430   0.873  -6.789  0.00  0.00     0.029 H 
ENDROOT
BRANCH   1  34
ATOM     34  C   LIG d   1       4.184  -0.547  -3.012  0.00  0.00     0.015 C 
BRANCH  34  35
ATOM     35  C   LIG d   1       2.772  -0.211  -3.495  0.00  0.00    -0.055 C 
ATOM     36  H   LIG d   1       2.087  -0.221  -2.649  0.00  0.00     0.024 H 
ATOM     37  H   LIG d   1       2.770   0.779  -3.953  0.00  0.00     0.024 H 
ATOM     38  H   LIG d   1       2.453  -0.950  -4.229  0.00  0.00     0.024 H 
ENDBRANCH  34  35
BRANCH  34  39
ATOM     39  C   LIG d   1       4.307  -2.058  -2.809  0.00  0.00    -0.055 C 
ATOM     40  H   LIG d   1       3.400  -2.436  -2.335  0.00  0.00     0.024 H 
ATOM     41  H   LIG d   1       4.441  -2.545  -3.775  0.00  0.00     0.024 H 
ATOM     42  H   LIG d   1       5.165  -2.271  -2.173  0.00  0.00     0.024 H 
ENDBRANCH  34  39
BRANCH  34  43
ATOM     43  C   LIG d   1       4.455   0.169  -1.688  0.00  0.00     0.052 C 
ATOM     44  H   LIG d   1       3.509   0.462  -1.232  0.00  0.00     0.056 H 
ATOM     45  H   LIG d   1       4.990  -0.501  -1.014  0.00  0.00     0.056 H 
BRANCH  43  46
ATOM     46  O   LIG d   1       5.247   1.334  -1.929  0.00  0.00    -0.394 OA
ATOM     47  H   LIG d   1       5.705   1.667  -1.146  0.00  0.00     0.209 HD
ENDBRANCH  43  46
ENDBRANCH  34  43
ENDBRANCH   1  34
TORSDOF 5
ENDMDL
MODEL 2
REMARK VINA RESULT:      -6.0      2.009      4.122
REMARK  5 active torsions:
REMARK  status: ('A' for Active; 'I' for Inactive)
REMARK    1  A    between atoms: C_1  and  C_2 
REMARK    2  A    between atoms: C_2  and  C_3 
REMARK    3  A    between atoms: C_2  and  C_4 
REMARK    4  A    between atoms: C_2  and  C_6 
REMARK    5  A    between atoms: C_4  and  O_5 
ROOT
ATOM      1  C   LIG d   1       6.379   0.013  -5.493  0.00  0.00     0.070 C 
ATOM      2  H   LIG d   1       5.966   0.371  -6.436  0.00  0.00     0.060 H 
ATOM      3  C   LIG d   1       6.595  -1.496  -5.568  0.00  0.00    -0.007 C 
ATOM      4  H   LIG d   1       5.643  -1.988  -5.768  0.00  0.00     0.033 H 
ATOM      5  C   LIG d   1       7.594  -1.886  -6.656  0.00  0.00    -0.044 C 
ATOM      6  C   LIG d   1       7.592  -3.414  -6.775  0.00  0.00    -0.034 C 
ATOM      7  C   LIG d   1       7.644  -4.061  -5.424  0.00  0.00    -0.088 C 
ATOM      8  C   LIG d   1       7.441  -3.445  -4.299  0.00  0.00    -0.084 C 
ATOM      9  C   LIG d   1       7.147  -1.980  -4.223  0.00  0.00    -0.013 C 
ATOM     10  H   LIG d   1       8.071  -1.445  -4.007  0.00  0.00     0.035 H 
ATOM     11  C   LIG d   1       6.117  -1.646  -3.144  0.00  0.00    -0.008 C 
ATOM     12  H   LIG d   1       6.494  -1.949  -2.168  0.00  0.00     0.033 H 
ATOM     13  C   LIG d   1       4.803  -2.365  -3.460  0.00  0.00    -0.047 C 
ATOM     14  C   LIG d   1       3.750  -1.993  -2.414  0.00  0.00    -0.053 C 
ATOM     15  C   LIG d   1       3.516  -0.482  -2.445  0.00  0.00    -0.051 C 
ATOM     16  C   LIG d   1       4.833   0.216  -2.092  0.00  0.00    -0.026 C 
ATOM     17  C   LIG d   1       5.886  -0.143  -3.139  0.00  0.00     0.062 C 
ATOM     18  H   LIG d   1       6.824   0.350  -2.886  0.00  0.00     0.060 H 
ATOM     19  O   LIG d   1       5.460   0.289  -4.429  0.00  0.00    -0.372 OA
ATOM     20  H   LIG d   1       8.591  -1.539  -6.383  0.00  0.00     0.027 H 
ATOM     21  H   LIG d   1       7.295  -1.442  -7.606  0.00  0.00     0.027 H 
ATOM     22  H   LIG d   1       8.460  -3.728  -7.356  0.00  0.00     0.031 H 
ATOM     23  H   LIG d   1       6.684  -3.731  -7.288  0.00  0.00     0.031 H 
ATOM     24  H   LIG d   1       7.866  -5.116  -5.382  0.00  0.00     0.057 H 
ATOM     25  H   LIG d   1       7.486  -4.012  -3.381  0.00  0.00     0.057 H 
ATOM     26  H   LIG d   1       4.454  -2.066  -4.448  0.00  0.00     0.027 H 
ATOM     27  H   LIG d   1       4.965  -3.442  -3.443  0.00  0.00     0.027 H 
ATOM     28  H   LIG d   1       2.817  -2.510  -2.639  0.00  0.00     0.026 H 
ATOM     29  H   LIG d   1       4.101  -2.288  -1.425  0.00  0.00     0.026 H 
ATOM     30  H   LIG d   1       3.171  -0.186  -3.434  0.00  0.00     0.027 H 
ATOM     31  H   LIG d   1       2.764  -0.215  -1.702  0.00  0.00     0.027 H 
ATOM     32  H   LIG d   1       5.184  -0.087  -1.105  0.00  0.00     0.029 H 
ATOM     33  H   LIG d   1       4.665   1.293  -2.101  0.00  0.00     0.029 H 
ENDROOT
BRANCH   1  34
ATOM     34  C   LIG d   1       7.714   0.710  -5.219  0.00  0.00     0.015 C 
BRANCH  34  35
ATOM     35  C   LIG d   1       7.584   1.591  -3.975  0.00  0.00    -0.055 C 
ATOM     36  H   LIG d   1       8.388   2.326  -3.965  0.00  0.00     0.024 H 
ATOM     37  H   LIG d   1       6.622   2.104  -3.992  0.00  0.00     0.024 H 
ATOM     38  H   LIG d   1       7.648   0.970  -3.081  0.00  0.00     0.024 H 
ENDBRANCH  34  35
BRANCH  34  39
ATOM     39  C   LIG d   1       8.800  -0.342  -4.987  0.00  0.00    -0.055 C 
ATOM     40  H   LIG d   1       8.899  -0.965  -5.877  0.00  0.00     0.024 H 
ATOM     41  H   LIG d   1       9.750   0.155  -4.785  0.00  0.00     0.024 H 
ATOM     42  H   LIG d   1       8.528  -0.964  -4.136  0.00  0.00     0.024 H 
ENDBRANCH  34  39
BRANCH  34  43
ATOM     43  C   LIG d   1       8.092   1.578  -6.421  0.00  0.00     0.052 C 
ATOM     44  H   LIG d   1       8.277   2.599  -6.089  0.00  0.00     0.056 H 
ATOM     45  H   LIG d   1       8.993   1.179  -6.889  0.00  0.00     0.056 H 
BRANCH  43  46
ATOM     46  O   LIG d   1       7.021   1.572  -7.368  0.00  0.00    -0.394 OA
ATOM     47  H   LIG d   1       6.324   2.214  -7.177  0.00  0.00     0.209 HD
ENDBRANCH  43  46
ENDBRANCH  34  43
ENDBRANCH   1  34
TORSDOF 5
ENDMDL
MODEL 3
REMARK VINA RESULT:      -5.9      1.529      4.844
REMARK  5 active torsions:
REMARK  status: ('A' for Active; 'I' for Inactive)
REMARK    1  A    between atoms: C_1  and  C_2 
REMARK    2  A    between atoms: C_2  and  C_3 
REMARK    3  A    between atoms: C_2  and  C_4 
REMARK    4  A    between atoms: C_2  and  C_6 
REMARK    5  A    between atoms: C_4  and  O_5 
ROOT
ATOM      1  C   LIG d   1       6.074  -1.148  -5.348  0.00  0.00     0.070 C 
ATOM      2  H   LIG d   1       7.105  -0.861  -5.550  0.00  0.00     0.060 H 
ATOM      3  C   LIG d   1       5.127  -0.232  -6.120  0.00  0.00    -0.007 C 
ATOM      4  H   LIG d   1       5.294   0.801  -5.814  0.00  0.00     0.033 H 
ATOM      5  C   LIG d   1       5.322  -0.338  -7.632  0.00  0.00    -0.044 C 
ATOM      6  C   LIG d   1       4.470   0.749  -8.296  0.00  0.00    -0.034 C 
ATOM      7  C   LIG d   1       3.093   0.793  -7.705  0.00  0.00    -0.088 C 
ATOM      8  C   LIG d   1       2.740   0.199  -6.605  0.00  0.00    -0.084 C 
ATOM      9  C   LIG d   1       3.684  -0.634  -5.799  0.00  0.00    -0.013 C 
ATOM     10  H   LIG d   1       3.543  -1.682  -6.060  0.00  0.00     0.035 H 
ATOM     11  C   LIG d   1       3.473  -0.465  -4.295  0.00  0.00    -0.008 C 
ATOM     12  H   LIG d   1       2.463  -0.774  -4.027  0.00  0.00     0.033 H 
ATOM     13  C   LIG d   1       3.706   0.999  -3.912  0.00  0.00    -0.047 C 
ATOM     14  C   LIG d   1       3.549   1.166  -2.400  0.00  0.00    -0.053 C 
ATOM     15  C   LIG d   1       4.578   0.289  -1.683  0.00  0.00    -0.051 C 
ATOM     16  C   LIG d   1       4.305  -1.172  -2.051  0.00  0.00    -0.026 C 
ATOM     17  C   LIG d   1       4.470  -1.348  -3.560  0.00  0.00     0.062 C 
ATOM     18  H   LIG d   1       4.272  -2.386  -3.823  0.00  0.00     0.060 H 
ATOM     19  O   LIG d   1       5.799  -1.010  -3.949  0.00  0.00    -0.372 OA
ATOM     20  H   LIG d   1       5.000  -1.321  -7.977  0.00  0.00     0.027 H 
ATOM     21  H   LIG d   1       6.372  -0.186  -7.880  0.00  0.00     0.027 H 
ATOM     22  H   LIG d   1       4.394   0.540  -9.364  0.00  0.00     0.031 H 
ATOM     23  H   LIG d   1       4.951   1.716  -8.155  0.00  0.00     0.031 H 
ATOM     24  H   LIG d   1       2.340   1.360  -8.231  0.00  0.00     0.057 H 
ATOM     25  H   LIG d   1       1.722   0.310  -6.260  0.00  0.00     0.057 H 
ATOM     26  H   LIG d   1       4.713   1.295  -4.208  0.00  0.00     0.027 H 
ATOM     27  H   LIG d   1       2.978   1.628  -4.423  0.00  0.00     0.027 H 
ATOM     28  H   LIG d   1       3.711   2.209  -2.131  0.00  0.00     0.026 H 
ATOM     29  H   LIG d   1       2.545   0.865  -2.103  0.00  0.00     0.026 H 
ATOM     30  H   LIG d   1       5.582   0.586  -1.983  0.00  0.00     0.027 H 
ATOM     31  H   LIG d   1       4.470   0.408  -0.605  0.00  0.00     0.027 H 
ATOM     32  H   LIG d   1       3.296  -1.467  -1.760  0.00  0.00     0.029 H 
ATOM     33  H   LIG d   1       5.029  -1.799  -1.532  0.00  0.00     0.029 H 
ENDROOT
BRANCH   1  34
ATOM     34  C   LIG d   1       5.850  -2.599  -5.780  0.00  0.00     0.015 C 
BRANCH  34  35
ATOM     35  C   LIG d   1       7.023  -3.061  -6.646  0.00  0.00    -0.055 C 
ATOM     36  H   LIG d   1       7.154  -2.371  -7.478  0.00  0.00     0.024 H 
ATOM     37  H   LIG d   1       7.932  -3.082  -6.045  0.00  0.00     0.024 H 
ATOM     38  H   LIG d   1       6.820  -4.060  -7.031  0.00  0.00     0.024 H 
ENDBRANCH  34  35
BRANCH  34  39
ATOM     39  C   LIG d   1       5.749  -3.490  -4.540  0.00  0.00    -0.055 C 
ATOM     40  H   LIG d   1       6.705  -3.492  -4.016  0.00  0.00     0.024 H 
ATOM     41  H   LIG d   1       4.972  -3.105  -3.878  0.00  0.00     0.024 H 
ATOM     42  H   LIG d   1       5.498  -4.506  -4.843  0.00  0.00     0.024 H 
ENDBRANCH  34  39
BRANCH  34  43
ATOM     43  C   LIG d   1       4.552  -2.696  -6.585  0.00  0.00     0.052 C 
ATOM     44  H   LIG d   1       3.926  -1.830  -6.373  0.00  0.00     0.056 H 
ATOM     45  H   LIG d   1       4.786  -2.723  -7.650  0.00  0.00     0.056 H 
BRANCH  43  46
ATOM     46  O   LIG d   1       3.855  -3.889  -6.221  0.00  0.00    -0.394 OA
ATOM     47  H   LIG d   1       3.082  -4.076  -6.771  0.00  0.00     0.209 HD
ENDBRANCH  43  46
ENDBRANCH  34  43
ENDBRANCH   1  34
TORSDOF 5
ENDMDL
MODEL 4
REMARK VINA RESULT:      -5.7      2.211      4.753
REMARK  5 active torsions:
REMARK  status: ('A' for Active; 'I' for Inactive)
REMARK    1  A    between atoms: C_1  and  C_2 
REMARK    2  A    between atoms: C_2  and  C_3 
REMARK    3  A    between atoms: C_2  and  C_4 
REMARK    4  A    between atoms: C_2  and  C_6 
REMARK    5  A    between atoms: C_4  and  O_5 
ROOT
ATOM      1  C   LIG d   1       5.562  -1.028  -5.723  0.00  0.00     0.070 C 
ATOM      2  H   LIG d   1       5.015  -0.819  -6.642  0.00  0.00     0.060 H 
ATOM      3  C   LIG d   1       4.920  -0.274  -4.562  0.00  0.00    -0.007 C 
ATOM      4  H   LIG d   1       4.938   0.796  -4.771  0.00  0.00     0.033 H 
ATOM      5  C   LIG d   1       3.475  -0.706  -4.317  0.00  0.00    -0.044 C 
ATOM      6  C   LIG d   1       2.870   0.236  -3.271  0.00  0.00    -0.034 C 
ATOM      7  C   LIG d   1       3.811   0.442  -2.122  0.00  0.00    -0.088 C 
ATOM      8  C   LIG d   1       5.065   0.107  -2.121  0.00  0.00    -0.084 C 
ATOM      9  C   LIG d   1       5.722  -0.559  -3.288  0.00  0.00    -0.013 C 
ATOM     10  H   LIG d   1       5.742  -1.635  -3.116  0.00  0.00     0.035 H 
ATOM     11  C   LIG d   1       7.151  -0.067  -3.512  0.00  0.00    -0.008 C 
ATOM     12  H   LIG d   1       7.759  -0.285  -2.634  0.00  0.00     0.033 H 
ATOM     13  C   LIG d   1       7.131   1.438  -3.791  0.00  0.00    -0.047 C 
ATOM     14  C   LIG d   1       8.552   1.928  -4.071  0.00  0.00    -0.053 C 
ATOM     15  C   LIG d   1       9.110   1.198  -5.294  0.00  0.00    -0.051 C 
ATOM     16  C   LIG d   1       9.156  -0.300  -4.980  0.00  0.00    -0.026 C 
ATOM     17  C   LIG d   1       7.737  -0.799  -4.710  0.00  0.00     0.062 C 
ATOM     18  H   LIG d   1       7.769  -1.864  -4.483  0.00  0.00     0.060 H 
ATOM     19  O   LIG d   1       6.918  -0.587  -5.858  0.00  0.00    -0.372 OA
ATOM     20  H   LIG d   1       3.455  -1.731  -3.946  0.00  0.00     0.027 H 
ATOM     21  H   LIG d   1       2.908  -0.638  -5.245  0.00  0.00     0.027 H 
ATOM     22  H   LIG d   1       1.939  -0.194  -2.898  0.00  0.00     0.031 H 
ATOM     23  H   LIG d   1       2.658   1.198  -3.736  0.00  0.00     0.031 H 
ATOM     24  H   LIG d   1       3.417   0.904  -1.229  0.00  0.00     0.057 H 
ATOM     25  H   LIG d   1       5.658   0.316  -1.243  0.00  0.00     0.057 H 
ATOM     26  H   LIG d   1       6.501   1.637  -4.659  0.00  0.00     0.027 H 
ATOM     27  H   LIG d   1       6.730   1.962  -2.924  0.00  0.00     0.027 H 
ATOM     28  H   LIG d   1       8.535   3.001  -4.264  0.00  0.00     0.026 H 
ATOM     29  H   LIG d   1       9.183   1.725  -3.206  0.00  0.00     0.026 H 
ATOM     30  H   LIG d   1       8.477   1.397  -6.158  0.00  0.00     0.027 H 
ATOM     31  H   LIG d   1      10.123   1.548  -5.496  0.00  0.00     0.027 H 
ATOM     32  H   LIG d   1       9.781  -0.499  -4.109  0.00  0.00     0.029 H 
ATOM     33  H   LIG d   1       9.565  -0.821  -5.846  0.00  0.00     0.029 H 
ENDROOT
BRANCH   1  34
ATOM     34  C   LIG d   1       5.532  -2.532  -5.438  0.00  0.00     0.015 C 
BRANCH  34  35
ATOM     35  C   LIG d   1       6.949  -3.099  -5.539  0.00  0.00    -0.055 C 
ATOM     36  H   LIG d   1       6.937  -4.156  -5.278  0.00  0.00     0.024 H 
ATOM     37  H   LIG d   1       7.317  -2.979  -6.558  0.00  0.00     0.024 H 
ATOM     38  H   LIG d   1       7.604  -2.563  -4.852  0.00  0.00     0.024 H 
ENDBRANCH  34  35
BRANCH  34  39
ATOM     39  C   LIG d   1       4.985  -2.773  -4.030  0.00  0.00    -0.055 C 
ATOM     40  H   LIG d   1       5.812  -2.967  -3.347  0.00  0.00     0.024 H 
ATOM     41  H   LIG d   1       4.438  -1.891  -3.696  0.00  0.00     0.024 H 
ATOM     42  H   LIG d   1       4.315  -3.633  -4.043  0.00  0.00     0.024 H 
ENDBRANCH  34  39
BRANCH  34  43
ATOM     43  C   LIG d   1       4.631  -3.226  -6.462  0.00  0.00     0.052 C 
ATOM     44  H   LIG d   1       4.003  -2.485  -6.956  0.00  0.00     0.056 H 
ATOM     45  H   LIG d   1       5.247  -3.734  -7.204  0.00  0.00     0.056 H 
BRANCH  43  46
ATOM     46  O   LIG d   1       3.804  -4.183  -5.796  0.00  0.00    -0.394 OA
ATOM     47  H   LIG d   1       2.998  -3.808  -5.414  0.00  0.00     0.209 HD
ENDBRANCH  43  46
ENDBRANCH  34  43
ENDBRANCH   1  34
TORSDOF 5
ENDMDL
MODEL 5
REMARK VINA RESULT:      -5.6      1.547      4.410
REMARK  5 active torsions:
REMARK  status: ('A' for Active; 'I' for Inactive)
REMARK    1  A    between atoms: C_1  and  C_2 
REMARK    2  A    between atoms: C_2  and  C_3 
REMARK    3  A    between atoms: C_2  and  C_4 
REMARK    4  A    between atoms: C_2  and  C_6 
REMARK    5  A    between atoms: C_4  and  O_5 
ROOT
ATOM      1  C   LIG d   1       4.932  -0.525  -6.240  0.00  0.00     0.070 C 
ATOM      2  H   LIG d   1       4.154  -0.087  -6.863  0.00  0.00     0.060 H 
ATOM      3  C   LIG d   1       4.637  -2.007  -6.018  0.00  0.00    -0.007 C 
ATOM      4  H   LIG d   1       3.666  -2.113  -5.533  0.00  0.00     0.033 H 
ATOM      5  C   LIG d   1       4.628  -2.798  -7.325  0.00  0.00    -0.044 C 
ATOM      6  C   LIG d   1       4.137  -4.217  -7.015  0.00  0.00    -0.034 C 
ATOM      7  C   LIG d   1       4.810  -4.766  -5.794  0.00  0.00    -0.088 C 
ATOM      8  C   LIG d   1       5.501  -4.064  -4.948  0.00  0.00    -0.084 C 
ATOM      9  C   LIG d   1       5.726  -2.595  -5.115  0.00  0.00    -0.013 C 
ATOM     10  H   LIG d   1       6.697  -2.436  -5.584  0.00  0.00     0.035 H 
ATOM     11  C   LIG d   1       5.691  -1.844  -3.785  0.00  0.00    -0.008 C 
ATOM     12  H   LIG d   1       6.477  -2.217  -3.129  0.00  0.00     0.033 H 
ATOM     13  C   LIG d   1       4.317  -2.029  -3.135  0.00  0.00    -0.047 C 
ATOM     14  C   LIG d   1       4.255  -1.236  -1.829  0.00  0.00    -0.053 C 
ATOM     15  C   LIG d   1       4.474   0.249  -2.126  0.00  0.00    -0.051 C 
ATOM     16  C   LIG d   1       5.867   0.416  -2.741  0.00  0.00    -0.026 C 
ATOM     17  C   LIG d   1       5.932  -0.366  -4.052  0.00  0.00     0.062 C 
ATOM     18  H   LIG d   1       6.923  -0.251  -4.488  0.00  0.00     0.060 H 
ATOM     19  O   LIG d   1       4.956   0.130  -4.966  0.00  0.00    -0.372 OA
ATOM     20  H   LIG d   1       5.636  -2.839  -7.738  0.00  0.00     0.027 H 
ATOM     21  H   LIG d   1       3.955  -2.323  -8.038  0.00  0.00     0.027 H 
ATOM     22  H   LIG d   1       4.355  -4.864  -7.866  0.00  0.00     0.031 H 
ATOM     23  H   LIG d   1       3.060  -4.194  -6.850  0.00  0.00     0.031 H 
ATOM     24  H   LIG d   1       4.713  -5.824  -5.602  0.00  0.00     0.057 H 
ATOM     25  H   LIG d   1       5.931  -4.559  -4.090  0.00  0.00     0.057 H 
ATOM     26  H   LIG d   1       3.543  -1.670  -3.815  0.00  0.00     0.027 H 
ATOM     27  H   LIG d   1       4.154  -3.086  -2.926  0.00  0.00     0.027 H 
ATOM     28  H   LIG d   1       3.278  -1.374  -1.367  0.00  0.00     0.026 H 
ATOM     29  H   LIG d   1       5.031  -1.590  -1.151  0.00  0.00     0.026 H 
ATOM     30  H   LIG d   1       3.701   0.603  -2.807  0.00  0.00     0.027 H 
ATOM     31  H   LIG d   1       4.428   0.817  -1.196  0.00  0.00     0.027 H 
ATOM     32  H   LIG d   1       6.639   0.053  -2.063  0.00  0.00     0.029 H 
ATOM     33  H   LIG d   1       6.030   1.475  -2.942  0.00  0.00     0.029 H 
ENDROOT
BRANCH   1  34
ATOM     34  C   LIG d   1       6.291  -0.370  -6.927  0.00  0.00     0.015 C 
BRANCH  34  35
ATOM     35  C   LIG d   1       7.186   0.543  -6.088  0.00  0.00    -0.055 C 
ATOM     36  H   LIG d   1       7.436   1.434  -6.662  0.00  0.00     0.024 H 
ATOM     37  H   LIG d   1       6.660   0.832  -5.178  0.00  0.00     0.024 H 
ATOM     38  H   LIG d   1       8.101   0.012  -5.824  0.00  0.00     0.024 H 
ENDBRANCH  34  35
BRANCH  34  39
ATOM     39  C   LIG d   1       6.951  -1.743  -7.068  0.00  0.00    -0.055 C 
ATOM     40  H   LIG d   1       7.572  -1.939  -6.193  0.00  0.00     0.024 H 
ATOM     41  H   LIG d   1       6.181  -2.511  -7.146  0.00  0.00     0.024 H 
ATOM     42  H   LIG d   1       7.570  -1.758  -7.964  0.00  0.00     0.024 H 
ENDBRANCH  34  39
BRANCH  34  43
ATOM     43  C   LIG d   1       6.092   0.245  -8.314  0.00  0.00     0.052 C 
ATOM     44  H   LIG d   1       7.055   0.567  -8.711  0.00  0.00     0.056 H 
ATOM     45  H   LIG d   1       5.653  -0.497  -8.982  0.00  0.00     0.056 H 
BRANCH  43  46
ATOM     46  O   LIG d   1       5.218   1.372  -8.215  0.00  0.00    -0.394 OA
ATOM     47  H   LIG d   1       5.556   2.083  -7.654  0.00  0.00     0.209 HD
ENDBRANCH  43  46
ENDBRANCH  34  43
ENDBRANCH   1  34
TORSDOF 5
ENDMDL
MODEL 6
REMARK VINA RESULT:      -5.5      1.941      4.308
REMARK  5 active torsions:
REMARK  status: ('A' for Active; 'I' for Inactive)
REMARK    1  A    between atoms: C_1  and  C_2 
REMARK    2  A    between atoms: C_2  and  C_3 
REMARK    3  A    between atoms: C_2  and  C_4 
REMARK    4  A    between atoms: C_2  and  C_6 
REMARK    5  A    between atoms: C_4  and  O_5 
ROOT
ATOM      1  C   LIG d   1       4.666  -3.514  -5.289  0.00  0.00     0.070 C 
ATOM      2  H   LIG d   1       4.234  -4.501  -5.128  0.00  0.00     0.060 H 
ATOM      3  C   LIG d   1       6.044  -3.444  -4.637  0.00  0.00    -0.007 C 
ATOM      4  H   LIG d   1       5.949  -3.640  -3.569  0.00  0.00     0.033 H 
ATOM      5  C   LIG d   1       7.023  -4.450  -5.240  0.00  0.00    -0.044 C 
ATOM      6  C   LIG d   1       8.301  -4.432  -4.394  0.00  0.00    -0.034 C 
ATOM      7  C   LIG d   1       8.734  -3.027  -4.101  0.00  0.00    -0.088 C 
ATOM      8  C   LIG d   1       8.001  -1.972  -4.286  0.00  0.00    -0.084 C 
ATOM      9  C   LIG d   1       6.617  -2.039  -4.849  0.00  0.00    -0.013 C 
ATOM     10  H   LIG d   1       6.660  -1.833  -5.918  0.00  0.00     0.035 H 
ATOM     11  C   LIG d   1       5.669  -1.039  -4.189  0.00  0.00    -0.008 C 
ATOM     12  H   LIG d   1       6.032  -0.025  -4.350  0.00  0.00     0.033 H 
ATOM     13  C   LIG d   1       5.574  -1.344  -2.692  0.00  0.00    -0.047 C 
ATOM     14  C   LIG d   1       4.585  -0.382  -2.033  0.00  0.00    -0.053 C 
ATOM     15  C   LIG d   1       3.205  -0.557  -2.670  0.00  0.00    -0.051 C 
ATOM     16  C   LIG d   1       3.315  -0.213  -4.159  0.00  0.00    -0.026 C 
ATOM     17  C   LIG d   1       4.294  -1.178  -4.825  0.00  0.00     0.062 C 
ATOM     18  H   LIG d   1       4.376  -0.931  -5.883  0.00  0.00     0.060 H 
ATOM     19  O   LIG d   1       3.828  -2.518  -4.689  0.00  0.00    -0.372 OA
ATOM     20  H   LIG d   1       7.256  -4.168  -6.267  0.00  0.00     0.027 H 
ATOM     21  H   LIG d   1       6.584  -5.448  -5.222  0.00  0.00     0.027 H 
ATOM     22  H   LIG d   1       9.096  -4.945  -4.938  0.00  0.00     0.031 H 
ATOM     23  H   LIG d   1       8.116  -4.953  -3.455  0.00  0.00     0.031 H 
ATOM     24  H   LIG d   1       9.728  -2.882  -3.705  0.00  0.00     0.057 H 
ATOM     25  H   LIG d   1       8.407  -1.005  -4.025  0.00  0.00     0.057 H 
ATOM     26  H   LIG d   1       5.231  -2.370  -2.552  0.00  0.00     0.027 H 
ATOM     27  H   LIG d   1       6.555  -1.225  -2.234  0.00  0.00     0.027 H 
ATOM     28  H   LIG d   1       4.523  -0.598  -0.967  0.00  0.00     0.026 H 
ATOM     29  H   LIG d   1       4.925   0.644  -2.177  0.00  0.00     0.026 H 
ATOM     30  H   LIG d   1       2.867  -1.583  -2.531  0.00  0.00     0.027 H 
ATOM     31  H   LIG d   1       2.498   0.127  -2.201  0.00  0.00     0.027 H 
ATOM     32  H   LIG d   1       3.663   0.811  -4.298  0.00  0.00     0.029 H 
ATOM     33  H   LIG d   1       2.330  -0.325  -4.612  0.00  0.00     0.029 H 
ENDROOT
BRANCH   1  34
ATOM     34  C   LIG d   1       4.794  -3.247  -6.790  0.00  0.00     0.015 C 
BRANCH  34  35
ATOM     35  C   LIG d   1       4.141  -1.905  -7.128  0.00  0.00    -0.055 C 
ATOM     36  H   LIG d   1       4.414  -1.168  -6.374  0.00  0.00     0.024 H 
ATOM     37  H   LIG d   1       4.485  -1.570  -8.107  0.00  0.00     0.024 H 
ATOM     38  H   LIG d   1       3.058  -2.023  -7.146  0.00  0.00     0.024 H 
ENDBRANCH  34  35
BRANCH  34  39
ATOM     39  C   LIG d   1       6.274  -3.205  -7.176  0.00  0.00    -0.055 C 
ATOM     40  H   LIG d   1       6.874  -3.606  -6.359  0.00  0.00     0.024 H 
ATOM     41  H   LIG d   1       6.433  -3.806  -8.072  0.00  0.00     0.024 H 
ATOM     42  H   LIG d   1       6.569  -2.175  -7.373  0.00  0.00     0.024 H 
ENDBRANCH  34  39
BRANCH  34  43
ATOM     43  C   LIG d   1       4.095  -4.364  -7.568  0.00  0.00     0.052 C 
ATOM     44  H   LIG d   1       3.570  -3.940  -8.423  0.00  0.00     0.056 H 
ATOM     45  H   LIG d   1       4.837  -5.083  -7.918  0.00  0.00     0.056 H 
BRANCH  43  46
ATOM     46  O   LIG d   1       3.159  -5.025  -6.714  0.00  0.00    -0.394 OA
ATOM     47  H   LIG d   1       3.470  -5.874  -6.371  0.00  0.00     0.209 HD
ENDBRANCH  43  46
ENDBRANCH  34  43
ENDBRANCH   1  34
TORSDOF 5
ENDMDL
MODEL 7
REMARK VINA RESULT:      -5.2      1.630      3.647
REMARK  5 active torsions:
REMARK  status: ('A' for Active; 'I' for Inactive)
REMARK    1  A    between atoms: C_1  and  C_2 
REMARK    2  A    between atoms: C_2  and  C_3 
REMARK    3  A    between atoms: C_2  and  C_4 
REMARK    4  A    between atoms: C_2  and  C_6 
REMARK    5  A    between atoms: C_4  and  O_5 
ROOT
ATOM      1  C   LIG d   1       5.125  -2.864  -5.700  0.00  0.00     0.070 C 
ATOM      2  H   LIG d   1       4.750  -3.887  -5.718  0.00  0.00     0.060 H 
ATOM      3  C   LIG d   1       4.380  -2.063  -4.635  0.00  0.00    -0.007 C 
ATOM      4  H   LIG d   1       3.313  -2.065  -4.862  0.00  0.00     0.033 H 
ATOM      5  C   LIG d   1       4.588  -2.629  -3.231  0.00  0.00    -0.044 C 
ATOM      6  C   LIG d   1       3.654  -1.879  -2.275  0.00  0.00    -0.034 C 
ATOM      7  C   LIG d   1       3.706  -0.401  -2.519  0.00  0.00    -0.088 C 
ATOM      8  C   LIG d   1       4.241   0.161  -3.560  0.00  0.00    -0.084 C 
ATOM      9  C   LIG d   1       4.902  -0.623  -4.648  0.00  0.00    -0.013 C 
ATOM     10  H   LIG d   1       5.978  -0.636  -4.473  0.00  0.00     0.035 H 
ATOM     11  C   LIG d   1       4.634  -0.038  -6.034  0.00  0.00    -0.008 C 
ATOM     12  H   LIG d   1       5.025   0.978  -6.088  0.00  0.00     0.033 H 
ATOM     13  C   LIG d   1       3.128  -0.050  -6.306  0.00  0.00    -0.047 C 
ATOM     14  C   LIG d   1       2.855   0.484  -7.713  0.00  0.00    -0.053 C 
ATOM     15  C   LIG d   1       3.558  -0.407  -8.739  0.00  0.00    -0.051 C 
ATOM     16  C   LIG d   1       5.065  -0.353  -8.472  0.00  0.00    -0.026 C 
ATOM     17  C   LIG d   1       5.345  -0.894  -7.071  0.00  0.00     0.062 C 
ATOM     18  H   LIG d   1       6.417  -0.852  -6.879  0.00  0.00     0.060 H 
ATOM     19  O   LIG d   1       4.903  -2.246  -6.972  0.00  0.00    -0.372 OA
ATOM     20  H   LIG d   1       5.624  -2.482  -2.925  0.00  0.00     0.027 H 
ATOM     21  H   LIG d   1       4.348  -3.692  -3.223  0.00  0.00     0.027 H 
ATOM     22  H   LIG d   1       3.956  -2.083  -1.247  0.00  0.00     0.031 H 
ATOM     23  H   LIG d   1       2.633  -2.230  -2.425  0.00  0.00     0.031 H 
ATOM     24  H   LIG d   1       3.265   0.245  -1.774  0.00  0.00     0.057 H 
ATOM     25  H   LIG d   1       4.209   1.237  -3.643  0.00  0.00     0.057 H 
ATOM     26  H   LIG d   1       2.753  -1.071  -6.226  0.00  0.00     0.027 H 
ATOM     27  H   LIG d   1       2.622   0.580  -5.575  0.00  0.00     0.027 H 
ATOM     28  H   LIG d   1       1.782   0.478  -7.902  0.00  0.00     0.026 H 
ATOM     29  H   LIG d   1       3.234   1.502  -7.795  0.00  0.00     0.026 H 
ATOM     30  H   LIG d   1       3.183  -1.427  -8.655  0.00  0.00     0.027 H 
ATOM     31  H   LIG d   1       3.363  -0.030  -9.743  0.00  0.00     0.027 H 
ATOM     32  H   LIG d   1       5.438   0.669  -8.547  0.00  0.00     0.029 H 
ATOM     33  H   LIG d   1       5.569  -0.977  -9.210  0.00  0.00     0.029 H 
ENDROOT
BRANCH   1  34
ATOM     34  C   LIG d   1       6.622  -2.872  -5.381  0.00  0.00     0.015 C 
BRANCH  34  35
ATOM     35  C   LIG d   1       7.054  -4.286  -4.991  0.00  0.00    -0.055 C 
ATOM     36  H   LIG d   1       7.483  -4.272  -3.990  0.00  0.00     0.024 H 
ATOM     37  H   LIG d   1       6.188  -4.948  -5.006  0.00  0.00     0.024 H 
ATOM     38  H   LIG d   1       7.799  -4.648  -5.700  0.00  0.00     0.024 H 
ENDBRANCH  34  35
BRANCH  34  39
ATOM     39  C   LIG d   1       7.408  -2.421  -6.614  0.00  0.00    -0.055 C 
ATOM     40  H   LIG d   1       8.224  -1.767  -6.306  0.00  0.00     0.024 H 
ATOM     41  H   LIG d   1       7.816  -3.294  -7.124  0.00  0.00     0.024 H 
ATOM     42  H   LIG d   1       6.746  -1.882  -7.290  0.00  0.00     0.024 H 
ENDBRANCH  34  39
BRANCH  34  43
ATOM     43  C   LIG d   1       6.901  -1.914  -4.221  0.00  0.00     0.052 C 
ATOM     44  H   LIG d   1       7.032  -0.904  -4.606  0.00  0.00     0.056 H 
ATOM     45  H   LIG d   1       6.061  -1.932  -3.525  0.00  0.00     0.056 H 
BRANCH  43  46
ATOM     46  O   LIG d   1       8.090  -2.324  -3.541  0.00  0.00    -0.394 OA
ATOM     47  H   LIG d   1       8.890  -1.873  -3.843  0.00  0.00     0.209 HD
ENDBRANCH  43  46
ENDBRANCH  34  43
ENDBRANCH   1  34
TORSDOF 5
ENDMDL
MODEL 8
REMARK VINA RESULT:      -5.1      1.697      4.384
REMARK  5 active torsions:
REMARK  status: ('A' for Active; 'I' for Inactive)
REMARK    1  A    between atoms: C_1  and  C_2 
REMARK    2  A    between atoms: C_2  and  C_3 
REMARK    3  A    between atoms: C_2  and  C_4 
REMARK    4  A    between atoms: C_2  and  C_6 
REMARK    5  A    between atoms: C_4  and  O_5 
ROOT
ATOM      1  C   LIG d   1       5.812  -0.217  -5.638  0.00  0.00     0.070 C 
ATOM      2  H   LIG d   1       6.194   0.774  -5.877  0.00  0.00     0.060 H 
ATOM      3  C   LIG d   1       5.509  -0.304  -4.144  0.00  0.00    -0.007 C 
ATOM      4  H   LIG d   1       6.421  -0.109  -3.579  0.00  0.00     0.033 H 
ATOM      5  C   LIG d   1       4.435   0.693  -3.711  0.00  0.00    -0.044 C 
ATOM      6  C   LIG d   1       4.347   0.659  -2.182  0.00  0.00    -0.034 C 
ATOM      7  C   LIG d   1       4.330  -0.751  -1.673  0.00  0.00    -0.088 C 
ATOM      8  C   LIG d   1       4.625  -1.798  -2.381  0.00  0.00    -0.084 C 
ATOM      9  C   LIG d   1       5.003  -1.714  -3.826  0.00  0.00    -0.013 C 
ATOM     10  H   LIG d   1       4.122  -1.919  -4.435  0.00  0.00     0.035 H 
ATOM     11  C   LIG d   1       6.104  -2.705  -4.200  0.00  0.00    -0.008 C 
ATOM     12  H   LIG d   1       5.762  -3.723  -4.016  0.00  0.00     0.033 H 
ATOM     13  C   LIG d   1       7.359  -2.402  -3.377  0.00  0.00    -0.047 C 
ATOM     14  C   LIG d   1       8.483  -3.355  -3.785  0.00  0.00    -0.053 C 
ATOM     15  C   LIG d   1       8.798  -3.164  -5.270  0.00  0.00    -0.051 C 
ATOM     16  C   LIG d   1       7.542  -3.506  -6.076  0.00  0.00    -0.026 C 
ATOM     17  C   LIG d   1       6.417  -2.550  -5.680  0.00  0.00     0.062 C 
ATOM     18  H   LIG d   1       5.522  -2.796  -6.251  0.00  0.00     0.060 H 
ATOM     19  O   LIG d   1       6.798  -1.205  -5.960  0.00  0.00    -0.372 OA
ATOM     20  H   LIG d   1       3.475   0.410  -4.142  0.00  0.00     0.027 H 
ATOM     21  H   LIG d   1       4.708   1.695  -4.042  0.00  0.00     0.027 H 
ATOM     22  H   LIG d   1       3.434   1.165  -1.865  0.00  0.00     0.031 H 
ATOM     23  H   LIG d   1       5.208   1.180  -1.763  0.00  0.00     0.031 H 
ATOM     24  H   LIG d   1       4.053  -0.907  -0.641  0.00  0.00     0.057 H 
ATOM     25  H   LIG d   1       4.596  -2.769  -1.910  0.00  0.00     0.057 H 
ATOM     26  H   LIG d   1       7.671  -1.373  -3.558  0.00  0.00     0.027 H 
ATOM     27  H   LIG d   1       7.138  -2.533  -2.318  0.00  0.00     0.027 H 
ATOM     28  H   LIG d   1       9.373  -3.140  -3.194  0.00  0.00     0.026 H 
ATOM     29  H   LIG d   1       8.169  -4.384  -3.609  0.00  0.00     0.026 H 
ATOM     30  H   LIG d   1       9.107  -2.134  -5.447  0.00  0.00     0.027 H 
ATOM     31  H   LIG d   1       9.601  -3.841  -5.561  0.00  0.00     0.027 H 
ATOM     32  H   LIG d   1       7.226  -4.533  -5.891  0.00  0.00     0.029 H 
ATOM     33  H   LIG d   1       7.768  -3.382  -7.135  0.00  0.00     0.029 H 
ENDROOT
BRANCH   1  34
ATOM     34  C   LIG d   1       4.534  -0.482  -6.436  0.00  0.00     0.015 C 
BRANCH  34  35
ATOM     35  C   LIG d   1       4.530  -1.931  -6.927  0.00  0.00    -0.055 C 
ATOM     36  H   LIG d   1       3.999  -1.992  -7.877  0.00  0.00     0.024 H 
ATOM     37  H   LIG d   1       5.556  -2.273  -7.062  0.00  0.00     0.024 H 
ATOM     38  H   LIG d   1       4.031  -2.563  -6.192  0.00  0.00     0.024 H 
ENDBRANCH  34  35
BRANCH  34  39
ATOM     39  C   LIG d   1       3.315  -0.244  -5.543  0.00  0.00    -0.055 C 
ATOM     40  H   LIG d   1       3.589  -0.413  -4.502  0.00  0.00     0.024 H 
ATOM     41  H   LIG d   1       2.971   0.784  -5.665  0.00  0.00     0.024 H 
ATOM     42  H   LIG d   1       2.517  -0.930  -5.826  0.00  0.00     0.024 H 
ENDBRANCH  34  39
BRANCH  34  43
ATOM     43  C   LIG d   1       4.478   0.463  -7.638  0.00  0.00     0.052 C 
ATOM     44  H   LIG d   1       4.203  -0.098  -8.531  0.00  0.00     0.056 H 
ATOM     45  H   LIG d   1       3.737   1.242  -7.455  0.00  0.00     0.056 H 
BRANCH  43  46
ATOM     46  O   LIG d   1       5.761   1.064  -7.831  0.00  0.00    -0.394 OA
ATOM     47  H   LIG d   1       6.390   0.504  -8.306  0.00  0.00     0.209 HD
ENDBRANCH  43  46
ENDBRANCH  34  43
ENDBRANCH   1  34
TORSDOF 5
ENDMDL
MODEL 9
REMARK VINA RESULT:      -5.1      2.196      4.298
REMARK  5 active torsions:
REMARK  status: ('A' for Active; 'I' for Inactive)
REMARK    1  A    between atoms: C_1  and  C_2 
REMARK    2  A    between atoms: C_2  and  C_3 
REMARK    3  A    between atoms: C_2  and  C_4 
REMARK    4  A    between atoms: C_2  and  C_6 
REMARK    5  A    between atoms: C_4  and  O_5 
ROOT
ATOM      1  C   LIG d   1       7.287  -0.804  -3.739  0.00  0.00     0.070 C 
ATOM      2  H   LIG d   1       7.894  -0.836  -2.835  0.00  0.00     0.060 H 
ATOM      3  C   LIG d   1       5.824  -0.577  -3.366  0.00  0.00    -0.007 C 
ATOM      4  H   LIG d   1       5.486  -1.387  -2.718  0.00  0.00     0.033 H 
ATOM      5  C   LIG d   1       5.608   0.754  -2.648  0.00  0.00    -0.044 C 
ATOM      6  C   LIG d   1       4.159   0.795  -2.152  0.00  0.00    -0.034 C 
ATOM      7  C   LIG d   1       3.209   0.339  -3.219  0.00  0.00    -0.088 C 
ATOM      8  C   LIG d   1       3.559  -0.267  -4.312  0.00  0.00    -0.084 C 
ATOM      9  C   LIG d   1       4.986  -0.566  -4.648  0.00  0.00    -0.013 C 
ATOM     10  H   LIG d   1       5.364   0.211  -5.311  0.00  0.00     0.035 H 
ATOM     11  C   LIG d   1       5.153  -1.923  -5.330  0.00  0.00    -0.008 C 
ATOM     12  H   LIG d   1       4.593  -1.937  -6.266  0.00  0.00     0.033 H 
ATOM     13  C   LIG d   1       4.658  -3.027  -4.392  0.00  0.00    -0.047 C 
ATOM     14  C   LIG d   1       4.871  -4.392  -5.046  0.00  0.00    -0.053 C 
ATOM     15  C   LIG d   1       6.363  -4.596  -5.320  0.00  0.00    -0.051 C 
ATOM     16  C   LIG d   1       6.829  -3.505  -6.288  0.00  0.00    -0.026 C 
ATOM     17  C   LIG d   1       6.627  -2.138  -5.635  0.00  0.00     0.062 C 
ATOM     18  H   LIG d   1       6.954  -1.361  -6.325  0.00  0.00     0.060 H 
ATOM     19  O   LIG d   1       7.390  -2.052  -4.434  0.00  0.00    -0.372 OA
ATOM     20  H   LIG d   1       5.784   1.578  -3.340  0.00  0.00     0.027 H 
ATOM     21  H   LIG d   1       6.290   0.831  -1.801  0.00  0.00     0.027 H 
ATOM     22  H   LIG d   1       3.909   1.816  -1.862  0.00  0.00     0.031 H 
ATOM     23  H   LIG d   1       4.060   0.143  -1.284  0.00  0.00     0.031 H 
ATOM     24  H   LIG d   1       2.158   0.529  -3.067  0.00  0.00     0.057 H 
ATOM     25  H   LIG d   1       2.790  -0.567  -5.009  0.00  0.00     0.057 H 
ATOM     26  H   LIG d   1       5.214  -2.982  -3.455  0.00  0.00     0.027 H 
ATOM     27  H   LIG d   1       3.597  -2.883  -4.191  0.00  0.00     0.027 H 
ATOM     28  H   LIG d   1       4.514  -5.175  -4.378  0.00  0.00     0.026 H 
ATOM     29  H   LIG d   1       4.320  -4.436  -5.986  0.00  0.00     0.026 H 
ATOM     30  H   LIG d   1       6.915  -4.549  -4.382  0.00  0.00     0.027 H 
ATOM     31  H   LIG d   1       6.518  -5.570  -5.784  0.00  0.00     0.027 H 
ATOM     32  H   LIG d   1       6.268  -3.546  -7.222  0.00  0.00     0.029 H 
ATOM     33  H   LIG d   1       7.888  -3.656  -6.494  0.00  0.00     0.029 H 
ENDROOT
BRANCH   1  34
ATOM     34  C   LIG d   1       7.768   0.333  -4.642  0.00  0.00     0.015 C 
BRANCH  34  35
ATOM     35  C   LIG d   1       9.142  -0.017  -5.216  0.00  0.00    -0.055 C 
ATOM     36  H   LIG d   1       9.018  -0.623  -6.112  0.00  0.00     0.024 H 
ATOM     37  H   LIG d   1       9.675   0.900  -5.468  0.00  0.00     0.024 H 
ATOM     38  H   LIG d   1       9.713  -0.577  -4.475  0.00  0.00     0.024 H 
ENDBRANCH  34  35
BRANCH  34  39
ATOM     39  C   LIG d   1       6.773   0.532  -5.787  0.00  0.00    -0.055 C 
ATOM     40  H   LIG d   1       7.189   0.117  -6.706  0.00  0.00     0.024 H 
ATOM     41  H   LIG d   1       5.839   0.022  -5.550  0.00  0.00     0.024 H 
ATOM     42  H   LIG d   1       6.582   1.596  -5.922  0.00  0.00     0.024 H 
ENDBRANCH  34  39
BRANCH  34  43
ATOM     43  C   LIG d   1       7.870   1.624  -3.826  0.00  0.00     0.052 C 
ATOM     44  H   LIG d   1       7.553   2.468  -4.438  0.00  0.00     0.056 H 
ATOM     45  H   LIG d   1       7.228   1.550  -2.947  0.00  0.00     0.056 H 
BRANCH  43  46
ATOM     46  O   LIG d   1       9.223   1.818  -3.411  0.00  0.00    -0.394 OA
ATOM     47  H   LIG d   1       9.324   2.440  -2.677  0.00  0.00     0.209 HD
ENDBRANCH  43  46
ENDBRANCH  34  43
ENDBRANCH   1  34
TORSDOF 5
ENDMDL
