MODEL 1
REMARK VINA RESULT:      -6.4      0.000      0.000
REMARK  4 active torsions:
REMARK  status: ('A' for Active; 'I' for Inactive)
REMARK    1  A    between atoms: C_1  and  S_2 
REMARK    2  A    between atoms: S_2  and  O_5 
REMARK    3  A    between atoms: O_5  and  C_6 
REMARK    4  A    between atoms: C_14  and  C_15 
ROOT
ATOM      1  C   LIG d   1       4.069  -2.691  -9.669  0.00  0.00     0.160 A 
ATOM      2  C   LIG d   1       4.099  -4.076  -9.538  0.00  0.00    -0.016 A 
ATOM      3  C   LIG d   1       4.229  -4.646  -8.303  0.00  0.00    -0.044 A 
ATOM      4  C   LIG d   1       4.329  -3.837  -7.171  0.00  0.00     0.068 A 
ATOM      5  C   LIG d   1       4.299  -2.437  -7.290  0.00  0.00     0.143 A 
ATOM      6  C   LIG d   1       4.173  -1.874  -8.554  0.00  0.00     0.026 A 
ATOM      7  O   LIG d   1       4.412  -1.873  -6.068  0.00  0.00    -0.451 OA
ATOM      8  C   LIG d   1       4.521  -2.805  -5.092  0.00  0.00     0.176 A 
ATOM      9  C   LIG d   1       4.648  -2.563  -3.763  0.00  0.00    -0.004 C 
ATOM     10  C   LIG d   1       4.475  -4.127  -5.733  0.00  0.00     0.232 A 
ATOM     11  O   LIG d   1       4.542  -5.220  -5.196  0.00  0.00    -0.283 OA
ATOM     12  H   LIG d   1       4.021  -4.702 -10.414  0.00  0.00     0.066 H 
ATOM     13  H   LIG d   1       4.252  -5.721  -8.203  0.00  0.00     0.063 H 
ATOM     14  H   LIG d   1       4.153  -0.801  -8.667  0.00  0.00     0.069 H 
ATOM     15  H   LIG d   1       4.727  -3.386  -3.068  0.00  0.00     0.066 H 
ENDROOT
BRANCH   9  16
ATOM     16  C   LIG d   1       4.678  -1.180  -3.268  0.00  0.00     0.032 A 
ATOM     17  C   LIG d   1       5.881  -0.463  -3.251  0.00  0.00     0.051 A 
ATOM     18  C   LIG d   1       5.899   0.835  -2.785  0.00  0.00    -0.043 A 
ATOM     19 CL   LIG d   1       7.345  -1.205  -3.818  0.00  0.00    -0.083 Cl
ATOM     20  C   LIG d   1       4.734   1.430  -2.333  0.00  0.00    -0.058 A 
ATOM     21  H   LIG d   1       6.826   1.389  -2.772  0.00  0.00     0.063 H 
ATOM     22  C   LIG d   1       3.541   0.730  -2.344  0.00  0.00    -0.026 A 
ATOM     23  H   LIG d   1       4.757   2.447  -1.969  0.00  0.00     0.062 H 
ATOM     24  C   LIG d   1       3.501  -0.569  -2.814  0.00  0.00     0.132 A 
ATOM     25  H   LIG d   1       2.636   1.202  -1.990  0.00  0.00     0.065 H 
ATOM     26  F   LIG d   1       2.333  -1.247  -2.831  0.00  0.00    -0.205 F 
ENDBRANCH   9  16
BRANCH   1  27
ATOM     27  O   LIG d   1       3.941  -2.133 -10.900  0.00  0.00    -0.346 OA
BRANCH  27  28
ATOM     28  S   LIG d   1       2.568  -1.535 -11.169  0.00  0.00     0.118 S 
ATOM     29  O   LIG d   1       2.736  -0.138 -10.971  0.00  0.00    -0.137 OA
ATOM     30  O   LIG d   1       1.680  -2.282 -10.349  0.00  0.00    -0.137 OA
BRANCH  28  31
ATOM     31  C   LIG d   1       2.243  -1.882 -12.920  0.00  0.00     0.092 C 
ATOM     32  H   LIG d   1       3.048  -1.470 -13.528  0.00  0.00     0.050 H 
ATOM     33  H   LIG d   1       2.188  -2.961 -13.072  0.00  0.00     0.050 H 
ATOM     34  H   LIG d   1       1.296  -1.426 -13.211  0.00  0.00     0.050 H 
ENDBRANCH  28  31
ENDBRANCH  27  28
ENDBRANCH   1  27
TORSDOF 4
ENDMDL
MODEL 2
REMARK VINA RESULT:      -6.4      2.314      3.429
REMARK  4 active torsions:
REMARK  status: ('A' for Active; 'I' for Inactive)
REMARK    1  A    between atoms: C_1  and  S_2 
REMARK    2  A    between atoms: S_2  and  O_5 
REMARK    3  A    between atoms: O_5  and  C_6 
REMARK    4  A    between atoms: C_14  and  C_15 
ROOT
ATOM      1  C   LIG d   1       2.848  -2.373 -10.557  0.00  0.00     0.160 A 
ATOM      2  C   LIG d   1       2.559  -1.142 -11.137  0.00  0.00    -0.016 A 
ATOM      3  C   LIG d   1       2.580  -0.005 -10.380  0.00  0.00    -0.044 A 
ATOM      4  C   LIG d   1       2.895  -0.078  -9.023  0.00  0.00     0.068 A 
ATOM      5  C   LIG d   1       3.189  -1.315  -8.426  0.00  0.00     0.143 A 
ATOM      6  C   LIG d   1       3.157  -2.463  -9.208  0.00  0.00     0.026 A 
ATOM      7  O   LIG d   1       3.460  -1.135  -7.115  0.00  0.00    -0.451 OA
ATOM      8  C   LIG d   1       3.371   0.167  -6.756  0.00  0.00     0.176 A 
ATOM      9  C   LIG d   1       3.584   0.673  -5.516  0.00  0.00    -0.004 C 
ATOM     10  C   LIG d   1       3.002   0.933  -7.956  0.00  0.00     0.232 A 
ATOM     11  O   LIG d   1       2.825   2.136  -8.048  0.00  0.00    -0.283 OA
ATOM     12  H   LIG d   1       2.316  -1.085 -12.187  0.00  0.00     0.066 H 
ATOM     13  H   LIG d   1       2.355   0.950 -10.832  0.00  0.00     0.063 H 
ATOM     14  H   LIG d   1       3.376  -3.423  -8.768  0.00  0.00     0.069 H 
ATOM     15  H   LIG d   1       3.486   1.735  -5.341  0.00  0.00     0.066 H 
ENDROOT
BRANCH   9  16
ATOM     16  C   LIG d   1       3.949  -0.221  -4.410  0.00  0.00     0.032 A 
ATOM     17  C   LIG d   1       5.294  -0.526  -4.164  0.00  0.00     0.051 A 
ATOM     18  C   LIG d   1       5.627  -1.368  -3.123  0.00  0.00    -0.043 A 
ATOM     19 CL   LIG d   1       6.538   0.153  -5.166  0.00  0.00    -0.083 Cl
ATOM     20  C   LIG d   1       4.637  -1.911  -2.322  0.00  0.00    -0.058 A 
ATOM     21  H   LIG d   1       6.663  -1.604  -2.932  0.00  0.00     0.063 H 
ATOM     22  C   LIG d   1       3.306  -1.616  -2.556  0.00  0.00    -0.026 A 
ATOM     23  H   LIG d   1       4.907  -2.569  -1.508  0.00  0.00     0.062 H 
ATOM     24  C   LIG d   1       2.953  -0.770  -3.590  0.00  0.00     0.132 A 
ATOM     25  H   LIG d   1       2.540  -2.044  -1.926  0.00  0.00     0.065 H 
ATOM     26  F   LIG d   1       1.653  -0.479  -3.813  0.00  0.00    -0.205 F 
ENDBRANCH   9  16
BRANCH   1  27
ATOM     27  O   LIG d   1       2.823  -3.498 -11.316  0.00  0.00    -0.346 OA
BRANCH  27  28
ATOM     28  S   LIG d   1       1.665  -4.434 -10.998  0.00  0.00     0.118 S 
ATOM     29  O   LIG d   1       0.590  -3.574 -10.648  0.00  0.00    -0.137 OA
ATOM     30  O   LIG d   1       2.193  -5.355 -10.054  0.00  0.00    -0.137 OA
BRANCH  28  31
ATOM     31  C   LIG d   1       1.306  -5.279 -12.563  0.00  0.00     0.092 C 
ATOM     32  H   LIG d   1       0.856  -6.249 -12.357  0.00  0.00     0.050 H 
ATOM     33  H   LIG d   1       0.615  -4.675 -13.151  0.00  0.00     0.050 H 
ATOM     34  H   LIG d   1       2.232  -5.417 -13.121  0.00  0.00     0.050 H 
ENDBRANCH  28  31
ENDBRANCH  27  28
ENDBRANCH   1  27
TORSDOF 4
ENDMDL
MODEL 3
REMARK VINA RESULT:      -6.4      3.899      4.828
REMARK  4 active torsions:
REMARK  status: ('A' for Active; 'I' for Inactive)
REMARK    1  A    between atoms: C_1  and  S_2 
REMARK    2  A    between atoms: S_2  and  O_5 
REMARK    3  A    between atoms: O_5  and  C_6 
REMARK    4  A    between atoms: C_14  and  C_15 
ROOT
ATOM      1  C   LIG d   1       7.511   0.566  -9.337  0.00  0.00     0.160 A 
ATOM      2  C   LIG d   1       6.578   0.243 -10.319  0.00  0.00    -0.016 A 
ATOM      3  C   LIG d   1       5.299  -0.084  -9.969  0.00  0.00    -0.044 A 
ATOM      4  C   LIG d   1       4.927  -0.094  -8.625  0.00  0.00     0.068 A 
ATOM      5  C   LIG d   1       5.858   0.229  -7.625  0.00  0.00     0.143 A 
ATOM      6  C   LIG d   1       7.157   0.554  -7.997  0.00  0.00     0.026 A 
ATOM      7  O   LIG d   1       5.270   0.151  -6.411  0.00  0.00    -0.451 OA
ATOM      8  C   LIG d   1       3.970  -0.213  -6.505  0.00  0.00     0.176 A 
ATOM      9  C   LIG d   1       3.107  -0.378  -5.471  0.00  0.00    -0.004 C 
ATOM     10  C   LIG d   1       3.661  -0.395  -7.931  0.00  0.00     0.232 A 
ATOM     11  O   LIG d   1       2.597  -0.720  -8.428  0.00  0.00    -0.283 OA
ATOM     12  H   LIG d   1       6.866   0.251 -11.360  0.00  0.00     0.066 H 
ATOM     13  H   LIG d   1       4.577  -0.334 -10.733  0.00  0.00     0.063 H 
ATOM     14  H   LIG d   1       7.889   0.802  -7.244  0.00  0.00     0.069 H 
ATOM     15  H   LIG d   1       2.085  -0.671  -5.660  0.00  0.00     0.066 H 
ENDROOT
BRANCH   9  16
ATOM     16  C   LIG d   1       3.563  -0.158  -4.092  0.00  0.00     0.032 A 
ATOM     17  C   LIG d   1       4.175  -1.196  -3.378  0.00  0.00     0.051 A 
ATOM     18  C   LIG d   1       4.600  -0.980  -2.083  0.00  0.00    -0.043 A 
ATOM     19 CL   LIG d   1       4.399  -2.750  -4.120  0.00  0.00    -0.083 Cl
ATOM     20  C   LIG d   1       4.423   0.257  -1.488  0.00  0.00    -0.058 A 
ATOM     21  H   LIG d   1       5.072  -1.780  -1.531  0.00  0.00     0.063 H 
ATOM     22  C   LIG d   1       3.819   1.288  -2.185  0.00  0.00    -0.026 A 
ATOM     23  H   LIG d   1       4.758   0.418  -0.474  0.00  0.00     0.062 H 
ATOM     24  C   LIG d   1       3.393   1.094  -3.485  0.00  0.00     0.132 A 
ATOM     25  H   LIG d   1       3.686   2.252  -1.713  0.00  0.00     0.065 H 
ATOM     26  F   LIG d   1       2.810   2.105  -4.165  0.00  0.00    -0.205 F 
ENDBRANCH   9  16
BRANCH   1  27
ATOM     27  O   LIG d   1       8.780   0.888  -9.695  0.00  0.00    -0.346 OA
BRANCH  27  28
ATOM     28  S   LIG d   1       9.058   2.385  -9.705  0.00  0.00     0.118 S 
ATOM     29  O   LIG d   1       7.827   2.985  -9.329  0.00  0.00    -0.137 OA
ATOM     30  O   LIG d   1       9.628   2.639 -10.982  0.00  0.00    -0.137 OA
BRANCH  28  31
ATOM     31  C   LIG d   1      10.299   2.637  -8.406  0.00  0.00     0.092 C 
ATOM     32  H   LIG d   1      10.015   2.073  -7.518  0.00  0.00     0.050 H 
ATOM     33  H   LIG d   1      11.271   2.292  -8.760  0.00  0.00     0.050 H 
ATOM     34  H   LIG d   1      10.358   3.698  -8.161  0.00  0.00     0.050 H 
ENDBRANCH  28  31
ENDBRANCH  27  28
ENDBRANCH   1  27
TORSDOF 4
ENDMDL
MODEL 4
REMARK VINA RESULT:      -6.4      4.217      5.737
REMARK  4 active torsions:
REMARK  status: ('A' for Active; 'I' for Inactive)
REMARK    1  A    between atoms: C_1  and  S_2 
REMARK    2  A    between atoms: S_2  and  O_5 
REMARK    3  A    between atoms: O_5  and  C_6 
REMARK    4  A    between atoms: C_14  and  C_15 
ROOT
ATOM      1  C   LIG d   1       4.951  -7.535  -6.086  0.00  0.00     0.160 A 
ATOM      2  C   LIG d   1       6.063  -7.508  -6.922  0.00  0.00    -0.016 A 
ATOM      3  C   LIG d   1       6.740  -6.340  -7.128  0.00  0.00    -0.044 A 
ATOM      4  C   LIG d   1       6.315  -5.170  -6.497  0.00  0.00     0.068 A 
ATOM      5  C   LIG d   1       5.195  -5.184  -5.650  0.00  0.00     0.143 A 
ATOM      6  C   LIG d   1       4.514  -6.379  -5.457  0.00  0.00     0.026 A 
ATOM      7  O   LIG d   1       4.979  -3.944  -5.159  0.00  0.00    -0.451 OA
ATOM      8  C   LIG d   1       5.892  -3.055  -5.618  0.00  0.00     0.176 A 
ATOM      9  C   LIG d   1       5.949  -1.735  -5.312  0.00  0.00    -0.004 C 
ATOM     10  C   LIG d   1       6.811  -3.782  -6.507  0.00  0.00     0.232 A 
ATOM     11  O   LIG d   1       7.769  -3.336  -7.116  0.00  0.00    -0.283 OA
ATOM     12  H   LIG d   1       6.391  -8.414  -7.410  0.00  0.00     0.066 H 
ATOM     13  H   LIG d   1       7.603  -6.322  -7.777  0.00  0.00     0.063 H 
ATOM     14  H   LIG d   1       3.648  -6.410  -4.813  0.00  0.00     0.069 H 
ATOM     15  H   LIG d   1       6.725  -1.114  -5.737  0.00  0.00     0.066 H 
ENDROOT
BRANCH   9  16
ATOM     16  C   LIG d   1       4.957  -1.148  -4.403  0.00  0.00     0.032 A 
ATOM     17  C   LIG d   1       3.835  -0.483  -4.918  0.00  0.00     0.051 A 
ATOM     18  C   LIG d   1       2.908   0.065  -4.056  0.00  0.00    -0.043 A 
ATOM     19 CL   LIG d   1       3.613  -0.353  -6.634  0.00  0.00    -0.083 Cl
ATOM     20  C   LIG d   1       3.083  -0.038  -2.687  0.00  0.00    -0.058 A 
ATOM     21  H   LIG d   1       2.044   0.577  -4.451  0.00  0.00     0.063 H 
ATOM     22  C   LIG d   1       4.186  -0.691  -2.168  0.00  0.00    -0.026 A 
ATOM     23  H   LIG d   1       2.352   0.394  -2.019  0.00  0.00     0.062 H 
ATOM     24  C   LIG d   1       5.122  -1.253  -3.015  0.00  0.00     0.132 A 
ATOM     25  H   LIG d   1       4.314  -0.768  -1.098  0.00  0.00     0.065 H 
ATOM     26  F   LIG d   1       6.196  -1.897  -2.507  0.00  0.00    -0.205 F 
ENDBRANCH   9  16
BRANCH   1  27
ATOM     27  O   LIG d   1       4.284  -8.700  -5.888  0.00  0.00    -0.346 OA
BRANCH  27  28
ATOM     28  S   LIG d   1       4.704  -9.449  -4.632  0.00  0.00     0.118 S 
ATOM     29  O   LIG d   1       3.614  -9.291  -3.734  0.00  0.00    -0.137 OA
ATOM     30  O   LIG d   1       5.987  -8.929  -4.312  0.00  0.00    -0.137 OA
BRANCH  28  31
ATOM     31  C   LIG d   1       4.844 -11.183  -5.147  0.00  0.00     0.092 C 
ATOM     32  H   LIG d   1       5.085 -11.801  -4.283  0.00  0.00     0.050 H 
ATOM     33  H   LIG d   1       3.897 -11.511  -5.577  0.00  0.00     0.050 H 
ATOM     34  H   LIG d   1       5.633 -11.277  -5.893  0.00  0.00     0.050 H 
ENDBRANCH  28  31
ENDBRANCH  27  28
ENDBRANCH   1  27
TORSDOF 4
ENDMDL
MODEL 5
REMARK VINA RESULT:      -6.3      5.542      8.034
REMARK  4 active torsions:
REMARK  status: ('A' for Active; 'I' for Inactive)
REMARK    1  A    between atoms: C_1  and  S_2 
REMARK    2  A    between atoms: S_2  and  O_5 
REMARK    3  A    between atoms: O_5  and  C_6 
REMARK    4  A    between atoms: C_14  and  C_15 
ROOT
ATOM      1  C   LIG d   1       9.543   3.669  -4.545  0.00  0.00     0.160 A 
ATOM      2  C   LIG d   1      10.137   3.342  -5.760  0.00  0.00    -0.016 A 
ATOM      3  C   LIG d   1       9.661   2.296  -6.498  0.00  0.00    -0.044 A 
ATOM      4  C   LIG d   1       8.574   1.555  -6.033  0.00  0.00     0.068 A 
ATOM      5  C   LIG d   1       7.966   1.875  -4.808  0.00  0.00     0.143 A 
ATOM      6  C   LIG d   1       8.467   2.938  -4.067  0.00  0.00     0.026 A 
ATOM      7  O   LIG d   1       6.944   1.024  -4.571  0.00  0.00    -0.451 OA
ATOM      8  C   LIG d   1       6.801   0.118  -5.567  0.00  0.00     0.176 A 
ATOM      9  C   LIG d   1       5.871  -0.867  -5.628  0.00  0.00    -0.004 C 
ATOM     10  C   LIG d   1       7.837   0.397  -6.573  0.00  0.00     0.232 A 
ATOM     11  O   LIG d   1       8.041  -0.194  -7.618  0.00  0.00    -0.283 OA
ATOM     12  H   LIG d   1      10.978   3.916  -6.120  0.00  0.00     0.066 H 
ATOM     13  H   LIG d   1      10.124   2.045  -7.441  0.00  0.00     0.063 H 
ATOM     14  H   LIG d   1       8.016   3.197  -3.121  0.00  0.00     0.069 H 
ATOM     15  H   LIG d   1       5.847  -1.537  -6.475  0.00  0.00     0.066 H 
ENDROOT
BRANCH   9  16
ATOM     16  C   LIG d   1       4.895  -1.023  -4.542  0.00  0.00     0.032 A 
ATOM     17  C   LIG d   1       3.593  -0.527  -4.687  0.00  0.00     0.051 A 
ATOM     18  C   LIG d   1       2.683  -0.679  -3.661  0.00  0.00    -0.043 A 
ATOM     19 CL   LIG d   1       3.126   0.276  -6.154  0.00  0.00    -0.083 Cl
ATOM     20  C   LIG d   1       3.052  -1.319  -2.491  0.00  0.00    -0.058 A 
ATOM     21  H   LIG d   1       1.679  -0.296  -3.772  0.00  0.00     0.063 H 
ATOM     22  C   LIG d   1       4.335  -1.812  -2.337  0.00  0.00    -0.026 A 
ATOM     23  H   LIG d   1       2.333  -1.433  -1.692  0.00  0.00     0.062 H 
ATOM     24  C   LIG d   1       5.259  -1.675  -3.356  0.00  0.00     0.132 A 
ATOM     25  H   LIG d   1       4.615  -2.310  -1.420  0.00  0.00     0.065 H 
ATOM     26  F   LIG d   1       6.509  -2.164  -3.206  0.00  0.00    -0.205 F 
ENDBRANCH   9  16
BRANCH   1  27
ATOM     27  O   LIG d   1      10.025   4.709  -3.818  0.00  0.00    -0.346 OA
BRANCH  27  28
ATOM     28  S   LIG d   1      11.086   4.314  -2.800  0.00  0.00     0.118 S 
ATOM     29  O   LIG d   1      12.321   4.654  -3.414  0.00  0.00    -0.137 OA
ATOM     30  O   LIG d   1      10.787   2.964  -2.471  0.00  0.00    -0.137 OA
BRANCH  28  31
ATOM     31  C   LIG d   1      10.782   5.388  -1.370  0.00  0.00     0.092 C 
ATOM     32  H   LIG d   1      11.660   5.390  -0.724  0.00  0.00     0.050 H 
ATOM     33  H   LIG d   1      10.581   6.403  -1.714  0.00  0.00     0.050 H 
ATOM     34  H   LIG d   1       9.922   5.016  -0.813  0.00  0.00     0.050 H 
ENDBRANCH  28  31
ENDBRANCH  27  28
ENDBRANCH   1  27
TORSDOF 4
ENDMDL
MODEL 6
REMARK VINA RESULT:      -6.1      4.038      7.024
REMARK  4 active torsions:
REMARK  status: ('A' for Active; 'I' for Inactive)
REMARK    1  A    between atoms: C_1  and  S_2 
REMARK    2  A    between atoms: S_2  and  O_5 
REMARK    3  A    between atoms: O_5  and  C_6 
REMARK    4  A    between atoms: C_14  and  C_15 
ROOT
ATOM      1  C   LIG d   1       7.360  -1.884  -4.217  0.00  0.00     0.160 A 
ATOM      2  C   LIG d   1       6.522  -1.778  -3.111  0.00  0.00    -0.016 A 
ATOM      3  C   LIG d   1       5.254  -1.290  -3.255  0.00  0.00    -0.044 A 
ATOM      4  C   LIG d   1       4.799  -0.897  -4.514  0.00  0.00     0.068 A 
ATOM      5  C   LIG d   1       5.635  -0.999  -5.637  0.00  0.00     0.143 A 
ATOM      6  C   LIG d   1       6.923  -1.492  -5.473  0.00  0.00     0.026 A 
ATOM      7  O   LIG d   1       4.979  -0.563  -6.735  0.00  0.00    -0.451 OA
ATOM      8  C   LIG d   1       3.721  -0.157  -6.441  0.00  0.00     0.176 A 
ATOM      9  C   LIG d   1       2.811   0.332  -7.320  0.00  0.00    -0.004 C 
ATOM     10  C   LIG d   1       3.520  -0.344  -4.997  0.00  0.00     0.232 A 
ATOM     11  O   LIG d   1       2.521  -0.097  -4.344  0.00  0.00    -0.283 OA
ATOM     12  H   LIG d   1       6.874  -2.082  -2.137  0.00  0.00     0.066 H 
ATOM     13  H   LIG d   1       4.605  -1.209  -2.395  0.00  0.00     0.063 H 
ATOM     14  H   LIG d   1       7.583  -1.575  -6.323  0.00  0.00     0.069 H 
ATOM     15  H   LIG d   1       1.831   0.627  -6.975  0.00  0.00     0.066 H 
ENDROOT
BRANCH   9  16
ATOM     16  C   LIG d   1       3.158   0.462  -8.741  0.00  0.00     0.032 A 
ATOM     17  C   LIG d   1       3.191  -0.671  -9.565  0.00  0.00     0.051 A 
ATOM     18  C   LIG d   1       3.518  -0.539 -10.899  0.00  0.00    -0.043 A 
ATOM     19 CL   LIG d   1       2.819  -2.235  -8.910  0.00  0.00    -0.083 Cl
ATOM     20  C   LIG d   1       3.814   0.706 -11.424  0.00  0.00    -0.058 A 
ATOM     21  H   LIG d   1       3.543  -1.412 -11.535  0.00  0.00     0.063 H 
ATOM     22  C   LIG d   1       3.786   1.831 -10.620  0.00  0.00    -0.026 A 
ATOM     23  H   LIG d   1       4.069   0.800 -12.470  0.00  0.00     0.062 H 
ATOM     24  C   LIG d   1       3.454   1.720  -9.283  0.00  0.00     0.132 A 
ATOM     25  H   LIG d   1       4.018   2.800 -11.038  0.00  0.00     0.065 H 
ATOM     26  F   LIG d   1       3.420   2.821  -8.500  0.00  0.00    -0.205 F 
ENDBRANCH   9  16
BRANCH   1  27
ATOM     27  O   LIG d   1       8.619  -2.369  -4.064  0.00  0.00    -0.346 OA
BRANCH  27  28
ATOM     28  S   LIG d   1       8.718  -3.883  -4.191  0.00  0.00     0.118 S 
ATOM     29  O   LIG d   1       7.441  -4.291  -4.661  0.00  0.00    -0.137 OA
ATOM     30  O   LIG d   1       9.200  -4.322  -2.929  0.00  0.00    -0.137 OA
BRANCH  28  31
ATOM     31  C   LIG d   1       9.974  -4.161  -5.471  0.00  0.00     0.092 C 
ATOM     32  H   LIG d   1       9.594  -4.873  -6.204  0.00  0.00     0.050 H 
ATOM     33  H   LIG d   1      10.203  -3.217  -5.966  0.00  0.00     0.050 H 
ATOM     34  H   LIG d   1      10.878  -4.559  -5.011  0.00  0.00     0.050 H 
ENDBRANCH  28  31
ENDBRANCH  27  28
ENDBRANCH   1  27
TORSDOF 4
ENDMDL
MODEL 7
REMARK VINA RESULT:      -6.1      3.918      7.088
REMARK  4 active torsions:
REMARK  status: ('A' for Active; 'I' for Inactive)
REMARK    1  A    between atoms: C_1  and  S_2 
REMARK    2  A    between atoms: S_2  and  O_5 
REMARK    3  A    between atoms: O_5  and  C_6 
REMARK    4  A    between atoms: C_14  and  C_15 
ROOT
ATOM      1  C   LIG d   1       7.298  -1.706  -4.427  0.00  0.00     0.160 A 
ATOM      2  C   LIG d   1       6.496  -1.402  -3.331  0.00  0.00    -0.016 A 
ATOM      3  C   LIG d   1       5.240  -0.898  -3.518  0.00  0.00    -0.044 A 
ATOM      4  C   LIG d   1       4.761  -0.689  -4.811  0.00  0.00     0.068 A 
ATOM      5  C   LIG d   1       5.561  -0.992  -5.925  0.00  0.00     0.143 A 
ATOM      6  C   LIG d   1       6.838  -1.498  -5.717  0.00  0.00     0.026 A 
ATOM      7  O   LIG d   1       4.887  -0.708  -7.061  0.00  0.00    -0.451 OA
ATOM      8  C   LIG d   1       3.651  -0.219  -6.804  0.00  0.00     0.176 A 
ATOM      9  C   LIG d   1       2.731   0.160  -7.726  0.00  0.00    -0.004 C 
ATOM     10  C   LIG d   1       3.486  -0.173  -5.344  0.00  0.00     0.232 A 
ATOM     11  O   LIG d   1       2.514   0.205  -4.714  0.00  0.00    -0.283 OA
ATOM     12  H   LIG d   1       6.868  -1.564  -2.330  0.00  0.00     0.066 H 
ATOM     13  H   LIG d   1       4.619  -0.663  -2.666  0.00  0.00     0.063 H 
ATOM     14  H   LIG d   1       7.470  -1.733  -6.560  0.00  0.00     0.069 H 
ATOM     15  H   LIG d   1       1.770   0.538  -7.408  0.00  0.00     0.066 H 
ENDROOT
BRANCH   9  16
ATOM     16  C   LIG d   1       3.040   0.056  -9.158  0.00  0.00     0.032 A 
ATOM     17  C   LIG d   1       3.582   1.151  -9.844  0.00  0.00     0.051 A 
ATOM     18  C   LIG d   1       3.870   1.043 -11.189  0.00  0.00    -0.043 A 
ATOM     19 CL   LIG d   1       3.892   2.637  -9.003  0.00  0.00    -0.083 Cl
ATOM     20  C   LIG d   1       3.624  -0.141 -11.862  0.00  0.00    -0.058 A 
ATOM     21  H   LIG d   1       4.287   1.886 -11.719  0.00  0.00     0.063 H 
ATOM     22  C   LIG d   1       3.089  -1.228 -11.194  0.00  0.00    -0.026 A 
ATOM     23  H   LIG d   1       3.852  -0.217 -12.915  0.00  0.00     0.062 H 
ATOM     24  C   LIG d   1       2.800  -1.142  -9.846  0.00  0.00     0.132 A 
ATOM     25  H   LIG d   1       2.900  -2.149 -11.727  0.00  0.00     0.065 H 
ATOM     26  F   LIG d   1       2.284  -2.207  -9.194  0.00  0.00    -0.205 F 
ENDBRANCH   9  16
BRANCH   1  27
ATOM     27  O   LIG d   1       8.546  -2.204  -4.230  0.00  0.00    -0.346 OA
BRANCH  27  28
ATOM     28  S   LIG d   1       8.609  -3.725  -4.220  0.00  0.00     0.118 S 
ATOM     29  O   LIG d   1       7.311  -4.145  -4.615  0.00  0.00    -0.137 OA
ATOM     30  O   LIG d   1       9.120  -4.058  -2.936  0.00  0.00    -0.137 OA
BRANCH  28  31
ATOM     31  C   LIG d   1       9.820  -4.150  -5.503  0.00  0.00     0.092 C 
ATOM     32  H   LIG d   1       9.404  -4.916  -6.156  0.00  0.00     0.050 H 
ATOM     33  H   LIG d   1      10.055  -3.261  -6.089  0.00  0.00     0.050 H 
ATOM     34  H   LIG d   1      10.730  -4.525  -5.033  0.00  0.00     0.050 H 
ENDBRANCH  28  31
ENDBRANCH  27  28
ENDBRANCH   1  27
TORSDOF 4
ENDMDL
MODEL 8
REMARK VINA RESULT:      -5.9      4.748      5.730
REMARK  4 active torsions:
REMARK  status: ('A' for Active; 'I' for Inactive)
REMARK    1  A    between atoms: C_1  and  S_2 
REMARK    2  A    between atoms: S_2  and  O_5 
REMARK    3  A    between atoms: O_5  and  C_6 
REMARK    4  A    between atoms: C_14  and  C_15 
ROOT
ATOM      1  C   LIG d   1       8.631   2.076  -8.553  0.00  0.00     0.160 A 
ATOM      2  C   LIG d   1       8.294   1.423  -9.735  0.00  0.00    -0.016 A 
ATOM      3  C   LIG d   1       7.322   0.464  -9.736  0.00  0.00    -0.044 A 
ATOM      4  C   LIG d   1       6.665   0.139  -8.549  0.00  0.00     0.068 A 
ATOM      5  C   LIG d   1       6.996   0.791  -7.350  0.00  0.00     0.143 A 
ATOM      6  C   LIG d   1       7.991   1.760  -7.366  0.00  0.00     0.026 A 
ATOM      7  O   LIG d   1       6.232   0.311  -6.345  0.00  0.00    -0.451 OA
ATOM      8  C   LIG d   1       5.378  -0.648  -6.774  0.00  0.00     0.176 A 
ATOM      9  C   LIG d   1       4.482  -1.323  -6.012  0.00  0.00    -0.004 C 
ATOM     10  C   LIG d   1       5.598  -0.824  -8.217  0.00  0.00     0.232 A 
ATOM     11  O   LIG d   1       5.027  -1.592  -8.971  0.00  0.00    -0.283 OA
ATOM     12  H   LIG d   1       8.803   1.675 -10.654  0.00  0.00     0.066 H 
ATOM     13  H   LIG d   1       7.062  -0.042 -10.655  0.00  0.00     0.063 H 
ATOM     14  H   LIG d   1       8.263   2.270  -6.454  0.00  0.00     0.069 H 
ATOM     15  H   LIG d   1       3.846  -2.072  -6.461  0.00  0.00     0.066 H 
ENDROOT
BRANCH   9  16
ATOM     16  C   LIG d   1       4.376  -1.037  -4.576  0.00  0.00     0.032 A 
ATOM     17  C   LIG d   1       3.461  -0.082  -4.113  0.00  0.00     0.051 A 
ATOM     18  C   LIG d   1       3.368   0.180  -2.761  0.00  0.00    -0.043 A 
ATOM     19 CL   LIG d   1       2.445   0.766  -5.236  0.00  0.00    -0.083 Cl
ATOM     20  C   LIG d   1       4.176  -0.496  -1.863  0.00  0.00    -0.058 A 
ATOM     21  H   LIG d   1       2.663   0.915  -2.403  0.00  0.00     0.063 H 
ATOM     22  C   LIG d   1       5.083  -1.439  -2.310  0.00  0.00    -0.026 A 
ATOM     23  H   LIG d   1       4.097  -0.284  -0.807  0.00  0.00     0.062 H 
ATOM     24  C   LIG d   1       5.186  -1.721  -3.659  0.00  0.00     0.132 A 
ATOM     25  H   LIG d   1       5.710  -1.962  -1.602  0.00  0.00     0.065 H 
ATOM     26  F   LIG d   1       6.068  -2.648  -4.092  0.00  0.00    -0.205 F 
ENDBRANCH   9  16
BRANCH   1  27
ATOM     27  O   LIG d   1       9.600   3.028  -8.563  0.00  0.00    -0.346 OA
BRANCH  27  28
ATOM     28  S   LIG d   1       9.237   4.272  -9.361  0.00  0.00     0.118 S 
ATOM     29  O   LIG d   1       7.819   4.256  -9.432  0.00  0.00    -0.137 OA
ATOM     30  O   LIG d   1      10.024   4.187 -10.541  0.00  0.00    -0.137 OA
BRANCH  28  31
ATOM     31  C   LIG d   1       9.796   5.662  -8.336  0.00  0.00     0.092 C 
ATOM     32  H   LIG d   1       9.964   6.534  -8.967  0.00  0.00     0.050 H 
ATOM     33  H   LIG d   1       9.034   5.893  -7.591  0.00  0.00     0.050 H 
ATOM     34  H   LIG d   1      10.725   5.391  -7.834  0.00  0.00     0.050 H 
ENDBRANCH  28  31
ENDBRANCH  27  28
ENDBRANCH   1  27
TORSDOF 4
ENDMDL
MODEL 9
REMARK VINA RESULT:      -5.6      5.444      7.586
REMARK  4 active torsions:
REMARK  status: ('A' for Active; 'I' for Inactive)
REMARK    1  A    between atoms: C_1  and  S_2 
REMARK    2  A    between atoms: S_2  and  O_5 
REMARK    3  A    between atoms: O_5  and  C_6 
REMARK    4  A    between atoms: C_14  and  C_15 
ROOT
ATOM      1  C   LIG d   1       5.821  -0.159  -3.300  0.00  0.00     0.160 A 
ATOM      2  C   LIG d   1       6.548  -1.216  -3.840  0.00  0.00    -0.016 A 
ATOM      3  C   LIG d   1       7.769  -0.990  -4.408  0.00  0.00    -0.044 A 
ATOM      4  C   LIG d   1       8.290   0.303  -4.447  0.00  0.00     0.068 A 
ATOM      5  C   LIG d   1       7.566   1.379  -3.906  0.00  0.00     0.143 A 
ATOM      6  C   LIG d   1       6.323   1.133  -3.337  0.00  0.00     0.026 A 
ATOM      7  O   LIG d   1       8.267   2.523  -4.060  0.00  0.00    -0.451 OA
ATOM      8  C   LIG d   1       9.450   2.309  -4.684  0.00  0.00     0.176 A 
ATOM      9  C   LIG d   1      10.379   3.250  -4.985  0.00  0.00    -0.004 C 
ATOM     10  C   LIG d   1       9.544   0.871  -4.974  0.00  0.00     0.232 A 
ATOM     11  O   LIG d   1      10.456   0.279  -5.526  0.00  0.00    -0.283 OA
ATOM     12  H   LIG d   1       6.145  -2.218  -3.809  0.00  0.00     0.066 H 
ATOM     13  H   LIG d   1       8.332  -1.813  -4.826  0.00  0.00     0.063 H 
ATOM     14  H   LIG d   1       5.749   1.946  -2.920  0.00  0.00     0.069 H 
ATOM     15  H   LIG d   1      11.293   2.967  -5.486  0.00  0.00     0.066 H 
ENDROOT
BRANCH   9  16
ATOM     16  C   LIG d   1      10.143   4.655  -4.629  0.00  0.00     0.032 A 
ATOM     17  C   LIG d   1      10.391   5.104  -3.326  0.00  0.00     0.051 A 
ATOM     18  C   LIG d   1      10.167   6.427  -3.001  0.00  0.00    -0.043 A 
ATOM     19 CL   LIG d   1      10.980   4.000  -2.122  0.00  0.00    -0.083 Cl
ATOM     20  C   LIG d   1       9.698   7.309  -3.959  0.00  0.00    -0.058 A 
ATOM     21  H   LIG d   1      10.357   6.774  -1.997  0.00  0.00     0.063 H 
ATOM     22  C   LIG d   1       9.449   6.876  -5.249  0.00  0.00    -0.026 A 
ATOM     23  H   LIG d   1       9.524   8.343  -3.696  0.00  0.00     0.062 H 
ATOM     24  C   LIG d   1       9.674   5.557  -5.595  0.00  0.00     0.132 A 
ATOM     25  H   LIG d   1       9.083   7.572  -5.990  0.00  0.00     0.065 H 
ATOM     26  F   LIG d   1       9.438   5.138  -6.857  0.00  0.00    -0.205 F 
ENDBRANCH   9  16
BRANCH   1  27
ATOM     27  O   LIG d   1       4.608  -0.393  -2.739  0.00  0.00    -0.346 OA
BRANCH  27  28
ATOM     28  S   LIG d   1       3.433   0.070  -3.589  0.00  0.00     0.118 S 
ATOM     29  O   LIG d   1       3.458   1.487  -3.503  0.00  0.00    -0.137 OA
ATOM     30  O   LIG d   1       2.320  -0.666  -3.100  0.00  0.00    -0.137 OA
BRANCH  28  31
ATOM     31  C   LIG d   1       3.841  -0.461  -5.276  0.00  0.00     0.092 C 
ATOM     32  H   LIG d   1       2.925  -0.555  -5.859  0.00  0.00     0.050 H 
ATOM     33  H   LIG d   1       4.494   0.277  -5.740  0.00  0.00     0.050 H 
ATOM     34  H   LIG d   1       4.350  -1.425  -5.239  0.00  0.00     0.050 H 
ENDBRANCH  28  31
ENDBRANCH  27  28
ENDBRANCH   1  27
TORSDOF 4
ENDMDL
MODEL 10
REMARK VINA RESULT:      -5.6      4.523      6.522
REMARK  4 active torsions:
REMARK  status: ('A' for Active; 'I' for Inactive)
REMARK    1  A    between atoms: C_1  and  S_2 
REMARK    2  A    between atoms: S_2  and  O_5 
REMARK    3  A    between atoms: O_5  and  C_6 
REMARK    4  A    between atoms: C_14  and  C_15 
ROOT
ATOM      1  C   LIG d   1       9.335  -5.933  -5.146  0.00  0.00     0.160 A 
ATOM      2  C   LIG d   1       8.580  -6.753  -5.979  0.00  0.00    -0.016 A 
ATOM      3  C   LIG d   1       7.273  -6.451  -6.238  0.00  0.00    -0.044 A 
ATOM      4  C   LIG d   1       6.695  -5.317  -5.668  0.00  0.00     0.068 A 
ATOM      5  C   LIG d   1       7.447  -4.481  -4.827  0.00  0.00     0.143 A 
ATOM      6  C   LIG d   1       8.773  -4.805  -4.568  0.00  0.00     0.026 A 
ATOM      7  O   LIG d   1       6.679  -3.455  -4.399  0.00  0.00    -0.451 OA
ATOM      8  C   LIG d   1       5.422  -3.526  -4.896  0.00  0.00     0.176 A 
ATOM      9  C   LIG d   1       4.414  -2.650  -4.657  0.00  0.00    -0.004 C 
ATOM     10  C   LIG d   1       5.347  -4.725  -5.744  0.00  0.00     0.232 A 
ATOM     11  O   LIG d   1       4.386  -5.138  -6.370  0.00  0.00    -0.283 OA
ATOM     12  H   LIG d   1       9.028  -7.631  -6.420  0.00  0.00     0.066 H 
ATOM     13  H   LIG d   1       6.689  -7.090  -6.885  0.00  0.00     0.063 H 
ATOM     14  H   LIG d   1       9.367  -4.178  -3.921  0.00  0.00     0.069 H 
ATOM     15  H   LIG d   1       3.445  -2.804  -5.108  0.00  0.00     0.066 H 
ENDROOT
BRANCH   9  16
ATOM     16  C   LIG d   1       4.641  -1.492  -3.783  0.00  0.00     0.032 A 
ATOM     17  C   LIG d   1       5.295  -0.355  -4.274  0.00  0.00     0.051 A 
ATOM     18  C   LIG d   1       5.503   0.729  -3.446  0.00  0.00    -0.043 A 
ATOM     19 CL   LIG d   1       5.842  -0.309  -5.921  0.00  0.00    -0.083 Cl
ATOM     20  C   LIG d   1       5.068   0.695  -2.132  0.00  0.00    -0.058 A 
ATOM     21  H   LIG d   1       6.007   1.605  -3.824  0.00  0.00     0.063 H 
ATOM     22  C   LIG d   1       4.421  -0.422  -1.637  0.00  0.00    -0.026 A 
ATOM     23  H   LIG d   1       5.234   1.548  -1.490  0.00  0.00     0.062 H 
ATOM     24  C   LIG d   1       4.198  -1.515  -2.453  0.00  0.00     0.132 A 
ATOM     25  H   LIG d   1       4.084  -0.440  -0.610  0.00  0.00     0.065 H 
ATOM     26  F   LIG d   1       3.559  -2.603  -1.969  0.00  0.00    -0.205 F 
ENDBRANCH   9  16
BRANCH   1  27
ATOM     27  O   LIG d   1      10.633  -6.241  -4.893  0.00  0.00    -0.346 OA
BRANCH  27  28
ATOM     28  S   LIG d   1      10.838  -7.065  -3.629  0.00  0.00     0.118 S 
ATOM     29  O   LIG d   1       9.526  -7.331  -3.154  0.00  0.00    -0.137 OA
ATOM     30  O   LIG d   1      11.752  -6.308  -2.848  0.00  0.00    -0.137 OA
BRANCH  28  31
ATOM     31  C   LIG d   1      11.621  -8.600  -4.195  0.00  0.00     0.092 C 
ATOM     32  H   LIG d   1      12.536  -8.364  -4.737  0.00  0.00     0.050 H 
ATOM     33  H   LIG d   1      11.859  -9.225  -3.334  0.00  0.00     0.050 H 
ATOM     34  H   LIG d   1      10.936  -9.136  -4.853  0.00  0.00     0.050 H 
ENDBRANCH  28  31
ENDBRANCH  27  28
ENDBRANCH   1  27
TORSDOF 4
ENDMDL
