MODEL 1
REMARK VINA RESULT:      -5.5      0.000      0.000
REMARK  6 active torsions:
REMARK  status: ('A' for Active; 'I' for Inactive)
REMARK    1  A    between atoms: C_1  and  O_2 
REMARK    2  A    between atoms: O_2  and  C_3 
REMARK    3  A    between atoms: C_5  and  N_9 
REMARK    4  A    between atoms: N_9  and  S_10 
REMARK    5  A    between atoms: S_10  and  C_13 
REMARK    6  A    between atoms: C_16  and  N_19 
ROOT
ATOM      1  S   LIG d   1       3.433   0.851  -7.761  0.00  0.00     0.073 S 
ATOM      2  O   LIG d   1       2.773   2.108  -7.705  0.00  0.00    -0.150 OA
ATOM      3  O   LIG d   1       4.845   0.726  -7.653  0.00  0.00    -0.150 OA
ENDROOT
BRANCH   1   4
ATOM      4  N   LIG d   1       2.783  -0.081  -6.556  0.00  0.00    -0.199 N 
ATOM      5  H   LIG d   1       2.045  -0.680  -6.752  0.00  0.00     0.175 HD
BRANCH   4   6
ATOM      6  C   LIG d   1       3.292  -0.004  -5.270  0.00  0.00     0.144 A 
ATOM      7  C   LIG d   1       4.128  -1.004  -4.781  0.00  0.00     0.041 A 
ATOM      8  C   LIG d   1       4.614  -0.882  -3.486  0.00  0.00     0.219 A 
ATOM      9  H   LIG d   1       4.393  -1.854  -5.394  0.00  0.00     0.071 H 
ATOM     10  N   LIG d   1       4.262   0.176  -2.761  0.00  0.00    -0.201 NA
ATOM     11  C   LIG d   1       3.472   1.106  -3.260  0.00  0.00     0.122 A 
ATOM     12  N   LIG d   1       2.990   1.026  -4.484  0.00  0.00    -0.219 NA
ATOM     13  H   LIG d   1       3.208   1.955  -2.647  0.00  0.00     0.105 H 
BRANCH   8  14
ATOM     14  O   LIG d   1       5.431  -1.830  -2.965  0.00  0.00    -0.479 OA
BRANCH  14  15
ATOM     15  C   LIG d   1       6.793  -1.822  -3.398  0.00  0.00     0.080 C 
ATOM     16  H   LIG d   1       7.403  -2.378  -2.687  0.00  0.00     0.066 H 
ATOM     17  H   LIG d   1       6.864  -2.289  -4.380  0.00  0.00     0.066 H 
ATOM     18  H   LIG d   1       7.149  -0.794  -3.457  0.00  0.00     0.066 H 
ENDBRANCH  14  15
ENDBRANCH   8  14
ENDBRANCH   4   6
ENDBRANCH   1   4
BRANCH   1  19
ATOM     19  C   LIG d   1       2.977   0.112  -9.295  0.00  0.00     0.109 A 
ATOM     20  C   LIG d   1       3.792   0.263 -10.403  0.00  0.00    -0.033 A 
ATOM     21  C   LIG d   1       3.441  -0.320 -11.604  0.00  0.00    -0.039 A 
ATOM     22  H   LIG d   1       4.705   0.834 -10.326  0.00  0.00     0.064 H 
ATOM     23  C   LIG d   1       2.262  -1.049 -11.703  0.00  0.00     0.025 A 
ATOM     24  H   LIG d   1       4.079  -0.205 -12.467  0.00  0.00     0.064 H 
ATOM     25  C   LIG d   1       1.444  -1.194 -10.589  0.00  0.00    -0.039 A 
ATOM     26  C   LIG d   1       1.804  -0.613  -9.389  0.00  0.00    -0.033 A 
ATOM     27  H   LIG d   1       0.527  -1.760 -10.663  0.00  0.00     0.064 H 
ATOM     28  H   LIG d   1       1.169  -0.726  -8.523  0.00  0.00     0.064 H 
BRANCH  23  29
ATOM     29  N   LIG d   1       1.902  -1.634 -12.918  0.00  0.00    -0.358 N 
ATOM     30  H   LIG d   1       2.422  -2.372 -13.273  0.00  0.00     0.142 HD
ATOM     31  H   LIG d   1       1.132  -1.304 -13.406  0.00  0.00     0.142 HD
ENDBRANCH  23  29
ENDBRANCH   1  19
TORSDOF 6
ENDMDL
MODEL 2
REMARK VINA RESULT:      -5.4      3.132      6.782
REMARK  6 active torsions:
REMARK  status: ('A' for Active; 'I' for Inactive)
REMARK    1  A    between atoms: C_1  and  O_2 
REMARK    2  A    between atoms: O_2  and  C_3 
REMARK    3  A    between atoms: C_5  and  N_9 
REMARK    4  A    between atoms: N_9  and  S_10 
REMARK    5  A    between atoms: S_10  and  C_13 
REMARK    6  A    between atoms: C_16  and  N_19 
ROOT
ATOM      1  S   LIG d   1       5.041  -3.609  -5.165  0.00  0.00     0.073 S 
ATOM      2  O   LIG d   1       4.290  -4.670  -4.588  0.00  0.00    -0.150 OA
ATOM      3  O   LIG d   1       6.415  -3.745  -5.502  0.00  0.00    -0.150 OA
ENDROOT
BRANCH   1   4
ATOM      4  N   LIG d   1       4.254  -3.172  -6.554  0.00  0.00    -0.199 N 
ATOM      5  H   LIG d   1       3.580  -3.758  -6.934  0.00  0.00     0.175 HD
BRANCH   4   6
ATOM      6  C   LIG d   1       4.556  -1.970  -7.172  0.00  0.00     0.144 A 
ATOM      7  C   LIG d   1       3.708  -0.874  -7.039  0.00  0.00     0.041 A 
ATOM      8  C   LIG d   1       4.055   0.310  -7.678  0.00  0.00     0.219 A 
ATOM      9  H   LIG d   1       2.802  -0.942  -6.453  0.00  0.00     0.071 H 
ATOM     10  N   LIG d   1       5.175   0.353  -8.394  0.00  0.00    -0.201 NA
ATOM     11  C   LIG d   1       5.956  -0.704  -8.493  0.00  0.00     0.122 A 
ATOM     12  N   LIG d   1       5.662  -1.844  -7.903  0.00  0.00    -0.219 NA
ATOM     13  H   LIG d   1       6.861  -0.634  -9.079  0.00  0.00     0.105 H 
BRANCH   8  14
ATOM     14  O   LIG d   1       3.261   1.404  -7.578  0.00  0.00    -0.479 OA
BRANCH  14  15
ATOM     15  C   LIG d   1       2.996   2.125  -8.783  0.00  0.00     0.080 C 
ATOM     16  H   LIG d   1       3.795   2.845  -8.959  0.00  0.00     0.066 H 
ATOM     17  H   LIG d   1       2.945   1.429  -9.620  0.00  0.00     0.066 H 
ATOM     18  H   LIG d   1       2.046   2.652  -8.690  0.00  0.00     0.066 H 
ENDBRANCH  14  15
ENDBRANCH   8  14
ENDBRANCH   4   6
ENDBRANCH   1   4
BRANCH   1  19
ATOM     19  C   LIG d   1       4.928  -2.249  -4.051  0.00  0.00     0.109 A 
ATOM     20  C   LIG d   1       6.008  -1.401  -3.885  0.00  0.00    -0.033 A 
ATOM     21  C   LIG d   1       5.920  -0.330  -3.018  0.00  0.00    -0.039 A 
ATOM     22  H   LIG d   1       6.919  -1.574  -4.438  0.00  0.00     0.064 H 
ATOM     23  C   LIG d   1       4.749  -0.112  -2.302  0.00  0.00     0.025 A 
ATOM     24  H   LIG d   1       6.762   0.334  -2.892  0.00  0.00     0.064 H 
ATOM     25  C   LIG d   1       3.669  -0.969  -2.466  0.00  0.00    -0.039 A 
ATOM     26  C   LIG d   1       3.761  -2.035  -3.340  0.00  0.00    -0.033 A 
ATOM     27  H   LIG d   1       2.757  -0.802  -1.911  0.00  0.00     0.064 H 
ATOM     28  H   LIG d   1       2.921  -2.701  -3.470  0.00  0.00     0.064 H 
BRANCH  23  29
ATOM     29  N   LIG d   1       4.660   0.967  -1.419  0.00  0.00    -0.358 N 
ATOM     30  H   LIG d   1       5.376   1.136  -0.787  0.00  0.00     0.142 HD
ATOM     31  H   LIG d   1       3.883   1.546  -1.439  0.00  0.00     0.142 HD
ENDBRANCH  23  29
ENDBRANCH   1  19
TORSDOF 6
ENDMDL
MODEL 3
REMARK VINA RESULT:      -5.3      3.007      6.255
REMARK  6 active torsions:
REMARK  status: ('A' for Active; 'I' for Inactive)
REMARK    1  A    between atoms: C_1  and  O_2 
REMARK    2  A    between atoms: O_2  and  C_3 
REMARK    3  A    between atoms: C_5  and  N_9 
REMARK    4  A    between atoms: N_9  and  S_10 
REMARK    5  A    between atoms: S_10  and  C_13 
REMARK    6  A    between atoms: C_16  and  N_19 
ROOT
ATOM      1  S   LIG d   1       2.838   0.146  -4.681  0.00  0.00     0.073 S 
ATOM      2  O   LIG d   1       3.019   1.552  -4.578  0.00  0.00    -0.150 OA
ATOM      3  O   LIG d   1       1.821  -0.545  -3.968  0.00  0.00    -0.150 OA
ENDROOT
BRANCH   1   4
ATOM      4  N   LIG d   1       2.598  -0.185  -6.286  0.00  0.00    -0.199 N 
ATOM      5  H   LIG d   1       1.964  -0.869  -6.550  0.00  0.00     0.175 HD
BRANCH   4   6
ATOM      6  C   LIG d   1       3.303   0.518  -7.250  0.00  0.00     0.144 A 
ATOM      7  C   LIG d   1       4.562   0.087  -7.658  0.00  0.00     0.041 A 
ATOM      8  C   LIG d   1       5.229   0.825  -8.628  0.00  0.00     0.219 A 
ATOM      9  H   LIG d   1       5.010  -0.799  -7.232  0.00  0.00     0.071 H 
ATOM     10  N   LIG d   1       4.647   1.913  -9.125  0.00  0.00    -0.201 NA
ATOM     11  C   LIG d   1       3.450   2.287  -8.717  0.00  0.00     0.122 A 
ATOM     12  N   LIG d   1       2.787   1.614  -7.800  0.00  0.00    -0.219 NA
ATOM     13  H   LIG d   1       3.004   3.173  -9.145  0.00  0.00     0.105 H 
BRANCH   8  14
ATOM     14  O   LIG d   1       6.457   0.446  -9.057  0.00  0.00    -0.479 OA
BRANCH  14  15
ATOM     15  C   LIG d   1       6.535  -0.160 -10.349  0.00  0.00     0.080 C 
ATOM     16  H   LIG d   1       7.479  -0.695 -10.444  0.00  0.00     0.066 H 
ATOM     17  H   LIG d   1       5.707  -0.859 -10.472  0.00  0.00     0.066 H 
ATOM     18  H   LIG d   1       6.476   0.612 -11.116  0.00  0.00     0.066 H 
ENDBRANCH  14  15
ENDBRANCH   8  14
ENDBRANCH   4   6
ENDBRANCH   1   4
BRANCH   1  19
ATOM     19  C   LIG d   1       4.369  -0.593  -4.219  0.00  0.00     0.109 A 
ATOM     20  C   LIG d   1       5.364   0.180  -3.648  0.00  0.00    -0.033 A 
ATOM     21  C   LIG d   1       6.563  -0.398  -3.280  0.00  0.00    -0.039 A 
ATOM     22  H   LIG d   1       5.202   1.235  -3.488  0.00  0.00     0.064 H 
ATOM     23  C   LIG d   1       6.773  -1.755  -3.493  0.00  0.00     0.025 A 
ATOM     24  H   LIG d   1       7.338   0.205  -2.831  0.00  0.00     0.064 H 
ATOM     25  C   LIG d   1       5.774  -2.527  -4.072  0.00  0.00    -0.039 A 
ATOM     26  C   LIG d   1       4.575  -1.943  -4.433  0.00  0.00    -0.033 A 
ATOM     27  H   LIG d   1       5.935  -3.582  -4.238  0.00  0.00     0.064 H 
ATOM     28  H   LIG d   1       3.797  -2.544  -4.881  0.00  0.00     0.064 H 
BRANCH  23  29
ATOM     29  N   LIG d   1       7.988  -2.340  -3.127  0.00  0.00    -0.358 N 
ATOM     30  H   LIG d   1       8.362  -3.055  -3.665  0.00  0.00     0.142 HD
ATOM     31  H   LIG d   1       8.455  -2.032  -2.336  0.00  0.00     0.142 HD
ENDBRANCH  23  29
ENDBRANCH   1  19
TORSDOF 6
ENDMDL
MODEL 4
REMARK VINA RESULT:      -5.2      4.816      7.447
REMARK  6 active torsions:
REMARK  status: ('A' for Active; 'I' for Inactive)
REMARK    1  A    between atoms: C_1  and  O_2 
REMARK    2  A    between atoms: O_2  and  C_3 
REMARK    3  A    between atoms: C_5  and  N_9 
REMARK    4  A    between atoms: N_9  and  S_10 
REMARK    5  A    between atoms: S_10  and  C_13 
REMARK    6  A    between atoms: C_16  and  N_19 
ROOT
ATOM      1  S   LIG d   1       4.915  -3.017  -6.002  0.00  0.00     0.073 S 
ATOM      2  O   LIG d   1       6.233  -3.551  -6.010  0.00  0.00    -0.150 OA
ATOM      3  O   LIG d   1       4.366  -2.330  -7.118  0.00  0.00    -0.150 OA
ENDROOT
BRANCH   1   4
ATOM      4  N   LIG d   1       3.894  -4.279  -5.674  0.00  0.00    -0.199 N 
ATOM      5  H   LIG d   1       3.135  -4.147  -5.085  0.00  0.00     0.175 HD
BRANCH   4   6
ATOM      6  C   LIG d   1       4.125  -5.521  -6.242  0.00  0.00     0.144 A 
ATOM      7  C   LIG d   1       4.700  -6.545  -5.493  0.00  0.00     0.041 A 
ATOM      8  C   LIG d   1       4.910  -7.773  -6.107  0.00  0.00     0.219 A 
ATOM      9  H   LIG d   1       4.974  -6.388  -4.459  0.00  0.00     0.071 H 
ATOM     10  N   LIG d   1       4.563  -7.925  -7.381  0.00  0.00    -0.201 NA
ATOM     11  C   LIG d   1       4.016  -6.934  -8.057  0.00  0.00     0.122 A 
ATOM     12  N   LIG d   1       3.801  -5.755  -7.511  0.00  0.00    -0.219 NA
ATOM     13  H   LIG d   1       3.742  -7.093  -9.090  0.00  0.00     0.105 H 
BRANCH   8  14
ATOM     14  O   LIG d   1       5.467  -8.799  -5.419  0.00  0.00    -0.479 OA
BRANCH  14  15
ATOM     15  C   LIG d   1       4.605  -9.548  -4.560  0.00  0.00     0.080 C 
ATOM     16  H   LIG d   1       4.970  -9.487  -3.535  0.00  0.00     0.066 H 
ATOM     17  H   LIG d   1       3.596  -9.139  -4.612  0.00  0.00     0.066 H 
ATOM     18  H   LIG d   1       4.591 -10.591  -4.879  0.00  0.00     0.066 H 
ENDBRANCH  14  15
ENDBRANCH   8  14
ENDBRANCH   4   6
ENDBRANCH   1   4
BRANCH   1  19
ATOM     19  C   LIG d   1       4.830  -1.908  -4.635  0.00  0.00     0.109 A 
ATOM     20  C   LIG d   1       5.244  -0.597  -4.784  0.00  0.00    -0.033 A 
ATOM     21  C   LIG d   1       5.172   0.276  -3.716  0.00  0.00    -0.039 A 
ATOM     22  H   LIG d   1       5.620  -0.255  -5.736  0.00  0.00     0.064 H 
ATOM     23  C   LIG d   1       4.694  -0.167  -2.489  0.00  0.00     0.025 A 
ATOM     24  H   LIG d   1       5.492   1.301  -3.834  0.00  0.00     0.064 H 
ATOM     25  C   LIG d   1       4.285  -1.486  -2.342  0.00  0.00    -0.039 A 
ATOM     26  C   LIG d   1       4.354  -2.352  -3.416  0.00  0.00    -0.033 A 
ATOM     27  H   LIG d   1       3.912  -1.833  -1.389  0.00  0.00     0.064 H 
ATOM     28  H   LIG d   1       4.034  -3.378  -3.302  0.00  0.00     0.064 H 
BRANCH  23  29
ATOM     29  N   LIG d   1       4.627   0.713  -1.406  0.00  0.00    -0.358 N 
ATOM     30  H   LIG d   1       3.856   1.292  -1.300  0.00  0.00     0.142 HD
ATOM     31  H   LIG d   1       5.349   0.744  -0.760  0.00  0.00     0.142 HD
ENDBRANCH  23  29
ENDBRANCH   1  19
TORSDOF 6
ENDMDL
MODEL 5
REMARK VINA RESULT:      -5.1      9.694     10.587
REMARK  6 active torsions:
REMARK  status: ('A' for Active; 'I' for Inactive)
REMARK    1  A    between atoms: C_1  and  O_2 
REMARK    2  A    between atoms: O_2  and  C_3 
REMARK    3  A    between atoms: C_5  and  N_9 
REMARK    4  A    between atoms: N_9  and  S_10 
REMARK    5  A    between atoms: S_10  and  C_13 
REMARK    6  A    between atoms: C_16  and  N_19 
ROOT
ATOM      1  S   LIG d   1      11.380   5.636  -4.954  0.00  0.00     0.073 S 
ATOM      2  O   LIG d   1      12.292   6.485  -4.269  0.00  0.00    -0.150 OA
ATOM      3  O   LIG d   1      11.806   4.500  -5.694  0.00  0.00    -0.150 OA
ENDROOT
BRANCH   1   4
ATOM      4  N   LIG d   1      10.303   5.087  -3.822  0.00  0.00    -0.199 N 
ATOM      5  H   LIG d   1       9.711   4.348  -4.035  0.00  0.00     0.175 HD
BRANCH   4   6
ATOM      6  C   LIG d   1      10.248   5.681  -2.572  0.00  0.00     0.144 A 
ATOM      7  C   LIG d   1       9.397   6.758  -2.339  0.00  0.00     0.041 A 
ATOM      8  C   LIG d   1       9.378   7.319  -1.068  0.00  0.00     0.219 A 
ATOM      9  H   LIG d   1       8.766   7.146  -3.125  0.00  0.00     0.071 H 
ATOM     10  N   LIG d   1      10.172   6.817  -0.128  0.00  0.00    -0.201 NA
ATOM     11  C   LIG d   1      10.962   5.793  -0.385  0.00  0.00     0.122 A 
ATOM     12  N   LIG d   1      11.009   5.233  -1.576  0.00  0.00    -0.219 NA
ATOM     13  H   LIG d   1      11.592   5.406   0.402  0.00  0.00     0.105 H 
BRANCH   8  14
ATOM     14  O   LIG d   1       8.566   8.369  -0.792  0.00  0.00    -0.479 OA
BRANCH  14  15
ATOM     15  C   LIG d   1       9.152   9.672  -0.838  0.00  0.00     0.080 C 
ATOM     16  H   LIG d   1       8.593  10.345  -0.189  0.00  0.00     0.066 H 
ATOM     17  H   LIG d   1      10.186   9.617  -0.500  0.00  0.00     0.066 H 
ATOM     18  H   LIG d   1       9.123  10.047  -1.861  0.00  0.00     0.066 H 
ENDBRANCH  14  15
ENDBRANCH   8  14
ENDBRANCH   4   6
ENDBRANCH   1   4
BRANCH   1  19
ATOM     19  C   LIG d   1      10.484   6.659  -6.073  0.00  0.00     0.109 A 
ATOM     20  C   LIG d   1      10.056   7.912  -5.672  0.00  0.00    -0.033 A 
ATOM     21  C   LIG d   1       9.358   8.719  -6.548  0.00  0.00    -0.039 A 
ATOM     22  H   LIG d   1      10.271   8.261  -4.673  0.00  0.00     0.064 H 
ATOM     23  C   LIG d   1       9.076   8.267  -7.832  0.00  0.00     0.025 A 
ATOM     24  H   LIG d   1       9.028   9.698  -6.236  0.00  0.00     0.064 H 
ATOM     25  C   LIG d   1       9.502   7.006  -8.230  0.00  0.00    -0.039 A 
ATOM     26  C   LIG d   1      10.204   6.206  -7.349  0.00  0.00    -0.033 A 
ATOM     27  H   LIG d   1       9.284   6.652  -9.227  0.00  0.00     0.064 H 
ATOM     28  H   LIG d   1      10.537   5.226  -7.658  0.00  0.00     0.064 H 
BRANCH  23  29
ATOM     29  N   LIG d   1       8.365   9.079  -8.719  0.00  0.00    -0.358 N 
ATOM     30  H   LIG d   1       7.850   8.677  -9.436  0.00  0.00     0.142 HD
ATOM     31  H   LIG d   1       8.386  10.042  -8.617  0.00  0.00     0.142 HD
ENDBRANCH  23  29
ENDBRANCH   1  19
TORSDOF 6
ENDMDL
MODEL 6
REMARK VINA RESULT:      -5.1     10.250     11.570
REMARK  6 active torsions:
REMARK  status: ('A' for Active; 'I' for Inactive)
REMARK    1  A    between atoms: C_1  and  O_2 
REMARK    2  A    between atoms: O_2  and  C_3 
REMARK    3  A    between atoms: C_5  and  N_9 
REMARK    4  A    between atoms: N_9  and  S_10 
REMARK    5  A    between atoms: S_10  and  C_13 
REMARK    6  A    between atoms: C_16  and  N_19 
ROOT
ATOM      1  S   LIG d   1      10.457   6.369  -3.391  0.00  0.00     0.073 S 
ATOM      2  O   LIG d   1      11.844   6.632  -3.222  0.00  0.00    -0.150 OA
ATOM      3  O   LIG d   1       9.936   5.048  -3.460  0.00  0.00    -0.150 OA
ENDROOT
BRANCH   1   4
ATOM      4  N   LIG d   1       9.675   7.121  -2.140  0.00  0.00    -0.199 N 
ATOM      5  H   LIG d   1       8.811   7.536  -2.288  0.00  0.00     0.175 HD
BRANCH   4   6
ATOM      6  C   LIG d   1      10.256   7.156  -0.883  0.00  0.00     0.144 A 
ATOM      7  C   LIG d   1      10.623   8.370  -0.308  0.00  0.00     0.041 A 
ATOM      8  C   LIG d   1      11.201   8.353   0.955  0.00  0.00     0.219 A 
ATOM      9  H   LIG d   1      10.462   9.302  -0.831  0.00  0.00     0.071 H 
ATOM     10  N   LIG d   1      11.387   7.186   1.565  0.00  0.00    -0.201 NA
ATOM     11  C   LIG d   1      11.022   6.057   0.991  0.00  0.00     0.122 A 
ATOM     12  N   LIG d   1      10.471   6.031  -0.205  0.00  0.00    -0.219 NA
ATOM     13  H   LIG d   1      11.184   5.126   1.515  0.00  0.00     0.105 H 
BRANCH   8  14
ATOM     14  O   LIG d   1      11.576   9.509   1.556  0.00  0.00    -0.479 OA
BRANCH  14  15
ATOM     15  C   LIG d   1      11.409  10.714   0.805  0.00  0.00     0.080 C 
ATOM     16  H   LIG d   1      12.374  11.206   0.689  0.00  0.00     0.066 H 
ATOM     17  H   LIG d   1      11.003  10.476  -0.178  0.00  0.00     0.066 H 
ATOM     18  H   LIG d   1      10.723  11.378   1.332  0.00  0.00     0.066 H 
ENDBRANCH  14  15
ENDBRANCH   8  14
ENDBRANCH   4   6
ENDBRANCH   1   4
BRANCH   1  19
ATOM     19  C   LIG d   1       9.968   7.182  -4.876  0.00  0.00     0.109 A 
ATOM     20  C   LIG d   1       9.835   6.459  -6.047  0.00  0.00    -0.033 A 
ATOM     21  C   LIG d   1       9.446   7.092  -7.211  0.00  0.00    -0.039 A 
ATOM     22  H   LIG d   1      10.031   5.397  -6.050  0.00  0.00     0.064 H 
ATOM     23  C   LIG d   1       9.200   8.460  -7.207  0.00  0.00     0.025 A 
ATOM     24  H   LIG d   1       9.338   6.526  -8.124  0.00  0.00     0.064 H 
ATOM     25  C   LIG d   1       9.341   9.184  -6.030  0.00  0.00    -0.039 A 
ATOM     26  C   LIG d   1       9.725   8.543  -4.868  0.00  0.00    -0.033 A 
ATOM     27  H   LIG d   1       9.150  10.248  -6.024  0.00  0.00     0.064 H 
ATOM     28  H   LIG d   1       9.833   9.106  -3.952  0.00  0.00     0.064 H 
BRANCH  23  29
ATOM     29  N   LIG d   1       8.813   9.104  -8.384  0.00  0.00    -0.358 N 
ATOM     30  H   LIG d   1       8.941  10.061  -8.477  0.00  0.00     0.142 HD
ATOM     31  H   LIG d   1       8.416   8.596  -9.107  0.00  0.00     0.142 HD
ENDBRANCH  23  29
ENDBRANCH   1  19
TORSDOF 6
ENDMDL
MODEL 7
REMARK VINA RESULT:      -5.0      9.312     11.234
REMARK  6 active torsions:
REMARK  status: ('A' for Active; 'I' for Inactive)
REMARK    1  A    between atoms: C_1  and  O_2 
REMARK    2  A    between atoms: O_2  and  C_3 
REMARK    3  A    between atoms: C_5  and  N_9 
REMARK    4  A    between atoms: N_9  and  S_10 
REMARK    5  A    between atoms: S_10  and  C_13 
REMARK    6  A    between atoms: C_16  and  N_19 
ROOT
ATOM      1  S   LIG d   1      10.206   6.765  -3.305  0.00  0.00     0.073 S 
ATOM      2  O   LIG d   1       9.551   7.434  -4.375  0.00  0.00    -0.150 OA
ATOM      3  O   LIG d   1      11.591   6.937  -3.034  0.00  0.00    -0.150 OA
ENDROOT
BRANCH   1   4
ATOM      4  N   LIG d   1       9.398   7.180  -1.921  0.00  0.00    -0.199 N 
ATOM      5  H   LIG d   1       8.439   7.324  -1.944  0.00  0.00     0.175 HD
BRANCH   4   6
ATOM      6  C   LIG d   1      10.092   7.318  -0.729  0.00  0.00     0.144 A 
ATOM      7  C   LIG d   1      10.487   8.577  -0.284  0.00  0.00     0.041 A 
ATOM      8  C   LIG d   1      11.180   8.664   0.916  0.00  0.00     0.219 A 
ATOM      9  H   LIG d   1      10.260   9.464  -0.858  0.00  0.00     0.071 H 
ATOM     10  N   LIG d   1      11.445   7.549   1.592  0.00  0.00    -0.201 NA
ATOM     11  C   LIG d   1      11.049   6.375   1.141  0.00  0.00     0.122 A 
ATOM     12  N   LIG d   1      10.391   6.251   0.007  0.00  0.00    -0.219 NA
ATOM     13  H   LIG d   1      11.277   5.489   1.716  0.00  0.00     0.105 H 
BRANCH   8  14
ATOM     14  O   LIG d   1      11.586   9.867   1.391  0.00  0.00    -0.479 OA
BRANCH  14  15
ATOM     15  C   LIG d   1      10.974  11.028   0.825  0.00  0.00     0.080 C 
ATOM     16  H   LIG d   1      11.553  11.911   1.092  0.00  0.00     0.066 H 
ATOM     17  H   LIG d   1      10.940  10.929  -0.259  0.00  0.00     0.066 H 
ATOM     18  H   LIG d   1       9.960  11.128   1.213  0.00  0.00     0.066 H 
ENDBRANCH  14  15
ENDBRANCH   8  14
ENDBRANCH   4   6
ENDBRANCH   1   4
BRANCH   1  19
ATOM     19  C   LIG d   1       9.953   5.040  -3.560  0.00  0.00     0.109 A 
ATOM     20  C   LIG d   1      10.514   4.124  -2.689  0.00  0.00    -0.033 A 
ATOM     21  C   LIG d   1      10.313   2.772  -2.882  0.00  0.00    -0.039 A 
ATOM     22  H   LIG d   1      11.107   4.467  -1.854  0.00  0.00     0.064 H 
ATOM     23  C   LIG d   1       9.554   2.331  -3.960  0.00  0.00     0.025 A 
ATOM     24  H   LIG d   1      10.748   2.058  -2.199  0.00  0.00     0.064 H 
ATOM     25  C   LIG d   1       8.997   3.254  -4.836  0.00  0.00    -0.039 A 
ATOM     26  C   LIG d   1       9.198   4.605  -4.634  0.00  0.00    -0.033 A 
ATOM     27  H   LIG d   1       8.407   2.914  -5.675  0.00  0.00     0.064 H 
ATOM     28  H   LIG d   1       8.764   5.323  -5.314  0.00  0.00     0.064 H 
BRANCH  23  29
ATOM     29  N   LIG d   1       9.354   0.964  -4.161  0.00  0.00    -0.358 N 
ATOM     30  H   LIG d   1       8.456   0.619  -4.285  0.00  0.00     0.142 HD
ATOM     31  H   LIG d   1      10.112   0.359  -4.177  0.00  0.00     0.142 HD
ENDBRANCH  23  29
ENDBRANCH   1  19
TORSDOF 6
ENDMDL
MODEL 8
REMARK VINA RESULT:      -4.9      1.774      2.349
REMARK  6 active torsions:
REMARK  status: ('A' for Active; 'I' for Inactive)
REMARK    1  A    between atoms: C_1  and  O_2 
REMARK    2  A    between atoms: O_2  and  C_3 
REMARK    3  A    between atoms: C_5  and  N_9 
REMARK    4  A    between atoms: N_9  and  S_10 
REMARK    5  A    between atoms: S_10  and  C_13 
REMARK    6  A    between atoms: C_16  and  N_19 
ROOT
ATOM      1  S   LIG d   1       3.173   0.375  -7.158  0.00  0.00     0.073 S 
ATOM      2  O   LIG d   1       2.190   0.191  -6.148  0.00  0.00    -0.150 OA
ATOM      3  O   LIG d   1       3.436   1.644  -7.743  0.00  0.00    -0.150 OA
ENDROOT
BRANCH   1   4
ATOM      4  N   LIG d   1       4.607  -0.161  -6.527  0.00  0.00    -0.199 N 
ATOM      5  H   LIG d   1       5.441   0.033  -6.984  0.00  0.00     0.175 HD
BRANCH   4   6
ATOM      6  C   LIG d   1       4.616  -0.884  -5.345  0.00  0.00     0.144 A 
ATOM      7  C   LIG d   1       4.544  -0.232  -4.117  0.00  0.00     0.041 A 
ATOM      8  C   LIG d   1       4.556  -1.001  -2.961  0.00  0.00     0.219 A 
ATOM      9  H   LIG d   1       4.479   0.846  -4.065  0.00  0.00     0.071 H 
ATOM     10  N   LIG d   1       4.642  -2.324  -3.065  0.00  0.00    -0.201 NA
ATOM     11  C   LIG d   1       4.703  -2.906  -4.247  0.00  0.00     0.122 A 
ATOM     12  N   LIG d   1       4.695  -2.212  -5.366  0.00  0.00    -0.219 NA
ATOM     13  H   LIG d   1       4.768  -3.983  -4.297  0.00  0.00     0.105 H 
BRANCH   8  14
ATOM     14  O   LIG d   1       4.488  -0.411  -1.742  0.00  0.00    -0.479 OA
BRANCH  14  15
ATOM     15  C   LIG d   1       4.530   1.017  -1.708  0.00  0.00     0.080 C 
ATOM     16  H   LIG d   1       4.612   1.354  -0.676  0.00  0.00     0.066 H 
ATOM     17  H   LIG d   1       5.393   1.368  -2.274  0.00  0.00     0.066 H 
ATOM     18  H   LIG d   1       3.618   1.417  -2.151  0.00  0.00     0.066 H 
ENDBRANCH  14  15
ENDBRANCH   8  14
ENDBRANCH   4   6
ENDBRANCH   1   4
BRANCH   1  19
ATOM     19  C   LIG d   1       2.747  -0.710  -8.479  0.00  0.00     0.109 A 
ATOM     20  C   LIG d   1       3.357  -1.947  -8.580  0.00  0.00    -0.033 A 
ATOM     21  C   LIG d   1       3.021  -2.803  -9.610  0.00  0.00    -0.039 A 
ATOM     22  H   LIG d   1       4.094  -2.246  -7.849  0.00  0.00     0.064 H 
ATOM     23  C   LIG d   1       2.078  -2.415 -10.553  0.00  0.00     0.025 A 
ATOM     24  H   LIG d   1       3.495  -3.770  -9.685  0.00  0.00     0.064 H 
ATOM     25  C   LIG d   1       1.471  -1.169 -10.452  0.00  0.00    -0.039 A 
ATOM     26  C   LIG d   1       1.808  -0.321  -9.416  0.00  0.00    -0.033 A 
ATOM     27  H   LIG d   1       0.737  -0.865 -11.184  0.00  0.00     0.064 H 
ATOM     28  H   LIG d   1       1.336   0.648  -9.336  0.00  0.00     0.064 H 
BRANCH  23  29
ATOM     29  N   LIG d   1       1.740  -3.276 -11.600  0.00  0.00    -0.358 N 
ATOM     30  H   LIG d   1       2.402  -3.890 -11.954  0.00  0.00     0.142 HD
ATOM     31  H   LIG d   1       0.845  -3.260 -11.972  0.00  0.00     0.142 HD
ENDBRANCH  23  29
ENDBRANCH   1  19
TORSDOF 6
ENDMDL
MODEL 9
REMARK VINA RESULT:      -4.9      9.751     10.761
REMARK  6 active torsions:
REMARK  status: ('A' for Active; 'I' for Inactive)
REMARK    1  A    between atoms: C_1  and  O_2 
REMARK    2  A    between atoms: O_2  and  C_3 
REMARK    3  A    between atoms: C_5  and  N_9 
REMARK    4  A    between atoms: N_9  and  S_10 
REMARK    5  A    between atoms: S_10  and  C_13 
REMARK    6  A    between atoms: C_16  and  N_19 
ROOT
ATOM      1  S   LIG d   1       9.990   6.020  -4.195  0.00  0.00     0.073 S 
ATOM      2  O   LIG d   1      11.365   6.197  -3.880  0.00  0.00    -0.150 OA
ATOM      3  O   LIG d   1       9.377   4.738  -4.238  0.00  0.00    -0.150 OA
ENDROOT
BRANCH   1   4
ATOM      4  N   LIG d   1       9.133   6.917  -3.097  0.00  0.00    -0.199 N 
ATOM      5  H   LIG d   1       8.165   6.952  -3.151  0.00  0.00     0.175 HD
BRANCH   4   6
ATOM      6  C   LIG d   1       9.799   7.614  -2.103  0.00  0.00     0.144 A 
ATOM      7  C   LIG d   1      10.117   6.995  -0.897  0.00  0.00     0.041 A 
ATOM      8  C   LIG d   1      10.786   7.736   0.069  0.00  0.00     0.219 A 
ATOM      9  H   LIG d   1       9.851   5.963  -0.717  0.00  0.00     0.071 H 
ATOM     10  N   LIG d   1      11.092   9.005  -0.187  0.00  0.00    -0.201 NA
ATOM     11  C   LIG d   1      10.779   9.556  -1.344  0.00  0.00     0.122 A 
ATOM     12  N   LIG d   1      10.145   8.887  -2.284  0.00  0.00    -0.219 NA
ATOM     13  H   LIG d   1      11.045  10.587  -1.522  0.00  0.00     0.105 H 
BRANCH   8  14
ATOM     14  O   LIG d   1      11.117   7.177   1.259  0.00  0.00    -0.479 OA
BRANCH  14  15
ATOM     15  C   LIG d   1      11.078   5.751   1.338  0.00  0.00     0.080 C 
ATOM     16  H   LIG d   1      10.746   5.451   2.331  0.00  0.00     0.066 H 
ATOM     17  H   LIG d   1      10.385   5.364   0.591  0.00  0.00     0.066 H 
ATOM     18  H   LIG d   1      12.075   5.350   1.152  0.00  0.00     0.066 H 
ENDBRANCH  14  15
ENDBRANCH   8  14
ENDBRANCH   4   6
ENDBRANCH   1   4
BRANCH   1  19
ATOM     19  C   LIG d   1       9.738   6.753  -5.777  0.00  0.00     0.109 A 
ATOM     20  C   LIG d   1       9.918   6.000  -6.923  0.00  0.00    -0.033 A 
ATOM     21  C   LIG d   1       9.715   6.569  -8.164  0.00  0.00    -0.039 A 
ATOM     22  H   LIG d   1      10.213   4.964  -6.846  0.00  0.00     0.064 H 
ATOM     23  C   LIG d   1       9.341   7.904  -8.262  0.00  0.00     0.025 A 
ATOM     24  H   LIG d   1       9.852   5.980  -9.058  0.00  0.00     0.064 H 
ATOM     25  C   LIG d   1       9.166   8.659  -7.109  0.00  0.00    -0.039 A 
ATOM     26  C   LIG d   1       9.365   8.081  -5.870  0.00  0.00    -0.033 A 
ATOM     27  H   LIG d   1       8.875   9.697  -7.182  0.00  0.00     0.064 H 
ATOM     28  H   LIG d   1       9.228   8.667  -4.973  0.00  0.00     0.064 H 
BRANCH  23  29
ATOM     29  N   LIG d   1       9.141   8.484  -9.516  0.00  0.00    -0.358 N 
ATOM     30  H   LIG d   1       8.872   7.933 -10.268  0.00  0.00     0.142 HD
ATOM     31  H   LIG d   1       9.269   9.438  -9.636  0.00  0.00     0.142 HD
ENDBRANCH  23  29
ENDBRANCH   1  19
TORSDOF 6
ENDMDL
MODEL 10
REMARK VINA RESULT:      -4.8      1.999      2.270
REMARK  6 active torsions:
REMARK  status: ('A' for Active; 'I' for Inactive)
REMARK    1  A    between atoms: C_1  and  O_2 
REMARK    2  A    between atoms: O_2  and  C_3 
REMARK    3  A    between atoms: C_5  and  N_9 
REMARK    4  A    between atoms: N_9  and  S_10 
REMARK    5  A    between atoms: S_10  and  C_13 
REMARK    6  A    between atoms: C_16  and  N_19 
ROOT
ATOM      1  S   LIG d   1       4.090   0.538  -8.255  0.00  0.00     0.073 S 
ATOM      2  O   LIG d   1       3.374   1.015  -7.124  0.00  0.00    -0.150 OA
ATOM      3  O   LIG d   1       4.601   1.410  -9.255  0.00  0.00    -0.150 OA
ENDROOT
BRANCH   1   4
ATOM      4  N   LIG d   1       5.379  -0.322  -7.672  0.00  0.00    -0.199 N 
ATOM      5  H   LIG d   1       6.034  -0.690  -8.287  0.00  0.00     0.175 HD
BRANCH   4   6
ATOM      6  C   LIG d   1       5.523  -0.515  -6.308  0.00  0.00     0.144 A 
ATOM      7  C   LIG d   1       4.818  -1.524  -5.659  0.00  0.00     0.041 A 
ATOM      8  C   LIG d   1       4.996  -1.677  -4.290  0.00  0.00     0.219 A 
ATOM      9  H   LIG d   1       4.149  -2.173  -6.206  0.00  0.00     0.071 H 
ATOM     10  N   LIG d   1       5.824  -0.857  -3.650  0.00  0.00    -0.201 NA
ATOM     11  C   LIG d   1       6.479   0.085  -4.300  0.00  0.00     0.122 A 
ATOM     12  N   LIG d   1       6.337   0.263  -5.598  0.00  0.00    -0.219 NA
ATOM     13  H   LIG d   1       7.147   0.733  -3.752  0.00  0.00     0.105 H 
BRANCH   8  14
ATOM     14  O   LIG d   1       4.331  -2.646  -3.614  0.00  0.00    -0.479 OA
BRANCH  14  15
ATOM     15  C   LIG d   1       3.722  -2.272  -2.376  0.00  0.00     0.080 C 
ATOM     16  H   LIG d   1       4.479  -2.239  -1.593  0.00  0.00     0.066 H 
ATOM     17  H   LIG d   1       3.265  -1.288  -2.480  0.00  0.00     0.066 H 
ATOM     18  H   LIG d   1       2.957  -3.002  -2.113  0.00  0.00     0.066 H 
ENDBRANCH  14  15
ENDBRANCH   8  14
ENDBRANCH   4   6
ENDBRANCH   1   4
BRANCH   1  19
ATOM     19  C   LIG d   1       3.030  -0.604  -9.077  0.00  0.00     0.109 A 
ATOM     20  C   LIG d   1       1.937  -0.143  -9.790  0.00  0.00    -0.033 A 
ATOM     21  C   LIG d   1       1.108  -1.035 -10.440  0.00  0.00    -0.039 A 
ATOM     22  H   LIG d   1       1.736   0.917  -9.840  0.00  0.00     0.064 H 
ATOM     23  C   LIG d   1       1.365  -2.398 -10.369  0.00  0.00     0.025 A 
ATOM     24  H   LIG d   1       0.258  -0.673 -10.999  0.00  0.00     0.064 H 
ATOM     25  C   LIG d   1       2.460  -2.859  -9.648  0.00  0.00    -0.039 A 
ATOM     26  C   LIG d   1       3.288  -1.960  -9.004  0.00  0.00    -0.033 A 
ATOM     27  H   LIG d   1       2.662  -3.919  -9.591  0.00  0.00     0.064 H 
ATOM     28  H   LIG d   1       4.140  -2.318  -8.445  0.00  0.00     0.064 H 
BRANCH  23  29
ATOM     29  N   LIG d   1       0.525  -3.303 -11.021  0.00  0.00    -0.358 N 
ATOM     30  H   LIG d   1       0.904  -4.051 -11.510  0.00  0.00     0.142 HD
ATOM     31  H   LIG d   1      -0.437  -3.185 -10.984  0.00  0.00     0.142 HD
ENDBRANCH  23  29
ENDBRANCH   1  19
TORSDOF 6
ENDMDL
