MODEL 1
REMARK VINA RESULT:      -5.8      0.000      0.000
REMARK  4 active torsions:
REMARK  status: ('A' for Active; 'I' for Inactive)
REMARK    1  A    between atoms: C_1  and  C_2 
REMARK    2  A    between atoms: C_12  and  O_21 
REMARK    3  A    between atoms: C_19  and  C_20 
REMARK    4  A    between atoms: O_21  and  C_22 
ROOT
ATOM      1  C   LIG d   1       9.392   7.108  -8.309  0.00  0.00    -0.005 A 
ATOM      2  C   LIG d   1       9.275   8.180  -9.102  0.00  0.00     0.096 A 
ATOM      3  O   LIG d   1       9.391   9.309  -8.379  0.00  0.00    -0.462 OA
ATOM      4  C   LIG d   1       9.594   9.026  -7.075  0.00  0.00     0.141 A 
ATOM      5  C   LIG d   1       9.596   7.624  -6.949  0.00  0.00     0.024 A 
ATOM      6  C   LIG d   1       9.771   7.031  -5.703  0.00  0.00    -0.040 A 
ATOM      7  C   LIG d   1       9.942   7.834  -4.584  0.00  0.00     0.026 A 
ATOM      8  C   LIG d   1      10.107   7.241  -3.242  0.00  0.00    -0.000 A 
ATOM      9  C   LIG d   1      10.350   5.889  -3.042  0.00  0.00    -0.050 A 
ATOM     10  C   LIG d   1      10.488   5.406  -1.756  0.00  0.00    -0.019 A 
ATOM     11  C   LIG d   1      10.386   6.260  -0.661  0.00  0.00     0.121 A 
ATOM     12  C   LIG d   1      10.147   7.612  -0.843  0.00  0.00    -0.005 A 
ATOM     13  C   LIG d   1      10.007   8.111  -2.133  0.00  0.00     0.071 A 
ATOM     14  C   LIG d   1       9.756   9.538  -2.410  0.00  0.00     0.345 C 
ATOM     15  O   LIG d   1       9.222  10.255  -1.588  0.00  0.00    -0.244 OA
ATOM     16  O   LIG d   1      10.143  10.018  -3.616  0.00  0.00    -0.421 OA
ATOM     17  C   LIG d   1       9.952   9.236  -4.710  0.00  0.00     0.146 A 
ATOM     18  C   LIG d   1       9.780   9.820  -5.953  0.00  0.00     0.035 A 
ATOM     19  H   LIG d   1       9.113   8.145 -10.169  0.00  0.00     0.103 H 
ATOM     20  H   LIG d   1       9.772   5.955  -5.608  0.00  0.00     0.063 H 
ATOM     21  H   LIG d   1      10.428   5.221  -3.886  0.00  0.00     0.062 H 
ATOM     22  H   LIG d   1      10.676   4.354  -1.598  0.00  0.00     0.065 H 
ATOM     23  H   LIG d   1      10.069   8.272   0.008  0.00  0.00     0.066 H 
ENDROOT
BRANCH  11  24
ATOM     24  O   LIG d   1      10.524   5.762   0.596  0.00  0.00    -0.495 OA
BRANCH  24  25
ATOM     25  C   LIG d   1      11.155   6.605   1.562  0.00  0.00     0.079 C 
ATOM     26  H   LIG d   1      12.147   6.215   1.791  0.00  0.00     0.066 H 
ATOM     27  H   LIG d   1      11.245   7.614   1.161  0.00  0.00     0.066 H 
ATOM     28  H   LIG d   1      10.555   6.626   2.471  0.00  0.00     0.066 H 
ENDBRANCH  24  25
ENDBRANCH  11  24
BRANCH  18  29
ATOM     29  C   LIG d   1       9.777  11.321  -6.083  0.00  0.00    -0.033 C 
ATOM     30  H   LIG d   1      10.775  11.664  -6.352  0.00  0.00     0.028 H 
ATOM     31  H   LIG d   1       9.069  11.617  -6.858  0.00  0.00     0.028 H 
ATOM     32  H   LIG d   1       9.483  11.767  -5.133  0.00  0.00     0.028 H 
ENDBRANCH  18  29
BRANCH   1  33
ATOM     33  C   LIG d   1       9.321   5.661  -8.727  0.00  0.00    -0.036 C 
ATOM     34  H   LIG d   1       9.551   5.578  -9.789  0.00  0.00     0.028 H 
ATOM     35  H   LIG d   1      10.042   5.081  -8.152  0.00  0.00     0.028 H 
ATOM     36  H   LIG d   1       8.317   5.279  -8.541  0.00  0.00     0.028 H 
ENDBRANCH   1  33
TORSDOF 4
ENDMDL
MODEL 2
REMARK VINA RESULT:      -5.8      1.899      3.832
REMARK  4 active torsions:
REMARK  status: ('A' for Active; 'I' for Inactive)
REMARK    1  A    between atoms: C_1  and  C_2 
REMARK    2  A    between atoms: C_12  and  O_21 
REMARK    3  A    between atoms: C_19  and  C_20 
REMARK    4  A    between atoms: O_21  and  C_22 
ROOT
ATOM      1  C   LIG d   1       9.657   9.725  -5.956  0.00  0.00    -0.005 A 
ATOM      2  C   LIG d   1       9.313   8.914  -6.964  0.00  0.00     0.096 A 
ATOM      3  O   LIG d   1       9.243   7.641  -6.534  0.00  0.00    -0.462 OA
ATOM      4  C   LIG d   1       9.535   7.560  -5.219  0.00  0.00     0.141 A 
ATOM      5  C   LIG d   1       9.825   8.865  -4.777  0.00  0.00     0.024 A 
ATOM      6  C   LIG d   1      10.179   9.095  -3.452  0.00  0.00    -0.040 A 
ATOM      7  C   LIG d   1      10.247   8.027  -2.569  0.00  0.00     0.026 A 
ATOM      8  C   LIG d   1      10.643   8.229  -1.160  0.00  0.00    -0.000 A 
ATOM      9  C   LIG d   1      10.724   9.485  -0.576  0.00  0.00    -0.050 A 
ATOM     10  C   LIG d   1      11.107   9.596   0.746  0.00  0.00    -0.019 A 
ATOM     11  C   LIG d   1      11.410   8.463   1.496  0.00  0.00     0.121 A 
ATOM     12  C   LIG d   1      11.331   7.202   0.928  0.00  0.00    -0.005 A 
ATOM     13  C   LIG d   1      10.946   7.077  -0.401  0.00  0.00     0.071 A 
ATOM     14  C   LIG d   1      10.833   5.770  -1.076  0.00  0.00     0.345 C 
ATOM     15  O   LIG d   1      11.472   4.808  -0.698  0.00  0.00    -0.244 OA
ATOM     16  O   LIG d   1       9.991   5.683  -2.133  0.00  0.00    -0.421 OA
ATOM     17  C   LIG d   1       9.946   6.722  -3.006  0.00  0.00     0.146 A 
ATOM     18  C   LIG d   1       9.592   6.501  -4.325  0.00  0.00     0.035 A 
ATOM     19  H   LIG d   1       9.118   9.235  -7.977  0.00  0.00     0.103 H 
ATOM     20  H   LIG d   1      10.401  10.097  -3.114  0.00  0.00     0.063 H 
ATOM     21  H   LIG d   1      10.492  10.368  -1.151  0.00  0.00     0.062 H 
ATOM     22  H   LIG d   1      11.171  10.572   1.203  0.00  0.00     0.065 H 
ATOM     23  H   LIG d   1      11.567   6.324   1.513  0.00  0.00     0.066 H 
ENDROOT
BRANCH  11  24
ATOM     24  O   LIG d   1      11.786   8.596   2.795  0.00  0.00    -0.495 OA
BRANCH  24  25
ATOM     25  C   LIG d   1      12.460   9.803   3.156  0.00  0.00     0.079 C 
ATOM     26  H   LIG d   1      11.886  10.325   3.921  0.00  0.00     0.066 H 
ATOM     27  H   LIG d   1      13.450   9.564   3.544  0.00  0.00     0.066 H 
ATOM     28  H   LIG d   1      12.557  10.440   2.277  0.00  0.00     0.066 H 
ENDBRANCH  24  25
ENDBRANCH  11  24
BRANCH  18  29
ATOM     29  C   LIG d   1       9.284   5.103  -4.795  0.00  0.00    -0.033 C 
ATOM     30  H   LIG d   1      10.067   4.424  -4.455  0.00  0.00     0.028 H 
ATOM     31  H   LIG d   1       8.324   4.785  -4.387  0.00  0.00     0.028 H 
ATOM     32  H   LIG d   1       9.239   5.088  -5.884  0.00  0.00     0.028 H 
ENDBRANCH  18  29
BRANCH   1  33
ATOM     33  C   LIG d   1       9.843  11.219  -6.021  0.00  0.00    -0.036 C 
ATOM     34  H   LIG d   1      10.484  11.470  -6.865  0.00  0.00     0.028 H 
ATOM     35  H   LIG d   1       8.873  11.701  -6.145  0.00  0.00     0.028 H 
ATOM     36  H   LIG d   1      10.305  11.567  -5.096  0.00  0.00     0.028 H 
ENDBRANCH   1  33
TORSDOF 4
ENDMDL
MODEL 3
REMARK VINA RESULT:      -5.8      9.662     12.644
REMARK  4 active torsions:
REMARK  status: ('A' for Active; 'I' for Inactive)
REMARK    1  A    between atoms: C_1  and  C_2 
REMARK    2  A    between atoms: C_12  and  O_21 
REMARK    3  A    between atoms: C_19  and  C_20 
REMARK    4  A    between atoms: O_21  and  C_22 
ROOT
ATOM      1  C   LIG d   1       7.254  -3.279  -4.591  0.00  0.00    -0.005 A 
ATOM      2  C   LIG d   1       7.623  -2.709  -3.437  0.00  0.00     0.096 A 
ATOM      3  O   LIG d   1       6.894  -1.601  -3.211  0.00  0.00    -0.462 OA
ATOM      4  C   LIG d   1       6.008  -1.397  -4.208  0.00  0.00     0.141 A 
ATOM      5  C   LIG d   1       6.187  -2.434  -5.143  0.00  0.00     0.024 A 
ATOM      6  C   LIG d   1       5.414  -2.478  -6.298  0.00  0.00    -0.040 A 
ATOM      7  C   LIG d   1       4.465  -1.491  -6.523  0.00  0.00     0.026 A 
ATOM      8  C   LIG d   1       3.642  -1.493  -7.749  0.00  0.00    -0.000 A 
ATOM      9  C   LIG d   1       3.580  -2.579  -8.611  0.00  0.00    -0.050 A 
ATOM     10  C   LIG d   1       2.792  -2.505  -9.742  0.00  0.00    -0.019 A 
ATOM     11  C   LIG d   1       2.061  -1.355 -10.025  0.00  0.00     0.121 A 
ATOM     12  C   LIG d   1       2.110  -0.263  -9.173  0.00  0.00    -0.005 A 
ATOM     13  C   LIG d   1       2.898  -0.326  -8.031  0.00  0.00     0.071 A 
ATOM     14  C   LIG d   1       2.999   0.791  -7.073  0.00  0.00     0.345 C 
ATOM     15  O   LIG d   1       2.793   1.938  -7.418  0.00  0.00    -0.244 OA
ATOM     16  O   LIG d   1       3.330   0.491  -5.794  0.00  0.00    -0.421 OA
ATOM     17  C   LIG d   1       4.276  -0.460  -5.583  0.00  0.00     0.146 A 
ATOM     18  C   LIG d   1       5.046  -0.423  -4.434  0.00  0.00     0.035 A 
ATOM     19  H   LIG d   1       8.394  -3.086  -2.781  0.00  0.00     0.103 H 
ATOM     20  H   LIG d   1       5.553  -3.275  -7.015  0.00  0.00     0.063 H 
ATOM     21  H   LIG d   1       4.146  -3.474  -8.399  0.00  0.00     0.062 H 
ATOM     22  H   LIG d   1       2.743  -3.348 -10.415  0.00  0.00     0.065 H 
ATOM     23  H   LIG d   1       1.540   0.628  -9.396  0.00  0.00     0.066 H 
ENDROOT
BRANCH  11  24
ATOM     24  O   LIG d   1       1.293  -1.303 -11.145  0.00  0.00    -0.495 OA
BRANCH  24  25
ATOM     25  C   LIG d   1       1.937  -1.591 -12.387  0.00  0.00     0.079 C 
ATOM     26  H   LIG d   1       2.790  -2.247 -12.211  0.00  0.00     0.066 H 
ATOM     27  H   LIG d   1       1.233  -2.083 -13.057  0.00  0.00     0.066 H 
ATOM     28  H   LIG d   1       2.282  -0.662 -12.840  0.00  0.00     0.066 H 
ENDBRANCH  24  25
ENDBRANCH  11  24
BRANCH  18  29
ATOM     29  C   LIG d   1       4.853   0.689  -3.436  0.00  0.00    -0.033 C 
ATOM     30  H   LIG d   1       4.066   1.358  -3.785  0.00  0.00     0.028 H 
ATOM     31  H   LIG d   1       4.571   0.267  -2.471  0.00  0.00     0.028 H 
ATOM     32  H   LIG d   1       5.783   1.248  -3.331  0.00  0.00     0.028 H 
ENDBRANCH  18  29
BRANCH   1  33
ATOM     33  C   LIG d   1       7.824  -4.533  -5.204  0.00  0.00    -0.036 C 
ATOM     34  H   LIG d   1       8.823  -4.709  -4.808  0.00  0.00     0.028 H 
ATOM     35  H   LIG d   1       7.182  -5.380  -4.962  0.00  0.00     0.028 H 
ATOM     36  H   LIG d   1       7.877  -4.415  -6.287  0.00  0.00     0.028 H 
ENDBRANCH   1  33
TORSDOF 4
ENDMDL
MODEL 4
REMARK VINA RESULT:      -5.8      3.756      6.854
REMARK  4 active torsions:
REMARK  status: ('A' for Active; 'I' for Inactive)
REMARK    1  A    between atoms: C_1  and  C_2 
REMARK    2  A    between atoms: C_12  and  O_21 
REMARK    3  A    between atoms: C_19  and  C_20 
REMARK    4  A    between atoms: O_21  and  C_22 
ROOT
ATOM      1  C   LIG d   1      10.668  13.003  -0.156  0.00  0.00    -0.005 A 
ATOM      2  C   LIG d   1      11.132  13.586   0.957  0.00  0.00     0.096 A 
ATOM      3  O   LIG d   1      11.591  12.655   1.813  0.00  0.00    -0.462 OA
ATOM      4  C   LIG d   1      11.452  11.416   1.297  0.00  0.00     0.141 A 
ATOM      5  C   LIG d   1      10.852  11.557   0.031  0.00  0.00     0.024 A 
ATOM      6  C   LIG d   1      10.568  10.436  -0.740  0.00  0.00    -0.040 A 
ATOM      7  C   LIG d   1      10.879   9.175  -0.251  0.00  0.00     0.026 A 
ATOM      8  C   LIG d   1      10.570   7.960  -1.032  0.00  0.00    -0.000 A 
ATOM      9  C   LIG d   1      10.196   8.000  -2.368  0.00  0.00    -0.050 A 
ATOM     10  C   LIG d   1       9.918   6.821  -3.031  0.00  0.00    -0.019 A 
ATOM     11  C   LIG d   1      10.010   5.597  -2.375  0.00  0.00     0.121 A 
ATOM     12  C   LIG d   1      10.384   5.540  -1.042  0.00  0.00    -0.005 A 
ATOM     13  C   LIG d   1      10.668   6.719  -0.364  0.00  0.00     0.071 A 
ATOM     14  C   LIG d   1      11.078   6.741   1.053  0.00  0.00     0.345 C 
ATOM     15  O   LIG d   1      10.768   5.846   1.813  0.00  0.00    -0.244 OA
ATOM     16  O   LIG d   1      11.814   7.798   1.474  0.00  0.00    -0.421 OA
ATOM     17  C   LIG d   1      11.489   9.032   1.009  0.00  0.00     0.146 A 
ATOM     18  C   LIG d   1      11.772  10.152   1.771  0.00  0.00     0.035 A 
ATOM     19  H   LIG d   1      11.139  14.650   1.140  0.00  0.00     0.103 H 
ATOM     20  H   LIG d   1      10.108  10.546  -1.711  0.00  0.00     0.063 H 
ATOM     21  H   LIG d   1      10.121   8.945  -2.883  0.00  0.00     0.062 H 
ATOM     22  H   LIG d   1       9.626   6.850  -4.071  0.00  0.00     0.065 H 
ATOM     23  H   LIG d   1      10.455   4.588  -0.536  0.00  0.00     0.066 H 
ENDROOT
BRANCH  11  24
ATOM     24  O   LIG d   1       9.730   4.450  -3.047  0.00  0.00    -0.495 OA
BRANCH  24  25
ATOM     25  C   LIG d   1      10.526   3.305  -2.737  0.00  0.00     0.079 C 
ATOM     26  H   LIG d   1       9.928   2.589  -2.173  0.00  0.00     0.066 H 
ATOM     27  H   LIG d   1      10.873   2.842  -3.660  0.00  0.00     0.066 H 
ATOM     28  H   LIG d   1      11.384   3.612  -2.139  0.00  0.00     0.066 H 
ENDBRANCH  24  25
ENDBRANCH  11  24
BRANCH  18  29
ATOM     29  C   LIG d   1      12.412   9.996   3.126  0.00  0.00    -0.033 C 
ATOM     30  H   LIG d   1      12.467  10.968   3.616  0.00  0.00     0.028 H 
ATOM     31  H   LIG d   1      11.816   9.315   3.734  0.00  0.00     0.028 H 
ATOM     32  H   LIG d   1      13.417   9.592   3.008  0.00  0.00     0.028 H 
ENDBRANCH  18  29
BRANCH   1  33
ATOM     33  C   LIG d   1      10.070  13.691  -1.356  0.00  0.00    -0.036 C 
ATOM     34  H   LIG d   1      10.250  13.090  -2.246  0.00  0.00     0.028 H 
ATOM     35  H   LIG d   1       8.997  13.811  -1.208  0.00  0.00     0.028 H 
ATOM     36  H   LIG d   1      10.531  14.671  -1.479  0.00  0.00     0.028 H 
ENDBRANCH   1  33
TORSDOF 4
ENDMDL
MODEL 5
REMARK VINA RESULT:      -5.7      2.200      3.550
REMARK  4 active torsions:
REMARK  status: ('A' for Active; 'I' for Inactive)
REMARK    1  A    between atoms: C_1  and  C_2 
REMARK    2  A    between atoms: C_12  and  O_21 
REMARK    3  A    between atoms: C_19  and  C_20 
REMARK    4  A    between atoms: O_21  and  C_22 
ROOT
ATOM      1  C   LIG d   1       9.587   3.076  -4.738  0.00  0.00    -0.005 A 
ATOM      2  C   LIG d   1       9.262   3.425  -5.989  0.00  0.00     0.096 A 
ATOM      3  O   LIG d   1       9.244   4.765  -6.108  0.00  0.00    -0.462 OA
ATOM      4  C   LIG d   1       9.562   5.357  -4.938  0.00  0.00     0.141 A 
ATOM      5  C   LIG d   1       9.787   4.331  -4.001  0.00  0.00     0.024 A 
ATOM      6  C   LIG d   1      10.121   4.641  -2.687  0.00  0.00    -0.040 A 
ATOM      7  C   LIG d   1      10.231   5.972  -2.307  0.00  0.00     0.026 A 
ATOM      8  C   LIG d   1      10.561   6.340  -0.915  0.00  0.00    -0.000 A 
ATOM      9  C   LIG d   1      11.019   5.420   0.017  0.00  0.00    -0.050 A 
ATOM     10  C   LIG d   1      11.303   5.837   1.302  0.00  0.00    -0.019 A 
ATOM     11  C   LIG d   1      11.134   7.169   1.670  0.00  0.00     0.121 A 
ATOM     12  C   LIG d   1      10.680   8.101   0.751  0.00  0.00    -0.005 A 
ATOM     13  C   LIG d   1      10.392   7.693  -0.546  0.00  0.00     0.071 A 
ATOM     14  C   LIG d   1       9.910   8.625  -1.583  0.00  0.00     0.345 C 
ATOM     15  O   LIG d   1       9.319   9.645  -1.289  0.00  0.00    -0.244 OA
ATOM     16  O   LIG d   1      10.149   8.299  -2.876  0.00  0.00    -0.421 OA
ATOM     17  C   LIG d   1      10.018   6.999  -3.246  0.00  0.00     0.146 A 
ATOM     18  C   LIG d   1       9.688   6.684  -4.552  0.00  0.00     0.035 A 
ATOM     19  H   LIG d   1       9.046   2.731  -6.788  0.00  0.00     0.103 H 
ATOM     20  H   LIG d   1      10.293   3.853  -1.969  0.00  0.00     0.063 H 
ATOM     21  H   LIG d   1      11.151   4.385  -0.261  0.00  0.00     0.062 H 
ATOM     22  H   LIG d   1      11.659   5.123   2.029  0.00  0.00     0.065 H 
ATOM     23  H   LIG d   1      10.550   9.134   1.039  0.00  0.00     0.066 H 
ENDROOT
BRANCH  11  24
ATOM     24  O   LIG d   1      11.418   7.558   2.941  0.00  0.00    -0.495 OA
BRANCH  24  25
ATOM     25  C   LIG d   1      11.043   6.665   3.991  0.00  0.00     0.079 C 
ATOM     26  H   LIG d   1      11.674   6.843   4.862  0.00  0.00     0.066 H 
ATOM     27  H   LIG d   1      10.000   6.834   4.258  0.00  0.00     0.066 H 
ATOM     28  H   LIG d   1      11.170   5.636   3.655  0.00  0.00     0.066 H 
ENDBRANCH  24  25
ENDBRANCH  11  24
BRANCH  18  29
ATOM     29  C   LIG d   1       9.447   7.784  -5.552  0.00  0.00    -0.033 C 
ATOM     30  H   LIG d   1       8.877   7.392  -6.395  0.00  0.00     0.028 H 
ATOM     31  H   LIG d   1       8.887   8.591  -5.078  0.00  0.00     0.028 H 
ATOM     32  H   LIG d   1      10.404   8.167  -5.908  0.00  0.00     0.028 H 
ENDBRANCH  18  29
BRANCH   1  33
ATOM     33  C   LIG d   1       9.715   1.677  -4.193  0.00  0.00    -0.036 C 
ATOM     34  H   LIG d   1       9.813   0.973  -5.019  0.00  0.00     0.028 H 
ATOM     35  H   LIG d   1      10.596   1.614  -3.555  0.00  0.00     0.028 H 
ATOM     36  H   LIG d   1       8.827   1.432  -3.610  0.00  0.00     0.028 H 
ENDBRANCH   1  33
TORSDOF 4
ENDMDL
MODEL 6
REMARK VINA RESULT:      -5.5      2.290      4.366
REMARK  4 active torsions:
REMARK  status: ('A' for Active; 'I' for Inactive)
REMARK    1  A    between atoms: C_1  and  C_2 
REMARK    2  A    between atoms: C_12  and  O_21 
REMARK    3  A    between atoms: C_19  and  C_20 
REMARK    4  A    between atoms: O_21  and  C_22 
ROOT
ATOM      1  C   LIG d   1       9.693   7.756  -5.927  0.00  0.00    -0.005 A 
ATOM      2  C   LIG d   1       9.503   6.528  -6.426  0.00  0.00     0.096 A 
ATOM      3  O   LIG d   1       9.596   5.608  -5.448  0.00  0.00    -0.462 OA
ATOM      4  C   LIG d   1       9.849   6.194  -4.259  0.00  0.00     0.141 A 
ATOM      5  C   LIG d   1       9.937   7.580  -4.488  0.00  0.00     0.024 A 
ATOM      6  C   LIG d   1      10.207   8.450  -3.438  0.00  0.00    -0.040 A 
ATOM      7  C   LIG d   1      10.392   7.940  -2.160  0.00  0.00     0.026 A 
ATOM      8  C   LIG d   1      10.704   8.831  -1.024  0.00  0.00    -0.000 A 
ATOM      9  C   LIG d   1      10.588  10.211  -1.098  0.00  0.00    -0.050 A 
ATOM     10  C   LIG d   1      10.903  10.980   0.005  0.00  0.00    -0.019 A 
ATOM     11  C   LIG d   1      11.334  10.384   1.187  0.00  0.00     0.121 A 
ATOM     12  C   LIG d   1      11.453   9.007   1.278  0.00  0.00    -0.005 A 
ATOM     13  C   LIG d   1      11.138   8.222   0.175  0.00  0.00     0.071 A 
ATOM     14  C   LIG d   1      11.234   6.751   0.194  0.00  0.00     0.345 C 
ATOM     15  O   LIG d   1      11.987   6.177   0.955  0.00  0.00    -0.244 OA
ATOM     16  O   LIG d   1      10.451   6.062  -0.671  0.00  0.00    -0.421 OA
ATOM     17  C   LIG d   1      10.293   6.555  -1.926  0.00  0.00     0.146 A 
ATOM     18  C   LIG d   1      10.021   5.695  -2.976  0.00  0.00     0.035 A 
ATOM     19  H   LIG d   1       9.301   6.308  -7.464  0.00  0.00     0.103 H 
ATOM     20  H   LIG d   1      10.274   9.513  -3.616  0.00  0.00     0.063 H 
ATOM     21  H   LIG d   1      10.255  10.681  -2.011  0.00  0.00     0.062 H 
ATOM     22  H   LIG d   1      10.813  12.055  -0.050  0.00  0.00     0.065 H 
ATOM     23  H   LIG d   1      11.788   8.548   2.196  0.00  0.00     0.066 H 
ENDROOT
BRANCH  11  24
ATOM     24  O   LIG d   1      11.640  11.160   2.260  0.00  0.00    -0.495 OA
BRANCH  24  25
ATOM     25  C   LIG d   1      12.578  10.629   3.198  0.00  0.00     0.079 C 
ATOM     26  H   LIG d   1      12.532   9.540   3.181  0.00  0.00     0.066 H 
ATOM     27  H   LIG d   1      13.583  10.955   2.931  0.00  0.00     0.066 H 
ATOM     28  H   LIG d   1      12.332  10.987   4.197  0.00  0.00     0.066 H 
ENDBRANCH  24  25
ENDBRANCH  11  24
BRANCH  18  29
ATOM     29  C   LIG d   1       9.930   4.212  -2.727  0.00  0.00    -0.033 C 
ATOM     30  H   LIG d   1      10.729   3.906  -2.052  0.00  0.00     0.028 H 
ATOM     31  H   LIG d   1       8.964   3.977  -2.277  0.00  0.00     0.028 H 
ATOM     32  H   LIG d   1      10.029   3.679  -3.672  0.00  0.00     0.028 H 
ENDBRANCH  18  29
BRANCH   1  33
ATOM     33  C   LIG d   1       9.670   9.056  -6.688  0.00  0.00    -0.036 C 
ATOM     34  H   LIG d   1      10.106   9.844  -6.076  0.00  0.00     0.028 H 
ATOM     35  H   LIG d   1      10.246   8.949  -7.607  0.00  0.00     0.028 H 
ATOM     36  H   LIG d   1       8.639   9.314  -6.934  0.00  0.00     0.028 H 
ENDBRANCH   1  33
TORSDOF 4
ENDMDL
MODEL 7
REMARK VINA RESULT:      -5.5      2.410      4.219
REMARK  4 active torsions:
REMARK  status: ('A' for Active; 'I' for Inactive)
REMARK    1  A    between atoms: C_1  and  C_2 
REMARK    2  A    between atoms: C_12  and  O_21 
REMARK    3  A    between atoms: C_19  and  C_20 
REMARK    4  A    between atoms: O_21  and  C_22 
ROOT
ATOM      1  C   LIG d   1       9.687   6.655  -8.838  0.00  0.00    -0.005 A 
ATOM      2  C   LIG d   1       9.575   5.689  -9.758  0.00  0.00     0.096 A 
ATOM      3  O   LIG d   1       9.512   4.484  -9.163  0.00  0.00    -0.462 OA
ATOM      4  C   LIG d   1       9.574   4.606  -7.820  0.00  0.00     0.141 A 
ATOM      5  C   LIG d   1       9.699   5.979  -7.534  0.00  0.00     0.024 A 
ATOM      6  C   LIG d   1       9.802   6.414  -6.217  0.00  0.00    -0.040 A 
ATOM      7  C   LIG d   1       9.781   5.484  -5.187  0.00  0.00     0.026 A 
ATOM      8  C   LIG d   1       9.911   5.907  -3.778  0.00  0.00    -0.000 A 
ATOM      9  C   LIG d   1       9.810   7.232  -3.379  0.00  0.00    -0.050 A 
ATOM     10  C   LIG d   1       9.947   7.552  -2.043  0.00  0.00    -0.019 A 
ATOM     11  C   LIG d   1      10.185   6.561  -1.096  0.00  0.00     0.121 A 
ATOM     12  C   LIG d   1      10.287   5.233  -1.477  0.00  0.00    -0.005 A 
ATOM     13  C   LIG d   1      10.149   4.898  -2.818  0.00  0.00     0.071 A 
ATOM     14  C   LIG d   1      10.238   3.508  -3.303  0.00  0.00     0.345 C 
ATOM     15  O   LIG d   1      10.860   2.664  -2.689  0.00  0.00    -0.244 OA
ATOM     16  O   LIG d   1       9.600   3.207  -4.460  0.00  0.00    -0.421 OA
ATOM     17  C   LIG d   1       9.644   4.112  -5.471  0.00  0.00     0.146 A 
ATOM     18  C   LIG d   1       9.540   3.685  -6.783  0.00  0.00     0.035 A 
ATOM     19  H   LIG d   1       9.540   5.853 -10.825  0.00  0.00     0.103 H 
ATOM     20  H   LIG d   1       9.897   7.468  -5.999  0.00  0.00     0.063 H 
ATOM     21  H   LIG d   1       9.626   8.007  -4.108  0.00  0.00     0.062 H 
ATOM     22  H   LIG d   1       9.870   8.583  -1.731  0.00  0.00     0.065 H 
ATOM     23  H   LIG d   1      10.471   4.466  -0.739  0.00  0.00     0.066 H 
ENDROOT
BRANCH  11  24
ATOM     24  O   LIG d   1      10.319   6.899   0.214  0.00  0.00    -0.495 OA
BRANCH  24  25
ATOM     25  C   LIG d   1      11.116   6.037   1.028  0.00  0.00     0.079 C 
ATOM     26  H   LIG d   1      11.281   5.094   0.506  0.00  0.00     0.066 H 
ATOM     27  H   LIG d   1      12.075   6.513   1.231  0.00  0.00     0.066 H 
ATOM     28  H   LIG d   1      10.598   5.846   1.968  0.00  0.00     0.066 H 
ENDBRANCH  24  25
ENDBRANCH  11  24
BRANCH  18  29
ATOM     29  C   LIG d   1       9.408   2.216  -7.087  0.00  0.00    -0.033 C 
ATOM     30  H   LIG d   1       8.839   1.730  -6.294  0.00  0.00     0.028 H 
ATOM     31  H   LIG d   1       8.891   2.085  -8.038  0.00  0.00     0.028 H 
ATOM     32  H   LIG d   1      10.399   1.767  -7.148  0.00  0.00     0.028 H 
ENDBRANCH  18  29
BRANCH   1  33
ATOM     33  C   LIG d   1       9.786   8.137  -9.090  0.00  0.00    -0.036 C 
ATOM     34  H   LIG d   1       8.996   8.652  -8.545  0.00  0.00     0.028 H 
ATOM     35  H   LIG d   1      10.757   8.499  -8.751  0.00  0.00     0.028 H 
ATOM     36  H   LIG d   1       9.679   8.332 -10.157  0.00  0.00     0.028 H 
ENDBRANCH   1  33
TORSDOF 4
ENDMDL
MODEL 8
REMARK VINA RESULT:      -5.5      2.923      6.322
REMARK  4 active torsions:
REMARK  status: ('A' for Active; 'I' for Inactive)
REMARK    1  A    between atoms: C_1  and  C_2 
REMARK    2  A    between atoms: C_12  and  O_21 
REMARK    3  A    between atoms: C_19  and  C_20 
REMARK    4  A    between atoms: O_21  and  C_22 
ROOT
ATOM      1  C   LIG d   1      10.917   6.819   0.685  0.00  0.00    -0.005 A 
ATOM      2  C   LIG d   1      11.099   8.129   0.889  0.00  0.00     0.096 A 
ATOM      3  O   LIG d   1      10.898   8.810  -0.253  0.00  0.00    -0.462 OA
ATOM      4  C   LIG d   1      10.571   7.975  -1.261  0.00  0.00     0.141 A 
ATOM      5  C   LIG d   1      10.574   6.669  -0.735  0.00  0.00     0.024 A 
ATOM      6  C   LIG d   1      10.285   5.582  -1.554  0.00  0.00    -0.040 A 
ATOM      7  C   LIG d   1       9.994   5.796  -2.894  0.00  0.00     0.026 A 
ATOM      8  C   LIG d   1       9.705   4.664  -3.798  0.00  0.00    -0.000 A 
ATOM      9  C   LIG d   1       9.461   3.378  -3.339  0.00  0.00    -0.050 A 
ATOM     10  C   LIG d   1       9.202   2.370  -4.245  0.00  0.00    -0.019 A 
ATOM     11  C   LIG d   1       9.185   2.630  -5.612  0.00  0.00     0.121 A 
ATOM     12  C   LIG d   1       9.425   3.909  -6.088  0.00  0.00    -0.005 A 
ATOM     13  C   LIG d   1       9.685   4.933  -5.185  0.00  0.00     0.071 A 
ATOM     14  C   LIG d   1       9.944   6.321  -5.611  0.00  0.00     0.345 C 
ATOM     15  O   LIG d   1      10.387   6.570  -6.716  0.00  0.00    -0.244 OA
ATOM     16  O   LIG d   1       9.672   7.309  -4.725  0.00  0.00    -0.421 OA
ATOM     17  C   LIG d   1       9.979   7.102  -3.419  0.00  0.00     0.146 A 
ATOM     18  C   LIG d   1      10.266   8.179  -2.599  0.00  0.00     0.035 A 
ATOM     19  H   LIG d   1      11.366   8.576   1.836  0.00  0.00     0.103 H 
ATOM     20  H   LIG d   1      10.287   4.581  -1.149  0.00  0.00     0.063 H 
ATOM     21  H   LIG d   1       9.474   3.168  -2.280  0.00  0.00     0.062 H 
ATOM     22  H   LIG d   1       9.013   1.368  -3.890  0.00  0.00     0.065 H 
ATOM     23  H   LIG d   1       9.411   4.108  -7.150  0.00  0.00     0.066 H 
ENDROOT
BRANCH  11  24
ATOM     24  O   LIG d   1       8.931   1.622  -6.487  0.00  0.00    -0.495 OA
BRANCH  24  25
ATOM     25  C   LIG d   1       7.864   0.731  -6.158  0.00  0.00     0.079 C 
ATOM     26  H   LIG d   1       7.957  -0.181  -6.748  0.00  0.00     0.066 H 
ATOM     27  H   LIG d   1       7.910   0.484  -5.097  0.00  0.00     0.066 H 
ATOM     28  H   LIG d   1       6.910   1.210  -6.378  0.00  0.00     0.066 H 
ENDBRANCH  24  25
ENDBRANCH  11  24
BRANCH  18  29
ATOM     29  C   LIG d   1      10.264   9.575  -3.165  0.00  0.00    -0.033 C 
ATOM     30  H   LIG d   1      10.518   9.539  -4.224  0.00  0.00     0.028 H 
ATOM     31  H   LIG d   1       9.274  10.016  -3.043  0.00  0.00     0.028 H 
ATOM     32  H   LIG d   1      10.999  10.182  -2.637  0.00  0.00     0.028 H 
ENDBRANCH  18  29
BRANCH   1  33
ATOM     33  C   LIG d   1      11.047   5.717   1.706  0.00  0.00    -0.036 C 
ATOM     34  H   LIG d   1      11.236   4.772   1.198  0.00  0.00     0.028 H 
ATOM     35  H   LIG d   1      11.875   5.941   2.379  0.00  0.00     0.028 H 
ATOM     36  H   LIG d   1      10.122   5.644   2.279  0.00  0.00     0.028 H 
ENDBRANCH   1  33
TORSDOF 4
ENDMDL
MODEL 9
REMARK VINA RESULT:      -5.4     10.744     12.982
REMARK  4 active torsions:
REMARK  status: ('A' for Active; 'I' for Inactive)
REMARK    1  A    between atoms: C_1  and  C_2 
REMARK    2  A    between atoms: C_12  and  O_21 
REMARK    3  A    between atoms: C_19  and  C_20 
REMARK    4  A    between atoms: O_21  and  C_22 
ROOT
ATOM      1  C   LIG d   1       7.422   0.663  -3.904  0.00  0.00    -0.005 A 
ATOM      2  C   LIG d   1       6.488   1.381  -3.267  0.00  0.00     0.096 A 
ATOM      3  O   LIG d   1       5.385   0.637  -3.067  0.00  0.00    -0.462 OA
ATOM      4  C   LIG d   1       5.548  -0.608  -3.561  0.00  0.00     0.141 A 
ATOM      5  C   LIG d   1       6.835  -0.665  -4.128  0.00  0.00     0.024 A 
ATOM      6  C   LIG d   1       7.284  -1.833  -4.734  0.00  0.00    -0.040 A 
ATOM      7  C   LIG d   1       6.451  -2.943  -4.777  0.00  0.00     0.026 A 
ATOM      8  C   LIG d   1       6.884  -4.193  -5.433  0.00  0.00    -0.000 A 
ATOM      9  C   LIG d   1       8.198  -4.426  -5.814  0.00  0.00    -0.050 A 
ATOM     10  C   LIG d   1       8.527  -5.618  -6.428  0.00  0.00    -0.019 A 
ATOM     11  C   LIG d   1       7.557  -6.586  -6.667  0.00  0.00     0.121 A 
ATOM     12  C   LIG d   1       6.241  -6.371  -6.291  0.00  0.00    -0.005 A 
ATOM     13  C   LIG d   1       5.897  -5.175  -5.671  0.00  0.00     0.071 A 
ATOM     14  C   LIG d   1       4.520  -4.873  -5.236  0.00  0.00     0.345 C 
ATOM     15  O   LIG d   1       3.562  -5.399  -5.766  0.00  0.00    -0.244 OA
ATOM     16  O   LIG d   1       4.365  -3.986  -4.224  0.00  0.00    -0.421 OA
ATOM     17  C   LIG d   1       5.168  -2.891  -4.200  0.00  0.00     0.146 A 
ATOM     18  C   LIG d   1       4.728  -1.726  -3.596  0.00  0.00     0.035 A 
ATOM     19  H   LIG d   1       6.604   2.409  -2.958  0.00  0.00     0.103 H 
ATOM     20  H   LIG d   1       8.272  -1.876  -5.168  0.00  0.00     0.063 H 
ATOM     21  H   LIG d   1       8.957  -3.679  -5.633  0.00  0.00     0.062 H 
ATOM     22  H   LIG d   1       9.549  -5.800  -6.726  0.00  0.00     0.065 H 
ATOM     23  H   LIG d   1       5.489  -7.124  -6.477  0.00  0.00     0.066 H 
ENDROOT
BRANCH  11  24
ATOM     24  O   LIG d   1       7.903  -7.752  -7.274  0.00  0.00    -0.495 OA
BRANCH  24  25
ATOM     25  C   LIG d   1       6.867  -8.719  -7.460  0.00  0.00     0.079 C 
ATOM     26  H   LIG d   1       6.625  -9.180  -6.502  0.00  0.00     0.066 H 
ATOM     27  H   LIG d   1       5.981  -8.229  -7.863  0.00  0.00     0.066 H 
ATOM     28  H   LIG d   1       7.208  -9.485  -8.156  0.00  0.00     0.066 H 
ENDBRANCH  24  25
ENDBRANCH  11  24
BRANCH  18  29
ATOM     29  C   LIG d   1       3.349  -1.668  -2.992  0.00  0.00    -0.033 C 
ATOM     30  H   LIG d   1       3.399  -1.962  -1.944  0.00  0.00     0.028 H 
ATOM     31  H   LIG d   1       2.961  -0.652  -3.068  0.00  0.00     0.028 H 
ATOM     32  H   LIG d   1       2.689  -2.350  -3.529  0.00  0.00     0.028 H 
ENDBRANCH  18  29
BRANCH   1  33
ATOM     33  C   LIG d   1       8.796   1.126  -4.314  0.00  0.00    -0.036 C 
ATOM     34  H   LIG d   1       9.393   1.325  -3.425  0.00  0.00     0.028 H 
ATOM     35  H   LIG d   1       9.278   0.352  -4.910  0.00  0.00     0.028 H 
ATOM     36  H   LIG d   1       8.709   2.038  -4.906  0.00  0.00     0.028 H 
ENDBRANCH   1  33
TORSDOF 4
ENDMDL
MODEL 10
REMARK VINA RESULT:      -5.4      1.852      3.459
REMARK  4 active torsions:
REMARK  status: ('A' for Active; 'I' for Inactive)
REMARK    1  A    between atoms: C_1  and  C_2 
REMARK    2  A    between atoms: C_12  and  O_21 
REMARK    3  A    between atoms: C_19  and  C_20 
REMARK    4  A    between atoms: O_21  and  C_22 
ROOT
ATOM      1  C   LIG d   1      11.405  12.047  -6.644  0.00  0.00    -0.005 A 
ATOM      2  C   LIG d   1      11.052  12.088  -7.935  0.00  0.00     0.096 A 
ATOM      3  O   LIG d   1      10.328  10.999  -8.253  0.00  0.00    -0.462 OA
ATOM      4  C   LIG d   1      10.169  10.196  -7.181  0.00  0.00     0.141 A 
ATOM      5  C   LIG d   1      10.847  10.800  -6.105  0.00  0.00     0.024 A 
ATOM      6  C   LIG d   1      10.871  10.186  -4.857  0.00  0.00    -0.040 A 
ATOM      7  C   LIG d   1      10.222   8.972  -4.682  0.00  0.00     0.026 A 
ATOM      8  C   LIG d   1      10.246   8.279  -3.378  0.00  0.00    -0.000 A 
ATOM      9  C   LIG d   1      10.683   8.889  -2.211  0.00  0.00    -0.050 A 
ATOM     10  C   LIG d   1      10.681   8.176  -1.029  0.00  0.00    -0.019 A 
ATOM     11  C   LIG d   1      10.245   6.854  -0.997  0.00  0.00     0.121 A 
ATOM     12  C   LIG d   1       9.803   6.231  -2.152  0.00  0.00    -0.005 A 
ATOM     13  C   LIG d   1       9.799   6.939  -3.348  0.00  0.00     0.071 A 
ATOM     14  C   LIG d   1       9.339   6.349  -4.619  0.00  0.00     0.345 C 
ATOM     15  O   LIG d   1       9.370   5.149  -4.805  0.00  0.00    -0.244 OA
ATOM     16  O   LIG d   1       8.880   7.195  -5.572  0.00  0.00    -0.421 OA
ATOM     17  C   LIG d   1       9.534   8.372  -5.754  0.00  0.00     0.146 A 
ATOM     18  C   LIG d   1       9.512   8.989  -6.992  0.00  0.00     0.035 A 
ATOM     19  H   LIG d   1      11.310  12.880  -8.621  0.00  0.00     0.103 H 
ATOM     20  H   LIG d   1      11.391  10.651  -4.033  0.00  0.00     0.063 H 
ATOM     21  H   LIG d   1      11.024   9.913  -2.228  0.00  0.00     0.062 H 
ATOM     22  H   LIG d   1      11.022   8.648  -0.119  0.00  0.00     0.065 H 
ATOM     23  H   LIG d   1       9.465   5.205  -2.124  0.00  0.00     0.066 H 
ENDROOT
BRANCH  11  24
ATOM     24  O   LIG d   1      10.254   6.170   0.178  0.00  0.00    -0.495 OA
BRANCH  24  25
ATOM     25  C   LIG d   1      11.152   6.629   1.190  0.00  0.00     0.079 C 
ATOM     26  H   LIG d   1      10.748   6.385   2.172  0.00  0.00     0.066 H 
ATOM     27  H   LIG d   1      12.120   6.143   1.064  0.00  0.00     0.066 H 
ATOM     28  H   LIG d   1      11.273   7.709   1.104  0.00  0.00     0.066 H 
ENDBRANCH  24  25
ENDBRANCH  11  24
BRANCH  18  29
ATOM     29  C   LIG d   1       8.787   8.339  -8.142  0.00  0.00    -0.033 C 
ATOM     30  H   LIG d   1       7.963   7.737  -7.759  0.00  0.00     0.028 H 
ATOM     31  H   LIG d   1       8.396   9.109  -8.808  0.00  0.00     0.028 H 
ATOM     32  H   LIG d   1       9.478   7.700  -8.692  0.00  0.00     0.028 H 
ENDBRANCH  18  29
BRANCH   1  33
ATOM     33  C   LIG d   1      12.219  13.071  -5.896  0.00  0.00    -0.036 C 
ATOM     34  H   LIG d   1      12.815  13.648  -6.602  0.00  0.00     0.028 H 
ATOM     35  H   LIG d   1      11.551  13.740  -5.352  0.00  0.00     0.028 H 
ATOM     36  H   LIG d   1      12.880  12.566  -5.191  0.00  0.00     0.028 H 
ENDBRANCH   1  33
TORSDOF 4
ENDMDL
