MODEL 1
REMARK VINA RESULT:      -7.2      0.000      0.000
REMARK  5 active torsions:
REMARK  status: ('A' for Active; 'I' for Inactive)
REMARK    1  A    between atoms: C_4  and  N_7 
REMARK    2  A    between atoms: N_7  and  C_8 
REMARK       I    between atoms: N_7  and  C_14 
REMARK    3  A    between atoms: C_14  and  C_16 
REMARK    4  A    between atoms: C_16  and  C_17 
REMARK    5  A    between atoms: C_16  and  C_21 
ROOT
ATOM      1  N   LIG d   1       4.305  -0.367  -5.895  0.00  0.00    -0.240 N 
ATOM      2  C   LIG d   1       3.657  -0.192  -4.726  0.00  0.00     0.245 C 
ATOM      3  O   LIG d   1       2.474   0.080  -4.724  0.00  0.00    -0.274 OA
ENDROOT
BRANCH   1   4
ATOM      4  C   LIG d   1       5.640  -0.791  -5.898  0.00  0.00     0.041 A 
ATOM      5  C   LIG d   1       5.938  -2.147  -5.875  0.00  0.00    -0.040 A 
ATOM      6  C   LIG d   1       7.256  -2.563  -5.879  0.00  0.00    -0.060 A 
ATOM      7  H   LIG d   1       5.142  -2.876  -5.855  0.00  0.00     0.064 H 
ATOM      8  C   LIG d   1       8.276  -1.630  -5.905  0.00  0.00    -0.062 A 
ATOM      9  H   LIG d   1       7.489  -3.618  -5.861  0.00  0.00     0.062 H 
ATOM     10  C   LIG d   1       7.982  -0.279  -5.927  0.00  0.00    -0.060 A 
ATOM     11  H   LIG d   1       9.305  -1.958  -5.903  0.00  0.00     0.062 H 
ATOM     12  C   LIG d   1       6.667   0.143  -5.924  0.00  0.00    -0.040 A 
ATOM     13  H   LIG d   1       8.782   0.447  -5.948  0.00  0.00     0.062 H 
ATOM     14  H   LIG d   1       6.439   1.198  -5.942  0.00  0.00     0.064 H 
ENDBRANCH   1   4
BRANCH   1  15
ATOM     15  C   LIG d   1       3.645  -0.122  -7.105  0.00  0.00     0.041 A 
ATOM     16  C   LIG d   1       3.254  -1.184  -7.910  0.00  0.00    -0.040 A 
ATOM     17  C   LIG d   1       2.598  -0.940  -9.101  0.00  0.00    -0.060 A 
ATOM     18  H   LIG d   1       3.459  -2.199  -7.605  0.00  0.00     0.064 H 
ATOM     19  C   LIG d   1       2.339   0.360  -9.497  0.00  0.00    -0.062 A 
ATOM     20  H   LIG d   1       2.289  -1.765  -9.725  0.00  0.00     0.062 H 
ATOM     21  C   LIG d   1       2.733   1.419  -8.700  0.00  0.00    -0.060 A 
ATOM     22  H   LIG d   1       1.830   0.549 -10.430  0.00  0.00     0.062 H 
ATOM     23  C   LIG d   1       3.385   1.182  -7.505  0.00  0.00    -0.040 A 
ATOM     24  H   LIG d   1       2.530   2.434  -9.011  0.00  0.00     0.062 H 
ATOM     25  H   LIG d   1       3.690   2.009  -6.883  0.00  0.00     0.064 H 
ENDBRANCH   1  15
BRANCH   2  26
ATOM     26  C   LIG d   1       4.399  -0.335  -3.423  0.00  0.00     0.225 C 
ATOM     27  H   LIG d   1       5.459  -0.494  -3.624  0.00  0.00     0.057 H 
BRANCH  26  28
ATOM     28  C   LIG d   1       4.224   0.938  -2.594  0.00  0.00     0.409 C 
ATOM     29  F   LIG d   1       2.939   0.961  -2.041  0.00  0.00    -0.170 F 
ATOM     30  F   LIG d   1       5.174   0.960  -1.567  0.00  0.00    -0.170 F 
ATOM     31  F   LIG d   1       4.399   2.057  -3.414  0.00  0.00    -0.170 F 
ENDBRANCH  26  28
BRANCH  26  32
ATOM     32  C   LIG d   1       3.843  -1.530  -2.647  0.00  0.00     0.409 C 
ATOM     33  F   LIG d   1       4.158  -2.714  -3.325  0.00  0.00    -0.170 F 
ATOM     34  F   LIG d   1       4.409  -1.562  -1.368  0.00  0.00    -0.170 F 
ATOM     35  F   LIG d   1       2.454  -1.411  -2.540  0.00  0.00    -0.170 F 
ENDBRANCH  26  32
ENDBRANCH   2  26
TORSDOF 5
ENDMDL
MODEL 2
REMARK VINA RESULT:      -7.2      0.027      1.386
REMARK  5 active torsions:
REMARK  status: ('A' for Active; 'I' for Inactive)
REMARK    1  A    between atoms: C_4  and  N_7 
REMARK    2  A    between atoms: N_7  and  C_8 
REMARK       I    between atoms: N_7  and  C_14 
REMARK    3  A    between atoms: C_14  and  C_16 
REMARK    4  A    between atoms: C_16  and  C_17 
REMARK    5  A    between atoms: C_16  and  C_21 
ROOT
ATOM      1  N   LIG d   1       4.302  -0.358  -5.900  0.00  0.00    -0.240 N 
ATOM      2  C   LIG d   1       3.650  -0.191  -4.732  0.00  0.00     0.245 C 
ATOM      3  O   LIG d   1       2.466   0.074  -4.731  0.00  0.00    -0.274 OA
ENDROOT
BRANCH   1   4
ATOM      4  C   LIG d   1       5.639  -0.776  -5.901  0.00  0.00     0.041 A 
ATOM      5  C   LIG d   1       6.661   0.163  -5.899  0.00  0.00    -0.040 A 
ATOM      6  C   LIG d   1       7.978  -0.252  -5.899  0.00  0.00    -0.060 A 
ATOM      7  H   LIG d   1       6.427   1.217  -5.897  0.00  0.00     0.064 H 
ATOM      8  C   LIG d   1       8.279  -1.602  -5.902  0.00  0.00    -0.062 A 
ATOM      9  H   LIG d   1       8.774   0.478  -5.898  0.00  0.00     0.062 H 
ATOM     10  C   LIG d   1       7.263  -2.540  -5.904  0.00  0.00    -0.060 A 
ATOM     11  H   LIG d   1       9.310  -1.924  -5.907  0.00  0.00     0.062 H 
ATOM     12  C   LIG d   1       5.944  -2.131  -5.904  0.00  0.00    -0.040 A 
ATOM     13  H   LIG d   1       7.502  -3.593  -5.906  0.00  0.00     0.062 H 
ATOM     14  H   LIG d   1       5.152  -2.864  -5.905  0.00  0.00     0.064 H 
ENDBRANCH   1   4
BRANCH   1  15
ATOM     15  C   LIG d   1       3.643  -0.114  -7.110  0.00  0.00     0.041 A 
ATOM     16  C   LIG d   1       3.374   1.191  -7.504  0.00  0.00    -0.040 A 
ATOM     17  C   LIG d   1       2.728   1.430  -8.702  0.00  0.00    -0.060 A 
ATOM     18  H   LIG d   1       3.671   2.018  -6.877  0.00  0.00     0.064 H 
ATOM     19  C   LIG d   1       2.341   0.371  -9.504  0.00  0.00    -0.062 A 
ATOM     20  H   LIG d   1       2.523   2.444  -9.010  0.00  0.00     0.062 H 
ATOM     21  C   LIG d   1       2.602  -0.929  -9.111  0.00  0.00    -0.060 A 
ATOM     22  H   LIG d   1       1.832   0.560 -10.437  0.00  0.00     0.062 H 
ATOM     23  C   LIG d   1       3.252  -1.174  -7.917  0.00  0.00    -0.040 A 
ATOM     24  H   LIG d   1       2.298  -1.753  -9.739  0.00  0.00     0.062 H 
ATOM     25  H   LIG d   1       3.458  -2.189  -7.613  0.00  0.00     0.064 H 
ENDBRANCH   1  15
BRANCH   2  26
ATOM     26  C   LIG d   1       4.391  -0.334  -3.428  0.00  0.00     0.225 C 
ATOM     27  H   LIG d   1       5.453  -0.479  -3.627  0.00  0.00     0.057 H 
BRANCH  26  28
ATOM     28  C   LIG d   1       4.198   0.931  -2.590  0.00  0.00     0.409 C 
ATOM     29  F   LIG d   1       2.921   0.924  -2.021  0.00  0.00    -0.170 F 
ATOM     30  F   LIG d   1       5.161   0.970  -1.576  0.00  0.00    -0.170 F 
ATOM     31  F   LIG d   1       4.338   2.058  -3.408  0.00  0.00    -0.170 F 
ENDBRANCH  26  28
BRANCH  26  32
ATOM     32  C   LIG d   1       3.847  -1.541  -2.661  0.00  0.00     0.409 C 
ATOM     33  F   LIG d   1       4.163  -2.715  -3.355  0.00  0.00    -0.170 F 
ATOM     34  F   LIG d   1       4.424  -1.583  -1.387  0.00  0.00    -0.170 F 
ATOM     35  F   LIG d   1       2.458  -1.430  -2.541  0.00  0.00    -0.170 F 
ENDBRANCH  26  32
ENDBRANCH   2  26
TORSDOF 5
ENDMDL
MODEL 3
REMARK VINA RESULT:      -7.2      0.041      1.511
REMARK  5 active torsions:
REMARK  status: ('A' for Active; 'I' for Inactive)
REMARK    1  A    between atoms: C_4  and  N_7 
REMARK    2  A    between atoms: N_7  and  C_8 
REMARK       I    between atoms: N_7  and  C_14 
REMARK    3  A    between atoms: C_14  and  C_16 
REMARK    4  A    between atoms: C_16  and  C_17 
REMARK    5  A    between atoms: C_16  and  C_21 
ROOT
ATOM      1  N   LIG d   1       4.278  -0.352  -5.906  0.00  0.00    -0.240 N 
ATOM      2  C   LIG d   1       3.629  -0.171  -4.739  0.00  0.00     0.245 C 
ATOM      3  O   LIG d   1       2.447   0.107  -4.739  0.00  0.00    -0.274 OA
ENDROOT
BRANCH   1   4
ATOM      4  C   LIG d   1       5.611  -0.783  -5.905  0.00  0.00     0.041 A 
ATOM      5  C   LIG d   1       5.903  -2.140  -5.899  0.00  0.00    -0.040 A 
ATOM      6  C   LIG d   1       7.219  -2.562  -5.899  0.00  0.00    -0.060 A 
ATOM      7  H   LIG d   1       5.103  -2.866  -5.893  0.00  0.00     0.064 H 
ATOM      8  C   LIG d   1       8.244  -1.633  -5.906  0.00  0.00    -0.062 A 
ATOM      9  H   LIG d   1       7.447  -3.618  -5.893  0.00  0.00     0.062 H 
ATOM     10  C   LIG d   1       7.956  -0.281  -5.912  0.00  0.00    -0.060 A 
ATOM     11  H   LIG d   1       9.271  -1.966  -5.901  0.00  0.00     0.062 H 
ATOM     12  C   LIG d   1       6.643   0.147  -5.912  0.00  0.00    -0.040 A 
ATOM     13  H   LIG d   1       8.759   0.441  -5.918  0.00  0.00     0.062 H 
ATOM     14  H   LIG d   1       6.419   1.203  -5.918  0.00  0.00     0.064 H 
ENDBRANCH   1   4
BRANCH   1  15
ATOM     15  C   LIG d   1       3.621  -0.109  -7.118  0.00  0.00     0.041 A 
ATOM     16  C   LIG d   1       3.350   1.195  -7.512  0.00  0.00    -0.040 A 
ATOM     17  C   LIG d   1       2.706   1.432  -8.711  0.00  0.00    -0.060 A 
ATOM     18  H   LIG d   1       3.644   2.022  -6.885  0.00  0.00     0.064 H 
ATOM     19  C   LIG d   1       2.323   0.373  -9.514  0.00  0.00    -0.062 A 
ATOM     20  H   LIG d   1       2.499   2.445  -9.020  0.00  0.00     0.062 H 
ATOM     21  C   LIG d   1       2.586  -0.927  -9.121  0.00  0.00    -0.060 A 
ATOM     22  H   LIG d   1       1.816   0.560 -10.449  0.00  0.00     0.062 H 
ATOM     23  C   LIG d   1       3.235  -1.170  -7.926  0.00  0.00    -0.040 A 
ATOM     24  H   LIG d   1       2.286  -1.752  -9.750  0.00  0.00     0.062 H 
ATOM     25  H   LIG d   1       3.442  -2.185  -7.621  0.00  0.00     0.064 H 
ENDBRANCH   1  15
BRANCH   2  26
ATOM     26  C   LIG d   1       4.369  -0.312  -3.434  0.00  0.00     0.225 C 
ATOM     27  H   LIG d   1       5.431  -0.456  -3.633  0.00  0.00     0.057 H 
BRANCH  26  28
ATOM     28  C   LIG d   1       4.174   0.954  -2.598  0.00  0.00     0.409 C 
ATOM     29  F   LIG d   1       5.132   0.992  -1.579  0.00  0.00    -0.170 F 
ATOM     30  F   LIG d   1       4.317   2.080  -3.415  0.00  0.00    -0.170 F 
ATOM     31  F   LIG d   1       2.894   0.948  -2.033  0.00  0.00    -0.170 F 
ENDBRANCH  26  28
BRANCH  26  32
ATOM     32  C   LIG d   1       3.826  -1.519  -2.668  0.00  0.00     0.409 C 
ATOM     33  F   LIG d   1       2.438  -1.397  -2.529  0.00  0.00    -0.170 F 
ATOM     34  F   LIG d   1       4.122  -2.692  -3.371  0.00  0.00    -0.170 F 
ATOM     35  F   LIG d   1       4.418  -1.572  -1.402  0.00  0.00    -0.170 F 
ENDBRANCH  26  32
ENDBRANCH   2  26
TORSDOF 5
ENDMDL
MODEL 4
REMARK VINA RESULT:      -6.6      2.137      3.946
REMARK  5 active torsions:
REMARK  status: ('A' for Active; 'I' for Inactive)
REMARK    1  A    between atoms: C_4  and  N_7 
REMARK    2  A    between atoms: N_7  and  C_8 
REMARK       I    between atoms: N_7  and  C_14 
REMARK    3  A    between atoms: C_14  and  C_16 
REMARK    4  A    between atoms: C_16  and  C_17 
REMARK    5  A    between atoms: C_16  and  C_21 
ROOT
ATOM      1  N   LIG d   1       5.941  -0.785  -5.222  0.00  0.00    -0.240 N 
ATOM      2  C   LIG d   1       5.197  -0.250  -4.233  0.00  0.00     0.245 C 
ATOM      3  O   LIG d   1       5.449   0.862  -3.819  0.00  0.00    -0.274 OA
ENDROOT
BRANCH   1   4
ATOM      4  C   LIG d   1       5.582  -2.019  -5.777  0.00  0.00     0.041 A 
ATOM      5  C   LIG d   1       6.142  -3.192  -5.288  0.00  0.00    -0.040 A 
ATOM      6  C   LIG d   1       5.785  -4.408  -5.838  0.00  0.00    -0.060 A 
ATOM      7  H   LIG d   1       6.856  -3.154  -4.479  0.00  0.00     0.064 H 
ATOM      8  C   LIG d   1       4.871  -4.458  -6.875  0.00  0.00    -0.062 A 
ATOM      9  H   LIG d   1       6.221  -5.320  -5.458  0.00  0.00     0.062 H 
ATOM     10  C   LIG d   1       4.311  -3.291  -7.364  0.00  0.00    -0.060 A 
ATOM     11  H   LIG d   1       4.597  -5.409  -7.306  0.00  0.00     0.062 H 
ATOM     12  C   LIG d   1       4.664  -2.073  -6.819  0.00  0.00    -0.040 A 
ATOM     13  H   LIG d   1       3.597  -3.334  -8.173  0.00  0.00     0.062 H 
ATOM     14  H   LIG d   1       4.226  -1.163  -7.201  0.00  0.00     0.064 H 
ENDBRANCH   1   4
BRANCH   1  15
ATOM     15  C   LIG d   1       7.072  -0.107  -5.692  0.00  0.00     0.041 A 
ATOM     16  C   LIG d   1       6.992   0.661  -6.847  0.00  0.00    -0.040 A 
ATOM     17  C   LIG d   1       8.108   1.334  -7.305  0.00  0.00    -0.060 A 
ATOM     18  H   LIG d   1       6.058   0.735  -7.384  0.00  0.00     0.064 H 
ATOM     19  C   LIG d   1       9.306   1.235  -6.622  0.00  0.00    -0.062 A 
ATOM     20  H   LIG d   1       8.045   1.934  -8.200  0.00  0.00     0.062 H 
ATOM     21  C   LIG d   1       9.390   0.466  -5.475  0.00  0.00    -0.060 A 
ATOM     22  H   LIG d   1      10.179   1.758  -6.984  0.00  0.00     0.062 H 
ATOM     23  C   LIG d   1       8.276  -0.204  -5.008  0.00  0.00    -0.040 A 
ATOM     24  H   LIG d   1      10.327   0.391  -4.943  0.00  0.00     0.062 H 
ATOM     25  H   LIG d   1       8.342  -0.802  -4.112  0.00  0.00     0.064 H 
ENDBRANCH   1  15
BRANCH   2  26
ATOM     26  C   LIG d   1       4.054  -1.033  -3.642  0.00  0.00     0.225 C 
ATOM     27  H   LIG d   1       3.789  -1.852  -4.312  0.00  0.00     0.057 H 
BRANCH  26  28
ATOM     28  C   LIG d   1       4.471  -1.600  -2.284  0.00  0.00     0.409 C 
ATOM     29  F   LIG d   1       4.319  -0.617  -1.301  0.00  0.00    -0.170 F 
ATOM     30  F   LIG d   1       3.667  -2.702  -1.972  0.00  0.00    -0.170 F 
ATOM     31  F   LIG d   1       5.810  -2.002  -2.338  0.00  0.00    -0.170 F 
ENDBRANCH  26  28
BRANCH  26  32
ATOM     32  C   LIG d   1       2.845  -0.113  -3.461  0.00  0.00     0.409 C 
ATOM     33  F   LIG d   1       1.772  -0.849  -2.944  0.00  0.00    -0.170 F 
ATOM     34  F   LIG d   1       3.172   0.919  -2.573  0.00  0.00    -0.170 F 
ATOM     35  F   LIG d   1       2.484   0.432  -4.697  0.00  0.00    -0.170 F 
ENDBRANCH  26  32
ENDBRANCH   2  26
TORSDOF 5
ENDMDL
MODEL 5
REMARK VINA RESULT:      -6.5      2.168      3.828
REMARK  5 active torsions:
REMARK  status: ('A' for Active; 'I' for Inactive)
REMARK    1  A    between atoms: C_4  and  N_7 
REMARK    2  A    between atoms: N_7  and  C_8 
REMARK       I    between atoms: N_7  and  C_14 
REMARK    3  A    between atoms: C_14  and  C_16 
REMARK    4  A    between atoms: C_16  and  C_17 
REMARK    5  A    between atoms: C_16  and  C_21 
ROOT
ATOM      1  N   LIG d   1       5.057  -2.299  -5.329  0.00  0.00    -0.240 N 
ATOM      2  C   LIG d   1       4.520  -1.963  -4.140  0.00  0.00     0.245 C 
ATOM      3  O   LIG d   1       4.147  -2.829  -3.376  0.00  0.00    -0.274 OA
ENDROOT
BRANCH   1   4
ATOM      4  C   LIG d   1       5.590  -1.307  -6.161  0.00  0.00     0.041 A 
ATOM      5  C   LIG d   1       4.792  -0.702  -7.122  0.00  0.00    -0.040 A 
ATOM      6  C   LIG d   1       5.321   0.278  -7.940  0.00  0.00    -0.060 A 
ATOM      7  H   LIG d   1       3.759  -0.996  -7.230  0.00  0.00     0.064 H 
ATOM      8  C   LIG d   1       6.644   0.655  -7.803  0.00  0.00    -0.062 A 
ATOM      9  H   LIG d   1       4.700   0.749  -8.689  0.00  0.00     0.062 H 
ATOM     10  C   LIG d   1       7.442   0.054  -6.846  0.00  0.00    -0.060 A 
ATOM     11  H   LIG d   1       7.056   1.418  -8.447  0.00  0.00     0.062 H 
ATOM     12  C   LIG d   1       6.919  -0.925  -6.026  0.00  0.00    -0.040 A 
ATOM     13  H   LIG d   1       8.475   0.352  -6.741  0.00  0.00     0.062 H 
ATOM     14  H   LIG d   1       7.542  -1.393  -5.279  0.00  0.00     0.064 H 
ENDBRANCH   1   4
BRANCH   1  15
ATOM     15  C   LIG d   1       5.081  -3.639  -5.733  0.00  0.00     0.041 A 
ATOM     16  C   LIG d   1       4.053  -4.148  -6.516  0.00  0.00    -0.040 A 
ATOM     17  C   LIG d   1       4.081  -5.470  -6.917  0.00  0.00    -0.060 A 
ATOM     18  H   LIG d   1       3.233  -3.511  -6.813  0.00  0.00     0.064 H 
ATOM     19  C   LIG d   1       5.128  -6.288  -6.532  0.00  0.00    -0.062 A 
ATOM     20  H   LIG d   1       3.285  -5.864  -7.529  0.00  0.00     0.062 H 
ATOM     21  C   LIG d   1       6.150  -5.786  -5.748  0.00  0.00    -0.060 A 
ATOM     22  H   LIG d   1       5.146  -7.322  -6.843  0.00  0.00     0.062 H 
ATOM     23  C   LIG d   1       6.129  -4.464  -5.348  0.00  0.00    -0.040 A 
ATOM     24  H   LIG d   1       6.966  -6.428  -5.448  0.00  0.00     0.062 H 
ATOM     25  H   LIG d   1       6.929  -4.072  -4.737  0.00  0.00     0.064 H 
ENDBRANCH   1  15
BRANCH   2  26
ATOM     26  C   LIG d   1       4.381  -0.512  -3.758  0.00  0.00     0.225 C 
ATOM     27  H   LIG d   1       4.660   0.115  -4.605  0.00  0.00     0.057 H 
BRANCH  26  28
ATOM     28  C   LIG d   1       2.930  -0.224  -3.367  0.00  0.00     0.409 C 
ATOM     29  F   LIG d   1       2.432  -1.285  -2.605  0.00  0.00    -0.170 F 
ATOM     30  F   LIG d   1       2.875   0.956  -2.617  0.00  0.00    -0.170 F 
ATOM     31  F   LIG d   1       2.156  -0.077  -4.523  0.00  0.00    -0.170 F 
ENDBRANCH  26  28
BRANCH  26  32
ATOM     32  C   LIG d   1       5.298  -0.206  -2.573  0.00  0.00     0.409 C 
ATOM     33  F   LIG d   1       4.655  -0.561  -1.381  0.00  0.00    -0.170 F 
ATOM     34  F   LIG d   1       6.484  -0.939  -2.698  0.00  0.00    -0.170 F 
ATOM     35  F   LIG d   1       5.595   1.160  -2.553  0.00  0.00    -0.170 F 
ENDBRANCH  26  32
ENDBRANCH   2  26
TORSDOF 5
ENDMDL
MODEL 6
REMARK VINA RESULT:      -6.4      3.133      5.394
REMARK  5 active torsions:
REMARK  status: ('A' for Active; 'I' for Inactive)
REMARK    1  A    between atoms: C_4  and  N_7 
REMARK    2  A    between atoms: N_7  and  C_8 
REMARK       I    between atoms: N_7  and  C_14 
REMARK    3  A    between atoms: C_14  and  C_16 
REMARK    4  A    between atoms: C_16  and  C_17 
REMARK    5  A    between atoms: C_16  and  C_21 
ROOT
ATOM      1  N   LIG d   1       4.808  -0.497  -5.954  0.00  0.00    -0.240 N 
ATOM      2  C   LIG d   1       3.769  -0.100  -6.715  0.00  0.00     0.245 C 
ATOM      3  O   LIG d   1       2.703   0.160  -6.198  0.00  0.00    -0.274 OA
ENDROOT
BRANCH   1   4
ATOM      4  C   LIG d   1       6.068  -0.688  -6.534  0.00  0.00     0.041 A 
ATOM      5  C   LIG d   1       6.956   0.374  -6.636  0.00  0.00    -0.040 A 
ATOM      6  C   LIG d   1       8.199   0.182  -7.208  0.00  0.00    -0.060 A 
ATOM      7  H   LIG d   1       6.676   1.350  -6.268  0.00  0.00     0.064 H 
ATOM      8  C   LIG d   1       8.558  -1.067  -7.679  0.00  0.00    -0.062 A 
ATOM      9  H   LIG d   1       8.890   1.008  -7.287  0.00  0.00     0.062 H 
ATOM     10  C   LIG d   1       7.676  -2.128  -7.580  0.00  0.00    -0.060 A 
ATOM     11  H   LIG d   1       9.529  -1.213  -8.131  0.00  0.00     0.062 H 
ATOM     12  C   LIG d   1       6.433  -1.942  -7.009  0.00  0.00    -0.040 A 
ATOM     13  H   LIG d   1       7.961  -3.102  -7.949  0.00  0.00     0.062 H 
ATOM     14  H   LIG d   1       5.745  -2.771  -6.931  0.00  0.00     0.064 H 
ENDBRANCH   1   4
BRANCH   1  15
ATOM     15  C   LIG d   1       4.627  -0.719  -4.583  0.00  0.00     0.041 A 
ATOM     16  C   LIG d   1       4.209  -1.963  -4.130  0.00  0.00    -0.040 A 
ATOM     17  C   LIG d   1       4.036  -2.181  -2.777  0.00  0.00    -0.060 A 
ATOM     18  H   LIG d   1       4.021  -2.761  -4.833  0.00  0.00     0.064 H 
ATOM     19  C   LIG d   1       4.269  -1.159  -1.875  0.00  0.00    -0.062 A 
ATOM     20  H   LIG d   1       3.715  -3.149  -2.423  0.00  0.00     0.062 H 
ATOM     21  C   LIG d   1       4.680   0.083  -2.324  0.00  0.00    -0.060 A 
ATOM     22  H   LIG d   1       4.130  -1.330  -0.818  0.00  0.00     0.062 H 
ATOM     23  C   LIG d   1       4.860   0.305  -3.675  0.00  0.00    -0.040 A 
ATOM     24  H   LIG d   1       4.862   0.879  -1.617  0.00  0.00     0.062 H 
ATOM     25  H   LIG d   1       5.183   1.274  -4.025  0.00  0.00     0.064 H 
ENDBRANCH   1  15
BRANCH   2  26
ATOM     26  C   LIG d   1       3.931   0.019  -8.208  0.00  0.00     0.225 C 
ATOM     27  H   LIG d   1       4.957  -0.229  -8.484  0.00  0.00     0.057 H 
BRANCH  26  28
ATOM     28  C   LIG d   1       2.969  -0.945  -8.905  0.00  0.00     0.409 C 
ATOM     29  F   LIG d   1       3.041  -2.200  -8.292  0.00  0.00    -0.170 F 
ATOM     30  F   LIG d   1       1.663  -0.452  -8.808  0.00  0.00    -0.170 F 
ATOM     31  F   LIG d   1       3.323  -1.063 -10.253  0.00  0.00    -0.170 F 
ENDBRANCH  26  28
BRANCH  26  32
ATOM     32  C   LIG d   1       3.620   1.453  -8.642  0.00  0.00     0.409 C 
ATOM     33  F   LIG d   1       4.801   2.204  -8.650  0.00  0.00    -0.170 F 
ATOM     34  F   LIG d   1       3.067   1.442  -9.928  0.00  0.00    -0.170 F 
ATOM     35  F   LIG d   1       2.710   2.024  -7.747  0.00  0.00    -0.170 F 
ENDBRANCH  26  32
ENDBRANCH   2  26
TORSDOF 5
ENDMDL
MODEL 7
REMARK VINA RESULT:      -6.3      1.764      4.819
REMARK  5 active torsions:
REMARK  status: ('A' for Active; 'I' for Inactive)
REMARK    1  A    between atoms: C_4  and  N_7 
REMARK    2  A    between atoms: N_7  and  C_8 
REMARK       I    between atoms: N_7  and  C_14 
REMARK    3  A    between atoms: C_14  and  C_16 
REMARK    4  A    between atoms: C_16  and  C_17 
REMARK    5  A    between atoms: C_16  and  C_21 
ROOT
ATOM      1  N   LIG d   1       6.534  -1.637  -4.826  0.00  0.00    -0.240 N 
ATOM      2  C   LIG d   1       6.099  -1.226  -3.618  0.00  0.00     0.245 C 
ATOM      3  O   LIG d   1       6.807  -1.356  -2.641  0.00  0.00    -0.274 OA
ENDROOT
BRANCH   1   4
ATOM      4  C   LIG d   1       5.766  -1.385  -5.969  0.00  0.00     0.041 A 
ATOM      5  C   LIG d   1       4.865  -2.337  -6.425  0.00  0.00    -0.040 A 
ATOM      6  C   LIG d   1       4.108  -2.085  -7.553  0.00  0.00    -0.060 A 
ATOM      7  H   LIG d   1       4.755  -3.274  -5.899  0.00  0.00     0.064 H 
ATOM      8  C   LIG d   1       4.248  -0.885  -8.227  0.00  0.00    -0.062 A 
ATOM      9  H   LIG d   1       3.406  -2.825  -7.909  0.00  0.00     0.062 H 
ATOM     10  C   LIG d   1       5.145   0.065  -7.775  0.00  0.00    -0.060 A 
ATOM     11  H   LIG d   1       3.658  -0.693  -9.111  0.00  0.00     0.062 H 
ATOM     12  C   LIG d   1       5.904  -0.182  -6.649  0.00  0.00    -0.040 A 
ATOM     13  H   LIG d   1       5.251   1.001  -8.304  0.00  0.00     0.062 H 
ATOM     14  H   LIG d   1       6.604   0.561  -6.296  0.00  0.00     0.064 H 
ENDBRANCH   1   4
BRANCH   1  15
ATOM     15  C   LIG d   1       7.754  -2.316  -4.936  0.00  0.00     0.041 A 
ATOM     16  C   LIG d   1       8.916  -1.613  -5.231  0.00  0.00    -0.040 A 
ATOM     17  C   LIG d   1      10.119  -2.284  -5.334  0.00  0.00    -0.060 A 
ATOM     18  H   LIG d   1       8.880  -0.544  -5.377  0.00  0.00     0.064 H 
ATOM     19  C   LIG d   1      10.166  -3.655  -5.153  0.00  0.00    -0.062 A 
ATOM     20  H   LIG d   1      11.023  -1.739  -5.559  0.00  0.00     0.062 H 
ATOM     21  C   LIG d   1       9.010  -4.357  -4.866  0.00  0.00    -0.060 A 
ATOM     22  H   LIG d   1      11.106  -4.178  -5.239  0.00  0.00     0.062 H 
ATOM     23  C   LIG d   1       7.805  -3.691  -4.756  0.00  0.00    -0.040 A 
ATOM     24  H   LIG d   1       9.049  -5.428  -4.725  0.00  0.00     0.062 H 
ATOM     25  H   LIG d   1       6.903  -4.240  -4.529  0.00  0.00     0.064 H 
ENDBRANCH   1  15
BRANCH   2  26
ATOM     26  C   LIG d   1       4.733  -0.607  -3.480  0.00  0.00     0.225 C 
ATOM     27  H   LIG d   1       4.271  -0.521  -4.464  0.00  0.00     0.057 H 
BRANCH  26  28
ATOM     28  C   LIG d   1       3.860  -1.488  -2.584  0.00  0.00     0.409 C 
ATOM     29  F   LIG d   1       2.536  -1.041  -2.636  0.00  0.00    -0.170 F 
ATOM     30  F   LIG d   1       3.923  -2.813  -3.030  0.00  0.00    -0.170 F 
ATOM     31  F   LIG d   1       4.325  -1.419  -1.267  0.00  0.00    -0.170 F 
ENDBRANCH  26  28
BRANCH  26  32
ATOM     32  C   LIG d   1       4.863   0.783  -2.856  0.00  0.00     0.409 C 
ATOM     33  F   LIG d   1       4.918   0.665  -1.462  0.00  0.00    -0.170 F 
ATOM     34  F   LIG d   1       6.034   1.395  -3.317  0.00  0.00    -0.170 F 
ATOM     35  F   LIG d   1       3.758   1.561  -3.214  0.00  0.00    -0.170 F 
ENDBRANCH  26  32
ENDBRANCH   2  26
TORSDOF 5
ENDMDL
MODEL 8
REMARK VINA RESULT:      -6.2      1.899      2.690
REMARK  5 active torsions:
REMARK  status: ('A' for Active; 'I' for Inactive)
REMARK    1  A    between atoms: C_4  and  N_7 
REMARK    2  A    between atoms: N_7  and  C_8 
REMARK       I    between atoms: N_7  and  C_14 
REMARK    3  A    between atoms: C_14  and  C_16 
REMARK    4  A    between atoms: C_16  and  C_17 
REMARK    5  A    between atoms: C_16  and  C_21 
ROOT
ATOM      1  N   LIG d   1       4.684  -0.800  -6.502  0.00  0.00    -0.240 N 
ATOM      2  C   LIG d   1       4.614  -0.506  -5.188  0.00  0.00     0.245 C 
ATOM      3  O   LIG d   1       4.194   0.575  -4.830  0.00  0.00    -0.274 OA
ENDROOT
BRANCH   1   4
ATOM      4  C   LIG d   1       5.060  -2.085  -6.912  0.00  0.00     0.041 A 
ATOM      5  C   LIG d   1       6.402  -2.399  -7.072  0.00  0.00    -0.040 A 
ATOM      6  C   LIG d   1       6.770  -3.668  -7.475  0.00  0.00    -0.060 A 
ATOM      7  H   LIG d   1       7.159  -1.653  -6.881  0.00  0.00     0.064 H 
ATOM      8  C   LIG d   1       5.802  -4.625  -7.720  0.00  0.00    -0.062 A 
ATOM      9  H   LIG d   1       7.815  -3.914  -7.600  0.00  0.00     0.062 H 
ATOM     10  C   LIG d   1       4.463  -4.315  -7.562  0.00  0.00    -0.060 A 
ATOM     11  H   LIG d   1       6.092  -5.615  -8.040  0.00  0.00     0.062 H 
ATOM     12  C   LIG d   1       4.090  -3.048  -7.159  0.00  0.00    -0.040 A 
ATOM     13  H   LIG d   1       3.710  -5.065  -7.753  0.00  0.00     0.062 H 
ATOM     14  H   LIG d   1       3.045  -2.807  -7.035  0.00  0.00     0.064 H 
ENDBRANCH   1   4
BRANCH   1  15
ATOM     15  C   LIG d   1       4.381   0.179  -7.455  0.00  0.00     0.041 A 
ATOM     16  C   LIG d   1       5.404   0.823  -8.140  0.00  0.00    -0.040 A 
ATOM     17  C   LIG d   1       5.102   1.785  -9.085  0.00  0.00    -0.060 A 
ATOM     18  H   LIG d   1       6.434   0.570  -7.937  0.00  0.00     0.064 H 
ATOM     19  C   LIG d   1       3.784   2.115  -9.341  0.00  0.00    -0.062 A 
ATOM     20  H   LIG d   1       5.897   2.282  -9.620  0.00  0.00     0.062 H 
ATOM     21  C   LIG d   1       2.764   1.480  -8.657  0.00  0.00    -0.060 A 
ATOM     22  H   LIG d   1       3.550   2.870 -10.076  0.00  0.00     0.062 H 
ATOM     23  C   LIG d   1       3.059   0.513  -7.715  0.00  0.00    -0.040 A 
ATOM     24  H   LIG d   1       1.735   1.740  -8.859  0.00  0.00     0.062 H 
ATOM     25  H   LIG d   1       2.261   0.017  -7.183  0.00  0.00     0.064 H 
ENDBRANCH   1  15
BRANCH   2  26
ATOM     26  C   LIG d   1       5.057  -1.518  -4.165  0.00  0.00     0.225 C 
ATOM     27  H   LIG d   1       5.235  -2.476  -4.654  0.00  0.00     0.057 H 
BRANCH  26  28
ATOM     28  C   LIG d   1       6.349  -1.039  -3.500  0.00  0.00     0.409 C 
ATOM     29  F   LIG d   1       6.867  -2.061  -2.697  0.00  0.00    -0.170 F 
ATOM     30  F   LIG d   1       7.283  -0.701  -4.485  0.00  0.00    -0.170 F 
ATOM     31  F   LIG d   1       6.079   0.083  -2.710  0.00  0.00    -0.170 F 
ENDBRANCH  26  28
BRANCH  26  32
ATOM     32  C   LIG d   1       3.968  -1.681  -3.103  0.00  0.00     0.409 C 
ATOM     33  F   LIG d   1       3.963  -3.002  -2.639  0.00  0.00    -0.170 F 
ATOM     34  F   LIG d   1       4.222  -0.814  -2.035  0.00  0.00    -0.170 F 
ATOM     35  F   LIG d   1       2.723  -1.380  -3.663  0.00  0.00    -0.170 F 
ENDBRANCH  26  32
ENDBRANCH   2  26
TORSDOF 5
ENDMDL
MODEL 9
REMARK VINA RESULT:      -6.0      2.648      4.455
REMARK  5 active torsions:
REMARK  status: ('A' for Active; 'I' for Inactive)
REMARK    1  A    between atoms: C_4  and  N_7 
REMARK    2  A    between atoms: N_7  and  C_8 
REMARK       I    between atoms: N_7  and  C_14 
REMARK    3  A    between atoms: C_14  and  C_16 
REMARK    4  A    between atoms: C_16  and  C_17 
REMARK    5  A    between atoms: C_16  and  C_21 
ROOT
ATOM      1  N   LIG d   1       4.925  -0.438  -6.085  0.00  0.00    -0.240 N 
ATOM      2  C   LIG d   1       6.197  -0.014  -6.227  0.00  0.00     0.245 C 
ATOM      3  O   LIG d   1       6.547   0.517  -7.261  0.00  0.00    -0.274 OA
ENDROOT
BRANCH   1   4
ATOM      4  C   LIG d   1       4.491  -0.947  -4.855  0.00  0.00     0.041 A 
ATOM      5  C   LIG d   1       3.744  -0.151  -3.998  0.00  0.00    -0.040 A 
ATOM      6  C   LIG d   1       3.316  -0.656  -2.786  0.00  0.00    -0.060 A 
ATOM      7  H   LIG d   1       3.497   0.862  -4.279  0.00  0.00     0.064 H 
ATOM      8  C   LIG d   1       3.632  -1.953  -2.425  0.00  0.00    -0.062 A 
ATOM      9  H   LIG d   1       2.735  -0.036  -2.118  0.00  0.00     0.062 H 
ATOM     10  C   LIG d   1       4.377  -2.749  -3.277  0.00  0.00    -0.060 A 
ATOM     11  H   LIG d   1       3.300  -2.343  -1.474  0.00  0.00     0.062 H 
ATOM     12  C   LIG d   1       4.807  -2.249  -4.490  0.00  0.00    -0.040 A 
ATOM     13  H   LIG d   1       4.621  -3.761  -2.992  0.00  0.00     0.062 H 
ATOM     14  H   LIG d   1       5.387  -2.871  -5.155  0.00  0.00     0.064 H 
ENDBRANCH   1   4
BRANCH   1  15
ATOM     15  C   LIG d   1       4.040  -0.372  -7.168  0.00  0.00     0.041 A 
ATOM     16  C   LIG d   1       3.428   0.833  -7.492  0.00  0.00    -0.040 A 
ATOM     17  C   LIG d   1       2.559   0.897  -8.564  0.00  0.00    -0.060 A 
ATOM     18  H   LIG d   1       3.633   1.718  -6.909  0.00  0.00     0.064 H 
ATOM     19  C   LIG d   1       2.291  -0.237  -9.308  0.00  0.00    -0.062 A 
ATOM     20  H   LIG d   1       2.087   1.834  -8.819  0.00  0.00     0.062 H 
ATOM     21  C   LIG d   1       2.895  -1.439  -8.984  0.00  0.00    -0.060 A 
ATOM     22  H   LIG d   1       1.608  -0.186 -10.143  0.00  0.00     0.062 H 
ATOM     23  C   LIG d   1       3.769  -1.508  -7.917  0.00  0.00    -0.040 A 
ATOM     24  H   LIG d   1       2.683  -2.323  -9.567  0.00  0.00     0.062 H 
ATOM     25  H   LIG d   1       4.241  -2.447  -7.666  0.00  0.00     0.064 H 
ENDBRANCH   1  15
BRANCH   2  26
ATOM     26  C   LIG d   1       7.183  -0.198  -5.104  0.00  0.00     0.225 C 
ATOM     27  H   LIG d   1       6.729  -0.801  -4.317  0.00  0.00     0.057 H 
BRANCH  26  28
ATOM     28  C   LIG d   1       8.432  -0.907  -5.632  0.00  0.00     0.409 C 
ATOM     29  F   LIG d   1       8.060  -1.856  -6.590  0.00  0.00    -0.170 F 
ATOM     30  F   LIG d   1       9.291   0.032  -6.214  0.00  0.00    -0.170 F 
ATOM     31  F   LIG d   1       9.088  -1.545  -4.574  0.00  0.00    -0.170 F 
ENDBRANCH  26  28
BRANCH  26  32
ATOM     32  C   LIG d   1       7.574   1.168  -4.538  0.00  0.00     0.409 C 
ATOM     33  F   LIG d   1       7.778   2.068  -5.591  0.00  0.00    -0.170 F 
ATOM     34  F   LIG d   1       6.548   1.643  -3.713  0.00  0.00    -0.170 F 
ATOM     35  F   LIG d   1       8.752   1.046  -3.794  0.00  0.00    -0.170 F 
ENDBRANCH  26  32
ENDBRANCH   2  26
TORSDOF 5
ENDMDL
