MODEL 1
REMARK VINA RESULT:      -5.6      0.000      0.000
REMARK  6 active torsions:
REMARK  status: ('A' for Active; 'I' for Inactive)
REMARK    1  A    between atoms: C_4  and  O_13 
REMARK    2  A    between atoms: C_5  and  C_7 
REMARK    3  A    between atoms: C_7  and  O_9 
REMARK    4  A    between atoms: O_9  and  C_10 
REMARK    5  A    between atoms: C_10  and  C_11 
REMARK    6  A    between atoms: C_11  and  O_12 
ROOT
ATOM      1  C   LIG d   1       3.704  -1.891  -2.511  0.00  0.00    -0.061 A 
ATOM      2  C   LIG d   1       4.450  -1.126  -1.628  0.00  0.00    -0.058 A 
ATOM      3  C   LIG d   1       4.633   0.223  -1.854  0.00  0.00    -0.019 A 
ATOM      4  C   LIG d   1       4.067   0.824  -2.969  0.00  0.00     0.131 A 
ATOM      5  C   LIG d   1       3.312   0.055  -3.864  0.00  0.00     0.100 A 
ATOM      6  C   LIG d   1       3.135  -1.310  -3.623  0.00  0.00    -0.044 A 
ATOM      7  H   LIG d   1       3.570  -2.947  -2.327  0.00  0.00     0.062 H 
ATOM      8  H   LIG d   1       4.892  -1.589  -0.757  0.00  0.00     0.062 H 
ATOM      9  H   LIG d   1       5.215   0.813  -1.160  0.00  0.00     0.065 H 
ATOM     10  H   LIG d   1       2.555  -1.910  -4.308  0.00  0.00     0.063 H 
ENDROOT
BRANCH   5  11
ATOM     11  C   LIG d   1       2.706   0.683  -5.052  0.00  0.00     0.343 C 
ATOM     12  O   LIG d   1       2.353   1.844  -5.013  0.00  0.00    -0.245 OA
BRANCH  11  13
ATOM     13  O   LIG d   1       2.545  -0.032  -6.183  0.00  0.00    -0.459 OA
BRANCH  13  14
ATOM     14  C   LIG d   1       3.530   0.139  -7.205  0.00  0.00     0.116 C 
ATOM     15  H   LIG d   1       4.385   0.680  -6.799  0.00  0.00     0.072 H 
ATOM     16  H   LIG d   1       3.855  -0.838  -7.563  0.00  0.00     0.072 H 
BRANCH  14  17
ATOM     17  C   LIG d   1       2.929   0.933  -8.366  0.00  0.00     0.078 C 
ATOM     18  H   LIG d   1       3.554   0.813  -9.250  0.00  0.00     0.059 H 
ATOM     19  H   LIG d   1       1.925   0.565  -8.577  0.00  0.00     0.059 H 
BRANCH  17  20
ATOM     20  O   LIG d   1       2.864   2.317  -8.013  0.00  0.00    -0.392 OA
ATOM     21  H   LIG d   1       3.008   2.918  -8.756  0.00  0.00     0.209 HD
ENDBRANCH  17  20
ENDBRANCH  14  17
ENDBRANCH  13  14
ENDBRANCH  11  13
ENDBRANCH   5  11
BRANCH   4  22
ATOM     22  O   LIG d   1       4.245   2.150  -3.191  0.00  0.00    -0.506 OA
ATOM     23  H   LIG d   1       3.422   2.657  -3.229  0.00  0.00     0.292 HD
ENDBRANCH   4  22
TORSDOF 6
ENDMDL
MODEL 2
REMARK VINA RESULT:      -5.2      1.638      2.628
REMARK  6 active torsions:
REMARK  status: ('A' for Active; 'I' for Inactive)
REMARK    1  A    between atoms: C_4  and  O_13 
REMARK    2  A    between atoms: C_5  and  C_7 
REMARK    3  A    between atoms: C_7  and  O_9 
REMARK    4  A    between atoms: O_9  and  C_10 
REMARK    5  A    between atoms: C_10  and  C_11 
REMARK    6  A    between atoms: C_11  and  O_12 
ROOT
ATOM      1  C   LIG d   1       4.347   0.403  -1.937  0.00  0.00    -0.061 A 
ATOM      2  C   LIG d   1       4.490  -0.928  -1.579  0.00  0.00    -0.058 A 
ATOM      3  C   LIG d   1       4.282  -1.928  -2.509  0.00  0.00    -0.019 A 
ATOM      4  C   LIG d   1       3.930  -1.604  -3.812  0.00  0.00     0.131 A 
ATOM      5  C   LIG d   1       3.785  -0.258  -4.177  0.00  0.00     0.100 A 
ATOM      6  C   LIG d   1       3.998   0.743  -3.226  0.00  0.00    -0.044 A 
ATOM      7  H   LIG d   1       4.507   1.178  -1.201  0.00  0.00     0.062 H 
ATOM      8  H   LIG d   1       4.764  -1.186  -0.567  0.00  0.00     0.062 H 
ATOM      9  H   LIG d   1       4.396  -2.963  -2.223  0.00  0.00     0.065 H 
ATOM     10  H   LIG d   1       3.889   1.781  -3.499  0.00  0.00     0.063 H 
ENDROOT
BRANCH   5  11
ATOM     11  C   LIG d   1       3.412   0.098  -5.558  0.00  0.00     0.343 C 
ATOM     12  O   LIG d   1       2.644   1.017  -5.763  0.00  0.00    -0.245 OA
BRANCH  11  13
ATOM     13  O   LIG d   1       3.923  -0.596  -6.594  0.00  0.00    -0.459 OA
BRANCH  13  14
ATOM     14  C   LIG d   1       3.231  -0.504  -7.841  0.00  0.00     0.116 C 
ATOM     15  H   LIG d   1       2.189  -0.240  -7.660  0.00  0.00     0.072 H 
ATOM     16  H   LIG d   1       3.698   0.261  -8.461  0.00  0.00     0.072 H 
BRANCH  14  17
ATOM     17  C   LIG d   1       3.296  -1.853  -8.561  0.00  0.00     0.078 C 
ATOM     18  H   LIG d   1       2.306  -2.115  -8.932  0.00  0.00     0.059 H 
ATOM     19  H   LIG d   1       3.991  -1.786  -9.397  0.00  0.00     0.059 H 
BRANCH  17  20
ATOM     20  O   LIG d   1       3.745  -2.858  -7.648  0.00  0.00    -0.392 OA
ATOM     21  H   LIG d   1       4.215  -3.590  -8.071  0.00  0.00     0.209 HD
ENDBRANCH  17  20
ENDBRANCH  14  17
ENDBRANCH  13  14
ENDBRANCH  11  13
ENDBRANCH   5  11
BRANCH   4  22
ATOM     22  O   LIG d   1       3.727  -2.584  -4.726  0.00  0.00    -0.506 OA
ATOM     23  H   LIG d   1       3.364  -2.271  -5.566  0.00  0.00     0.292 HD
ENDBRANCH   4  22
TORSDOF 6
ENDMDL
MODEL 3
REMARK VINA RESULT:      -5.2      3.008      4.261
REMARK  6 active torsions:
REMARK  status: ('A' for Active; 'I' for Inactive)
REMARK    1  A    between atoms: C_4  and  O_13 
REMARK    2  A    between atoms: C_5  and  C_7 
REMARK    3  A    between atoms: C_7  and  O_9 
REMARK    4  A    between atoms: O_9  and  C_10 
REMARK    5  A    between atoms: C_10  and  C_11 
REMARK    6  A    between atoms: C_11  and  O_12 
ROOT
ATOM      1  C   LIG d   1       4.379  -0.589  -1.794  0.00  0.00    -0.061 A 
ATOM      2  C   LIG d   1       3.608   0.483  -2.216  0.00  0.00    -0.058 A 
ATOM      3  C   LIG d   1       3.200   0.575  -3.532  0.00  0.00    -0.019 A 
ATOM      4  C   LIG d   1       3.559  -0.409  -4.442  0.00  0.00     0.131 A 
ATOM      5  C   LIG d   1       4.339  -1.494  -4.019  0.00  0.00     0.100 A 
ATOM      6  C   LIG d   1       4.745  -1.574  -2.684  0.00  0.00    -0.044 A 
ATOM      7  H   LIG d   1       4.697  -0.650  -0.764  0.00  0.00     0.062 H 
ATOM      8  H   LIG d   1       3.325   1.252  -1.511  0.00  0.00     0.062 H 
ATOM      9  H   LIG d   1       2.598   1.413  -3.852  0.00  0.00     0.065 H 
ATOM     10  H   LIG d   1       5.345  -2.407  -2.351  0.00  0.00     0.063 H 
ENDROOT
BRANCH   5  11
ATOM     11  C   LIG d   1       4.726  -2.545  -4.977  0.00  0.00     0.343 C 
ATOM     12  O   LIG d   1       5.381  -2.261  -5.960  0.00  0.00    -0.245 OA
BRANCH  11  13
ATOM     13  O   LIG d   1       4.354  -3.822  -4.762  0.00  0.00    -0.459 OA
BRANCH  13  14
ATOM     14  C   LIG d   1       5.178  -4.843  -5.329  0.00  0.00     0.116 C 
ATOM     15  H   LIG d   1       6.050  -4.387  -5.797  0.00  0.00     0.072 H 
ATOM     16  H   LIG d   1       5.502  -5.526  -4.544  0.00  0.00     0.072 H 
BRANCH  14  17
ATOM     17  C   LIG d   1       4.381  -5.617  -6.381  0.00  0.00     0.078 C 
ATOM     18  H   LIG d   1       4.807  -5.434  -7.367  0.00  0.00     0.059 H 
ATOM     19  H   LIG d   1       4.424  -6.683  -6.159  0.00  0.00     0.059 H 
BRANCH  17  20
ATOM     20  O   LIG d   1       3.020  -5.181  -6.362  0.00  0.00    -0.392 OA
ATOM     21  H   LIG d   1       2.448  -5.652  -6.984  0.00  0.00     0.209 HD
ENDBRANCH  17  20
ENDBRANCH  14  17
ENDBRANCH  13  14
ENDBRANCH  11  13
ENDBRANCH   5  11
BRANCH   4  22
ATOM     22  O   LIG d   1       3.157  -0.320  -5.734  0.00  0.00    -0.506 OA
ATOM     23  H   LIG d   1       2.358   0.210  -5.862  0.00  0.00     0.292 HD
ENDBRANCH   4  22
TORSDOF 6
ENDMDL
MODEL 4
REMARK VINA RESULT:      -4.9      3.099      4.499
REMARK  6 active torsions:
REMARK  status: ('A' for Active; 'I' for Inactive)
REMARK    1  A    between atoms: C_4  and  O_13 
REMARK    2  A    between atoms: C_5  and  C_7 
REMARK    3  A    between atoms: C_7  and  O_9 
REMARK    4  A    between atoms: O_9  and  C_10 
REMARK    5  A    between atoms: C_10  and  C_11 
REMARK    6  A    between atoms: C_11  and  O_12 
ROOT
ATOM      1  C   LIG d   1       4.403   0.007  -1.689  0.00  0.00    -0.061 A 
ATOM      2  C   LIG d   1       3.663   0.961  -2.370  0.00  0.00    -0.058 A 
ATOM      3  C   LIG d   1       3.276   0.743  -3.677  0.00  0.00    -0.019 A 
ATOM      4  C   LIG d   1       3.626  -0.437  -4.318  0.00  0.00     0.131 A 
ATOM      5  C   LIG d   1       4.374  -1.404  -3.633  0.00  0.00     0.100 A 
ATOM      6  C   LIG d   1       4.759  -1.170  -2.310  0.00  0.00    -0.044 A 
ATOM      7  H   LIG d   1       4.705   0.190  -0.668  0.00  0.00     0.062 H 
ATOM      8  H   LIG d   1       3.388   1.881  -1.876  0.00  0.00     0.062 H 
ATOM      9  H   LIG d   1       2.699   1.490  -4.201  0.00  0.00     0.065 H 
ATOM     10  H   LIG d   1       5.335  -1.909  -1.775  0.00  0.00     0.063 H 
ENDROOT
BRANCH   5  11
ATOM     11  C   LIG d   1       4.751  -2.662  -4.303  0.00  0.00     0.343 C 
ATOM     12  O   LIG d   1       4.247  -3.711  -3.956  0.00  0.00    -0.245 OA
BRANCH  11  13
ATOM     13  O   LIG d   1       5.655  -2.647  -5.302  0.00  0.00    -0.459 OA
BRANCH  13  14
ATOM     14  C   LIG d   1       6.905  -3.296  -5.056  0.00  0.00     0.116 C 
ATOM     15  H   LIG d   1       6.757  -4.114  -4.350  0.00  0.00     0.072 H 
ATOM     16  H   LIG d   1       7.300  -3.690  -5.992  0.00  0.00     0.072 H 
BRANCH  14  17
ATOM     17  C   LIG d   1       7.896  -2.289  -4.468  0.00  0.00     0.078 C 
ATOM     18  H   LIG d   1       8.865  -2.408  -4.954  0.00  0.00     0.059 H 
ATOM     19  H   LIG d   1       7.528  -1.277  -4.634  0.00  0.00     0.059 H 
BRANCH  17  20
ATOM     20  O   LIG d   1       8.035  -2.522  -3.065  0.00  0.00    -0.392 OA
ATOM     21  H   LIG d   1       8.650  -1.918  -2.626  0.00  0.00     0.209 HD
ENDBRANCH  17  20
ENDBRANCH  14  17
ENDBRANCH  13  14
ENDBRANCH  11  13
ENDBRANCH   5  11
BRANCH   4  22
ATOM     22  O   LIG d   1       3.245  -0.653  -5.601  0.00  0.00    -0.506 OA
ATOM     23  H   LIG d   1       3.013  -1.573  -5.794  0.00  0.00     0.292 HD
ENDBRANCH   4  22
TORSDOF 6
ENDMDL
MODEL 5
REMARK VINA RESULT:      -4.9      1.707      2.661
REMARK  6 active torsions:
REMARK  status: ('A' for Active; 'I' for Inactive)
REMARK    1  A    between atoms: C_4  and  O_13 
REMARK    2  A    between atoms: C_5  and  C_7 
REMARK    3  A    between atoms: C_7  and  O_9 
REMARK    4  A    between atoms: O_9  and  C_10 
REMARK    5  A    between atoms: C_10  and  C_11 
REMARK    6  A    between atoms: C_11  and  O_12 
ROOT
ATOM      1  C   LIG d   1       4.807   0.053  -2.186  0.00  0.00    -0.061 A 
ATOM      2  C   LIG d   1       4.316  -1.162  -1.734  0.00  0.00    -0.058 A 
ATOM      3  C   LIG d   1       4.019  -2.172  -2.627  0.00  0.00    -0.019 A 
ATOM      4  C   LIG d   1       4.212  -1.976  -3.987  0.00  0.00     0.131 A 
ATOM      5  C   LIG d   1       4.709  -0.749  -4.448  0.00  0.00     0.100 A 
ATOM      6  C   LIG d   1       5.005   0.264  -3.533  0.00  0.00    -0.044 A 
ATOM      7  H   LIG d   1       5.033   0.838  -1.479  0.00  0.00     0.062 H 
ATOM      8  H   LIG d   1       4.164  -1.320  -0.676  0.00  0.00     0.062 H 
ATOM      9  H   LIG d   1       3.637  -3.116  -2.267  0.00  0.00     0.065 H 
ATOM     10  H   LIG d   1       5.389   1.212  -3.880  0.00  0.00     0.063 H 
ENDROOT
BRANCH   5  11
ATOM     11  C   LIG d   1       4.918  -0.530  -5.891  0.00  0.00     0.343 C 
ATOM     12  O   LIG d   1       5.731  -1.201  -6.496  0.00  0.00    -0.245 OA
BRANCH  11  13
ATOM     13  O   LIG d   1       4.208   0.414  -6.538  0.00  0.00    -0.459 OA
BRANCH  13  14
ATOM     14  C   LIG d   1       3.076  -0.028  -7.291  0.00  0.00     0.116 C 
ATOM     15  H   LIG d   1       3.269  -1.025  -7.687  0.00  0.00     0.072 H 
ATOM     16  H   LIG d   1       2.199  -0.058  -6.644  0.00  0.00     0.072 H 
BRANCH  14  17
ATOM     17  C   LIG d   1       2.823   0.940  -8.449  0.00  0.00     0.078 C 
ATOM     18  H   LIG d   1       3.569   0.778  -9.227  0.00  0.00     0.059 H 
ATOM     19  H   LIG d   1       1.829   0.767  -8.858  0.00  0.00     0.059 H 
BRANCH  17  20
ATOM     20  O   LIG d   1       2.916   2.285  -7.973  0.00  0.00    -0.392 OA
ATOM     21  H   LIG d   1       2.450   2.928  -8.525  0.00  0.00     0.209 HD
ENDBRANCH  17  20
ENDBRANCH  14  17
ENDBRANCH  13  14
ENDBRANCH  11  13
ENDBRANCH   5  11
BRANCH   4  22
ATOM     22  O   LIG d   1       3.922  -2.968  -4.865  0.00  0.00    -0.506 OA
ATOM     23  H   LIG d   1       3.396  -3.686  -4.488  0.00  0.00     0.292 HD
ENDBRANCH   4  22
TORSDOF 6
ENDMDL
MODEL 6
REMARK VINA RESULT:      -4.8      3.895      4.541
REMARK  6 active torsions:
REMARK  status: ('A' for Active; 'I' for Inactive)
REMARK    1  A    between atoms: C_4  and  O_13 
REMARK    2  A    between atoms: C_5  and  C_7 
REMARK    3  A    between atoms: C_7  and  O_9 
REMARK    4  A    between atoms: O_9  and  C_10 
REMARK    5  A    between atoms: C_10  and  C_11 
REMARK    6  A    between atoms: C_11  and  O_12 
ROOT
ATOM      1  C   LIG d   1       5.974   0.655  -3.081  0.00  0.00    -0.061 A 
ATOM      2  C   LIG d   1       4.970   0.746  -2.130  0.00  0.00    -0.058 A 
ATOM      3  C   LIG d   1       4.165  -0.343  -1.860  0.00  0.00    -0.019 A 
ATOM      4  C   LIG d   1       4.357  -1.537  -2.540  0.00  0.00     0.131 A 
ATOM      5  C   LIG d   1       5.371  -1.631  -3.502  0.00  0.00     0.100 A 
ATOM      6  C   LIG d   1       6.180  -0.522  -3.766  0.00  0.00    -0.044 A 
ATOM      7  H   LIG d   1       6.596   1.514  -3.289  0.00  0.00     0.062 H 
ATOM      8  H   LIG d   1       4.816   1.673  -1.598  0.00  0.00     0.062 H 
ATOM      9  H   LIG d   1       3.384  -0.265  -1.116  0.00  0.00     0.065 H 
ATOM     10  H   LIG d   1       6.963  -0.587  -4.505  0.00  0.00     0.063 H 
ENDROOT
BRANCH   5  11
ATOM     11  C   LIG d   1       5.586  -2.895  -4.231  0.00  0.00     0.343 C 
ATOM     12  O   LIG d   1       6.714  -3.263  -4.491  0.00  0.00    -0.245 OA
BRANCH  11  13
ATOM     13  O   LIG d   1       4.530  -3.642  -4.607  0.00  0.00    -0.459 OA
BRANCH  13  14
ATOM     14  C   LIG d   1       4.781  -4.701  -5.533  0.00  0.00     0.116 C 
ATOM     15  H   LIG d   1       5.856  -4.841  -5.643  0.00  0.00     0.072 H 
ATOM     16  H   LIG d   1       4.331  -5.622  -5.163  0.00  0.00     0.072 H 
BRANCH  14  17
ATOM     17  C   LIG d   1       4.172  -4.346  -6.892  0.00  0.00     0.078 C 
ATOM     18  H   LIG d   1       3.732  -3.350  -6.843  0.00  0.00     0.059 H 
ATOM     19  H   LIG d   1       4.949  -4.364  -7.655  0.00  0.00     0.059 H 
BRANCH  17  20
ATOM     20  O   LIG d   1       3.158  -5.298  -7.222  0.00  0.00    -0.392 OA
ATOM     21  H   LIG d   1       3.394  -5.885  -7.953  0.00  0.00     0.209 HD
ENDBRANCH  17  20
ENDBRANCH  14  17
ENDBRANCH  13  14
ENDBRANCH  11  13
ENDBRANCH   5  11
BRANCH   4  22
ATOM     22  O   LIG d   1       3.567  -2.606  -2.274  0.00  0.00    -0.506 OA
ATOM     23  H   LIG d   1       3.992  -3.283  -1.728  0.00  0.00     0.292 HD
ENDBRANCH   4  22
TORSDOF 6
ENDMDL
MODEL 7
REMARK VINA RESULT:      -4.7      2.020      2.914
REMARK  6 active torsions:
REMARK  status: ('A' for Active; 'I' for Inactive)
REMARK    1  A    between atoms: C_4  and  O_13 
REMARK    2  A    between atoms: C_5  and  C_7 
REMARK    3  A    between atoms: C_7  and  O_9 
REMARK    4  A    between atoms: O_9  and  C_10 
REMARK    5  A    between atoms: C_10  and  C_11 
REMARK    6  A    between atoms: C_11  and  O_12 
ROOT
ATOM      1  C   LIG d   1       5.663   0.897  -2.626  0.00  0.00    -0.061 A 
ATOM      2  C   LIG d   1       4.414   1.315  -2.196  0.00  0.00    -0.058 A 
ATOM      3  C   LIG d   1       3.271   0.704  -2.671  0.00  0.00    -0.019 A 
ATOM      4  C   LIG d   1       3.367  -0.336  -3.584  0.00  0.00     0.131 A 
ATOM      5  C   LIG d   1       4.628  -0.761  -4.022  0.00  0.00     0.100 A 
ATOM      6  C   LIG d   1       5.777  -0.134  -3.532  0.00  0.00    -0.044 A 
ATOM      7  H   LIG d   1       6.552   1.385  -2.252  0.00  0.00     0.062 H 
ATOM      8  H   LIG d   1       4.334   2.125  -1.484  0.00  0.00     0.062 H 
ATOM      9  H   LIG d   1       2.300   1.035  -2.330  0.00  0.00     0.065 H 
ATOM     10  H   LIG d   1       6.752  -0.456  -3.864  0.00  0.00     0.063 H 
ENDROOT
BRANCH   5  11
ATOM     11  C   LIG d   1       4.742  -1.866  -4.991  0.00  0.00     0.343 C 
ATOM     12  O   LIG d   1       4.304  -2.965  -4.716  0.00  0.00    -0.245 OA
BRANCH  11  13
ATOM     13  O   LIG d   1       5.332  -1.656  -6.184  0.00  0.00    -0.459 OA
BRANCH  13  14
ATOM     14  C   LIG d   1       4.859  -0.549  -6.956  0.00  0.00     0.116 C 
ATOM     15  H   LIG d   1       4.693   0.306  -6.302  0.00  0.00     0.072 H 
ATOM     16  H   LIG d   1       5.601  -0.290  -7.712  0.00  0.00     0.072 H 
BRANCH  14  17
ATOM     17  C   LIG d   1       3.546  -0.931  -7.642  0.00  0.00     0.078 C 
ATOM     18  H   LIG d   1       3.593  -0.655  -8.696  0.00  0.00     0.059 H 
ATOM     19  H   LIG d   1       3.388  -2.005  -7.554  0.00  0.00     0.059 H 
BRANCH  17  20
ATOM     20  O   LIG d   1       2.464  -0.237  -7.017  0.00  0.00    -0.392 OA
ATOM     21  H   LIG d   1       1.689  -0.790  -6.847  0.00  0.00     0.209 HD
ENDBRANCH  17  20
ENDBRANCH  14  17
ENDBRANCH  13  14
ENDBRANCH  11  13
ENDBRANCH   5  11
BRANCH   4  22
ATOM     22  O   LIG d   1       2.245  -0.938  -4.050  0.00  0.00    -0.506 OA
ATOM     23  H   LIG d   1       1.847  -0.493  -4.812  0.00  0.00     0.292 HD
ENDBRANCH   4  22
TORSDOF 6
ENDMDL
MODEL 8
REMARK VINA RESULT:      -4.6      4.134      5.474
REMARK  6 active torsions:
REMARK  status: ('A' for Active; 'I' for Inactive)
REMARK    1  A    between atoms: C_4  and  O_13 
REMARK    2  A    between atoms: C_5  and  C_7 
REMARK    3  A    between atoms: C_7  and  O_9 
REMARK    4  A    between atoms: O_9  and  C_10 
REMARK    5  A    between atoms: C_10  and  C_11 
REMARK    6  A    between atoms: C_11  and  O_12 
ROOT
ATOM      1  C   LIG d   1       4.078  -0.662  -1.928  0.00  0.00    -0.061 A 
ATOM      2  C   LIG d   1       4.095   0.724  -1.969  0.00  0.00    -0.058 A 
ATOM      3  C   LIG d   1       5.076   1.389  -2.677  0.00  0.00    -0.019 A 
ATOM      4  C   LIG d   1       6.051   0.673  -3.356  0.00  0.00     0.131 A 
ATOM      5  C   LIG d   1       6.037  -0.727  -3.317  0.00  0.00     0.100 A 
ATOM      6  C   LIG d   1       5.039  -1.389  -2.596  0.00  0.00    -0.044 A 
ATOM      7  H   LIG d   1       3.309  -1.174  -1.368  0.00  0.00     0.062 H 
ATOM      8  H   LIG d   1       3.338   1.286  -1.442  0.00  0.00     0.062 H 
ATOM      9  H   LIG d   1       5.082   2.470  -2.704  0.00  0.00     0.065 H 
ATOM     10  H   LIG d   1       5.021  -2.467  -2.562  0.00  0.00     0.063 H 
ENDROOT
BRANCH   5  11
ATOM     11  C   LIG d   1       7.068  -1.499  -4.035  0.00  0.00     0.343 C 
ATOM     12  O   LIG d   1       7.329  -1.235  -5.192  0.00  0.00    -0.245 OA
BRANCH  11  13
ATOM     13  O   LIG d   1       7.721  -2.496  -3.408  0.00  0.00    -0.459 OA
BRANCH  13  14
ATOM     14  C   LIG d   1       8.479  -3.391  -4.225  0.00  0.00     0.116 C 
ATOM     15  H   LIG d   1       7.806  -3.944  -4.879  0.00  0.00     0.072 H 
ATOM     16  H   LIG d   1       9.185  -2.821  -4.829  0.00  0.00     0.072 H 
BRANCH  14  17
ATOM     17  C   LIG d   1       9.245  -4.371  -3.334  0.00  0.00     0.078 C 
ATOM     18  H   LIG d   1       8.621  -5.241  -3.131  0.00  0.00     0.059 H 
ATOM     19  H   LIG d   1      10.156  -4.687  -3.840  0.00  0.00     0.059 H 
BRANCH  17  20
ATOM     20  O   LIG d   1       9.584  -3.729  -2.102  0.00  0.00    -0.392 OA
ATOM     21  H   LIG d   1      10.142  -4.264  -1.521  0.00  0.00     0.209 HD
ENDBRANCH  17  20
ENDBRANCH  14  17
ENDBRANCH  13  14
ENDBRANCH  11  13
ENDBRANCH   5  11
BRANCH   4  22
ATOM     22  O   LIG d   1       7.013   1.327  -4.053  0.00  0.00    -0.506 OA
ATOM     23  H   LIG d   1       7.004   2.287  -3.932  0.00  0.00     0.292 HD
ENDBRANCH   4  22
TORSDOF 6
ENDMDL
MODEL 9
REMARK VINA RESULT:      -4.5      1.596      2.179
REMARK  6 active torsions:
REMARK  status: ('A' for Active; 'I' for Inactive)
REMARK    1  A    between atoms: C_4  and  O_13 
REMARK    2  A    between atoms: C_5  and  C_7 
REMARK    3  A    between atoms: C_7  and  O_9 
REMARK    4  A    between atoms: O_9  and  C_10 
REMARK    5  A    between atoms: C_10  and  C_11 
REMARK    6  A    between atoms: C_11  and  O_12 
ROOT
ATOM      1  C   LIG d   1       4.293  -2.324  -3.154  0.00  0.00    -0.061 A 
ATOM      2  C   LIG d   1       3.693  -1.401  -2.312  0.00  0.00    -0.058 A 
ATOM      3  C   LIG d   1       3.192  -0.217  -2.817  0.00  0.00    -0.019 A 
ATOM      4  C   LIG d   1       3.286   0.055  -4.174  0.00  0.00     0.131 A 
ATOM      5  C   LIG d   1       3.892  -0.877  -5.028  0.00  0.00     0.100 A 
ATOM      6  C   LIG d   1       4.395  -2.070  -4.504  0.00  0.00    -0.044 A 
ATOM      7  H   LIG d   1       4.686  -3.245  -2.748  0.00  0.00     0.062 H 
ATOM      8  H   LIG d   1       3.617  -1.608  -1.254  0.00  0.00     0.062 H 
ATOM      9  H   LIG d   1       2.725   0.497  -2.155  0.00  0.00     0.065 H 
ATOM     10  H   LIG d   1       4.863  -2.793  -5.155  0.00  0.00     0.063 H 
ENDROOT
BRANCH   5  11
ATOM     11  C   LIG d   1       3.997  -0.599  -6.472  0.00  0.00     0.343 C 
ATOM     12  O   LIG d   1       3.918  -1.508  -7.274  0.00  0.00    -0.245 OA
BRANCH  11  13
ATOM     13  O   LIG d   1       4.180   0.665  -6.903  0.00  0.00    -0.459 OA
BRANCH  13  14
ATOM     14  C   LIG d   1       3.616   1.006  -8.171  0.00  0.00     0.116 C 
ATOM     15  H   LIG d   1       3.165   0.121  -8.619  0.00  0.00     0.072 H 
ATOM     16  H   LIG d   1       2.853   1.774  -8.035  0.00  0.00     0.072 H 
BRANCH  14  17
ATOM     17  C   LIG d   1       4.716   1.539  -9.092  0.00  0.00     0.078 C 
ATOM     18  H   LIG d   1       4.933   0.801  -9.863  0.00  0.00     0.059 H 
ATOM     19  H   LIG d   1       4.383   2.465  -9.559  0.00  0.00     0.059 H 
BRANCH  17  20
ATOM     20  O   LIG d   1       5.897   1.790  -8.327  0.00  0.00    -0.392 OA
ATOM     21  H   LIG d   1       5.896   1.370  -7.455  0.00  0.00     0.209 HD
ENDBRANCH  17  20
ENDBRANCH  14  17
ENDBRANCH  13  14
ENDBRANCH  11  13
ENDBRANCH   5  11
BRANCH   4  22
ATOM     22  O   LIG d   1       2.793   1.216  -4.671  0.00  0.00    -0.506 OA
ATOM     23  H   LIG d   1       3.112   1.431  -5.559  0.00  0.00     0.292 HD
ENDBRANCH   4  22
TORSDOF 6
ENDMDL
MODEL 10
REMARK VINA RESULT:      -4.5      8.136      9.855
REMARK  6 active torsions:
REMARK  status: ('A' for Active; 'I' for Inactive)
REMARK    1  A    between atoms: C_4  and  O_13 
REMARK    2  A    between atoms: C_5  and  C_7 
REMARK    3  A    between atoms: C_7  and  O_9 
REMARK    4  A    between atoms: O_9  and  C_10 
REMARK    5  A    between atoms: C_10  and  C_11 
REMARK    6  A    between atoms: C_11  and  O_12 
ROOT
ATOM      1  C   LIG d   1       9.205   5.825  -4.585  0.00  0.00    -0.061 A 
ATOM      2  C   LIG d   1       9.361   4.483  -4.899  0.00  0.00    -0.058 A 
ATOM      3  C   LIG d   1       9.925   3.614  -3.986  0.00  0.00    -0.019 A 
ATOM      4  C   LIG d   1      10.338   4.080  -2.746  0.00  0.00     0.131 A 
ATOM      5  C   LIG d   1      10.181   5.435  -2.426  0.00  0.00     0.100 A 
ATOM      6  C   LIG d   1       9.609   6.304  -3.359  0.00  0.00    -0.044 A 
ATOM      7  H   LIG d   1       8.766   6.497  -5.308  0.00  0.00     0.062 H 
ATOM      8  H   LIG d   1       9.041   4.116  -5.863  0.00  0.00     0.062 H 
ATOM      9  H   LIG d   1      10.043   2.570  -4.237  0.00  0.00     0.065 H 
ATOM     10  H   LIG d   1       9.484   7.349  -3.120  0.00  0.00     0.063 H 
ENDROOT
BRANCH   5  11
ATOM     11  C   LIG d   1      10.615   5.940  -1.111  0.00  0.00     0.343 C 
ATOM     12  O   LIG d   1      11.694   5.612  -0.659  0.00  0.00    -0.245 OA
BRANCH  11  13
ATOM     13  O   LIG d   1       9.816   6.768  -0.410  0.00  0.00    -0.459 OA
BRANCH  13  14
ATOM     14  C   LIG d   1      10.191   8.147  -0.362  0.00  0.00     0.116 C 
ATOM     15  H   LIG d   1      10.465   8.413   0.658  0.00  0.00     0.072 H 
ATOM     16  H   LIG d   1      11.042   8.315  -1.023  0.00  0.00     0.072 H 
BRANCH  14  17
ATOM     17  C   LIG d   1       9.014   9.012  -0.817  0.00  0.00     0.078 C 
ATOM     18  H   LIG d   1       8.845   9.806  -0.089  0.00  0.00     0.059 H 
ATOM     19  H   LIG d   1       9.238   9.451  -1.788  0.00  0.00     0.059 H 
BRANCH  17  20
ATOM     20  O   LIG d   1       7.840   8.203  -0.919  0.00  0.00    -0.392 OA
ATOM     21  H   LIG d   1       7.019   8.677  -0.726  0.00  0.00     0.209 HD
ENDBRANCH  17  20
ENDBRANCH  14  17
ENDBRANCH  13  14
ENDBRANCH  11  13
ENDBRANCH   5  11
BRANCH   4  22
ATOM     22  O   LIG d   1      10.890   3.226  -1.848  0.00  0.00    -0.506 OA
ATOM     23  H   LIG d   1      10.244   2.740  -1.318  0.00  0.00     0.292 HD
ENDBRANCH   4  22
TORSDOF 6
ENDMDL
