MODEL 1
REMARK VINA RESULT:      -5.7      0.000      0.000
REMARK  14 active torsions:
REMARK  status: ('A' for Active; 'I' for Inactive)
REMARK    1  A    between atoms: C_1  and  C_2 
REMARK       I    between atoms: C_2  and  N_4 
REMARK    2  A    between atoms: N_4  and  C_5 
REMARK    3  A    between atoms: C_7  and  O_39 
REMARK    4  A    between atoms: C_9  and  O_19 
REMARK    5  A    between atoms: C_11  and  C_17 
REMARK    6  A    between atoms: C_14  and  O_16 
REMARK    7  A    between atoms: C_17  and  O_18 
REMARK    8  A    between atoms: O_19  and  C_20 
REMARK    9  A    between atoms: C_22  and  N_35 
REMARK   10  A    between atoms: C_24  and  O_34 
REMARK   11  A    between atoms: C_26  and  O_33 
REMARK   12  A    between atoms: C_28  and  C_31 
REMARK   13  A    between atoms: C_31  and  O_32 
REMARK       I    between atoms: N_35  and  C_36 
REMARK   14  A    between atoms: C_36  and  C_38 
ROOT
ATOM      1  O   LIG d   1       9.642   7.479  -4.649  0.00  0.00    -0.341 OA
ENDROOT
BRANCH   1   2
ATOM      2  C   LIG d   1      10.582   6.699  -3.907  0.00  0.00     0.118 C 
ATOM      3  C   LIG d   1      10.106   6.569  -2.457  0.00  0.00     0.107 C 
ATOM      4  C   LIG d   1      11.079   5.666  -1.692  0.00  0.00     0.102 C 
ATOM      5  H   LIG d   1       9.109   6.129  -2.439  0.00  0.00     0.064 H 
ATOM      6  H   LIG d   1      12.065   6.132  -1.669  0.00  0.00     0.058 H 
ATOM      7  C   LIG d   1      11.170   4.311  -2.398  0.00  0.00     0.178 C 
ATOM      8  O   LIG d   1      11.587   4.508  -3.751  0.00  0.00    -0.341 OA
ATOM      9  H   LIG d   1      11.894   3.680  -1.882  0.00  0.00     0.093 H 
ATOM     10  C   LIG d   1      10.691   5.304  -4.528  0.00  0.00     0.113 C 
ATOM     11  H   LIG d   1       9.707   4.835  -4.543  0.00  0.00     0.065 H 
ATOM     12  H   LIG d   1      11.556   7.187  -3.929  0.00  0.00     0.065 H 
BRANCH   3  13
ATOM     13  O   LIG d   1      10.071   7.860  -1.847  0.00  0.00    -0.387 OA
ATOM     14  H   LIG d   1       9.875   8.581  -2.462  0.00  0.00     0.210 HD
ENDBRANCH   3  13
BRANCH   4  15
ATOM     15  N   LIG d   1      10.595   5.475  -0.322  0.00  0.00    -0.305 N 
ATOM     16  C   LIG d   1      11.372   5.827   0.722  0.00  0.00     0.210 C 
ATOM     17  O   LIG d   1      12.470   6.303   0.528  0.00  0.00    -0.276 OA
ATOM     18  H   LIG d   1       9.717   5.096  -0.167  0.00  0.00     0.149 HD
BRANCH  16  19
ATOM     19  C   LIG d   1      10.874   5.630   2.131  0.00  0.00     0.012 C 
ATOM     20  H   LIG d   1      10.088   6.355   2.343  0.00  0.00     0.032 H 
ATOM     21  H   LIG d   1      10.476   4.621   2.238  0.00  0.00     0.032 H 
ATOM     22  H   LIG d   1      11.697   5.772   2.830  0.00  0.00     0.032 H 
ENDBRANCH  16  19
ENDBRANCH   4  15
BRANCH   7  23
ATOM     23  O   LIG d   1       9.889   3.679  -2.381  0.00  0.00    -0.365 OA
ATOM     24  H   LIG d   1       9.278   4.045  -1.725  0.00  0.00     0.212 HD
ENDBRANCH   7  23
BRANCH  10  25
ATOM     25  C   LIG d   1      11.223   5.422  -5.958  0.00  0.00     0.073 C 
ATOM     26  H   LIG d   1      11.671   4.476  -6.259  0.00  0.00     0.058 H 
ATOM     27  H   LIG d   1      10.402   5.666  -6.631  0.00  0.00     0.058 H 
BRANCH  25  28
ATOM     28  O   LIG d   1      12.208   6.456  -6.015  0.00  0.00    -0.392 OA
ATOM     29  H   LIG d   1      12.459   6.711  -6.913  0.00  0.00     0.209 HD
ENDBRANCH  25  28
ENDBRANCH  10  25
ENDBRANCH   1   2
BRANCH   1  30
ATOM     30  C   LIG d   1      10.042   8.836  -4.848  0.00  0.00     0.181 C 
ATOM     31  H   LIG d   1      11.122   8.918  -4.730  0.00  0.00     0.093 H 
ATOM     32  O   LIG d   1       9.393   9.671  -3.886  0.00  0.00    -0.341 OA
ATOM     33  C   LIG d   1       9.744  11.052  -3.981  0.00  0.00     0.113 C 
ATOM     34  C   LIG d   1       9.338  11.589  -5.355  0.00  0.00     0.111 C 
ATOM     35  H   LIG d   1      10.821  11.164  -3.850  0.00  0.00     0.065 H 
ATOM     36  C   LIG d   1      10.025  10.757  -6.443  0.00  0.00     0.106 C 
ATOM     37  H   LIG d   1       8.257  11.516  -5.470  0.00  0.00     0.065 H 
ATOM     38  C   LIG d   1       9.648   9.284  -6.258  0.00  0.00     0.102 C 
ATOM     39  H   LIG d   1      11.106  10.869  -6.359  0.00  0.00     0.064 H 
ATOM     40  H   LIG d   1       8.573   9.165  -6.391  0.00  0.00     0.058 H 
BRANCH  33  41
ATOM     41  C   LIG d   1       9.014  11.840  -2.890  0.00  0.00     0.073 C 
ATOM     42  H   LIG d   1       9.249  12.899  -2.988  0.00  0.00     0.058 H 
ATOM     43  H   LIG d   1       9.334  11.485  -1.910  0.00  0.00     0.058 H 
BRANCH  41  44
ATOM     44  O   LIG d   1       7.604  11.649  -3.027  0.00  0.00    -0.392 OA
ATOM     45  H   LIG d   1       7.240  10.972  -2.441  0.00  0.00     0.209 HD
ENDBRANCH  41  44
ENDBRANCH  33  41
BRANCH  34  46
ATOM     46  O   LIG d   1       9.741  12.955  -5.473  0.00  0.00    -0.387 OA
ATOM     47  H   LIG d   1       9.872  13.401  -4.625  0.00  0.00     0.210 HD
ENDBRANCH  34  46
BRANCH  36  48
ATOM     48  O   LIG d   1       9.596  11.204  -7.730  0.00  0.00    -0.387 OA
ATOM     49  H   LIG d   1       8.811  11.768  -7.709  0.00  0.00     0.210 HD
ENDBRANCH  36  48
BRANCH  38  50
ATOM     50  N   LIG d   1      10.358   8.469  -7.248  0.00  0.00    -0.305 N 
ATOM     51  C   LIG d   1       9.703   8.000  -8.328  0.00  0.00     0.210 C 
ATOM     52  O   LIG d   1       8.526   8.252  -8.482  0.00  0.00    -0.276 OA
ATOM     53  H   LIG d   1      11.298   8.268  -7.125  0.00  0.00     0.149 HD
BRANCH  51  54
ATOM     54  C   LIG d   1      10.433   7.162  -9.346  0.00  0.00     0.012 C 
ATOM     55  H   LIG d   1      10.822   6.265  -8.866  0.00  0.00     0.032 H 
ATOM     56  H   LIG d   1       9.744   6.878 -10.143  0.00  0.00     0.032 H 
ATOM     57  H   LIG d   1      11.257   7.737  -9.766  0.00  0.00     0.032 H 
ENDBRANCH  51  54
ENDBRANCH  38  50
ENDBRANCH   1  30
TORSDOF 14
ENDMDL
MODEL 2
REMARK VINA RESULT:      -5.7     10.516     12.690
REMARK  14 active torsions:
REMARK  status: ('A' for Active; 'I' for Inactive)
REMARK    1  A    between atoms: C_1  and  C_2 
REMARK       I    between atoms: C_2  and  N_4 
REMARK    2  A    between atoms: N_4  and  C_5 
REMARK    3  A    between atoms: C_7  and  O_39 
REMARK    4  A    between atoms: C_9  and  O_19 
REMARK    5  A    between atoms: C_11  and  C_17 
REMARK    6  A    between atoms: C_14  and  O_16 
REMARK    7  A    between atoms: C_17  and  O_18 
REMARK    8  A    between atoms: O_19  and  C_20 
REMARK    9  A    between atoms: C_22  and  N_35 
REMARK   10  A    between atoms: C_24  and  O_34 
REMARK   11  A    between atoms: C_26  and  O_33 
REMARK   12  A    between atoms: C_28  and  C_31 
REMARK   13  A    between atoms: C_31  and  O_32 
REMARK       I    between atoms: N_35  and  C_36 
REMARK   14  A    between atoms: C_36  and  C_38 
ROOT
ATOM      1  O   LIG d   1       5.182  -1.630  -8.658  0.00  0.00    -0.341 OA
ENDROOT
BRANCH   1   2
ATOM      2  C   LIG d   1       5.726  -1.721  -7.339  0.00  0.00     0.118 C 
ATOM      3  C   LIG d   1       4.767  -1.061  -6.344  0.00  0.00     0.107 C 
ATOM      4  C   LIG d   1       5.323  -1.234  -4.927  0.00  0.00     0.102 C 
ATOM      5  H   LIG d   1       3.788  -1.535  -6.412  0.00  0.00     0.064 H 
ATOM      6  H   LIG d   1       6.279  -0.717  -4.846  0.00  0.00     0.058 H 
ATOM      7  C   LIG d   1       5.522  -2.725  -4.642  0.00  0.00     0.178 C 
ATOM      8  O   LIG d   1       6.399  -3.282  -5.623  0.00  0.00    -0.341 OA
ATOM      9  H   LIG d   1       5.957  -2.851  -3.651  0.00  0.00     0.093 H 
ATOM     10  C   LIG d   1       5.909  -3.193  -6.962  0.00  0.00     0.113 C 
ATOM     11  H   LIG d   1       4.951  -3.708  -7.034  0.00  0.00     0.065 H 
ATOM     12  H   LIG d   1       6.690  -1.212  -7.308  0.00  0.00     0.065 H 
BRANCH   3  13
ATOM     13  O   LIG d   1       4.647   0.330  -6.644  0.00  0.00    -0.387 OA
ATOM     14  H   LIG d   1       5.465   0.832  -6.521  0.00  0.00     0.210 HD
ENDBRANCH   3  13
BRANCH   4  15
ATOM     15  N   LIG d   1       4.378  -0.671  -3.958  0.00  0.00    -0.305 N 
ATOM     16  C   LIG d   1       4.637   0.517  -3.376  0.00  0.00     0.210 C 
ATOM     17  O   LIG d   1       5.652   1.120  -3.656  0.00  0.00    -0.276 OA
ATOM     18  H   LIG d   1       3.567  -1.153  -3.736  0.00  0.00     0.149 HD
BRANCH  16  19
ATOM     19  C   LIG d   1       3.666   1.096  -2.381  0.00  0.00     0.012 C 
ATOM     20  H   LIG d   1       2.819   1.532  -2.911  0.00  0.00     0.032 H 
ATOM     21  H   LIG d   1       3.311   0.307  -1.717  0.00  0.00     0.032 H 
ATOM     22  H   LIG d   1       4.163   1.868  -1.794  0.00  0.00     0.032 H 
ENDBRANCH  16  19
ENDBRANCH   4  15
BRANCH   7  23
ATOM     23  O   LIG d   1       4.260  -3.392  -4.697  0.00  0.00    -0.365 OA
ATOM     24  H   LIG d   1       3.519  -2.859  -4.375  0.00  0.00     0.212 HD
ENDBRANCH   7  23
BRANCH  10  25
ATOM     25  C   LIG d   1       6.912  -3.843  -7.917  0.00  0.00     0.073 C 
ATOM     26  H   LIG d   1       7.576  -3.080  -8.321  0.00  0.00     0.058 H 
ATOM     27  H   LIG d   1       7.498  -4.586  -7.378  0.00  0.00     0.058 H 
BRANCH  25  28
ATOM     28  O   LIG d   1       6.208  -4.478  -8.987  0.00  0.00    -0.392 OA
ATOM     29  H   LIG d   1       6.712  -4.536  -9.810  0.00  0.00     0.209 HD
ENDBRANCH  25  28
ENDBRANCH  10  25
ENDBRANCH   1   2
BRANCH   1  30
ATOM     30  C   LIG d   1       3.811  -2.025  -8.749  0.00  0.00     0.181 C 
ATOM     31  H   LIG d   1       3.355  -1.987  -7.760  0.00  0.00     0.093 H 
ATOM     32  O   LIG d   1       3.733  -3.358  -9.258  0.00  0.00    -0.341 OA
ATOM     33  C   LIG d   1       2.402  -3.864  -9.367  0.00  0.00     0.113 C 
ATOM     34  C   LIG d   1       1.601  -2.989 -10.334  0.00  0.00     0.111 C 
ATOM     35  H   LIG d   1       1.927  -3.851  -8.385  0.00  0.00     0.065 H 
ATOM     36  C   LIG d   1       1.615  -1.542  -9.832  0.00  0.00     0.106 C 
ATOM     37  H   LIG d   1       2.052  -3.035 -11.325  0.00  0.00     0.065 H 
ATOM     38  C   LIG d   1       3.067  -1.076  -9.691  0.00  0.00     0.102 C 
ATOM     39  H   LIG d   1       1.120  -1.488  -8.862  0.00  0.00     0.064 H 
ATOM     40  H   LIG d   1       3.547  -1.083 -10.670  0.00  0.00     0.058 H 
BRANCH  33  41
ATOM     41  C   LIG d   1       2.443  -5.301  -9.894  0.00  0.00     0.073 C 
ATOM     42  H   LIG d   1       3.360  -5.784  -9.560  0.00  0.00     0.058 H 
ATOM     43  H   LIG d   1       2.414  -5.289 -10.983  0.00  0.00     0.058 H 
BRANCH  41  44
ATOM     44  O   LIG d   1       1.315  -6.023  -9.397  0.00  0.00    -0.392 OA
ATOM     45  H   LIG d   1       0.649  -6.223 -10.067  0.00  0.00     0.209 HD
ENDBRANCH  41  44
ENDBRANCH  33  41
BRANCH  34  46
ATOM     46  O   LIG d   1       0.253  -3.459 -10.399  0.00  0.00    -0.387 OA
ATOM     47  H   LIG d   1      -0.303  -3.162  -9.665  0.00  0.00     0.210 HD
ENDBRANCH  34  46
BRANCH  36  48
ATOM     48  O   LIG d   1       0.931  -0.705 -10.766  0.00  0.00    -0.387 OA
ATOM     49  H   LIG d   1       0.056  -0.420 -10.472  0.00  0.00     0.210 HD
ENDBRANCH  36  48
BRANCH  38  50
ATOM     50  N   LIG d   1       3.095   0.282  -9.142  0.00  0.00    -0.305 N 
ATOM     51  C   LIG d   1       3.613   1.292  -9.868  0.00  0.00     0.210 C 
ATOM     52  O   LIG d   1       4.057   1.077 -10.977  0.00  0.00    -0.276 OA
ATOM     53  H   LIG d   1       2.739   0.454  -8.257  0.00  0.00     0.149 HD
BRANCH  51  54
ATOM     54  C   LIG d   1       3.641   2.689  -9.304  0.00  0.00     0.012 C 
ATOM     55  H   LIG d   1       3.038   3.346  -9.929  0.00  0.00     0.032 H 
ATOM     56  H   LIG d   1       3.237   2.679  -8.291  0.00  0.00     0.032 H 
ATOM     57  H   LIG d   1       4.668   3.051  -9.281  0.00  0.00     0.032 H 
ENDBRANCH  51  54
ENDBRANCH  38  50
ENDBRANCH   1  30
TORSDOF 14
ENDMDL
MODEL 3
REMARK VINA RESULT:      -5.6      2.046      4.865
REMARK  14 active torsions:
REMARK  status: ('A' for Active; 'I' for Inactive)
REMARK    1  A    between atoms: C_1  and  C_2 
REMARK       I    between atoms: C_2  and  N_4 
REMARK    2  A    between atoms: N_4  and  C_5 
REMARK    3  A    between atoms: C_7  and  O_39 
REMARK    4  A    between atoms: C_9  and  O_19 
REMARK    5  A    between atoms: C_11  and  C_17 
REMARK    6  A    between atoms: C_14  and  O_16 
REMARK    7  A    between atoms: C_17  and  O_18 
REMARK    8  A    between atoms: O_19  and  C_20 
REMARK    9  A    between atoms: C_22  and  N_35 
REMARK   10  A    between atoms: C_24  and  O_34 
REMARK   11  A    between atoms: C_26  and  O_33 
REMARK   12  A    between atoms: C_28  and  C_31 
REMARK   13  A    between atoms: C_31  and  O_32 
REMARK       I    between atoms: N_35  and  C_36 
REMARK   14  A    between atoms: C_36  and  C_38 
ROOT
ATOM      1  O   LIG d   1      10.740   9.655  -3.133  0.00  0.00    -0.341 OA
ENDROOT
BRANCH   1   2
ATOM      2  C   LIG d   1      10.136   8.509  -2.529  0.00  0.00     0.118 C 
ATOM      3  C   LIG d   1      10.912   7.251  -2.931  0.00  0.00     0.107 C 
ATOM      4  C   LIG d   1      10.304   6.041  -2.215  0.00  0.00     0.102 C 
ATOM      5  H   LIG d   1      11.957   7.360  -2.641  0.00  0.00     0.064 H 
ATOM      6  H   LIG d   1       9.274   5.903  -2.544  0.00  0.00     0.058 H 
ATOM      7  C   LIG d   1      10.331   6.283  -0.704  0.00  0.00     0.178 C 
ATOM      8  O   LIG d   1       9.618   7.485  -0.403  0.00  0.00    -0.341 OA
ATOM      9  H   LIG d   1       9.861   5.443  -0.192  0.00  0.00     0.093 H 
ATOM     10  C   LIG d   1      10.170   8.656  -1.006  0.00  0.00     0.113 C 
ATOM     11  H   LIG d   1      11.201   8.785  -0.676  0.00  0.00     0.065 H 
ATOM     12  H   LIG d   1       9.103   8.422  -2.866  0.00  0.00     0.065 H 
BRANCH   3  13
ATOM     13  O   LIG d   1      10.824   7.065  -4.344  0.00  0.00    -0.387 OA
ATOM     14  H   LIG d   1      11.639   7.276  -4.821  0.00  0.00     0.210 HD
ENDBRANCH   3  13
BRANCH   4  15
ATOM     15  N   LIG d   1      11.084   4.841  -2.534  0.00  0.00    -0.305 N 
ATOM     16  C   LIG d   1      10.456   3.711  -2.916  0.00  0.00     0.210 C 
ATOM     17  O   LIG d   1       9.246   3.688  -2.997  0.00  0.00    -0.276 OA
ATOM     18  H   LIG d   1      12.051   4.860  -2.470  0.00  0.00     0.149 HD
BRANCH  16  19
ATOM     19  C   LIG d   1      11.257   2.478  -3.244  0.00  0.00     0.012 C 
ATOM     20  H   LIG d   1      10.612   1.601  -3.191  0.00  0.00     0.032 H 
ATOM     21  H   LIG d   1      11.666   2.567  -4.251  0.00  0.00     0.032 H 
ATOM     22  H   LIG d   1      12.073   2.373  -2.529  0.00  0.00     0.032 H 
ENDBRANCH  16  19
ENDBRANCH   4  15
BRANCH   7  23
ATOM     23  O   LIG d   1      11.685   6.410  -0.266  0.00  0.00    -0.365 OA
ATOM     24  H   LIG d   1      11.778   6.754   0.633  0.00  0.00     0.212 HD
ENDBRANCH   7  23
BRANCH  10  25
ATOM     25  C   LIG d   1       9.346   9.878  -0.594  0.00  0.00     0.073 C 
ATOM     26  H   LIG d   1       9.050   9.782   0.450  0.00  0.00     0.058 H 
ATOM     27  H   LIG d   1       9.945  10.780  -0.720  0.00  0.00     0.058 H 
BRANCH  25  28
ATOM     28  O   LIG d   1       8.178   9.964  -1.414  0.00  0.00    -0.392 OA
ATOM     29  H   LIG d   1       8.013  10.846  -1.772  0.00  0.00     0.209 HD
ENDBRANCH  25  28
ENDBRANCH  10  25
ENDBRANCH   1   2
BRANCH   1  30
ATOM     30  C   LIG d   1       9.954  10.248  -4.169  0.00  0.00     0.181 C 
ATOM     31  H   LIG d   1       8.896  10.082  -3.963  0.00  0.00     0.093 H 
ATOM     32  O   LIG d   1      10.293   9.655  -5.424  0.00  0.00    -0.341 OA
ATOM     33  C   LIG d   1       9.544  10.161  -6.530  0.00  0.00     0.113 C 
ATOM     34  C   LIG d   1       9.806  11.661  -6.680  0.00  0.00     0.111 C 
ATOM     35  H   LIG d   1       8.480   9.993  -6.356  0.00  0.00     0.065 H 
ATOM     36  C   LIG d   1       9.433  12.370  -5.375  0.00  0.00     0.106 C 
ATOM     37  H   LIG d   1      10.862  11.827  -6.895  0.00  0.00     0.065 H 
ATOM     38  C   LIG d   1      10.232  11.752  -4.224  0.00  0.00     0.102 C 
ATOM     39  H   LIG d   1       8.366  12.246  -5.184  0.00  0.00     0.064 H 
ATOM     40  H   LIG d   1      11.297  11.919  -4.390  0.00  0.00     0.058 H 
BRANCH  33  41
ATOM     41  C   LIG d   1       9.971   9.438  -7.810  0.00  0.00     0.073 C 
ATOM     42  H   LIG d   1      10.387   8.464  -7.555  0.00  0.00     0.058 H 
ATOM     43  H   LIG d   1      10.725  10.031  -8.327  0.00  0.00     0.058 H 
BRANCH  41  44
ATOM     44  O   LIG d   1       8.836   9.265  -8.661  0.00  0.00    -0.392 OA
ATOM     45  H   LIG d   1       9.018   9.421  -9.597  0.00  0.00     0.209 HD
ENDBRANCH  41  44
ENDBRANCH  33  41
BRANCH  34  46
ATOM     46  O   LIG d   1       9.012  12.180  -7.749  0.00  0.00    -0.387 OA
ATOM     47  H   LIG d   1       8.259  11.623  -7.987  0.00  0.00     0.210 HD
ENDBRANCH  34  46
BRANCH  36  48
ATOM     48  O   LIG d   1       9.742  13.761  -5.480  0.00  0.00    -0.387 OA
ATOM     49  H   LIG d   1      10.608  13.943  -5.870  0.00  0.00     0.210 HD
ENDBRANCH  36  48
BRANCH  38  50
ATOM     50  N   LIG d   1       9.830  12.372  -2.959  0.00  0.00    -0.305 N 
ATOM     51  C   LIG d   1      10.747  12.994  -2.192  0.00  0.00     0.210 C 
ATOM     52  O   LIG d   1      11.906  13.040  -2.548  0.00  0.00    -0.276 OA
ATOM     53  H   LIG d   1       8.903  12.337  -2.675  0.00  0.00     0.149 HD
BRANCH  51  54
ATOM     54  C   LIG d   1      10.333  13.632  -0.891  0.00  0.00     0.012 C 
ATOM     55  H   LIG d   1       9.738  12.926  -0.312  0.00  0.00     0.032 H 
ATOM     56  H   LIG d   1      11.222  13.909  -0.324  0.00  0.00     0.032 H 
ATOM     57  H   LIG d   1       9.741  14.524  -1.096  0.00  0.00     0.032 H 
ENDBRANCH  51  54
ENDBRANCH  38  50
ENDBRANCH   1  30
TORSDOF 14
ENDMDL
MODEL 4
REMARK VINA RESULT:      -5.5      2.003      7.673
REMARK  14 active torsions:
REMARK  status: ('A' for Active; 'I' for Inactive)
REMARK    1  A    between atoms: C_1  and  C_2 
REMARK       I    between atoms: C_2  and  N_4 
REMARK    2  A    between atoms: N_4  and  C_5 
REMARK    3  A    between atoms: C_7  and  O_39 
REMARK    4  A    between atoms: C_9  and  O_19 
REMARK    5  A    between atoms: C_11  and  C_17 
REMARK    6  A    between atoms: C_14  and  O_16 
REMARK    7  A    between atoms: C_17  and  O_18 
REMARK    8  A    between atoms: O_19  and  C_20 
REMARK    9  A    between atoms: C_22  and  N_35 
REMARK   10  A    between atoms: C_24  and  O_34 
REMARK   11  A    between atoms: C_26  and  O_33 
REMARK   12  A    between atoms: C_28  and  C_31 
REMARK   13  A    between atoms: C_31  and  O_32 
REMARK       I    between atoms: N_35  and  C_36 
REMARK   14  A    between atoms: C_36  and  C_38 
ROOT
ATOM      1  O   LIG d   1       9.229   7.184  -4.938  0.00  0.00    -0.341 OA
ENDROOT
BRANCH   1   2
ATOM      2  C   LIG d   1       9.885   7.725  -6.087  0.00  0.00     0.118 C 
ATOM      3  C   LIG d   1       9.448   6.952  -7.336  0.00  0.00     0.107 C 
ATOM      4  C   LIG d   1      10.097   7.591  -8.568  0.00  0.00     0.102 C 
ATOM      5  H   LIG d   1       8.363   6.996  -7.430  0.00  0.00     0.064 H 
ATOM      6  H   LIG d   1      11.181   7.502  -8.496  0.00  0.00     0.058 H 
ATOM      7  C   LIG d   1       9.707   9.070  -8.633  0.00  0.00     0.178 C 
ATOM      8  O   LIG d   1      10.114   9.721  -7.428  0.00  0.00    -0.341 OA
ATOM      9  H   LIG d   1      10.200   9.539  -9.485  0.00  0.00     0.093 H 
ATOM     10  C   LIG d   1       9.503   9.199  -6.247  0.00  0.00     0.113 C 
ATOM     11  H   LIG d   1       8.420   9.286  -6.329  0.00  0.00     0.065 H 
ATOM     12  H   LIG d   1      10.964   7.637  -5.963  0.00  0.00     0.065 H 
BRANCH   3  13
ATOM     13  O   LIG d   1       9.865   5.591  -7.227  0.00  0.00    -0.387 OA
ATOM     14  H   LIG d   1      10.826   5.474  -7.200  0.00  0.00     0.210 HD
ENDBRANCH   3  13
BRANCH   4  15
ATOM     15  N   LIG d   1       9.629   6.906  -9.777  0.00  0.00    -0.305 N 
ATOM     16  C   LIG d   1      10.418   5.998 -10.385  0.00  0.00     0.210 C 
ATOM     17  O   LIG d   1      11.514   5.747  -9.932  0.00  0.00    -0.276 OA
ATOM     18  H   LIG d   1       8.752   7.106 -10.138  0.00  0.00     0.149 HD
BRANCH  16  19
ATOM     19  C   LIG d   1       9.937   5.294 -11.627  0.00  0.00     0.012 C 
ATOM     20  H   LIG d   1       8.939   4.893 -11.454  0.00  0.00     0.032 H 
ATOM     21  H   LIG d   1       9.905   6.002 -12.457  0.00  0.00     0.032 H 
ATOM     22  H   LIG d   1      10.619   4.480 -11.871  0.00  0.00     0.032 H 
ENDBRANCH  16  19
ENDBRANCH   4  15
BRANCH   7  23
ATOM     23  O   LIG d   1       8.291   9.183  -8.781  0.00  0.00    -0.365 OA
ATOM     24  H   LIG d   1       7.909   8.553  -9.409  0.00  0.00     0.212 HD
ENDBRANCH   7  23
BRANCH  10  25
ATOM     25  C   LIG d   1       9.989   9.987  -5.029  0.00  0.00     0.073 C 
ATOM     26  H   LIG d   1      10.777   9.428  -4.526  0.00  0.00     0.058 H 
ATOM     27  H   LIG d   1      10.378  10.952  -5.352  0.00  0.00     0.058 H 
BRANCH  25  28
ATOM     28  O   LIG d   1       8.899  10.190  -4.128  0.00  0.00    -0.392 OA
ATOM     29  H   LIG d   1       9.093   9.942  -3.213  0.00  0.00     0.209 HD
ENDBRANCH  25  28
ENDBRANCH  10  25
ENDBRANCH   1   2
BRANCH   1  30
ATOM     30  C   LIG d   1      10.023   6.254  -4.199  0.00  0.00     0.181 C 
ATOM     31  H   LIG d   1      11.079   6.450  -4.384  0.00  0.00     0.093 H 
ATOM     32  O   LIG d   1       9.706   4.923  -4.611  0.00  0.00    -0.341 OA
ATOM     33  C   LIG d   1      10.466   3.910  -3.949  0.00  0.00     0.113 C 
ATOM     34  C   LIG d   1      10.191   3.969  -2.445  0.00  0.00     0.111 C 
ATOM     35  H   LIG d   1      11.528   4.075  -4.132  0.00  0.00     0.065 H 
ATOM     36  C   LIG d   1      10.539   5.366  -1.924  0.00  0.00     0.106 C 
ATOM     37  H   LIG d   1       9.137   3.763  -2.259  0.00  0.00     0.065 H 
ATOM     38  C   LIG d   1       9.731   6.406  -2.704  0.00  0.00     0.102 C 
ATOM     39  H   LIG d   1      11.604   5.553  -2.065  0.00  0.00     0.064 H 
ATOM     40  H   LIG d   1       8.667   6.250  -2.523  0.00  0.00     0.058 H 
BRANCH  33  41
ATOM     41  C   LIG d   1      10.062   2.536  -4.488  0.00  0.00     0.073 C 
ATOM     42  H   LIG d   1      10.957   1.952  -4.702  0.00  0.00     0.058 H 
ATOM     43  H   LIG d   1       9.482   2.660  -5.403  0.00  0.00     0.058 H 
BRANCH  41  44
ATOM     44  O   LIG d   1       9.271   1.855  -3.513  0.00  0.00    -0.392 OA
ATOM     45  H   LIG d   1       8.994   2.411  -2.772  0.00  0.00     0.209 HD
ENDBRANCH  41  44
ENDBRANCH  33  41
BRANCH  34  46
ATOM     46  O   LIG d   1      10.994   2.995  -1.774  0.00  0.00    -0.387 OA
ATOM     47  H   LIG d   1      10.972   2.119  -2.183  0.00  0.00     0.210 HD
ENDBRANCH  34  46
BRANCH  36  48
ATOM     48  O   LIG d   1      10.218   5.453  -0.534  0.00  0.00    -0.387 OA
ATOM     49  H   LIG d   1       9.864   4.635  -0.161  0.00  0.00     0.210 HD
ENDBRANCH  36  48
BRANCH  38  50
ATOM     50  N   LIG d   1      10.110   7.752  -2.265  0.00  0.00    -0.305 N 
ATOM     51  C   LIG d   1       9.383   8.382  -1.321  0.00  0.00     0.210 C 
ATOM     52  O   LIG d   1       8.415   7.836  -0.835  0.00  0.00    -0.276 OA
ATOM     53  H   LIG d   1      10.884   8.188  -2.653  0.00  0.00     0.149 HD
BRANCH  51  54
ATOM     54  C   LIG d   1       9.773   9.766  -0.869  0.00  0.00     0.012 C 
ATOM     55  H   LIG d   1      10.857   9.866  -0.901  0.00  0.00     0.032 H 
ATOM     56  H   LIG d   1       9.320  10.505  -1.531  0.00  0.00     0.032 H 
ATOM     57  H   LIG d   1       9.422   9.928   0.149  0.00  0.00     0.032 H 
ENDBRANCH  51  54
ENDBRANCH  38  50
ENDBRANCH   1  30
TORSDOF 14
ENDMDL
MODEL 5
REMARK VINA RESULT:      -5.0      3.079      6.273
REMARK  14 active torsions:
REMARK  status: ('A' for Active; 'I' for Inactive)
REMARK    1  A    between atoms: C_1  and  C_2 
REMARK       I    between atoms: C_2  and  N_4 
REMARK    2  A    between atoms: N_4  and  C_5 
REMARK    3  A    between atoms: C_7  and  O_39 
REMARK    4  A    between atoms: C_9  and  O_19 
REMARK    5  A    between atoms: C_11  and  C_17 
REMARK    6  A    between atoms: C_14  and  O_16 
REMARK    7  A    between atoms: C_17  and  O_18 
REMARK    8  A    between atoms: O_19  and  C_20 
REMARK    9  A    between atoms: C_22  and  N_35 
REMARK   10  A    between atoms: C_24  and  O_34 
REMARK   11  A    between atoms: C_26  and  O_33 
REMARK   12  A    between atoms: C_28  and  C_31 
REMARK   13  A    between atoms: C_31  and  O_32 
REMARK       I    between atoms: N_35  and  C_36 
REMARK   14  A    between atoms: C_36  and  C_38 
ROOT
ATOM      1  O   LIG d   1      10.830   9.656  -3.022  0.00  0.00    -0.341 OA
ENDROOT
BRANCH   1   2
ATOM      2  C   LIG d   1      10.410  10.731  -2.179  0.00  0.00     0.118 C 
ATOM      3  C   LIG d   1      11.591  11.199  -1.322  0.00  0.00     0.107 C 
ATOM      4  C   LIG d   1      11.150  12.401  -0.480  0.00  0.00     0.102 C 
ATOM      5  H   LIG d   1      12.418  11.491  -1.970  0.00  0.00     0.064 H 
ATOM      6  H   LIG d   1      10.357  12.095   0.203  0.00  0.00     0.058 H 
ATOM      7  C   LIG d   1      10.630  13.502  -1.408  0.00  0.00     0.178 C 
ATOM      8  O   LIG d   1       9.555  12.990  -2.197  0.00  0.00    -0.341 OA
ATOM      9  H   LIG d   1      10.276  14.343  -0.811  0.00  0.00     0.093 H 
ATOM     10  C   LIG d   1       9.920  11.897  -3.041  0.00  0.00     0.113 C 
ATOM     11  H   LIG d   1      10.716  12.208  -3.717  0.00  0.00     0.065 H 
ATOM     12  H   LIG d   1       9.603  10.389  -1.530  0.00  0.00     0.065 H 
BRANCH   3  13
ATOM     13  O   LIG d   1      12.009  10.139  -0.462  0.00  0.00    -0.387 OA
ATOM     14  H   LIG d   1      11.511   9.317  -0.578  0.00  0.00     0.210 HD
ENDBRANCH   3  13
BRANCH   4  15
ATOM     15  N   LIG d   1      12.292  12.904   0.289  0.00  0.00    -0.305 N 
ATOM     16  C   LIG d   1      12.428  12.572   1.588  0.00  0.00     0.210 C 
ATOM     17  O   LIG d   1      11.607  11.855   2.120  0.00  0.00    -0.276 OA
ATOM     18  H   LIG d   1      12.948  13.476  -0.136  0.00  0.00     0.149 HD
BRANCH  16  19
ATOM     19  C   LIG d   1      13.601  13.089   2.379  0.00  0.00     0.012 C 
ATOM     20  H   LIG d   1      14.050  13.932   1.853  0.00  0.00     0.032 H 
ATOM     21  H   LIG d   1      13.262  13.415   3.363  0.00  0.00     0.032 H 
ATOM     22  H   LIG d   1      14.341  12.297   2.494  0.00  0.00     0.032 H 
ENDBRANCH  16  19
ENDBRANCH   4  15
BRANCH   7  23
ATOM     23  O   LIG d   1      11.686  13.939  -2.266  0.00  0.00    -0.365 OA
ATOM     24  H   LIG d   1      12.556  13.585  -2.031  0.00  0.00     0.212 HD
ENDBRANCH   7  23
BRANCH  10  25
ATOM     25  C   LIG d   1       8.703  11.452  -3.854  0.00  0.00     0.073 C 
ATOM     26  H   LIG d   1       8.616  12.070  -4.747  0.00  0.00     0.058 H 
ATOM     27  H   LIG d   1       8.822  10.408  -4.145  0.00  0.00     0.058 H 
BRANCH  25  28
ATOM     28  O   LIG d   1       7.522  11.593  -3.061  0.00  0.00    -0.392 OA
ATOM     29  H   LIG d   1       7.508  11.031  -2.274  0.00  0.00     0.209 HD
ENDBRANCH  25  28
ENDBRANCH  10  25
ENDBRANCH   1   2
BRANCH   1  30
ATOM     30  C   LIG d   1      10.255   8.393  -2.685  0.00  0.00     0.181 C 
ATOM     31  H   LIG d   1       9.224   8.537  -2.362  0.00  0.00     0.093 H 
ATOM     32  O   LIG d   1      11.005   7.795  -1.626  0.00  0.00    -0.341 OA
ATOM     33  C   LIG d   1      10.498   6.532  -1.191  0.00  0.00     0.113 C 
ATOM     34  C   LIG d   1      10.535   5.540  -2.355  0.00  0.00     0.111 C 
ATOM     35  H   LIG d   1       9.470   6.652  -0.848  0.00  0.00     0.065 H 
ATOM     36  C   LIG d   1       9.721   6.103  -3.523  0.00  0.00     0.106 C 
ATOM     37  H   LIG d   1      11.568   5.388  -2.671  0.00  0.00     0.065 H 
ATOM     38  C   LIG d   1      10.283   7.475  -3.909  0.00  0.00     0.102 C 
ATOM     39  H   LIG d   1       8.678   6.209  -3.223  0.00  0.00     0.064 H 
ATOM     40  H   LIG d   1      11.310   7.362  -4.256  0.00  0.00     0.058 H 
BRANCH  33  41
ATOM     41  C   LIG d   1      11.360   6.004  -0.042  0.00  0.00     0.073 C 
ATOM     42  H   LIG d   1      11.906   6.830   0.412  0.00  0.00     0.058 H 
ATOM     43  H   LIG d   1      12.066   5.268  -0.426  0.00  0.00     0.058 H 
BRANCH  41  44
ATOM     44  O   LIG d   1      10.521   5.390   0.940  0.00  0.00    -0.392 OA
ATOM     45  H   LIG d   1      10.752   5.616   1.851  0.00  0.00     0.209 HD
ENDBRANCH  41  44
ENDBRANCH  33  41
BRANCH  34  46
ATOM     46  O   LIG d   1       9.974   4.293  -1.939  0.00  0.00    -0.387 OA
ATOM     47  H   LIG d   1      10.531   3.527  -2.134  0.00  0.00     0.210 HD
ENDBRANCH  34  46
BRANCH  36  48
ATOM     48  O   LIG d   1       9.810   5.217  -4.641  0.00  0.00    -0.387 OA
ATOM     49  H   LIG d   1       9.294   4.406  -4.541  0.00  0.00     0.210 HD
ENDBRANCH  36  48
BRANCH  38  50
ATOM     50  N   LIG d   1       9.466   8.056  -4.977  0.00  0.00    -0.305 N 
ATOM     51  C   LIG d   1       9.897   8.017  -6.253  0.00  0.00     0.210 C 
ATOM     52  O   LIG d   1      10.962   7.499  -6.518  0.00  0.00    -0.276 OA
ATOM     53  H   LIG d   1       8.614   8.469  -4.766  0.00  0.00     0.149 HD
BRANCH  51  54
ATOM     54  C   LIG d   1       9.057   8.614  -7.352  0.00  0.00     0.012 C 
ATOM     55  H   LIG d   1       8.018   8.311  -7.221  0.00  0.00     0.032 H 
ATOM     56  H   LIG d   1       9.126   9.702  -7.311  0.00  0.00     0.032 H 
ATOM     57  H   LIG d   1       9.419   8.264  -8.318  0.00  0.00     0.032 H 
ENDBRANCH  51  54
ENDBRANCH  38  50
ENDBRANCH   1  30
TORSDOF 14
ENDMDL
MODEL 6
REMARK VINA RESULT:      -4.9      9.549     13.233
REMARK  14 active torsions:
REMARK  status: ('A' for Active; 'I' for Inactive)
REMARK    1  A    between atoms: C_1  and  C_2 
REMARK       I    between atoms: C_2  and  N_4 
REMARK    2  A    between atoms: N_4  and  C_5 
REMARK    3  A    between atoms: C_7  and  O_39 
REMARK    4  A    between atoms: C_9  and  O_19 
REMARK    5  A    between atoms: C_11  and  C_17 
REMARK    6  A    between atoms: C_14  and  O_16 
REMARK    7  A    between atoms: C_17  and  O_18 
REMARK    8  A    between atoms: O_19  and  C_20 
REMARK    9  A    between atoms: C_22  and  N_35 
REMARK   10  A    between atoms: C_24  and  O_34 
REMARK   11  A    between atoms: C_26  and  O_33 
REMARK   12  A    between atoms: C_28  and  C_31 
REMARK   13  A    between atoms: C_31  and  O_32 
REMARK       I    between atoms: N_35  and  C_36 
REMARK   14  A    between atoms: C_36  and  C_38 
ROOT
ATOM      1  O   LIG d   1       5.165   0.167  -6.743  0.00  0.00    -0.341 OA
ENDROOT
BRANCH   1   2
ATOM      2  C   LIG d   1       5.128   0.114  -8.171  0.00  0.00     0.118 C 
ATOM      3  C   LIG d   1       3.682  -0.089  -8.636  0.00  0.00     0.107 C 
ATOM      4  C   LIG d   1       3.644  -0.065 -10.168  0.00  0.00     0.102 C 
ATOM      5  H   LIG d   1       3.057   0.713  -8.243  0.00  0.00     0.064 H 
ATOM      6  H   LIG d   1       4.229  -0.898 -10.559  0.00  0.00     0.058 H 
ATOM      7  C   LIG d   1       4.236   1.255 -10.666  0.00  0.00     0.178 C 
ATOM      8  O   LIG d   1       5.569   1.394 -10.171  0.00  0.00    -0.341 OA
ATOM      9  H   LIG d   1       4.250   1.259 -11.756  0.00  0.00     0.093 H 
ATOM     10  C   LIG d   1       5.662   1.428  -8.746  0.00  0.00     0.113 C 
ATOM     11  H   LIG d   1       5.071   2.259  -8.362  0.00  0.00     0.065 H 
ATOM     12  H   LIG d   1       5.742  -0.716  -8.520  0.00  0.00     0.065 H 
BRANCH   3  13
ATOM     13  O   LIG d   1       3.199  -1.347  -8.165  0.00  0.00    -0.387 OA
ATOM     14  H   LIG d   1       2.355  -1.295  -7.695  0.00  0.00     0.210 HD
ENDBRANCH   3  13
BRANCH   4  15
ATOM     15  N   LIG d   1       2.256  -0.185 -10.625  0.00  0.00    -0.305 N 
ATOM     16  C   LIG d   1       1.930  -1.100 -11.559  0.00  0.00     0.210 C 
ATOM     17  O   LIG d   1       2.786  -1.825 -12.021  0.00  0.00    -0.276 OA
ATOM     18  H   LIG d   1       1.573   0.394 -10.254  0.00  0.00     0.149 HD
BRANCH  16  19
ATOM     19  C   LIG d   1       0.504  -1.223 -12.028  0.00  0.00     0.012 C 
ATOM     20  H   LIG d   1      -0.162  -1.235 -11.166  0.00  0.00     0.032 H 
ATOM     21  H   LIG d   1       0.256  -0.373 -12.666  0.00  0.00     0.032 H 
ATOM     22  H   LIG d   1       0.385  -2.147 -12.592  0.00  0.00     0.032 H 
ENDBRANCH  16  19
ENDBRANCH   4  15
BRANCH   7  23
ATOM     23  O   LIG d   1       3.437   2.343 -10.196  0.00  0.00    -0.365 OA
ATOM     24  H   LIG d   1       3.885   3.200 -10.221  0.00  0.00     0.212 HD
ENDBRANCH   7  23
BRANCH  10  25
ATOM     25  C   LIG d   1       7.125   1.607  -8.334  0.00  0.00     0.073 C 
ATOM     26  H   LIG d   1       7.617   2.288  -9.026  0.00  0.00     0.058 H 
ATOM     27  H   LIG d   1       7.171   2.017  -7.326  0.00  0.00     0.058 H 
BRANCH  25  28
ATOM     28  O   LIG d   1       7.786   0.339  -8.363  0.00  0.00    -0.392 OA
ATOM     29  H   LIG d   1       7.289  -0.373  -7.938  0.00  0.00     0.209 HD
ENDBRANCH  25  28
ENDBRANCH  10  25
ENDBRANCH   1   2
BRANCH   1  30
ATOM     30  C   LIG d   1       5.578  -1.055  -6.127  0.00  0.00     0.181 C 
ATOM     31  H   LIG d   1       6.589  -0.941  -5.737  0.00  0.00     0.093 H 
ATOM     32  O   LIG d   1       5.556  -2.107  -7.093  0.00  0.00    -0.341 OA
ATOM     33  C   LIG d   1       5.977  -3.375  -6.585  0.00  0.00     0.113 C 
ATOM     34  C   LIG d   1       5.039  -3.809  -5.457  0.00  0.00     0.111 C 
ATOM     35  H   LIG d   1       6.995  -3.292  -6.202  0.00  0.00     0.065 H 
ATOM     36  C   LIG d   1       5.036  -2.737  -4.364  0.00  0.00     0.106 C 
ATOM     37  H   LIG d   1       4.029  -3.932  -5.850  0.00  0.00     0.065 H 
ATOM     38  C   LIG d   1       4.624  -1.397  -4.980  0.00  0.00     0.102 C 
ATOM     39  H   LIG d   1       6.035  -2.648  -3.937  0.00  0.00     0.064 H 
ATOM     40  H   LIG d   1       3.606  -1.471  -5.363  0.00  0.00     0.058 H 
BRANCH  33  41
ATOM     41  C   LIG d   1       5.939  -4.413  -7.709  0.00  0.00     0.073 C 
ATOM     42  H   LIG d   1       5.669  -5.384  -7.298  0.00  0.00     0.058 H 
ATOM     43  H   LIG d   1       6.921  -4.477  -8.178  0.00  0.00     0.058 H 
BRANCH  41  44
ATOM     44  O   LIG d   1       4.971  -4.022  -8.686  0.00  0.00    -0.392 OA
ATOM     45  H   LIG d   1       4.108  -3.795  -8.315  0.00  0.00     0.209 HD
ENDBRANCH  41  44
ENDBRANCH  33  41
BRANCH  34  46
ATOM     46  O   LIG d   1       5.493  -5.048  -4.909  0.00  0.00    -0.387 OA
ATOM     47  H   LIG d   1       6.002  -4.954  -4.092  0.00  0.00     0.210 HD
ENDBRANCH  34  46
BRANCH  36  48
ATOM     48  O   LIG d   1       4.107  -3.099  -3.340  0.00  0.00    -0.387 OA
ATOM     49  H   LIG d   1       4.227  -2.615  -2.512  0.00  0.00     0.210 HD
ENDBRANCH  36  48
BRANCH  38  50
ATOM     50  N   LIG d   1       4.688  -0.348  -3.959  0.00  0.00    -0.305 N 
ATOM     51  C   LIG d   1       3.559   0.078  -3.358  0.00  0.00     0.210 C 
ATOM     52  O   LIG d   1       2.490  -0.408  -3.662  0.00  0.00    -0.276 OA
ATOM     53  H   LIG d   1       5.543   0.040  -3.715  0.00  0.00     0.149 HD
BRANCH  51  54
ATOM     54  C   LIG d   1       3.625   1.156  -2.308  0.00  0.00     0.012 C 
ATOM     55  H   LIG d   1       3.079   2.034  -2.652  0.00  0.00     0.032 H 
ATOM     56  H   LIG d   1       3.178   0.790  -1.383  0.00  0.00     0.032 H 
ATOM     57  H   LIG d   1       4.666   1.424  -2.127  0.00  0.00     0.032 H 
ENDBRANCH  51  54
ENDBRANCH  38  50
ENDBRANCH   1  30
TORSDOF 14
ENDMDL
MODEL 7
REMARK VINA RESULT:      -4.9      9.465     12.443
REMARK  14 active torsions:
REMARK  status: ('A' for Active; 'I' for Inactive)
REMARK    1  A    between atoms: C_1  and  C_2 
REMARK       I    between atoms: C_2  and  N_4 
REMARK    2  A    between atoms: N_4  and  C_5 
REMARK    3  A    between atoms: C_7  and  O_39 
REMARK    4  A    between atoms: C_9  and  O_19 
REMARK    5  A    between atoms: C_11  and  C_17 
REMARK    6  A    between atoms: C_14  and  O_16 
REMARK    7  A    between atoms: C_17  and  O_18 
REMARK    8  A    between atoms: O_19  and  C_20 
REMARK    9  A    between atoms: C_22  and  N_35 
REMARK   10  A    between atoms: C_24  and  O_34 
REMARK   11  A    between atoms: C_26  and  O_33 
REMARK   12  A    between atoms: C_28  and  C_31 
REMARK   13  A    between atoms: C_31  and  O_32 
REMARK       I    between atoms: N_35  and  C_36 
REMARK   14  A    between atoms: C_36  and  C_38 
ROOT
ATOM      1  O   LIG d   1       6.112  -2.354  -5.716  0.00  0.00    -0.341 OA
ENDROOT
BRANCH   1   2
ATOM      2  C   LIG d   1       4.955  -2.782  -6.438  0.00  0.00     0.118 C 
ATOM      3  C   LIG d   1       4.833  -1.974  -7.733  0.00  0.00     0.107 C 
ATOM      4  C   LIG d   1       3.636  -2.494  -8.535  0.00  0.00     0.102 C 
ATOM      5  H   LIG d   1       5.744  -2.089  -8.321  0.00  0.00     0.064 H 
ATOM      6  H   LIG d   1       2.720  -2.333  -7.966  0.00  0.00     0.058 H 
ATOM      7  C   LIG d   1       3.818  -3.991  -8.798  0.00  0.00     0.178 C 
ATOM      8  O   LIG d   1       3.956  -4.678  -7.552  0.00  0.00    -0.341 OA
ATOM      9  H   LIG d   1       2.948  -4.375  -9.331  0.00  0.00     0.093 H 
ATOM     10  C   LIG d   1       5.087  -4.268  -6.782  0.00  0.00     0.113 C 
ATOM     11  H   LIG d   1       5.998  -4.428  -7.358  0.00  0.00     0.065 H 
ATOM     12  H   LIG d   1       4.066  -2.625  -5.826  0.00  0.00     0.065 H 
BRANCH   3  13
ATOM     13  O   LIG d   1       4.636  -0.595  -7.420  0.00  0.00    -0.387 OA
ATOM     14  H   LIG d   1       3.798  -0.233  -7.742  0.00  0.00     0.210 HD
ENDBRANCH   3  13
BRANCH   4  15
ATOM     15  N   LIG d   1       3.552  -1.778  -9.811  0.00  0.00    -0.305 N 
ATOM     16  C   LIG d   1       2.352  -1.561 -10.384  0.00  0.00     0.210 C 
ATOM     17  O   LIG d   1       1.341  -1.958  -9.844  0.00  0.00    -0.276 OA
ATOM     18  H   LIG d   1       4.360  -1.460 -10.242  0.00  0.00     0.149 HD
BRANCH  16  19
ATOM     19  C   LIG d   1       2.266  -0.824 -11.696  0.00  0.00     0.012 C 
ATOM     20  H   LIG d   1       1.421  -0.136 -11.671  0.00  0.00     0.032 H 
ATOM     21  H   LIG d   1       3.187  -0.263 -11.859  0.00  0.00     0.032 H 
ATOM     22  H   LIG d   1       2.128  -1.539 -12.506  0.00  0.00     0.032 H 
ENDBRANCH  16  19
ENDBRANCH   4  15
BRANCH   7  23
ATOM     23  O   LIG d   1       4.990  -4.196  -9.588  0.00  0.00    -0.365 OA
ATOM     24  H   LIG d   1       5.797  -4.323  -9.070  0.00  0.00     0.212 HD
ENDBRANCH   7  23
BRANCH  10  25
ATOM     25  C   LIG d   1       5.149  -5.087  -5.490  0.00  0.00     0.073 C 
ATOM     26  H   LIG d   1       5.904  -5.865  -5.589  0.00  0.00     0.058 H 
ATOM     27  H   LIG d   1       5.407  -4.433  -4.658  0.00  0.00     0.058 H 
BRANCH  25  28
ATOM     28  O   LIG d   1       3.875  -5.687  -5.246  0.00  0.00    -0.392 OA
ATOM     29  H   LIG d   1       3.913  -6.640  -5.087  0.00  0.00     0.209 HD
ENDBRANCH  25  28
ENDBRANCH  10  25
ENDBRANCH   1   2
BRANCH   1  30
ATOM     30  C   LIG d   1       5.817  -1.694  -4.483  0.00  0.00     0.181 C 
ATOM     31  H   LIG d   1       6.148  -2.315  -3.651  0.00  0.00     0.093 H 
ATOM     32  O   LIG d   1       4.409  -1.476  -4.384  0.00  0.00    -0.341 OA
ATOM     33  C   LIG d   1       4.000  -0.841  -3.171  0.00  0.00     0.113 C 
ATOM     34  C   LIG d   1       4.655   0.538  -3.073  0.00  0.00     0.111 C 
ATOM     35  H   LIG d   1       4.306  -1.451  -2.321  0.00  0.00     0.065 H 
ATOM     36  C   LIG d   1       6.177   0.379  -3.141  0.00  0.00     0.106 C 
ATOM     37  H   LIG d   1       4.317   1.162  -3.900  0.00  0.00     0.065 H 
ATOM     38  C   LIG d   1       6.545  -0.349  -4.437  0.00  0.00     0.102 C 
ATOM     39  H   LIG d   1       6.521  -0.204  -2.286  0.00  0.00     0.064 H 
ATOM     40  H   LIG d   1       6.245   0.257  -5.292  0.00  0.00     0.058 H 
BRANCH  33  41
ATOM     41  C   LIG d   1       2.478  -0.685  -3.165  0.00  0.00     0.073 C 
ATOM     42  H   LIG d   1       2.195   0.092  -2.456  0.00  0.00     0.058 H 
ATOM     43  H   LIG d   1       2.017  -1.629  -2.873  0.00  0.00     0.058 H 
BRANCH  41  44
ATOM     44  O   LIG d   1       2.030  -0.323  -4.473  0.00  0.00    -0.392 OA
ATOM     45  H   LIG d   1       1.821  -1.077  -5.040  0.00  0.00     0.209 HD
ENDBRANCH  41  44
ENDBRANCH  33  41
BRANCH  34  46
ATOM     46  O   LIG d   1       4.294   1.151  -1.833  0.00  0.00    -0.387 OA
ATOM     47  H   LIG d   1       4.650   0.702  -1.054  0.00  0.00     0.210 HD
ENDBRANCH  34  46
BRANCH  36  48
ATOM     48  O   LIG d   1       6.794   1.667  -3.123  0.00  0.00    -0.387 OA
ATOM     49  H   LIG d   1       7.098   1.970  -3.989  0.00  0.00     0.210 HD
ENDBRANCH  36  48
BRANCH  38  50
ATOM     50  N   LIG d   1       7.993  -0.572  -4.479  0.00  0.00    -0.305 N 
ATOM     51  C   LIG d   1       8.774   0.212  -5.248  0.00  0.00     0.210 C 
ATOM     52  O   LIG d   1       8.279   1.104  -5.905  0.00  0.00    -0.276 OA
ATOM     53  H   LIG d   1       8.389  -1.284  -3.953  0.00  0.00     0.149 HD
BRANCH  51  54
ATOM     54  C   LIG d   1      10.262  -0.017  -5.290  0.00  0.00     0.012 C 
ATOM     55  H   LIG d   1      10.647  -0.098  -4.274  0.00  0.00     0.032 H 
ATOM     56  H   LIG d   1      10.472  -0.939  -5.833  0.00  0.00     0.032 H 
ATOM     57  H   LIG d   1      10.745   0.819  -5.796  0.00  0.00     0.032 H 
ENDBRANCH  51  54
ENDBRANCH  38  50
ENDBRANCH   1  30
TORSDOF 14
ENDMDL
MODEL 8
REMARK VINA RESULT:      -4.9      2.635      5.821
REMARK  14 active torsions:
REMARK  status: ('A' for Active; 'I' for Inactive)
REMARK    1  A    between atoms: C_1  and  C_2 
REMARK       I    between atoms: C_2  and  N_4 
REMARK    2  A    between atoms: N_4  and  C_5 
REMARK    3  A    between atoms: C_7  and  O_39 
REMARK    4  A    between atoms: C_9  and  O_19 
REMARK    5  A    between atoms: C_11  and  C_17 
REMARK    6  A    between atoms: C_14  and  O_16 
REMARK    7  A    between atoms: C_17  and  O_18 
REMARK    8  A    between atoms: O_19  and  C_20 
REMARK    9  A    between atoms: C_22  and  N_35 
REMARK   10  A    between atoms: C_24  and  O_34 
REMARK   11  A    between atoms: C_26  and  O_33 
REMARK   12  A    between atoms: C_28  and  C_31 
REMARK   13  A    between atoms: C_31  and  O_32 
REMARK       I    between atoms: N_35  and  C_36 
REMARK   14  A    between atoms: C_36  and  C_38 
ROOT
ATOM      1  O   LIG d   1      11.865   6.339  -3.048  0.00  0.00    -0.341 OA
ENDROOT
BRANCH   1   2
ATOM      2  C   LIG d   1      11.411   7.295  -2.089  0.00  0.00     0.118 C 
ATOM      3  C   LIG d   1      10.484   8.305  -2.774  0.00  0.00     0.107 C 
ATOM      4  C   LIG d   1       9.942   9.277  -1.722  0.00  0.00     0.102 C 
ATOM      5  H   LIG d   1       9.655   7.777  -3.246  0.00  0.00     0.064 H 
ATOM      6  H   LIG d   1      10.768   9.840  -1.287  0.00  0.00     0.058 H 
ATOM      7  C   LIG d   1       9.228   8.485  -0.624  0.00  0.00     0.178 C 
ATOM      8  O   LIG d   1      10.137   7.544  -0.051  0.00  0.00    -0.341 OA
ATOM      9  H   LIG d   1       8.877   9.169   0.149  0.00  0.00     0.093 H 
ATOM     10  C   LIG d   1      10.640   6.579  -0.977  0.00  0.00     0.113 C 
ATOM     11  H   LIG d   1       9.808   6.024  -1.412  0.00  0.00     0.065 H 
ATOM     12  H   LIG d   1      12.267   7.818  -1.663  0.00  0.00     0.065 H 
BRANCH   3  13
ATOM     13  O   LIG d   1      11.215   9.030  -3.764  0.00  0.00    -0.387 OA
ATOM     14  H   LIG d   1      10.669   9.619  -4.304  0.00  0.00     0.210 HD
ENDBRANCH   3  13
BRANCH   4  15
ATOM     15  N   LIG d   1       8.997  10.204  -2.353  0.00  0.00    -0.305 N 
ATOM     16  C   LIG d   1       9.389  11.452  -2.674  0.00  0.00     0.210 C 
ATOM     17  O   LIG d   1      10.525  11.809  -2.442  0.00  0.00    -0.276 OA
ATOM     18  H   LIG d   1       8.089   9.918  -2.539  0.00  0.00     0.149 HD
BRANCH  16  19
ATOM     19  C   LIG d   1       8.418  12.404  -3.322  0.00  0.00     0.012 C 
ATOM     20  H   LIG d   1       7.712  12.767  -2.576  0.00  0.00     0.032 H 
ATOM     21  H   LIG d   1       8.963  13.248  -3.746  0.00  0.00     0.032 H 
ATOM     22  H   LIG d   1       7.876  11.888  -4.114  0.00  0.00     0.032 H 
ENDBRANCH  16  19
ENDBRANCH   4  15
BRANCH   7  23
ATOM     23  O   LIG d   1       8.114   7.790  -1.187  0.00  0.00    -0.365 OA
ATOM     24  H   LIG d   1       7.274   7.967  -0.741  0.00  0.00     0.212 HD
ENDBRANCH   7  23
BRANCH  10  25
ATOM     25  C   LIG d   1      11.576   5.612  -0.250  0.00  0.00     0.073 C 
ATOM     26  H   LIG d   1      12.607   5.937  -0.381  0.00  0.00     0.058 H 
ATOM     27  H   LIG d   1      11.331   5.598   0.812  0.00  0.00     0.058 H 
BRANCH  25  28
ATOM     28  O   LIG d   1      11.418   4.298  -0.792  0.00  0.00    -0.392 OA
ATOM     29  H   LIG d   1      10.534   3.927  -0.670  0.00  0.00     0.209 HD
ENDBRANCH  25  28
ENDBRANCH  10  25
ENDBRANCH   1   2
BRANCH   1  30
ATOM     30  C   LIG d   1      10.820   5.762  -3.835  0.00  0.00     0.181 C 
ATOM     31  H   LIG d   1       9.927   6.382  -3.762  0.00  0.00     0.093 H 
ATOM     32  O   LIG d   1      10.530   4.449  -3.352  0.00  0.00    -0.341 OA
ATOM     33  C   LIG d   1       9.476   3.788  -4.056  0.00  0.00     0.113 C 
ATOM     34  C   LIG d   1       9.869   3.627  -5.526  0.00  0.00     0.111 C 
ATOM     35  H   LIG d   1       8.564   4.382  -3.985  0.00  0.00     0.065 H 
ATOM     36  C   LIG d   1      10.166   5.006  -6.122  0.00  0.00     0.106 C 
ATOM     37  H   LIG d   1      10.757   2.999  -5.599  0.00  0.00     0.065 H 
ATOM     38  C   LIG d   1      11.266   5.680  -5.296  0.00  0.00     0.102 C 
ATOM     39  H   LIG d   1       9.265   5.618  -6.094  0.00  0.00     0.064 H 
ATOM     40  H   LIG d   1      12.183   5.093  -5.365  0.00  0.00     0.058 H 
BRANCH  33  41
ATOM     41  C   LIG d   1       9.236   2.409  -3.437  0.00  0.00     0.073 C 
ATOM     42  H   LIG d   1       9.609   2.400  -2.414  0.00  0.00     0.058 H 
ATOM     43  H   LIG d   1       9.760   1.652  -4.022  0.00  0.00     0.058 H 
BRANCH  41  44
ATOM     44  O   LIG d   1       7.836   2.124  -3.437  0.00  0.00    -0.392 OA
ATOM     45  H   LIG d   1       7.587   1.370  -2.887  0.00  0.00     0.209 HD
ENDBRANCH  41  44
ENDBRANCH  33  41
BRANCH  34  46
ATOM     46  O   LIG d   1       8.793   3.019  -6.244  0.00  0.00    -0.387 OA
ATOM     47  H   LIG d   1       8.001   3.570  -6.306  0.00  0.00     0.210 HD
ENDBRANCH  34  46
BRANCH  36  48
ATOM     48  O   LIG d   1      10.604   4.859  -7.474  0.00  0.00    -0.387 OA
ATOM     49  H   LIG d   1      11.312   4.211  -7.590  0.00  0.00     0.210 HD
ENDBRANCH  36  48
BRANCH  38  50
ATOM     50  N   LIG d   1      11.509   7.030  -5.812  0.00  0.00    -0.305 N 
ATOM     51  C   LIG d   1      12.702   7.338  -6.357  0.00  0.00     0.210 C 
ATOM     52  O   LIG d   1      13.576   6.500  -6.421  0.00  0.00    -0.276 OA
ATOM     53  H   LIG d   1      10.810   7.700  -5.762  0.00  0.00     0.149 HD
BRANCH  51  54
ATOM     54  C   LIG d   1      12.951   8.727  -6.888  0.00  0.00     0.012 C 
ATOM     55  H   LIG d   1      12.204   9.410  -6.484  0.00  0.00     0.032 H 
ATOM     56  H   LIG d   1      13.946   9.057  -6.588  0.00  0.00     0.032 H 
ATOM     57  H   LIG d   1      12.884   8.717  -7.976  0.00  0.00     0.032 H 
ENDBRANCH  51  54
ENDBRANCH  38  50
ENDBRANCH   1  30
TORSDOF 14
ENDMDL
MODEL 9
REMARK VINA RESULT:      -4.9     10.315     13.454
REMARK  14 active torsions:
REMARK  status: ('A' for Active; 'I' for Inactive)
REMARK    1  A    between atoms: C_1  and  C_2 
REMARK       I    between atoms: C_2  and  N_4 
REMARK    2  A    between atoms: N_4  and  C_5 
REMARK    3  A    between atoms: C_7  and  O_39 
REMARK    4  A    between atoms: C_9  and  O_19 
REMARK    5  A    between atoms: C_11  and  C_17 
REMARK    6  A    between atoms: C_14  and  O_16 
REMARK    7  A    between atoms: C_17  and  O_18 
REMARK    8  A    between atoms: O_19  and  C_20 
REMARK    9  A    between atoms: C_22  and  N_35 
REMARK   10  A    between atoms: C_24  and  O_34 
REMARK   11  A    between atoms: C_26  and  O_33 
REMARK   12  A    between atoms: C_28  and  C_31 
REMARK   13  A    between atoms: C_31  and  O_32 
REMARK       I    between atoms: N_35  and  C_36 
REMARK   14  A    between atoms: C_36  and  C_38 
ROOT
ATOM      1  O   LIG d   1       4.523  -3.599  -6.263  0.00  0.00    -0.341 OA
ENDROOT
BRANCH   1   2
ATOM      2  C   LIG d   1       4.038  -3.245  -7.560  0.00  0.00     0.118 C 
ATOM      3  C   LIG d   1       4.337  -1.767  -7.831  0.00  0.00     0.107 C 
ATOM      4  C   LIG d   1       3.883  -1.419  -9.252  0.00  0.00     0.102 C 
ATOM      5  H   LIG d   1       5.408  -1.589  -7.735  0.00  0.00     0.064 H 
ATOM      6  H   LIG d   1       2.804  -1.550  -9.332  0.00  0.00     0.058 H 
ATOM      7  C   LIG d   1       4.587  -2.347 -10.246  0.00  0.00     0.178 C 
ATOM      8  O   LIG d   1       4.292  -3.706  -9.918  0.00  0.00    -0.341 OA
ATOM      9  H   LIG d   1       4.235  -2.131 -11.256  0.00  0.00     0.093 H 
ATOM     10  C   LIG d   1       4.736  -4.102  -8.619  0.00  0.00     0.113 C 
ATOM     11  H   LIG d   1       5.815  -3.963  -8.545  0.00  0.00     0.065 H 
ATOM     12  H   LIG d   1       2.962  -3.413  -7.604  0.00  0.00     0.065 H 
BRANCH   3  13
ATOM     13  O   LIG d   1       3.630  -0.956  -6.891  0.00  0.00    -0.387 OA
ATOM     14  H   LIG d   1       4.198  -0.371  -6.370  0.00  0.00     0.210 HD
ENDBRANCH   3  13
BRANCH   4  15
ATOM     15  N   LIG d   1       4.230  -0.026  -9.550  0.00  0.00    -0.305 N 
ATOM     16  C   LIG d   1       3.284   0.932  -9.489  0.00  0.00     0.210 C 
ATOM     17  O   LIG d   1       2.146   0.641  -9.187  0.00  0.00    -0.276 OA
ATOM     18  H   LIG d   1       5.140   0.205  -9.790  0.00  0.00     0.149 HD
BRANCH  16  19
ATOM     19  C   LIG d   1       3.641   2.363  -9.794  0.00  0.00     0.012 C 
ATOM     20  H   LIG d   1       3.117   2.684 -10.695  0.00  0.00     0.032 H 
ATOM     21  H   LIG d   1       3.347   2.998  -8.958  0.00  0.00     0.032 H 
ATOM     22  H   LIG d   1       4.716   2.445  -9.951  0.00  0.00     0.032 H 
ENDBRANCH  16  19
ENDBRANCH   4  15
BRANCH   7  23
ATOM     23  O   LIG d   1       5.998  -2.135 -10.178  0.00  0.00    -0.365 OA
ATOM     24  H   LIG d   1       6.517  -2.778 -10.680  0.00  0.00     0.212 HD
ENDBRANCH   7  23
BRANCH  10  25
ATOM     25  C   LIG d   1       4.393  -5.575  -8.390  0.00  0.00     0.073 C 
ATOM     26  H   LIG d   1       4.310  -6.083  -9.350  0.00  0.00     0.058 H 
ATOM     27  H   LIG d   1       5.178  -6.043  -7.797  0.00  0.00     0.058 H 
BRANCH  25  28
ATOM     28  O   LIG d   1       3.149  -5.671  -7.692  0.00  0.00    -0.392 OA
ATOM     29  H   LIG d   1       3.222  -6.056  -6.808  0.00  0.00     0.209 HD
ENDBRANCH  25  28
ENDBRANCH  10  25
ENDBRANCH   1   2
BRANCH   1  30
ATOM     30  C   LIG d   1       5.799  -3.040  -5.947  0.00  0.00     0.181 C 
ATOM     31  H   LIG d   1       5.988  -2.180  -6.589  0.00  0.00     0.093 H 
ATOM     32  O   LIG d   1       6.815  -4.023  -6.157  0.00  0.00    -0.341 OA
ATOM     33  C   LIG d   1       8.140  -3.558  -5.893  0.00  0.00     0.113 C 
ATOM     34  C   LIG d   1       8.250  -3.136  -4.426  0.00  0.00     0.111 C 
ATOM     35  H   LIG d   1       8.361  -2.705  -6.535  0.00  0.00     0.065 H 
ATOM     36  C   LIG d   1       7.205  -2.055  -4.135  0.00  0.00     0.106 C 
ATOM     37  H   LIG d   1       8.070  -3.998  -3.784  0.00  0.00     0.065 H 
ATOM     38  C   LIG d   1       5.815  -2.597  -4.483  0.00  0.00     0.102 C 
ATOM     39  H   LIG d   1       7.413  -1.173  -4.741  0.00  0.00     0.064 H 
ATOM     40  H   LIG d   1       5.586  -3.448  -3.841  0.00  0.00     0.058 H 
BRANCH  33  41
ATOM     41  C   LIG d   1       9.141  -4.681  -6.176  0.00  0.00     0.073 C 
ATOM     42  H   LIG d   1       8.774  -5.296  -6.997  0.00  0.00     0.058 H 
ATOM     43  H   LIG d   1       9.258  -5.297  -5.284  0.00  0.00     0.058 H 
BRANCH  41  44
ATOM     44  O   LIG d   1      10.404  -4.116  -6.532  0.00  0.00    -0.392 OA
ATOM     45  H   LIG d   1      10.946  -3.855  -5.775  0.00  0.00     0.209 HD
ENDBRANCH  41  44
ENDBRANCH  33  41
BRANCH  34  46
ATOM     46  O   LIG d   1       9.557  -2.616  -4.175  0.00  0.00    -0.387 OA
ATOM     47  H   LIG d   1       9.575  -1.886  -3.541  0.00  0.00     0.210 HD
ENDBRANCH  34  46
BRANCH  36  48
ATOM     48  O   LIG d   1       7.250  -1.706  -2.750  0.00  0.00    -0.387 OA
ATOM     49  H   LIG d   1       8.145  -1.597  -2.401  0.00  0.00     0.210 HD
ENDBRANCH  36  48
BRANCH  38  50
ATOM     50  N   LIG d   1       4.814  -1.546  -4.277  0.00  0.00    -0.305 N 
ATOM     51  C   LIG d   1       3.828  -1.722  -3.376  0.00  0.00     0.210 C 
ATOM     52  O   LIG d   1       3.768  -2.750  -2.734  0.00  0.00    -0.276 OA
ATOM     53  H   LIG d   1       4.862  -0.724  -4.790  0.00  0.00     0.149 HD
BRANCH  51  54
ATOM     54  C   LIG d   1       2.799  -0.642  -3.164  0.00  0.00     0.012 C 
ATOM     55  H   LIG d   1       1.898  -1.077  -2.734  0.00  0.00     0.032 H 
ATOM     56  H   LIG d   1       3.199   0.112  -2.485  0.00  0.00     0.032 H 
ATOM     57  H   LIG d   1       2.558  -0.177  -4.120  0.00  0.00     0.032 H 
ENDBRANCH  51  54
ENDBRANCH  38  50
ENDBRANCH   1  30
TORSDOF 14
ENDMDL
MODEL 10
REMARK VINA RESULT:      -4.9      3.505      5.808
REMARK  14 active torsions:
REMARK  status: ('A' for Active; 'I' for Inactive)
REMARK    1  A    between atoms: C_1  and  C_2 
REMARK       I    between atoms: C_2  and  N_4 
REMARK    2  A    between atoms: N_4  and  C_5 
REMARK    3  A    between atoms: C_7  and  O_39 
REMARK    4  A    between atoms: C_9  and  O_19 
REMARK    5  A    between atoms: C_11  and  C_17 
REMARK    6  A    between atoms: C_14  and  O_16 
REMARK    7  A    between atoms: C_17  and  O_18 
REMARK    8  A    between atoms: O_19  and  C_20 
REMARK    9  A    between atoms: C_22  and  N_35 
REMARK   10  A    between atoms: C_24  and  O_34 
REMARK   11  A    between atoms: C_26  and  O_33 
REMARK   12  A    between atoms: C_28  and  C_31 
REMARK   13  A    between atoms: C_31  and  O_32 
REMARK       I    between atoms: N_35  and  C_36 
REMARK   14  A    between atoms: C_36  and  C_38 
ROOT
ATOM      1  O   LIG d   1      10.895   4.137  -5.289  0.00  0.00    -0.341 OA
ENDROOT
BRANCH   1   2
ATOM      2  C   LIG d   1      10.320   2.832  -5.193  0.00  0.00     0.118 C 
ATOM      3  C   LIG d   1       8.931   2.933  -4.555  0.00  0.00     0.107 C 
ATOM      4  C   LIG d   1       8.293   1.540  -4.529  0.00  0.00     0.102 C 
ATOM      5  H   LIG d   1       8.309   3.608  -5.143  0.00  0.00     0.064 H 
ATOM      6  H   LIG d   1       8.890   0.879  -3.900  0.00  0.00     0.058 H 
ATOM      7  C   LIG d   1       8.241   0.982  -5.953  0.00  0.00     0.178 C 
ATOM      8  O   LIG d   1       9.562   0.946  -6.497  0.00  0.00    -0.341 OA
ATOM      9  H   LIG d   1       7.827  -0.026  -5.935  0.00  0.00     0.093 H 
ATOM     10  C   LIG d   1      10.190   2.226  -6.592  0.00  0.00     0.113 C 
ATOM     11  H   LIG d   1       9.586   2.882  -7.218  0.00  0.00     0.065 H 
ATOM     12  H   LIG d   1      10.958   2.199  -4.576  0.00  0.00     0.065 H 
BRANCH   3  13
ATOM     13  O   LIG d   1       9.050   3.430  -3.222  0.00  0.00    -0.387 OA
ATOM     14  H   LIG d   1       8.552   2.922  -2.566  0.00  0.00     0.210 HD
ENDBRANCH   3  13
BRANCH   4  15
ATOM     15  N   LIG d   1       6.934   1.634  -3.988  0.00  0.00    -0.305 N 
ATOM     16  C   LIG d   1       6.403   0.594  -3.315  0.00  0.00     0.210 C 
ATOM     17  O   LIG d   1       7.050  -0.419  -3.156  0.00  0.00    -0.276 OA
ATOM     18  H   LIG d   1       6.417   2.444  -4.115  0.00  0.00     0.149 HD
BRANCH  16  19
ATOM     19  C   LIG d   1       5.006   0.691  -2.759  0.00  0.00     0.012 C 
ATOM     20  H   LIG d   1       5.015   1.305  -1.859  0.00  0.00     0.032 H 
ATOM     21  H   LIG d   1       4.349   1.146  -3.502  0.00  0.00     0.032 H 
ATOM     22  H   LIG d   1       4.641  -0.306  -2.515  0.00  0.00     0.032 H 
ENDBRANCH  16  19
ENDBRANCH   4  15
BRANCH   7  23
ATOM     23  O   LIG d   1       7.415   1.821  -6.763  0.00  0.00    -0.365 OA
ATOM     24  H   LIG d   1       7.587   2.767  -6.652  0.00  0.00     0.212 HD
ENDBRANCH   7  23
BRANCH  10  25
ATOM     25  C   LIG d   1      11.581   2.068  -7.210  0.00  0.00     0.073 C 
ATOM     26  H   LIG d   1      12.325   1.995  -6.418  0.00  0.00     0.058 H 
ATOM     27  H   LIG d   1      11.608   1.164  -7.818  0.00  0.00     0.058 H 
BRANCH  25  28
ATOM     28  O   LIG d   1      11.868   3.202  -8.032  0.00  0.00    -0.392 OA
ATOM     29  H   LIG d   1      11.948   2.996  -8.973  0.00  0.00     0.209 HD
ENDBRANCH  25  28
ENDBRANCH  10  25
ENDBRANCH   1   2
BRANCH   1  30
ATOM     30  C   LIG d   1      10.007   5.127  -5.812  0.00  0.00     0.181 C 
ATOM     31  H   LIG d   1       8.980   4.767  -5.742  0.00  0.00     0.093 H 
ATOM     32  O   LIG d   1      10.329   5.381  -7.181  0.00  0.00    -0.341 OA
ATOM     33  C   LIG d   1       9.481   6.342  -7.812  0.00  0.00     0.113 C 
ATOM     34  C   LIG d   1       9.604   7.684  -7.087  0.00  0.00     0.111 C 
ATOM     35  H   LIG d   1       8.447   5.998  -7.768  0.00  0.00     0.065 H 
ATOM     36  C   LIG d   1       9.241   7.494  -5.611  0.00  0.00     0.106 C 
ATOM     37  H   LIG d   1      10.628   8.048  -7.165  0.00  0.00     0.065 H 
ATOM     38  C   LIG d   1      10.151   6.420  -5.007  0.00  0.00     0.102 C 
ATOM     39  H   LIG d   1       8.201   7.177  -5.529  0.00  0.00     0.064 H 
ATOM     40  H   LIG d   1      11.186   6.759  -5.044  0.00  0.00     0.058 H 
BRANCH  33  41
ATOM     41  C   LIG d   1       9.900   6.511  -9.274  0.00  0.00     0.073 C 
ATOM     42  H   LIG d   1      10.292   5.568  -9.651  0.00  0.00     0.058 H 
ATOM     43  H   LIG d   1      10.670   7.280  -9.344  0.00  0.00     0.058 H 
BRANCH  41  44
ATOM     44  O   LIG d   1       8.767   6.902 -10.052  0.00  0.00    -0.392 OA
ATOM     45  H   LIG d   1       8.365   6.180 -10.552  0.00  0.00     0.209 HD
ENDBRANCH  41  44
ENDBRANCH  33  41
BRANCH  34  46
ATOM     46  O   LIG d   1       8.712   8.631  -7.679  0.00  0.00    -0.387 OA
ATOM     47  H   LIG d   1       8.150   9.093  -7.043  0.00  0.00     0.210 HD
ENDBRANCH  34  46
BRANCH  36  48
ATOM     48  O   LIG d   1       9.423   8.726  -4.910  0.00  0.00    -0.387 OA
ATOM     49  H   LIG d   1       8.609   9.232  -4.788  0.00  0.00     0.210 HD
ENDBRANCH  36  48
BRANCH  38  50
ATOM     50  N   LIG d   1       9.764   6.177  -3.615  0.00  0.00    -0.305 N 
ATOM     51  C   LIG d   1      10.499   6.696  -2.611  0.00  0.00     0.210 C 
ATOM     52  O   LIG d   1      11.480   7.365  -2.860  0.00  0.00    -0.276 OA
ATOM     53  H   LIG d   1       8.980   5.643  -3.416  0.00  0.00     0.149 HD
BRANCH  51  54
ATOM     54  C   LIG d   1      10.101   6.447  -1.179  0.00  0.00     0.012 C 
ATOM     55  H   LIG d   1       9.192   5.846  -1.154  0.00  0.00     0.032 H 
ATOM     56  H   LIG d   1      10.903   5.914  -0.668  0.00  0.00     0.032 H 
ATOM     57  H   LIG d   1       9.922   7.399  -0.681  0.00  0.00     0.032 H 
ENDBRANCH  51  54
ENDBRANCH  38  50
ENDBRANCH   1  30
TORSDOF 14
ENDMDL
