MODEL 1
REMARK VINA RESULT:      -6.2      0.000      0.000
REMARK  7 active torsions:
REMARK  status: ('A' for Active; 'I' for Inactive)
REMARK    1  A    between atoms: C_1  and  C_2 
REMARK    2  A    between atoms: C_2  and  C_3 
REMARK    3  A    between atoms: C_3  and  C_5 
REMARK    4  A    between atoms: C_3  and  N_6 
REMARK    5  A    between atoms: N_6  and  C_7 
REMARK    6  A    between atoms: C_7  and  C_8 
REMARK    7  A    between atoms: C_20  and  C_27 
ROOT
ATOM      1  C   LIG d   1       3.889  -0.631  -6.611  0.00  0.00     0.102 C 
ATOM      2  H   LIG d   1       3.438  -1.542  -7.004  0.00  0.00     0.047 H 
ATOM      3  C   LIG d   1       4.609   0.144  -7.731  0.00  0.00     0.015 C 
ATOM      4  H   LIG d   1       5.473   0.664  -7.318  0.00  0.00     0.035 H 
ATOM      5  C   LIG d   1       5.047  -0.735  -8.873  0.00  0.00    -0.039 C 
ATOM      6  C   LIG d   1       3.860  -1.394  -9.579  0.00  0.00    -0.014 C 
ATOM      7  H   LIG d   1       3.328  -2.062  -8.902  0.00  0.00     0.035 H 
ATOM      8  C   LIG d   1       4.387  -2.153 -10.783  0.00  0.00    -0.073 C 
ATOM      9  C   LIG d   1       4.267  -3.455 -10.867  0.00  0.00    -0.099 C 
ATOM     10  C   LIG d   1       5.055  -1.356 -11.881  0.00  0.00    -0.032 C 
ATOM     11  C   LIG d   1       4.124  -0.215 -12.303  0.00  0.00    -0.049 C 
ATOM     12  C   LIG d   1       3.724   0.604 -11.073  0.00  0.00    -0.047 C 
ATOM     13  C   LIG d   1       2.932  -0.282 -10.088  0.00  0.00    -0.022 C 
ATOM     14  C   LIG d   1       2.404   0.515  -8.906  0.00  0.00    -0.009 C 
ATOM     15  C   LIG d   1       3.531   1.171  -8.132  0.00  0.00     0.107 C 
ATOM     16  H   LIG d   1       3.946   2.032  -8.656  0.00  0.00     0.074 H 
ATOM     17  O   LIG d   1       2.964   1.501  -6.833  0.00  0.00    -0.461 OA
ATOM     18  C   LIG d   1       2.818   0.343  -6.146  0.00  0.00     0.316 C 
ATOM     19  O   LIG d   1       1.979   0.119  -5.305  0.00  0.00    -0.250 OA
ATOM     20  H   LIG d   1       5.597  -0.131  -9.593  0.00  0.00     0.028 H 
ATOM     21  H   LIG d   1       5.706  -1.513  -8.488  0.00  0.00     0.028 H 
ATOM     22  H   LIG d   1       3.787  -4.005 -10.072  0.00  0.00     0.053 H 
ATOM     23  H   LIG d   1       4.649  -3.976 -11.732  0.00  0.00     0.053 H 
ATOM     24  H   LIG d   1       5.994  -0.944 -11.514  0.00  0.00     0.031 H 
ATOM     25  H   LIG d   1       5.249  -2.004 -12.736  0.00  0.00     0.031 H 
ATOM     26  H   LIG d   1       4.640   0.429 -13.016  0.00  0.00     0.027 H 
ATOM     27  H   LIG d   1       3.231  -0.630 -12.770  0.00  0.00     0.027 H 
ATOM     28  H   LIG d   1       4.619   0.979 -10.579  0.00  0.00     0.027 H 
ATOM     29  H   LIG d   1       3.100   1.442 -11.383  0.00  0.00     0.027 H 
ATOM     30  H   LIG d   1       1.724   1.285  -9.272  0.00  0.00     0.031 H 
ATOM     31  H   LIG d   1       1.857  -0.154  -8.243  0.00  0.00     0.031 H 
ENDROOT
BRANCH   1  32
ATOM     32  C   LIG d   1       4.856  -0.957  -5.471  0.00  0.00    -0.020 C 
ATOM     33  H   LIG d   1       5.881  -0.924  -5.844  0.00  0.00     0.082 H 
ATOM     34  H   LIG d   1       4.642  -1.954  -5.086  0.00  0.00     0.082 H 
BRANCH  32  35
ATOM     35  N   LIG d   1       4.694   0.030  -4.395  0.00  0.00     0.230 N 
ATOM     36  H   LIG d   1       3.767   0.425  -4.438  0.00  0.00     0.202 HD
ATOM     37  H   LIG d   1       5.378   0.763  -4.506  0.00  0.00     0.202 HD
BRANCH  35  38
ATOM     38  C   LIG d   1       4.887  -0.627  -3.095  0.00  0.00    -0.026 C 
ATOM     39  H   LIG d   1       5.908  -1.001  -3.026  0.00  0.00     0.085 H 
BRANCH  38  40
ATOM     40  C   LIG d   1       4.636   0.380  -1.972  0.00  0.00    -0.013 C 
ATOM     41  H   LIG d   1       5.571   0.876  -1.713  0.00  0.00     0.032 H 
ATOM     42  H   LIG d   1       4.246  -0.140  -1.098  0.00  0.00     0.032 H 
BRANCH  40  43
ATOM     43  C   LIG d   1       3.619   1.423  -2.441  0.00  0.00    -0.060 C 
ATOM     44  H   LIG d   1       3.741   2.337  -1.858  0.00  0.00     0.023 H 
ATOM     45  H   LIG d   1       3.781   1.641  -3.496  0.00  0.00     0.023 H 
ATOM     46  H   LIG d   1       2.610   1.035  -2.300  0.00  0.00     0.023 H 
ENDBRANCH  40  43
ENDBRANCH  38  40
BRANCH  38  47
ATOM     47  C   LIG d   1       3.906  -1.794  -2.964  0.00  0.00    -0.022 C 
ATOM     48  H   LIG d   1       3.139  -1.712  -3.734  0.00  0.00     0.028 H 
ATOM     49  H   LIG d   1       4.444  -2.735  -3.085  0.00  0.00     0.028 H 
ATOM     50  H   LIG d   1       3.439  -1.767  -1.980  0.00  0.00     0.028 H 
ENDBRANCH  38  47
ENDBRANCH  35  38
ENDBRANCH  32  35
ENDBRANCH   1  32
BRANCH  13  51
ATOM     51  C   LIG d   1       1.746  -0.910 -10.824  0.00  0.00    -0.059 C 
ATOM     52  H   LIG d   1       0.816  -0.556 -10.381  0.00  0.00     0.024 H 
ATOM     53  H   LIG d   1       1.780  -0.626 -11.875  0.00  0.00     0.024 H 
ATOM     54  H   LIG d   1       1.800  -1.995 -10.738  0.00  0.00     0.024 H 
ENDBRANCH  13  51
TORSDOF 7
ENDMDL
MODEL 2
REMARK VINA RESULT:      -6.2      3.955      6.667
REMARK  7 active torsions:
REMARK  status: ('A' for Active; 'I' for Inactive)
REMARK    1  A    between atoms: C_1  and  C_2 
REMARK    2  A    between atoms: C_2  and  C_3 
REMARK    3  A    between atoms: C_3  and  C_5 
REMARK    4  A    between atoms: C_3  and  N_6 
REMARK    5  A    between atoms: N_6  and  C_7 
REMARK    6  A    between atoms: C_7  and  C_8 
REMARK    7  A    between atoms: C_20  and  C_27 
ROOT
ATOM      1  C   LIG d   1       7.537   0.820  -5.689  0.00  0.00     0.102 C 
ATOM      2  H   LIG d   1       6.871   1.560  -5.245  0.00  0.00     0.047 H 
ATOM      3  C   LIG d   1       7.297  -0.568  -5.066  0.00  0.00     0.015 C 
ATOM      4  H   LIG d   1       8.234  -1.125  -5.044  0.00  0.00     0.035 H 
ATOM      5  C   LIG d   1       6.716  -0.503  -3.678  0.00  0.00    -0.039 C 
ATOM      6  C   LIG d   1       5.335   0.156  -3.663  0.00  0.00    -0.014 C 
ATOM      7  H   LIG d   1       5.397   1.195  -3.988  0.00  0.00     0.035 H 
ATOM      8  C   LIG d   1       4.782   0.063  -2.253  0.00  0.00    -0.073 C 
ATOM      9  C   LIG d   1       4.537   1.142  -1.550  0.00  0.00    -0.099 C 
ATOM     10  C   LIG d   1       4.523  -1.315  -1.686  0.00  0.00    -0.032 C 
ATOM     11  C   LIG d   1       3.665  -2.106  -2.677  0.00  0.00    -0.049 C 
ATOM     12  C   LIG d   1       4.329  -2.097  -4.056  0.00  0.00    -0.047 C 
ATOM     13  C   LIG d   1       4.413  -0.651  -4.588  0.00  0.00    -0.022 C 
ATOM     14  C   LIG d   1       4.954  -0.599  -6.008  0.00  0.00    -0.009 C 
ATOM     15  C   LIG d   1       6.341  -1.203  -6.096  0.00  0.00     0.107 C 
ATOM     16  H   LIG d   1       6.323  -2.292  -6.035  0.00  0.00     0.074 H 
ATOM     17  O   LIG d   1       6.902  -0.701  -7.342  0.00  0.00    -0.461 OA
ATOM     18  C   LIG d   1       7.201   0.606  -7.157  0.00  0.00     0.316 C 
ATOM     19  O   LIG d   1       7.201   1.461  -8.011  0.00  0.00    -0.250 OA
ATOM     20  H   LIG d   1       6.631  -1.514  -3.282  0.00  0.00     0.028 H 
ATOM     21  H   LIG d   1       7.389   0.071  -3.039  0.00  0.00     0.028 H 
ATOM     22  H   LIG d   1       4.728   2.117  -1.973  0.00  0.00     0.053 H 
ATOM     23  H   LIG d   1       4.143   1.055  -0.549  0.00  0.00     0.053 H 
ATOM     24  H   LIG d   1       5.471  -1.830  -1.532  0.00  0.00     0.031 H 
ATOM     25  H   LIG d   1       3.996  -1.226  -0.736  0.00  0.00     0.031 H 
ATOM     26  H   LIG d   1       3.563  -3.134  -2.329  0.00  0.00     0.027 H 
ATOM     27  H   LIG d   1       2.677  -1.649  -2.747  0.00  0.00     0.027 H 
ATOM     28  H   LIG d   1       5.334  -2.510  -3.977  0.00  0.00     0.027 H 
ATOM     29  H   LIG d   1       3.740  -2.700  -4.747  0.00  0.00     0.027 H 
ATOM     30  H   LIG d   1       4.280  -1.150  -6.665  0.00  0.00     0.031 H 
ATOM     31  H   LIG d   1       4.995   0.440  -6.335  0.00  0.00     0.031 H 
ENDROOT
BRANCH   1  32
ATOM     32  C   LIG d   1       8.998   1.242  -5.524  0.00  0.00    -0.020 C 
ATOM     33  H   LIG d   1       9.621   0.668  -6.211  0.00  0.00     0.082 H 
ATOM     34  H   LIG d   1       9.318   1.052  -4.499  0.00  0.00     0.082 H 
BRANCH  32  35
ATOM     35  N   LIG d   1       9.131   2.674  -5.822  0.00  0.00     0.230 N 
ATOM     36  H   LIG d   1       8.449   2.937  -6.518  0.00  0.00     0.202 HD
ATOM     37  H   LIG d   1      10.058   2.860  -6.173  0.00  0.00     0.202 HD
BRANCH  35  38
ATOM     38  C   LIG d   1       8.905   3.452  -4.597  0.00  0.00    -0.026 C 
ATOM     39  H   LIG d   1       7.834   3.554  -4.424  0.00  0.00     0.085 H 
BRANCH  38  40
ATOM     40  C   LIG d   1       9.546   2.731  -3.409  0.00  0.00    -0.013 C 
ATOM     41  H   LIG d   1      10.105   1.866  -3.768  0.00  0.00     0.032 H 
ATOM     42  H   LIG d   1       8.768   2.402  -2.722  0.00  0.00     0.032 H 
BRANCH  40  43
ATOM     43  C   LIG d   1      10.497   3.687  -2.685  0.00  0.00    -0.060 C 
ATOM     44  H   LIG d   1      10.249   3.709  -1.623  0.00  0.00     0.023 H 
ATOM     45  H   LIG d   1      11.523   3.344  -2.811  0.00  0.00     0.023 H 
ATOM     46  H   LIG d   1      10.393   4.688  -3.103  0.00  0.00     0.023 H 
ENDBRANCH  40  43
ENDBRANCH  38  40
BRANCH  38  47
ATOM     47  C   LIG d   1       9.532   4.839  -4.751  0.00  0.00    -0.022 C 
ATOM     48  H   LIG d   1       9.546   5.341  -3.783  0.00  0.00     0.028 H 
ATOM     49  H   LIG d   1      10.551   4.738  -5.122  0.00  0.00     0.028 H 
ATOM     50  H   LIG d   1       8.944   5.427  -5.455  0.00  0.00     0.028 H 
ENDBRANCH  38  47
ENDBRANCH  35  38
ENDBRANCH  32  35
ENDBRANCH   1  32
BRANCH  13  51
ATOM     51  C   LIG d   1       3.015  -0.031  -4.574  0.00  0.00    -0.059 C 
ATOM     52  H   LIG d   1       2.460  -0.367  -5.450  0.00  0.00     0.024 H 
ATOM     53  H   LIG d   1       2.490  -0.341  -3.670  0.00  0.00     0.024 H 
ATOM     54  H   LIG d   1       3.099   1.055  -4.591  0.00  0.00     0.024 H 
ENDBRANCH  13  51
TORSDOF 7
ENDMDL
MODEL 3
REMARK VINA RESULT:      -6.0      2.045      3.467
REMARK  7 active torsions:
REMARK  status: ('A' for Active; 'I' for Inactive)
REMARK    1  A    between atoms: C_1  and  C_2 
REMARK    2  A    between atoms: C_2  and  C_3 
REMARK    3  A    between atoms: C_3  and  C_5 
REMARK    4  A    between atoms: C_3  and  N_6 
REMARK    5  A    between atoms: N_6  and  C_7 
REMARK    6  A    between atoms: C_7  and  C_8 
REMARK    7  A    between atoms: C_20  and  C_27 
ROOT
ATOM      1  C   LIG d   1       5.779  -0.446  -5.392  0.00  0.00     0.102 C 
ATOM      2  H   LIG d   1       6.144   0.320  -6.077  0.00  0.00     0.047 H 
ATOM      3  C   LIG d   1       4.418  -0.992  -5.865  0.00  0.00     0.015 C 
ATOM      4  H   LIG d   1       3.817  -1.272  -5.000  0.00  0.00     0.035 H 
ATOM      5  C   LIG d   1       3.652  -0.015  -6.718  0.00  0.00    -0.039 C 
ATOM      6  C   LIG d   1       4.390   0.319  -8.016  0.00  0.00    -0.014 C 
ATOM      7  H   LIG d   1       5.338   0.817  -7.806  0.00  0.00     0.035 H 
ATOM      8  C   LIG d   1       3.491   1.204  -8.858  0.00  0.00    -0.073 C 
ATOM      9  C   LIG d   1       3.839   2.430  -9.160  0.00  0.00    -0.099 C 
ATOM     10  C   LIG d   1       2.179   0.623  -9.337  0.00  0.00    -0.032 C 
ATOM     11  C   LIG d   1       2.452  -0.716 -10.027  0.00  0.00    -0.049 C 
ATOM     12  C   LIG d   1       3.249  -1.626  -9.089  0.00  0.00    -0.047 C 
ATOM     13  C   LIG d   1       4.621  -0.991  -8.782  0.00  0.00    -0.022 C 
ATOM     14  C   LIG d   1       5.501  -1.913  -7.953  0.00  0.00    -0.009 C 
ATOM     15  C   LIG d   1       4.848  -2.260  -6.630  0.00  0.00     0.107 C 
ATOM     16  H   LIG d   1       4.034  -2.976  -6.746  0.00  0.00     0.074 H 
ATOM     17  O   LIG d   1       5.929  -2.742  -5.782  0.00  0.00    -0.461 OA
ATOM     18  C   LIG d   1       6.678  -1.672  -5.428  0.00  0.00     0.316 C 
ATOM     19  O   LIG d   1       7.861  -1.685  -5.181  0.00  0.00    -0.250 OA
ATOM     20  H   LIG d   1       2.681  -0.445  -6.963  0.00  0.00     0.028 H 
ATOM     21  H   LIG d   1       3.497   0.904  -6.152  0.00  0.00     0.028 H 
ATOM     22  H   LIG d   1       4.780   2.826  -8.808  0.00  0.00     0.053 H 
ATOM     23  H   LIG d   1       3.185   3.044  -9.761  0.00  0.00     0.053 H 
ATOM     24  H   LIG d   1       1.517   0.467  -8.486  0.00  0.00     0.031 H 
ATOM     25  H   LIG d   1       1.712   1.310 -10.043  0.00  0.00     0.031 H 
ATOM     26  H   LIG d   1       1.505  -1.194 -10.279  0.00  0.00     0.027 H 
ATOM     27  H   LIG d   1       3.024  -0.544 -10.939  0.00  0.00     0.027 H 
ATOM     28  H   LIG d   1       2.698  -1.760  -8.159  0.00  0.00     0.027 H 
ATOM     29  H   LIG d   1       3.400  -2.595  -9.565  0.00  0.00     0.027 H 
ATOM     30  H   LIG d   1       5.684  -2.828  -8.515  0.00  0.00     0.031 H 
ATOM     31  H   LIG d   1       6.453  -1.418  -7.763  0.00  0.00     0.031 H 
ENDROOT
BRANCH   1  32
ATOM     32  C   LIG d   1       5.674   0.108  -3.969  0.00  0.00    -0.020 C 
ATOM     33  H   LIG d   1       4.693   0.562  -3.828  0.00  0.00     0.082 H 
ATOM     34  H   LIG d   1       6.448   0.860  -3.814  0.00  0.00     0.082 H 
BRANCH  32  35
ATOM     35  N   LIG d   1       5.852  -0.985  -3.004  0.00  0.00     0.230 N 
ATOM     36  H   LIG d   1       6.665  -0.802  -2.435  0.00  0.00     0.202 HD
ATOM     37  H   LIG d   1       5.979  -1.854  -3.501  0.00  0.00     0.202 HD
BRANCH  35  38
ATOM     38  C   LIG d   1       4.664  -1.079  -2.147  0.00  0.00    -0.026 C 
ATOM     39  H   LIG d   1       4.970  -1.070  -1.101  0.00  0.00     0.085 H 
BRANCH  38  40
ATOM     40  C   LIG d   1       3.743   0.111  -2.419  0.00  0.00    -0.013 C 
ATOM     41  H   LIG d   1       4.211   0.773  -3.148  0.00  0.00     0.032 H 
ATOM     42  H   LIG d   1       3.571   0.657  -1.491  0.00  0.00     0.032 H 
BRANCH  40  43
ATOM     43  C   LIG d   1       2.407  -0.392  -2.970  0.00  0.00    -0.060 C 
ATOM     44  H   LIG d   1       2.493  -0.546  -4.046  0.00  0.00     0.023 H 
ATOM     45  H   LIG d   1       2.147  -1.334  -2.488  0.00  0.00     0.023 H 
ATOM     46  H   LIG d   1       1.630   0.346  -2.770  0.00  0.00     0.023 H 
ENDBRANCH  40  43
ENDBRANCH  38  40
BRANCH  38  47
ATOM     47  C   LIG d   1       3.919  -2.381  -2.449  0.00  0.00    -0.022 C 
ATOM     48  H   LIG d   1       3.865  -2.526  -3.528  0.00  0.00     0.028 H 
ATOM     49  H   LIG d   1       4.452  -3.217  -1.997  0.00  0.00     0.028 H 
ATOM     50  H   LIG d   1       2.911  -2.327  -2.038  0.00  0.00     0.028 H 
ENDBRANCH  38  47
ENDBRANCH  35  38
ENDBRANCH  32  35
ENDBRANCH   1  32
BRANCH  13  51
ATOM     51  C   LIG d   1       5.336  -0.686 -10.100  0.00  0.00    -0.059 C 
ATOM     52  H   LIG d   1       4.613  -0.317 -10.828  0.00  0.00     0.024 H 
ATOM     53  H   LIG d   1       6.100   0.073  -9.931  0.00  0.00     0.024 H 
ATOM     54  H   LIG d   1       5.803  -1.595 -10.478  0.00  0.00     0.024 H 
ENDBRANCH  13  51
TORSDOF 7
ENDMDL
MODEL 4
REMARK VINA RESULT:      -6.0      2.846      6.558
REMARK  7 active torsions:
REMARK  status: ('A' for Active; 'I' for Inactive)
REMARK    1  A    between atoms: C_1  and  C_2 
REMARK    2  A    between atoms: C_2  and  C_3 
REMARK    3  A    between atoms: C_3  and  C_5 
REMARK    4  A    between atoms: C_3  and  N_6 
REMARK    5  A    between atoms: N_6  and  C_7 
REMARK    6  A    between atoms: C_7  and  C_8 
REMARK    7  A    between atoms: C_20  and  C_27 
ROOT
ATOM      1  C   LIG d   1       6.041  -2.133  -6.648  0.00  0.00     0.102 C 
ATOM      2  H   LIG d   1       4.975  -2.329  -6.534  0.00  0.00     0.047 H 
ATOM      3  C   LIG d   1       6.493  -1.017  -5.687  0.00  0.00     0.015 C 
ATOM      4  H   LIG d   1       7.302  -0.447  -6.144  0.00  0.00     0.035 H 
ATOM      5  C   LIG d   1       5.377  -0.085  -5.295  0.00  0.00    -0.039 C 
ATOM      6  C   LIG d   1       4.265  -0.807  -4.531  0.00  0.00    -0.014 C 
ATOM      7  H   LIG d   1       3.790  -1.562  -5.158  0.00  0.00     0.035 H 
ATOM      8  C   LIG d   1       3.255   0.228  -4.072  0.00  0.00    -0.073 C 
ATOM      9  C   LIG d   1       2.019   0.205  -4.506  0.00  0.00    -0.099 C 
ATOM     10  C   LIG d   1       3.723   1.288  -3.100  0.00  0.00    -0.032 C 
ATOM     11  C   LIG d   1       4.402   0.603  -1.910  0.00  0.00    -0.049 C 
ATOM     12  C   LIG d   1       5.503  -0.334  -2.413  0.00  0.00    -0.047 C 
ATOM     13  C   LIG d   1       4.887  -1.449  -3.282  0.00  0.00    -0.022 C 
ATOM     14  C   LIG d   1       5.924  -2.477  -3.706  0.00  0.00    -0.009 C 
ATOM     15  C   LIG d   1       7.043  -1.838  -4.504  0.00  0.00     0.107 C 
ATOM     16  H   LIG d   1       7.724  -1.264  -3.874  0.00  0.00     0.074 H 
ATOM     17  O   LIG d   1       7.691  -2.937  -5.206  0.00  0.00    -0.461 OA
ATOM     18  C   LIG d   1       6.860  -3.333  -6.198  0.00  0.00     0.316 C 
ATOM     19  O   LIG d   1       6.780  -4.450  -6.652  0.00  0.00    -0.250 OA
ATOM     20  H   LIG d   1       5.782   0.707  -4.666  0.00  0.00     0.028 H 
ATOM     21  H   LIG d   1       4.955   0.361  -6.196  0.00  0.00     0.028 H 
ATOM     22  H   LIG d   1       1.705  -0.560  -5.201  0.00  0.00     0.053 H 
ATOM     23  H   LIG d   1       1.315   0.951  -4.168  0.00  0.00     0.053 H 
ATOM     24  H   LIG d   1       4.434   1.949  -3.594  0.00  0.00     0.031 H 
ATOM     25  H   LIG d   1       2.867   1.865  -2.750  0.00  0.00     0.031 H 
ATOM     26  H   LIG d   1       4.838   1.359  -1.256  0.00  0.00     0.027 H 
ATOM     27  H   LIG d   1       3.662   0.027  -1.353  0.00  0.00     0.027 H 
ATOM     28  H   LIG d   1       6.217   0.234  -3.010  0.00  0.00     0.027 H 
ATOM     29  H   LIG d   1       6.015  -0.782  -1.562  0.00  0.00     0.027 H 
ATOM     30  H   LIG d   1       6.340  -2.949  -2.816  0.00  0.00     0.031 H 
ATOM     31  H   LIG d   1       5.439  -3.239  -4.317  0.00  0.00     0.031 H 
ENDROOT
BRANCH   1  32
ATOM     32  C   LIG d   1       6.370  -1.765  -8.096  0.00  0.00    -0.020 C 
ATOM     33  H   LIG d   1       6.590  -2.673  -8.660  0.00  0.00     0.082 H 
ATOM     34  H   LIG d   1       7.238  -1.106  -8.116  0.00  0.00     0.082 H 
BRANCH  32  35
ATOM     35  N   LIG d   1       5.220  -1.080  -8.701  0.00  0.00     0.230 N 
ATOM     36  H   LIG d   1       5.291  -1.128  -9.707  0.00  0.00     0.202 HD
ATOM     37  H   LIG d   1       5.214  -0.114  -8.410  0.00  0.00     0.202 HD
BRANCH  35  38
ATOM     38  C   LIG d   1       3.978  -1.731  -8.266  0.00  0.00    -0.026 C 
ATOM     39  H   LIG d   1       4.145  -2.231  -7.312  0.00  0.00     0.085 H 
BRANCH  38  40
ATOM     40  C   LIG d   1       2.880  -0.678  -8.104  0.00  0.00    -0.013 C 
ATOM     41  H   LIG d   1       2.434  -0.769  -7.113  0.00  0.00     0.032 H 
ATOM     42  H   LIG d   1       2.113  -0.833  -8.863  0.00  0.00     0.032 H 
BRANCH  40  43
ATOM     43  C   LIG d   1       3.484   0.718  -8.266  0.00  0.00    -0.060 C 
ATOM     44  H   LIG d   1       3.733   1.122  -7.284  0.00  0.00     0.023 H 
ATOM     45  H   LIG d   1       4.386   0.656  -8.874  0.00  0.00     0.023 H 
ATOM     46  H   LIG d   1       2.761   1.372  -8.754  0.00  0.00     0.023 H 
ENDBRANCH  40  43
ENDBRANCH  38  40
BRANCH  38  47
ATOM     47  C   LIG d   1       3.548  -2.761  -9.313  0.00  0.00    -0.022 C 
ATOM     48  H   LIG d   1       2.949  -2.269 -10.080  0.00  0.00     0.028 H 
ATOM     49  H   LIG d   1       4.432  -3.204  -9.770  0.00  0.00     0.028 H 
ATOM     50  H   LIG d   1       2.956  -3.540  -8.834  0.00  0.00     0.028 H 
ENDBRANCH  38  47
ENDBRANCH  35  38
ENDBRANCH  32  35
ENDBRANCH   1  32
BRANCH  13  51
ATOM     51  C   LIG d   1       3.793  -2.159  -2.481  0.00  0.00    -0.059 C 
ATOM     52  H   LIG d   1       2.825  -1.717  -2.718  0.00  0.00     0.024 H 
ATOM     53  H   LIG d   1       3.782  -3.217  -2.741  0.00  0.00     0.024 H 
ATOM     54  H   LIG d   1       3.992  -2.047  -1.416  0.00  0.00     0.024 H 
ENDBRANCH  13  51
TORSDOF 7
ENDMDL
MODEL 5
REMARK VINA RESULT:      -6.0      2.365      6.631
REMARK  7 active torsions:
REMARK  status: ('A' for Active; 'I' for Inactive)
REMARK    1  A    between atoms: C_1  and  C_2 
REMARK    2  A    between atoms: C_2  and  C_3 
REMARK    3  A    between atoms: C_3  and  C_5 
REMARK    4  A    between atoms: C_3  and  N_6 
REMARK    5  A    between atoms: N_6  and  C_7 
REMARK    6  A    between atoms: C_7  and  C_8 
REMARK    7  A    between atoms: C_20  and  C_27 
ROOT
ATOM      1  C   LIG d   1       4.655  -1.759  -7.376  0.00  0.00     0.102 C 
ATOM      2  H   LIG d   1       4.689  -2.565  -6.643  0.00  0.00     0.047 H 
ATOM      3  C   LIG d   1       4.522  -0.394  -6.674  0.00  0.00     0.015 C 
ATOM      4  H   LIG d   1       3.944   0.284  -7.302  0.00  0.00     0.035 H 
ATOM      5  C   LIG d   1       3.885  -0.487  -5.312  0.00  0.00    -0.039 C 
ATOM      6  C   LIG d   1       4.721  -1.325  -4.342  0.00  0.00    -0.014 C 
ATOM      7  H   LIG d   1       4.796  -2.357  -4.686  0.00  0.00     0.035 H 
ATOM      8  C   LIG d   1       4.069  -1.257  -2.974  0.00  0.00    -0.073 C 
ATOM      9  C   LIG d   1       3.591  -2.333  -2.399  0.00  0.00    -0.099 C 
ATOM     10  C   LIG d   1       3.988   0.094  -2.298  0.00  0.00    -0.032 C 
ATOM     11  C   LIG d   1       5.382   0.726  -2.284  0.00  0.00    -0.049 C 
ATOM     12  C   LIG d   1       5.948   0.757  -3.707  0.00  0.00    -0.047 C 
ATOM     13  C   LIG d   1       6.112  -0.682  -4.238  0.00  0.00    -0.022 C 
ATOM     14  C   LIG d   1       6.786  -0.712  -5.600  0.00  0.00    -0.009 C 
ATOM     15  C   LIG d   1       5.992   0.070  -6.628  0.00  0.00     0.107 C 
ATOM     16  H   LIG d   1       6.088   1.148  -6.492  0.00  0.00     0.074 H 
ATOM     17  O   LIG d   1       6.471  -0.396  -7.921  0.00  0.00    -0.461 OA
ATOM     18  C   LIG d   1       5.982  -1.645  -8.111  0.00  0.00     0.316 C 
ATOM     19  O   LIG d   1       6.508  -2.521  -8.755  0.00  0.00    -0.250 OA
ATOM     20  H   LIG d   1       3.770   0.517  -4.906  0.00  0.00     0.028 H 
ATOM     21  H   LIG d   1       2.899  -0.942  -5.413  0.00  0.00     0.028 H 
ATOM     22  H   LIG d   1       3.659  -3.287  -2.899  0.00  0.00     0.053 H 
ATOM     23  H   LIG d   1       3.131  -2.264  -1.425  0.00  0.00     0.053 H 
ATOM     24  H   LIG d   1       3.301   0.736  -2.847  0.00  0.00     0.031 H 
ATOM     25  H   LIG d   1       3.634  -0.032  -1.274  0.00  0.00     0.031 H 
ATOM     26  H   LIG d   1       5.316   1.743  -1.898  0.00  0.00     0.027 H 
ATOM     27  H   LIG d   1       6.041   0.138  -1.645  0.00  0.00     0.027 H 
ATOM     28  H   LIG d   1       5.266   1.304  -4.356  0.00  0.00     0.027 H 
ATOM     29  H   LIG d   1       6.919   1.250  -3.700  0.00  0.00     0.027 H 
ATOM     30  H   LIG d   1       7.783  -0.281  -5.512  0.00  0.00     0.031 H 
ATOM     31  H   LIG d   1       6.876  -1.747  -5.930  0.00  0.00     0.031 H 
ENDROOT
BRANCH   1  32
ATOM     32  C   LIG d   1       3.506  -1.974  -8.363  0.00  0.00    -0.020 C 
ATOM     33  H   LIG d   1       2.590  -1.548  -7.952  0.00  0.00     0.082 H 
ATOM     34  H   LIG d   1       3.367  -3.042  -8.531  0.00  0.00     0.082 H 
BRANCH  32  35
ATOM     35  N   LIG d   1       3.824  -1.315  -9.636  0.00  0.00     0.230 N 
ATOM     36  H   LIG d   1       3.739  -1.981 -10.390  0.00  0.00     0.202 HD
ATOM     37  H   LIG d   1       4.769  -0.962  -9.605  0.00  0.00     0.202 HD
BRANCH  35  38
ATOM     38  C   LIG d   1       2.893  -0.202  -9.858  0.00  0.00    -0.026 C 
ATOM     39  H   LIG d   1       2.492   0.132  -8.901  0.00  0.00     0.085 H 
BRANCH  38  40
ATOM     40  C   LIG d   1       3.632   0.956 -10.532  0.00  0.00    -0.013 C 
ATOM     41  H   LIG d   1       3.101   1.246 -11.439  0.00  0.00     0.032 H 
ATOM     42  H   LIG d   1       4.643   0.640 -10.788  0.00  0.00     0.032 H 
BRANCH  40  43
ATOM     43  C   LIG d   1       3.696   2.147  -9.574  0.00  0.00    -0.060 C 
ATOM     44  H   LIG d   1       4.109   1.823  -8.618  0.00  0.00     0.023 H 
ATOM     45  H   LIG d   1       4.331   2.923 -10.000  0.00  0.00     0.023 H 
ATOM     46  H   LIG d   1       2.692   2.543  -9.420  0.00  0.00     0.023 H 
ENDBRANCH  40  43
ENDBRANCH  38  40
BRANCH  38  47
ATOM     47  C   LIG d   1       1.746  -0.668 -10.757  0.00  0.00    -0.022 C 
ATOM     48  H   LIG d   1       2.083  -1.504 -11.371  0.00  0.00     0.028 H 
ATOM     49  H   LIG d   1       0.907  -0.987 -10.139  0.00  0.00     0.028 H 
ATOM     50  H   LIG d   1       1.432   0.152 -11.401  0.00  0.00     0.028 H 
ENDBRANCH  38  47
ENDBRANCH  35  38
ENDBRANCH  32  35
ENDBRANCH   1  32
BRANCH  13  51
ATOM     51  C   LIG d   1       6.965  -1.484  -3.252  0.00  0.00    -0.059 C 
ATOM     52  H   LIG d   1       8.017  -1.387  -3.521  0.00  0.00     0.024 H 
ATOM     53  H   LIG d   1       6.811  -1.101  -2.244  0.00  0.00     0.024 H 
ATOM     54  H   LIG d   1       6.675  -2.533  -3.291  0.00  0.00     0.024 H 
ENDBRANCH  13  51
TORSDOF 7
ENDMDL
MODEL 6
REMARK VINA RESULT:      -5.7      1.746      6.386
REMARK  7 active torsions:
REMARK  status: ('A' for Active; 'I' for Inactive)
REMARK    1  A    between atoms: C_1  and  C_2 
REMARK    2  A    between atoms: C_2  and  C_3 
REMARK    3  A    between atoms: C_3  and  C_5 
REMARK    4  A    between atoms: C_3  and  N_6 
REMARK    5  A    between atoms: N_6  and  C_7 
REMARK    6  A    between atoms: C_7  and  C_8 
REMARK    7  A    between atoms: C_20  and  C_27 
ROOT
ATOM      1  C   LIG d   1       4.714   0.282  -7.760  0.00  0.00     0.102 C 
ATOM      2  H   LIG d   1       5.455   0.698  -7.077  0.00  0.00     0.047 H 
ATOM      3  C   LIG d   1       3.870  -0.796  -7.053  0.00  0.00     0.015 C 
ATOM      4  H   LIG d   1       3.577  -1.560  -7.773  0.00  0.00     0.035 H 
ATOM      5  C   LIG d   1       4.583  -1.441  -5.894  0.00  0.00    -0.039 C 
ATOM      6  C   LIG d   1       4.908  -0.436  -4.786  0.00  0.00    -0.014 C 
ATOM      7  H   LIG d   1       5.596   0.329  -5.146  0.00  0.00     0.035 H 
ATOM      8  C   LIG d   1       5.507  -1.197  -3.618  0.00  0.00    -0.073 C 
ATOM      9  C   LIG d   1       6.736  -0.972  -3.225  0.00  0.00    -0.099 C 
ATOM     10  C   LIG d   1       4.638  -2.222  -2.924  0.00  0.00    -0.032 C 
ATOM     11  C   LIG d   1       3.308  -1.567  -2.542  0.00  0.00    -0.049 C 
ATOM     12  C   LIG d   1       2.674  -0.926  -3.780  0.00  0.00    -0.047 C 
ATOM     13  C   LIG d   1       3.589   0.195  -4.316  0.00  0.00    -0.022 C 
ATOM     14  C   LIG d   1       2.949   0.946  -5.473  0.00  0.00    -0.009 C 
ATOM     15  C   LIG d   1       2.631   0.017  -6.628  0.00  0.00     0.107 C 
ATOM     16  H   LIG d   1       1.764  -0.613  -6.426  0.00  0.00     0.074 H 
ATOM     17  O   LIG d   1       2.459   0.886  -7.784  0.00  0.00    -0.461 OA
ATOM     18  C   LIG d   1       3.685   1.335  -8.142  0.00  0.00     0.316 C 
ATOM     19  O   LIG d   1       3.924   2.392  -8.675  0.00  0.00    -0.250 OA
ATOM     20  H   LIG d   1       3.952  -2.229  -5.485  0.00  0.00     0.028 H 
ATOM     21  H   LIG d   1       5.513  -1.884  -6.253  0.00  0.00     0.028 H 
ATOM     22  H   LIG d   1       7.340  -0.237  -3.734  0.00  0.00     0.053 H 
ATOM     23  H   LIG d   1       7.145  -1.524  -2.391  0.00  0.00     0.053 H 
ATOM     24  H   LIG d   1       4.453  -3.059  -3.596  0.00  0.00     0.031 H 
ATOM     25  H   LIG d   1       5.141  -2.578  -2.025  0.00  0.00     0.031 H 
ATOM     26  H   LIG d   1       2.633  -2.323  -2.139  0.00  0.00     0.027 H 
ATOM     27  H   LIG d   1       3.484  -0.800  -1.787  0.00  0.00     0.027 H 
ATOM     28  H   LIG d   1       2.542  -1.683  -4.552  0.00  0.00     0.027 H 
ATOM     29  H   LIG d   1       1.706  -0.502  -3.514  0.00  0.00     0.027 H 
ATOM     30  H   LIG d   1       2.028   1.414  -5.125  0.00  0.00     0.031 H 
ATOM     31  H   LIG d   1       3.633   1.721  -5.815  0.00  0.00     0.031 H 
ENDROOT
BRANCH   1  32
ATOM     32  C   LIG d   1       5.390  -0.291  -9.007  0.00  0.00    -0.020 C 
ATOM     33  H   LIG d   1       5.376  -1.381  -8.958  0.00  0.00     0.082 H 
ATOM     34  H   LIG d   1       6.422   0.056  -9.053  0.00  0.00     0.082 H 
BRANCH  32  35
ATOM     35  N   LIG d   1       4.668   0.155 -10.205  0.00  0.00     0.230 N 
ATOM     36  H   LIG d   1       5.314   0.601 -10.840  0.00  0.00     0.202 HD
ATOM     37  H   LIG d   1       3.951   0.813  -9.939  0.00  0.00     0.202 HD
BRANCH  35  38
ATOM     38  C   LIG d   1       4.051  -1.002 -10.865  0.00  0.00    -0.026 C 
ATOM     39  H   LIG d   1       4.257  -1.902 -10.286  0.00  0.00     0.085 H 
BRANCH  38  40
ATOM     40  C   LIG d   1       2.539  -0.791 -10.958  0.00  0.00    -0.013 C 
ATOM     41  H   LIG d   1       2.208  -0.983 -11.979  0.00  0.00     0.032 H 
ATOM     42  H   LIG d   1       2.299   0.237 -10.685  0.00  0.00     0.032 H 
BRANCH  40  43
ATOM     43  C   LIG d   1       1.830  -1.752 -10.002  0.00  0.00    -0.060 C 
ATOM     44  H   LIG d   1       0.753  -1.591 -10.058  0.00  0.00     0.023 H 
ATOM     45  H   LIG d   1       2.060  -2.780 -10.283  0.00  0.00     0.023 H 
ATOM     46  H   LIG d   1       2.171  -1.568  -8.983  0.00  0.00     0.023 H 
ENDBRANCH  40  43
ENDBRANCH  38  40
BRANCH  38  47
ATOM     47  C   LIG d   1       4.633  -1.157 -12.272  0.00  0.00    -0.022 C 
ATOM     48  H   LIG d   1       4.659  -2.214 -12.539  0.00  0.00     0.028 H 
ATOM     49  H   LIG d   1       4.009  -0.617 -12.983  0.00  0.00     0.028 H 
ATOM     50  H   LIG d   1       5.644  -0.752 -12.294  0.00  0.00     0.028 H 
ENDBRANCH  38  47
ENDBRANCH  35  38
ENDBRANCH  32  35
ENDBRANCH   1  32
BRANCH  13  51
ATOM     51  C   LIG d   1       3.878   1.187  -3.188  0.00  0.00    -0.059 C 
ATOM     52  H   LIG d   1       2.966   1.729  -2.939  0.00  0.00     0.024 H 
ATOM     53  H   LIG d   1       4.231   0.645  -2.310  0.00  0.00     0.024 H 
ATOM     54  H   LIG d   1       4.643   1.892  -3.512  0.00  0.00     0.024 H 
ENDBRANCH  13  51
TORSDOF 7
ENDMDL
MODEL 7
REMARK VINA RESULT:      -5.7      4.157      7.004
REMARK  7 active torsions:
REMARK  status: ('A' for Active; 'I' for Inactive)
REMARK    1  A    between atoms: C_1  and  C_2 
REMARK    2  A    between atoms: C_2  and  C_3 
REMARK    3  A    between atoms: C_3  and  C_5 
REMARK    4  A    between atoms: C_3  and  N_6 
REMARK    5  A    between atoms: N_6  and  C_7 
REMARK    6  A    between atoms: C_7  and  C_8 
REMARK    7  A    between atoms: C_20  and  C_27 
ROOT
ATOM      1  C   LIG d   1       7.811   0.977  -5.367  0.00  0.00     0.102 C 
ATOM      2  H   LIG d   1       7.068   1.685  -4.998  0.00  0.00     0.047 H 
ATOM      3  C   LIG d   1       7.571  -0.422  -4.769  0.00  0.00     0.015 C 
ATOM      4  H   LIG d   1       8.526  -0.934  -4.646  0.00  0.00     0.035 H 
ATOM      5  C   LIG d   1       6.844  -0.386  -3.450  0.00  0.00    -0.039 C 
ATOM      6  C   LIG d   1       5.440   0.208  -3.583  0.00  0.00    -0.014 C 
ATOM      7  H   LIG d   1       5.488   1.249  -3.903  0.00  0.00     0.035 H 
ATOM      8  C   LIG d   1       4.746   0.087  -2.240  0.00  0.00    -0.073 C 
ATOM      9  C   LIG d   1       4.378   1.152  -1.571  0.00  0.00    -0.099 C 
ATOM     10  C   LIG d   1       4.493  -1.303  -1.699  0.00  0.00    -0.032 C 
ATOM     11  C   LIG d   1       3.782  -2.131  -2.773  0.00  0.00    -0.049 C 
ATOM     12  C   LIG d   1       4.588  -2.088  -4.074  0.00  0.00    -0.047 C 
ATOM     13  C   LIG d   1       4.660  -0.639  -4.599  0.00  0.00    -0.022 C 
ATOM     14  C   LIG d   1       5.345  -0.560  -5.954  0.00  0.00    -0.009 C 
ATOM     15  C   LIG d   1       6.761  -1.099  -5.892  0.00  0.00     0.107 C 
ATOM     16  H   LIG d   1       6.786  -2.187  -5.831  0.00  0.00     0.074 H 
ATOM     17  O   LIG d   1       7.426  -0.569  -7.073  0.00  0.00    -0.461 OA
ATOM     18  C   LIG d   1       7.642   0.751  -6.862  0.00  0.00     0.316 C 
ATOM     19  O   LIG d   1       7.694   1.606  -7.714  0.00  0.00    -0.250 OA
ATOM     20  H   LIG d   1       6.765  -1.401  -3.063  0.00  0.00     0.028 H 
ATOM     21  H   LIG d   1       7.418   0.217  -2.746  0.00  0.00     0.028 H 
ATOM     22  H   LIG d   1       4.568   2.135  -1.974  0.00  0.00     0.053 H 
ATOM     23  H   LIG d   1       3.884   1.044  -0.616  0.00  0.00     0.053 H 
ATOM     24  H   LIG d   1       5.442  -1.774  -1.444  0.00  0.00     0.031 H 
ATOM     25  H   LIG d   1       3.865  -1.240  -0.811  0.00  0.00     0.031 H 
ATOM     26  H   LIG d   1       3.692  -3.164  -2.435  0.00  0.00     0.027 H 
ATOM     27  H   LIG d   1       2.787  -1.720  -2.948  0.00  0.00     0.027 H 
ATOM     28  H   LIG d   1       5.596  -2.455  -3.888  0.00  0.00     0.027 H 
ATOM     29  H   LIG d   1       4.103  -2.717  -4.821  0.00  0.00     0.027 H 
ATOM     30  H   LIG d   1       4.771  -1.140  -6.676  0.00  0.00     0.031 H 
ATOM     31  H   LIG d   1       5.372   0.480  -6.277  0.00  0.00     0.031 H 
ENDROOT
BRANCH   1  32
ATOM     32  C   LIG d   1       9.225   1.467  -5.050  0.00  0.00    -0.020 C 
ATOM     33  H   LIG d   1       9.177   2.246  -4.288  0.00  0.00     0.082 H 
ATOM     34  H   LIG d   1       9.682   1.870  -5.954  0.00  0.00     0.082 H 
BRANCH  32  35
ATOM     35  N   LIG d   1      10.031   0.344  -4.552  0.00  0.00     0.230 N 
ATOM     36  H   LIG d   1       9.520  -0.518  -4.676  0.00  0.00     0.202 HD
ATOM     37  H   LIG d   1      10.228   0.480  -3.572  0.00  0.00     0.202 HD
BRANCH  35  38
ATOM     38  C   LIG d   1      11.293   0.277  -5.300  0.00  0.00    -0.026 C 
ATOM     39  H   LIG d   1      11.582   1.280  -5.615  0.00  0.00     0.085 H 
BRANCH  38  40
ATOM     40  C   LIG d   1      12.386  -0.311  -4.406  0.00  0.00    -0.013 C 
ATOM     41  H   LIG d   1      13.081  -0.890  -5.014  0.00  0.00     0.032 H 
ATOM     42  H   LIG d   1      11.932  -0.959  -3.656  0.00  0.00     0.032 H 
BRANCH  40  43
ATOM     43  C   LIG d   1      13.141   0.824  -3.710  0.00  0.00    -0.060 C 
ATOM     44  H   LIG d   1      12.873   1.775  -4.171  0.00  0.00     0.023 H 
ATOM     45  H   LIG d   1      12.873   0.844  -2.653  0.00  0.00     0.023 H 
ATOM     46  H   LIG d   1      14.214   0.661  -3.810  0.00  0.00     0.023 H 
ENDBRANCH  40  43
ENDBRANCH  38  40
BRANCH  38  47
ATOM     47  C   LIG d   1      11.109  -0.611  -6.532  0.00  0.00    -0.022 C 
ATOM     48  H   LIG d   1      12.067  -1.052  -6.808  0.00  0.00     0.028 H 
ATOM     49  H   LIG d   1      10.396  -1.403  -6.305  0.00  0.00     0.028 H 
ATOM     50  H   LIG d   1      10.734  -0.010  -7.360  0.00  0.00     0.028 H 
ENDBRANCH  38  47
ENDBRANCH  35  38
ENDBRANCH  32  35
ENDBRANCH   1  32
BRANCH  13  51
ATOM     51  C   LIG d   1       3.241  -0.085  -4.734  0.00  0.00    -0.059 C 
ATOM     52  H   LIG d   1       2.704  -0.228  -3.796  0.00  0.00     0.024 H 
ATOM     53  H   LIG d   1       3.287   0.978  -4.968  0.00  0.00     0.024 H 
ATOM     54  H   LIG d   1       2.720  -0.612  -5.534  0.00  0.00     0.024 H 
ENDBRANCH  13  51
TORSDOF 7
ENDMDL
MODEL 8
REMARK VINA RESULT:      -5.5      4.251      6.469
REMARK  7 active torsions:
REMARK  status: ('A' for Active; 'I' for Inactive)
REMARK    1  A    between atoms: C_1  and  C_2 
REMARK    2  A    between atoms: C_2  and  C_3 
REMARK    3  A    between atoms: C_3  and  C_5 
REMARK    4  A    between atoms: C_3  and  N_6 
REMARK    5  A    between atoms: N_6  and  C_7 
REMARK    6  A    between atoms: C_7  and  C_8 
REMARK    7  A    between atoms: C_20  and  C_27 
ROOT
ATOM      1  C   LIG d   1       6.283  -1.971  -3.612  0.00  0.00     0.102 C 
ATOM      2  H   LIG d   1       6.768  -2.613  -2.876  0.00  0.00     0.047 H 
ATOM      3  C   LIG d   1       7.088  -1.947  -4.925  0.00  0.00     0.015 C 
ATOM      4  H   LIG d   1       6.984  -0.971  -5.400  0.00  0.00     0.035 H 
ATOM      5  C   LIG d   1       8.548  -2.262  -4.731  0.00  0.00    -0.039 C 
ATOM      6  C   LIG d   1       8.765  -3.675  -4.187  0.00  0.00    -0.014 C 
ATOM      7  H   LIG d   1       8.323  -3.781  -3.195  0.00  0.00     0.035 H 
ATOM      8  C   LIG d   1      10.258  -3.943  -4.144  0.00  0.00    -0.073 C 
ATOM      9  C   LIG d   1      10.874  -4.160  -3.008  0.00  0.00    -0.099 C 
ATOM     10  C   LIG d   1      11.010  -3.949  -5.456  0.00  0.00    -0.032 C 
ATOM     11  C   LIG d   1      10.300  -4.894  -6.430  0.00  0.00    -0.049 C 
ATOM     12  C   LIG d   1       8.824  -4.503  -6.542  0.00  0.00    -0.047 C 
ATOM     13  C   LIG d   1       8.132  -4.667  -5.173  0.00  0.00    -0.022 C 
ATOM     14  C   LIG d   1       6.636  -4.410  -5.258  0.00  0.00    -0.009 C 
ATOM     15  C   LIG d   1       6.342  -3.010  -5.758  0.00  0.00     0.107 C 
ATOM     16  H   LIG d   1       6.522  -2.906  -6.828  0.00  0.00     0.074 H 
ATOM     17  O   LIG d   1       4.963  -2.746  -5.374  0.00  0.00    -0.461 OA
ATOM     18  C   LIG d   1       4.943  -2.552  -4.034  0.00  0.00     0.316 C 
ATOM     19  O   LIG d   1       4.018  -2.798  -3.296  0.00  0.00    -0.250 OA
ATOM     20  H   LIG d   1       9.060  -2.168  -5.688  0.00  0.00     0.028 H 
ATOM     21  H   LIG d   1       8.975  -1.543  -4.031  0.00  0.00     0.028 H 
ATOM     22  H   LIG d   1      10.319  -4.151  -2.083  0.00  0.00     0.053 H 
ATOM     23  H   LIG d   1      11.937  -4.349  -3.000  0.00  0.00     0.053 H 
ATOM     24  H   LIG d   1      11.028  -2.942  -5.872  0.00  0.00     0.031 H 
ATOM     25  H   LIG d   1      12.030  -4.296  -5.290  0.00  0.00     0.031 H 
ATOM     26  H   LIG d   1      10.770  -4.823  -7.412  0.00  0.00     0.027 H 
ATOM     27  H   LIG d   1      10.378  -5.918  -6.064  0.00  0.00     0.027 H 
ATOM     28  H   LIG d   1       8.747  -3.465  -6.863  0.00  0.00     0.027 H 
ATOM     29  H   LIG d   1       8.333  -5.147  -7.272  0.00  0.00     0.027 H 
ATOM     30  H   LIG d   1       6.190  -5.136  -5.938  0.00  0.00     0.031 H 
ATOM     31  H   LIG d   1       6.198  -4.536  -4.268  0.00  0.00     0.031 H 
ENDROOT
BRANCH   1  32
ATOM     32  C   LIG d   1       6.109  -0.554  -3.059  0.00  0.00    -0.020 C 
ATOM     33  H   LIG d   1       7.084  -0.070  -2.988  0.00  0.00     0.082 H 
ATOM     34  H   LIG d   1       5.656  -0.604  -2.069  0.00  0.00     0.082 H 
BRANCH  32  35
ATOM     35  N   LIG d   1       5.242   0.219  -3.958  0.00  0.00     0.230 N 
ATOM     36  H   LIG d   1       4.757  -0.410  -4.580  0.00  0.00     0.202 HD
ATOM     37  H   LIG d   1       5.804   0.859  -4.498  0.00  0.00     0.202 HD
BRANCH  35  38
ATOM     38  C   LIG d   1       4.264   0.975  -3.165  0.00  0.00    -0.026 C 
ATOM     39  H   LIG d   1       4.313   2.029  -3.437  0.00  0.00     0.085 H 
BRANCH  38  40
ATOM     40  C   LIG d   1       2.858   0.441  -3.445  0.00  0.00    -0.013 C 
ATOM     41  H   LIG d   1       2.121   1.107  -2.997  0.00  0.00     0.032 H 
ATOM     42  H   LIG d   1       2.756  -0.555  -3.015  0.00  0.00     0.032 H 
BRANCH  40  43
ATOM     43  C   LIG d   1       2.631   0.370  -4.956  0.00  0.00    -0.060 C 
ATOM     44  H   LIG d   1       2.525   1.380  -5.355  0.00  0.00     0.023 H 
ATOM     45  H   LIG d   1       3.481  -0.121  -5.429  0.00  0.00     0.023 H 
ATOM     46  H   LIG d   1       1.723  -0.198  -5.160  0.00  0.00     0.023 H 
ENDBRANCH  40  43
ENDBRANCH  38  40
BRANCH  38  47
ATOM     47  C   LIG d   1       4.584   0.818  -1.677  0.00  0.00    -0.022 C 
ATOM     48  H   LIG d   1       4.582   1.798  -1.200  0.00  0.00     0.028 H 
ATOM     49  H   LIG d   1       3.830   0.185  -1.209  0.00  0.00     0.028 H 
ATOM     50  H   LIG d   1       5.566   0.360  -1.562  0.00  0.00     0.028 H 
ENDBRANCH  38  47
ENDBRANCH  35  38
ENDBRANCH  32  35
ENDBRANCH   1  32
BRANCH  13  51
ATOM     51  C   LIG d   1       8.356  -6.094  -4.668  0.00  0.00    -0.059 C 
ATOM     52  H   LIG d   1       8.533  -6.074  -3.592  0.00  0.00     0.024 H 
ATOM     53  H   LIG d   1       7.474  -6.697  -4.881  0.00  0.00     0.024 H 
ATOM     54  H   LIG d   1       9.222  -6.525  -5.170  0.00  0.00     0.024 H 
ENDBRANCH  13  51
TORSDOF 7
ENDMDL
MODEL 9
REMARK VINA RESULT:      -5.3      4.039      6.754
REMARK  7 active torsions:
REMARK  status: ('A' for Active; 'I' for Inactive)
REMARK    1  A    between atoms: C_1  and  C_2 
REMARK    2  A    between atoms: C_2  and  C_3 
REMARK    3  A    between atoms: C_3  and  C_5 
REMARK    4  A    between atoms: C_3  and  N_6 
REMARK    5  A    between atoms: N_6  and  C_7 
REMARK    6  A    between atoms: C_7  and  C_8 
REMARK    7  A    between atoms: C_20  and  C_27 
ROOT
ATOM      1  C   LIG d   1       1.695  -2.852 -10.715  0.00  0.00     0.102 C 
ATOM      2  H   LIG d   1       2.234  -2.937  -9.771  0.00  0.00     0.047 H 
ATOM      3  C   LIG d   1       1.533  -1.374 -11.117  0.00  0.00     0.015 C 
ATOM      4  H   LIG d   1       0.595  -1.243 -11.657  0.00  0.00     0.035 H 
ATOM      5  C   LIG d   1       1.574  -0.432  -9.942  0.00  0.00    -0.039 C 
ATOM      6  C   LIG d   1       2.921  -0.476  -9.217  0.00  0.00    -0.014 C 
ATOM      7  H   LIG d   1       3.100  -1.463  -8.789  0.00  0.00     0.035 H 
ATOM      8  C   LIG d   1       2.911   0.588  -8.135  0.00  0.00    -0.073 C 
ATOM      9  C   LIG d   1       3.006   0.265  -6.869  0.00  0.00    -0.099 C 
ATOM     10  C   LIG d   1       2.788   2.032  -8.567  0.00  0.00    -0.032 C 
ATOM     11  C   LIG d   1       3.851   2.324  -9.630  0.00  0.00    -0.049 C 
ATOM     12  C   LIG d   1       3.738   1.305 -10.766  0.00  0.00    -0.047 C 
ATOM     13  C   LIG d   1       4.017  -0.114 -10.229  0.00  0.00    -0.022 C 
ATOM     14  C   LIG d   1       4.038  -1.149 -11.342  0.00  0.00    -0.009 C 
ATOM     15  C   LIG d   1       2.718  -1.190 -12.086  0.00  0.00     0.107 C 
ATOM     16  H   LIG d   1       2.589  -0.333 -12.748  0.00  0.00     0.074 H 
ATOM     17  O   LIG d   1       2.708  -2.468 -12.782  0.00  0.00    -0.461 OA
ATOM     18  C   LIG d   1       2.513  -3.436 -11.856  0.00  0.00     0.316 C 
ATOM     19  O   LIG d   1       2.920  -4.572 -11.922  0.00  0.00    -0.250 OA
ATOM     20  H   LIG d   1       1.394   0.582 -10.295  0.00  0.00     0.028 H 
ATOM     21  H   LIG d   1       0.786  -0.707  -9.240  0.00  0.00     0.028 H 
ATOM     22  H   LIG d   1       3.093  -0.772  -6.581  0.00  0.00     0.053 H 
ATOM     23  H   LIG d   1       2.997   1.037  -6.114  0.00  0.00     0.053 H 
ATOM     24  H   LIG d   1       1.797   2.204  -8.986  0.00  0.00     0.031 H 
ATOM     25  H   LIG d   1       2.941   2.684  -7.708  0.00  0.00     0.031 H 
ATOM     26  H   LIG d   1       3.702   3.329 -10.026  0.00  0.00     0.027 H 
ATOM     27  H   LIG d   1       4.842   2.257  -9.179  0.00  0.00     0.027 H 
ATOM     28  H   LIG d   1       2.733   1.340 -11.185  0.00  0.00     0.027 H 
ATOM     29  H   LIG d   1       4.464   1.545 -11.542  0.00  0.00     0.027 H 
ATOM     30  H   LIG d   1       4.837  -0.902 -12.041  0.00  0.00     0.031 H 
ATOM     31  H   LIG d   1       4.237  -2.130 -10.911  0.00  0.00     0.031 H 
ENDROOT
BRANCH   1  32
ATOM     32  C   LIG d   1       0.331  -3.540 -10.620  0.00  0.00    -0.020 C 
ATOM     33  H   LIG d   1      -0.111  -3.607 -11.615  0.00  0.00     0.082 H 
ATOM     34  H   LIG d   1      -0.324  -2.960  -9.970  0.00  0.00     0.082 H 
BRANCH  32  35
ATOM     35  N   LIG d   1       0.501  -4.890 -10.066  0.00  0.00     0.230 N 
ATOM     36  H   LIG d   1       0.474  -4.846  -9.058  0.00  0.00     0.202 HD
ATOM     37  H   LIG d   1       1.389  -5.265 -10.362  0.00  0.00     0.202 HD
BRANCH  35  38
ATOM     38  C   LIG d   1      -0.582  -5.757 -10.548  0.00  0.00    -0.026 C 
ATOM     39  H   LIG d   1      -0.167  -6.712 -10.868  0.00  0.00     0.085 H 
BRANCH  38  40
ATOM     40  C   LIG d   1      -1.589  -5.990  -9.420  0.00  0.00    -0.013 C 
ATOM     41  H   LIG d   1      -1.249  -5.480  -8.519  0.00  0.00     0.032 H 
ATOM     42  H   LIG d   1      -1.672  -7.059  -9.223  0.00  0.00     0.032 H 
BRANCH  40  43
ATOM     43  C   LIG d   1      -2.955  -5.439  -9.834  0.00  0.00    -0.060 C 
ATOM     44  H   LIG d   1      -2.867  -4.374 -10.048  0.00  0.00     0.023 H 
ATOM     45  H   LIG d   1      -3.304  -5.962 -10.724  0.00  0.00     0.023 H 
ATOM     46  H   LIG d   1      -3.667  -5.588  -9.022  0.00  0.00     0.023 H 
ENDBRANCH  40  43
ENDBRANCH  38  40
BRANCH  38  47
ATOM     47  C   LIG d   1      -1.285  -5.085 -11.730  0.00  0.00    -0.022 C 
ATOM     48  H   LIG d   1      -1.896  -5.821 -12.254  0.00  0.00     0.028 H 
ATOM     49  H   LIG d   1      -1.921  -4.280 -11.363  0.00  0.00     0.028 H 
ATOM     50  H   LIG d   1      -0.540  -4.679 -12.413  0.00  0.00     0.028 H 
ENDBRANCH  38  47
ENDBRANCH  35  38
ENDBRANCH  32  35
ENDBRANCH   1  32
BRANCH  13  51
ATOM     51  C   LIG d   1       5.376  -0.123  -9.526  0.00  0.00    -0.059 C 
ATOM     52  H   LIG d   1       5.454  -1.011  -8.898  0.00  0.00     0.024 H 
ATOM     53  H   LIG d   1       6.171  -0.135 -10.272  0.00  0.00     0.024 H 
ATOM     54  H   LIG d   1       5.471   0.769  -8.908  0.00  0.00     0.024 H 
ENDBRANCH  13  51
TORSDOF 7
ENDMDL
MODEL 10
REMARK VINA RESULT:      -5.2      1.839      2.748
REMARK  7 active torsions:
REMARK  status: ('A' for Active; 'I' for Inactive)
REMARK    1  A    between atoms: C_1  and  C_2 
REMARK    2  A    between atoms: C_2  and  C_3 
REMARK    3  A    between atoms: C_3  and  C_5 
REMARK    4  A    between atoms: C_3  and  N_6 
REMARK    5  A    between atoms: N_6  and  C_7 
REMARK    6  A    between atoms: C_7  and  C_8 
REMARK    7  A    between atoms: C_20  and  C_27 
ROOT
ATOM      1  C   LIG d   1       4.865  -0.768  -6.418  0.00  0.00     0.102 C 
ATOM      2  H   LIG d   1       4.190  -0.025  -6.843  0.00  0.00     0.047 H 
ATOM      3  C   LIG d   1       4.965  -1.999  -7.339  0.00  0.00     0.015 C 
ATOM      4  H   LIG d   1       5.121  -2.894  -6.736  0.00  0.00     0.035 H 
ATOM      5  C   LIG d   1       3.753  -2.184  -8.214  0.00  0.00    -0.039 C 
ATOM      6  C   LIG d   1       3.555  -1.013  -9.178  0.00  0.00    -0.014 C 
ATOM      7  H   LIG d   1       3.365  -0.089  -8.632  0.00  0.00     0.035 H 
ATOM      8  C   LIG d   1       2.393  -1.346 -10.096  0.00  0.00    -0.073 C 
ATOM      9  C   LIG d   1       1.300  -0.624 -10.092  0.00  0.00    -0.099 C 
ATOM     10  C   LIG d   1       2.540  -2.540 -11.014  0.00  0.00    -0.032 C 
ATOM     11  C   LIG d   1       3.850  -2.406 -11.795  0.00  0.00    -0.049 C 
ATOM     12  C   LIG d   1       5.013  -2.203 -10.820  0.00  0.00    -0.047 C 
ATOM     13  C   LIG d   1       4.820  -0.887 -10.040  0.00  0.00    -0.022 C 
ATOM     14  C   LIG d   1       6.010  -0.576  -9.146  0.00  0.00    -0.009 C 
ATOM     15  C   LIG d   1       6.247  -1.681  -8.135  0.00  0.00     0.107 C 
ATOM     16  H   LIG d   1       6.690  -2.568  -8.588  0.00  0.00     0.074 H 
ATOM     17  O   LIG d   1       7.076  -1.083  -7.099  0.00  0.00    -0.461 OA
ATOM     18  C   LIG d   1       6.292  -0.242  -6.384  0.00  0.00     0.316 C 
ATOM     19  O   LIG d   1       6.660   0.758  -5.814  0.00  0.00    -0.250 OA
ATOM     20  H   LIG d   1       3.870  -3.102  -8.790  0.00  0.00     0.028 H 
ATOM     21  H   LIG d   1       2.870  -2.275  -7.581  0.00  0.00     0.028 H 
ATOM     22  H   LIG d   1       1.215   0.224  -9.430  0.00  0.00     0.053 H 
ATOM     23  H   LIG d   1       0.485  -0.877 -10.754  0.00  0.00     0.053 H 
ATOM     24  H   LIG d   1       2.559  -3.454 -10.423  0.00  0.00     0.031 H 
ATOM     25  H   LIG d   1       1.701  -2.570 -11.709  0.00  0.00     0.031 H 
ATOM     26  H   LIG d   1       4.019  -3.312 -12.379  0.00  0.00     0.027 H 
ATOM     27  H   LIG d   1       3.786  -1.550 -12.467  0.00  0.00     0.027 H 
ATOM     28  H   LIG d   1       5.048  -3.036 -10.119  0.00  0.00     0.027 H 
ATOM     29  H   LIG d   1       5.949  -2.156 -11.377  0.00  0.00     0.027 H 
ATOM     30  H   LIG d   1       6.898  -0.460  -9.766  0.00  0.00     0.031 H 
ATOM     31  H   LIG d   1       5.823   0.358  -8.617  0.00  0.00     0.031 H 
ENDROOT
BRANCH   1  32
ATOM     32  C   LIG d   1       4.405  -1.177  -5.017  0.00  0.00    -0.020 C 
ATOM     33  H   LIG d   1       3.689  -1.996  -5.095  0.00  0.00     0.082 H 
ATOM     34  H   LIG d   1       3.931  -0.326  -4.528  0.00  0.00     0.082 H 
BRANCH  32  35
ATOM     35  N   LIG d   1       5.565  -1.613  -4.229  0.00  0.00     0.230 N 
ATOM     36  H   LIG d   1       6.394  -1.144  -4.563  0.00  0.00     0.202 HD
ATOM     37  H   LIG d   1       5.681  -2.610  -4.326  0.00  0.00     0.202 HD
BRANCH  35  38
ATOM     38  C   LIG d   1       5.349  -1.280  -2.815  0.00  0.00    -0.026 C 
ATOM     39  H   LIG d   1       6.076  -1.812  -2.202  0.00  0.00     0.085 H 
BRANCH  38  40
ATOM     40  C   LIG d   1       5.519   0.227  -2.614  0.00  0.00    -0.013 C 
ATOM     41  H   LIG d   1       5.510   0.726  -3.583  0.00  0.00     0.032 H 
ATOM     42  H   LIG d   1       6.468   0.422  -2.114  0.00  0.00     0.032 H 
BRANCH  40  43
ATOM     43  C   LIG d   1       4.371   0.760  -1.754  0.00  0.00    -0.060 C 
ATOM     44  H   LIG d   1       4.707   0.860  -0.722  0.00  0.00     0.023 H 
ATOM     45  H   LIG d   1       4.058   1.734  -2.130  0.00  0.00     0.023 H 
ATOM     46  H   LIG d   1       3.533   0.066  -1.798  0.00  0.00     0.023 H 
ENDBRANCH  40  43
ENDBRANCH  38  40
BRANCH  38  47
ATOM     47  C   LIG d   1       3.935  -1.694  -2.404  0.00  0.00    -0.022 C 
ATOM     48  H   LIG d   1       3.352  -0.803  -2.165  0.00  0.00     0.028 H 
ATOM     49  H   LIG d   1       3.460  -2.229  -3.226  0.00  0.00     0.028 H 
ATOM     50  H   LIG d   1       3.985  -2.340  -1.529  0.00  0.00     0.028 H 
ENDBRANCH  38  47
ENDBRANCH  35  38
ENDBRANCH  32  35
ENDBRANCH   1  32
BRANCH  13  51
ATOM     51  C   LIG d   1       4.641   0.262 -11.034  0.00  0.00    -0.059 C 
ATOM     52  H   LIG d   1       5.483   0.278 -11.726  0.00  0.00     0.024 H 
ATOM     53  H   LIG d   1       3.715   0.119 -11.592  0.00  0.00     0.024 H 
ATOM     54  H   LIG d   1       4.597   1.207 -10.493  0.00  0.00     0.024 H 
ENDBRANCH  13  51
TORSDOF 7
ENDMDL
