MODEL 1
REMARK VINA RESULT:      -7.6      0.000      0.000
REMARK  10 active torsions:
REMARK  status: ('A' for Active; 'I' for Inactive)
REMARK    1  A    between atoms: C_1  and  C_2 
REMARK    2  A    between atoms: C_4  and  N_32 
REMARK    3  A    between atoms: C_8  and  C_31 
REMARK    4  A    between atoms: C_11  and  O_30 
REMARK    5  A    between atoms: C_13  and  C_17 
REMARK    6  A    between atoms: C_17  and  C_19 
REMARK    7  A    between atoms: C_17  and  C_20 
REMARK       I    between atoms: C_20  and  N_22 
REMARK    8  A    between atoms: N_22  and  C_23 
REMARK    9  A    between atoms: C_23  and  C_24 
REMARK       I    between atoms: N_32  and  C_33 
REMARK   10  A    between atoms: C_33  and  C_35 
ROOT
ATOM      1  C   LIG d   1      10.583   6.568  -2.344  0.00  0.00    -0.020 C 
ATOM      2  H   LIG d   1      11.666   6.662  -2.508  0.00  0.00     0.032 H 
ATOM      3  C   LIG d   1       9.931   7.949  -2.428  0.00  0.00     0.026 C 
ATOM      4  H   LIG d   1       8.852   7.882  -2.229  0.00  0.00     0.050 H 
ATOM      5  C   LIG d   1      10.188   8.550  -3.812  0.00  0.00    -0.034 C 
ATOM      6  C   LIG d   1       9.588   7.638  -4.883  0.00  0.00    -0.046 C 
ATOM      7  C   LIG d   1      10.238   6.256  -4.800  0.00  0.00    -0.026 C 
ATOM      8  C   LIG d   1       9.982   5.654  -3.416  0.00  0.00    -0.005 C 
ATOM      9  H   LIG d   1       8.898   5.560  -3.252  0.00  0.00     0.033 H 
ATOM     10  C   LIG d   1      10.633   4.273  -3.331  0.00  0.00     0.062 C 
ATOM     11  H   LIG d   1      11.727   4.340  -3.432  0.00  0.00     0.060 H 
ATOM     12  C   LIG d   1      10.032   3.361  -4.404  0.00  0.00    -0.004 C 
ATOM     13  H   LIG d   1       8.949   3.266  -4.239  0.00  0.00     0.033 H 
ATOM     14  C   LIG d   1      10.289   3.961  -5.787  0.00  0.00    -0.047 C 
ATOM     15  C   LIG d   1       9.638   5.343  -5.871  0.00  0.00    -0.047 C 
ATOM     16  H   LIG d   1       9.720   9.544  -3.872  0.00  0.00     0.028 H 
ATOM     17  H   LIG d   1      11.271   8.644  -3.976  0.00  0.00     0.028 H 
ATOM     18  H   LIG d   1       8.503   7.544  -4.719  0.00  0.00     0.027 H 
ATOM     19  H   LIG d   1       9.772   8.070  -5.878  0.00  0.00     0.027 H 
ATOM     20  H   LIG d   1      11.372   4.056  -5.951  0.00  0.00     0.027 H 
ATOM     21  H   LIG d   1       9.857   3.305  -6.558  0.00  0.00     0.027 H 
ATOM     22  H   LIG d   1       8.554   5.249  -5.707  0.00  0.00     0.027 H 
ATOM     23  H   LIG d   1       9.822   5.776  -6.865  0.00  0.00     0.027 H 
ENDROOT
BRANCH  12  24
ATOM     24  C   LIG d   1      10.684   1.978  -4.319  0.00  0.00     0.038 C 
ATOM     25  H   LIG d   1      10.992   1.773  -3.284  0.00  0.00     0.040 H 
BRANCH  24  26
ATOM     26  C   LIG d   1      11.900   1.930  -5.244  0.00  0.00    -0.054 C 
ATOM     27  H   LIG d   1      11.570   1.730  -6.274  0.00  0.00     0.024 H 
ATOM     28  H   LIG d   1      12.581   1.131  -4.915  0.00  0.00     0.024 H 
ATOM     29  H   LIG d   1      12.426   2.897  -5.209  0.00  0.00     0.024 H 
ENDBRANCH  24  26
BRANCH  24  30
ATOM     30  C   LIG d   1       9.689   0.928  -4.742  0.00  0.00     0.216 C 
ATOM     31  O   LIG d   1       9.895   0.262  -5.735  0.00  0.00    -0.276 OA
ATOM     32  N   LIG d   1       8.570   0.729  -4.018  0.00  0.00    -0.311 N 
ATOM     33  H   LIG d   1       8.383   1.335  -3.119  0.00  0.00     0.149 HD
BRANCH  32  34
ATOM     34  C   LIG d   1       7.602  -0.291  -4.428  0.00  0.00     0.037 C 
ATOM     35  H   LIG d   1       7.266  -0.085  -5.456  0.00  0.00     0.051 H 
ATOM     36  H   LIG d   1       8.077  -1.283  -4.390  0.00  0.00     0.051 H 
BRANCH  34  37
ATOM     37  C   LIG d   1       6.418  -0.264  -3.497  0.00  0.00    -0.030 A 
ATOM     38  C   LIG d   1       5.800  -1.445  -3.130  0.00  0.00    -0.057 A 
ATOM     39  C   LIG d   1       4.713  -1.419  -2.276  0.00  0.00    -0.061 A 
ATOM     40  H   LIG d   1       6.165  -2.386  -3.511  0.00  0.00     0.062 H 
ATOM     41  C   LIG d   1       4.246  -0.213  -1.788  0.00  0.00    -0.062 A 
ATOM     42  H   LIG d   1       4.230  -2.342  -1.989  0.00  0.00     0.062 H 
ATOM     43  C   LIG d   1       4.864   0.967  -2.155  0.00  0.00    -0.061 A 
ATOM     44  H   LIG d   1       3.397  -0.194  -1.121  0.00  0.00     0.062 H 
ATOM     45  C   LIG d   1       5.953   0.942  -3.005  0.00  0.00    -0.057 A 
ATOM     46  H   LIG d   1       4.499   1.909  -1.774  0.00  0.00     0.062 H 
ATOM     47  H   LIG d   1       6.438   1.864  -3.290  0.00  0.00     0.062 H 
ENDBRANCH  34  37
ENDBRANCH  32  34
ENDBRANCH  24  30
ENDBRANCH  12  24
BRANCH  10  48
ATOM     48  O   LIG d   1      10.394   3.711  -2.039  0.00  0.00    -0.391 OA
ATOM     49  H   LIG d   1      10.253   4.372  -1.170  0.00  0.00     0.210 HD
ENDBRANCH  10  48
BRANCH   1  50
ATOM     50  C   LIG d   1      10.326   5.966  -0.961  0.00  0.00    -0.060 C 
ATOM     51  H   LIG d   1      10.266   4.870  -1.043  0.00  0.00     0.023 H 
ATOM     52  H   LIG d   1       9.379   6.355  -0.562  0.00  0.00     0.023 H 
ATOM     53  H   LIG d   1      11.149   6.238  -0.284  0.00  0.00     0.023 H 
ENDBRANCH   1  50
BRANCH   7  54
ATOM     54  C   LIG d   1      11.746   6.388  -5.027  0.00  0.00    -0.059 C 
ATOM     55  H   LIG d   1      11.948   6.473  -6.106  0.00  0.00     0.024 H 
ATOM     56  H   LIG d   1      12.255   5.497  -4.629  0.00  0.00     0.024 H 
ATOM     57  H   LIG d   1      12.117   7.285  -4.512  0.00  0.00     0.024 H 
ENDBRANCH   7  54
BRANCH   3  58
ATOM     58  N   LIG d   1      10.506   8.823  -1.402  0.00  0.00    -0.312 N 
ATOM     59  C   LIG d   1       9.698   9.550  -0.606  0.00  0.00     0.216 C 
ATOM     60  O   LIG d   1       8.495   9.482  -0.740  0.00  0.00    -0.276 OA
ATOM     61  H   LIG d   1      11.598   8.885  -1.281  0.00  0.00     0.149 HD
BRANCH  59  62
ATOM     62  C   LIG d   1      10.290  10.449   0.449  0.00  0.00     0.036 C 
ATOM     63  C   LIG d   1      11.492   9.755   1.094  0.00  0.00    -0.042 C 
ATOM     64  C   LIG d   1      12.093  10.667   2.164  0.00  0.00    -0.052 C 
ATOM     65  H   LIG d   1      11.165   8.812   1.558  0.00  0.00     0.027 H 
ATOM     66  H   LIG d   1      12.249   9.542   0.326  0.00  0.00     0.027 H 
ATOM     67  C   LIG d   1      12.548  11.978   1.521  0.00  0.00    -0.053 C 
ATOM     68  H   LIG d   1      12.957  10.168   2.629  0.00  0.00     0.026 H 
ATOM     69  H   LIG d   1      11.335  10.880   2.933  0.00  0.00     0.026 H 
ATOM     70  C   LIG d   1      11.347  12.673   0.875  0.00  0.00    -0.052 C 
ATOM     71  H   LIG d   1      13.305  11.767   0.752  0.00  0.00     0.026 H 
ATOM     72  H   LIG d   1      12.980  12.635   2.290  0.00  0.00     0.026 H 
ATOM     73  C   LIG d   1      10.745  11.759  -0.196  0.00  0.00    -0.042 C 
ATOM     74  H   LIG d   1      11.673  13.616   0.412  0.00  0.00     0.026 H 
ATOM     75  H   LIG d   1      10.589  12.885   1.644  0.00  0.00     0.026 H 
ATOM     76  H   LIG d   1      11.502  11.548  -0.964  0.00  0.00     0.027 H 
ATOM     77  H   LIG d   1       9.881  12.259  -0.660  0.00  0.00     0.027 H 
ATOM     78  H   LIG d   1       9.523  10.652   1.210  0.00  0.00     0.039 H 
ENDBRANCH  59  62
ENDBRANCH   3  58
TORSDOF 10
ENDMDL
MODEL 2
REMARK VINA RESULT:      -7.5      8.714     12.954
REMARK  10 active torsions:
REMARK  status: ('A' for Active; 'I' for Inactive)
REMARK    1  A    between atoms: C_1  and  C_2 
REMARK    2  A    between atoms: C_4  and  N_32 
REMARK    3  A    between atoms: C_8  and  C_31 
REMARK    4  A    between atoms: C_11  and  O_30 
REMARK    5  A    between atoms: C_13  and  C_17 
REMARK    6  A    between atoms: C_17  and  C_19 
REMARK    7  A    between atoms: C_17  and  C_20 
REMARK       I    between atoms: C_20  and  N_22 
REMARK    8  A    between atoms: N_22  and  C_23 
REMARK    9  A    between atoms: C_23  and  C_24 
REMARK       I    between atoms: N_32  and  C_33 
REMARK   10  A    between atoms: C_33  and  C_35 
ROOT
ATOM      1  C   LIG d   1       5.737  -4.722  -6.881  0.00  0.00    -0.020 C 
ATOM      2  H   LIG d   1       5.022  -5.411  -7.353  0.00  0.00     0.032 H 
ATOM      3  C   LIG d   1       7.138  -5.335  -6.920  0.00  0.00     0.026 C 
ATOM      4  H   LIG d   1       7.863  -4.678  -6.419  0.00  0.00     0.050 H 
ATOM      5  C   LIG d   1       7.547  -5.578  -8.375  0.00  0.00    -0.034 C 
ATOM      6  C   LIG d   1       7.551  -4.249  -9.132  0.00  0.00    -0.046 C 
ATOM      7  C   LIG d   1       6.150  -3.636  -9.093  0.00  0.00    -0.026 C 
ATOM      8  C   LIG d   1       5.741  -3.392  -7.638  0.00  0.00    -0.005 C 
ATOM      9  H   LIG d   1       6.456  -2.703  -7.166  0.00  0.00     0.033 H 
ATOM     10  C   LIG d   1       4.339  -2.779  -7.598  0.00  0.00     0.062 C 
ATOM     11  H   LIG d   1       3.589  -3.471  -8.010  0.00  0.00     0.060 H 
ATOM     12  C   LIG d   1       4.344  -1.450  -8.356  0.00  0.00    -0.004 C 
ATOM     13  H   LIG d   1       5.059  -0.761  -7.883  0.00  0.00     0.033 H 
ATOM     14  C   LIG d   1       4.752  -1.693  -9.810  0.00  0.00    -0.047 C 
ATOM     15  C   LIG d   1       6.153  -2.306  -9.850  0.00  0.00    -0.047 C 
ATOM     16  H   LIG d   1       8.554  -6.019  -8.403  0.00  0.00     0.028 H 
ATOM     17  H   LIG d   1       6.831  -6.267  -8.847  0.00  0.00     0.028 H 
ATOM     18  H   LIG d   1       8.267  -3.559  -8.660  0.00  0.00     0.027 H 
ATOM     19  H   LIG d   1       7.845  -4.423 -10.178  0.00  0.00     0.027 H 
ATOM     20  H   LIG d   1       4.036  -2.382 -10.282  0.00  0.00     0.027 H 
ATOM     21  H   LIG d   1       4.754  -0.737 -10.355  0.00  0.00     0.027 H 
ATOM     22  H   LIG d   1       6.869  -1.616  -9.378  0.00  0.00     0.027 H 
ATOM     23  H   LIG d   1       6.447  -2.481 -10.895  0.00  0.00     0.027 H 
ENDROOT
BRANCH  12  24
ATOM     24  C   LIG d   1       2.941  -0.836  -8.316  0.00  0.00     0.038 C 
ATOM     25  H   LIG d   1       2.198  -1.618  -8.101  0.00  0.00     0.040 H 
BRANCH  24  26
ATOM     26  C   LIG d   1       2.633  -0.180  -9.662  0.00  0.00    -0.054 C 
ATOM     27  H   LIG d   1       1.635   0.281  -9.625  0.00  0.00     0.024 H 
ATOM     28  H   LIG d   1       2.657  -0.941 -10.456  0.00  0.00     0.024 H 
ATOM     29  H   LIG d   1       3.387   0.594  -9.874  0.00  0.00     0.024 H 
ENDBRANCH  24  26
BRANCH  24  30
ATOM     30  C   LIG d   1       2.879   0.200  -7.225  0.00  0.00     0.216 C 
ATOM     31  O   LIG d   1       3.228   1.340  -7.450  0.00  0.00    -0.276 OA
ATOM     32  N   LIG d   1       2.435  -0.138  -5.998  0.00  0.00    -0.311 N 
ATOM     33  H   LIG d   1       2.120  -1.172  -5.794  0.00  0.00     0.149 HD
BRANCH  32  34
ATOM     34  C   LIG d   1       2.374   0.870  -4.936  0.00  0.00     0.037 C 
ATOM     35  H   LIG d   1       2.827   1.807  -5.293  0.00  0.00     0.051 H 
ATOM     36  H   LIG d   1       1.324   1.051  -4.663  0.00  0.00     0.051 H 
BRANCH  34  37
ATOM     37  C   LIG d   1       3.129   0.375  -3.729  0.00  0.00    -0.030 A 
ATOM     38  C   LIG d   1       3.783   1.274  -2.907  0.00  0.00    -0.057 A 
ATOM     39  C   LIG d   1       4.476   0.819  -1.801  0.00  0.00    -0.061 A 
ATOM     40  H   LIG d   1       3.753   2.329  -3.129  0.00  0.00     0.062 H 
ATOM     41  C   LIG d   1       4.514  -0.533  -1.515  0.00  0.00    -0.062 A 
ATOM     42  H   LIG d   1       4.987   1.521  -1.157  0.00  0.00     0.062 H 
ATOM     43  C   LIG d   1       3.860  -1.432  -2.338  0.00  0.00    -0.061 A 
ATOM     44  H   LIG d   1       5.055  -0.888  -0.651  0.00  0.00     0.062 H 
ATOM     45  C   LIG d   1       3.163  -0.977  -3.442  0.00  0.00    -0.057 A 
ATOM     46  H   LIG d   1       3.889  -2.488  -2.116  0.00  0.00     0.062 H 
ATOM     47  H   LIG d   1       2.649  -1.678  -4.083  0.00  0.00     0.062 H 
ENDBRANCH  34  37
ENDBRANCH  32  34
ENDBRANCH  24  30
ENDBRANCH  12  24
BRANCH  10  48
ATOM     48  O   LIG d   1       3.957  -2.553  -6.240  0.00  0.00    -0.391 OA
ATOM     49  H   LIG d   1       4.641  -2.026  -5.557  0.00  0.00     0.210 HD
ENDBRANCH  10  48
BRANCH   1  50
ATOM     50  C   LIG d   1       5.328  -4.479  -5.427  0.00  0.00    -0.060 C 
ATOM     51  H   LIG d   1       4.620  -5.259  -5.109  0.00  0.00     0.023 H 
ATOM     52  H   LIG d   1       4.849  -3.493  -5.341  0.00  0.00     0.023 H 
ATOM     53  H   LIG d   1       6.220  -4.510  -4.784  0.00  0.00     0.023 H 
ENDBRANCH   1  50
BRANCH   7  54
ATOM     54  C   LIG d   1       5.154  -4.594  -9.750  0.00  0.00    -0.059 C 
ATOM     55  H   LIG d   1       5.075  -5.511  -9.146  0.00  0.00     0.024 H 
ATOM     56  H   LIG d   1       5.505  -4.851 -10.760  0.00  0.00     0.024 H 
ATOM     57  H   LIG d   1       4.169  -4.111  -9.814  0.00  0.00     0.024 H 
ENDBRANCH   7  54
BRANCH   3  58
ATOM     58  N   LIG d   1       7.135  -6.609  -6.195  0.00  0.00    -0.312 N 
ATOM     59  C   LIG d   1       8.053  -6.840  -5.237  0.00  0.00     0.216 C 
ATOM     60  O   LIG d   1       8.883  -5.996  -4.975  0.00  0.00    -0.276 OA
ATOM     61  H   LIG d   1       6.382  -7.375  -6.433  0.00  0.00     0.149 HD
BRANCH  59  62
ATOM     62  C   LIG d   1       8.049  -8.150  -4.491  0.00  0.00     0.036 C 
ATOM     63  C   LIG d   1       8.627  -7.940  -3.090  0.00  0.00    -0.042 C 
ATOM     64  C   LIG d   1       8.623  -9.269  -2.332  0.00  0.00    -0.052 C 
ATOM     65  H   LIG d   1       9.660  -7.568  -3.171  0.00  0.00     0.027 H 
ATOM     66  H   LIG d   1       8.015  -7.207  -2.546  0.00  0.00     0.027 H 
ATOM     67  C   LIG d   1       7.189  -9.788  -2.220  0.00  0.00    -0.053 C 
ATOM     68  H   LIG d   1       9.039  -9.119  -1.325  0.00  0.00     0.026 H 
ATOM     69  H   LIG d   1       9.237 -10.003  -2.877  0.00  0.00     0.026 H 
ATOM     70  C   LIG d   1       6.610  -9.997  -3.621  0.00  0.00    -0.052 C 
ATOM     71  H   LIG d   1       6.575  -9.055  -1.676  0.00  0.00     0.026 H 
ATOM     72  H   LIG d   1       7.185 -10.744  -1.675  0.00  0.00     0.026 H 
ATOM     73  C   LIG d   1       6.615  -8.668  -4.378  0.00  0.00    -0.042 C 
ATOM     74  H   LIG d   1       5.578 -10.370  -3.540  0.00  0.00     0.026 H 
ATOM     75  H   LIG d   1       7.223 -10.731  -4.165  0.00  0.00     0.026 H 
ATOM     76  H   LIG d   1       6.001  -7.934  -3.834  0.00  0.00     0.027 H 
ATOM     77  H   LIG d   1       6.198  -8.818  -5.385  0.00  0.00     0.027 H 
ATOM     78  H   LIG d   1       8.666  -8.873  -5.046  0.00  0.00     0.039 H 
ENDBRANCH  59  62
ENDBRANCH   3  58
TORSDOF 10
ENDMDL
MODEL 3
REMARK VINA RESULT:      -7.2      1.648      2.801
REMARK  10 active torsions:
REMARK  status: ('A' for Active; 'I' for Inactive)
REMARK    1  A    between atoms: C_1  and  C_2 
REMARK    2  A    between atoms: C_4  and  N_32 
REMARK    3  A    between atoms: C_8  and  C_31 
REMARK    4  A    between atoms: C_11  and  O_30 
REMARK    5  A    between atoms: C_13  and  C_17 
REMARK    6  A    between atoms: C_17  and  C_19 
REMARK    7  A    between atoms: C_17  and  C_20 
REMARK       I    between atoms: C_20  and  N_22 
REMARK    8  A    between atoms: N_22  and  C_23 
REMARK    9  A    between atoms: C_23  and  C_24 
REMARK       I    between atoms: N_32  and  C_33 
REMARK   10  A    between atoms: C_33  and  C_35 
ROOT
ATOM      1  C   LIG d   1      10.454   4.284  -4.133  0.00  0.00    -0.020 C 
ATOM      2  H   LIG d   1      11.535   4.167  -4.295  0.00  0.00     0.032 H 
ATOM      3  C   LIG d   1      10.063   5.749  -4.338  0.00  0.00     0.026 C 
ATOM      4  H   LIG d   1       8.990   5.895  -4.143  0.00  0.00     0.050 H 
ATOM      5  C   LIG d   1      10.415   6.174  -5.766  0.00  0.00    -0.034 C 
ATOM      6  C   LIG d   1       9.651   5.299  -6.761  0.00  0.00    -0.046 C 
ATOM      7  C   LIG d   1      10.041   3.834  -6.556  0.00  0.00    -0.026 C 
ATOM      8  C   LIG d   1       9.690   3.408  -5.129  0.00  0.00    -0.005 C 
ATOM      9  H   LIG d   1       8.608   3.526  -4.966  0.00  0.00     0.033 H 
ATOM     10  C   LIG d   1      10.081   1.943  -4.922  0.00  0.00     0.062 C 
ATOM     11  H   LIG d   1      11.167   1.802  -5.019  0.00  0.00     0.060 H 
ATOM     12  C   LIG d   1       9.316   1.068  -5.919  0.00  0.00    -0.004 C 
ATOM     13  H   LIG d   1       8.235   1.186  -5.756  0.00  0.00     0.033 H 
ATOM     14  C   LIG d   1       9.668   1.493  -7.345  0.00  0.00    -0.047 C 
ATOM     15  C   LIG d   1       9.278   2.958  -7.551  0.00  0.00    -0.047 C 
ATOM     16  H   LIG d   1      10.134   7.228  -5.913  0.00  0.00     0.028 H 
ATOM     17  H   LIG d   1      11.496   6.057  -5.928  0.00  0.00     0.028 H 
ATOM     18  H   LIG d   1       8.569   5.417  -6.599  0.00  0.00     0.027 H 
ATOM     19  H   LIG d   1       9.904   5.605  -7.787  0.00  0.00     0.027 H 
ATOM     20  H   LIG d   1      10.749   1.375  -7.507  0.00  0.00     0.027 H 
ATOM     21  H   LIG d   1       9.119   0.864  -8.062  0.00  0.00     0.027 H 
ATOM     22  H   LIG d   1       8.196   3.076  -7.389  0.00  0.00     0.027 H 
ATOM     23  H   LIG d   1       9.530   3.265  -8.576  0.00  0.00     0.027 H 
ENDROOT
BRANCH  12  24
ATOM     24  C   LIG d   1       9.707  -0.398  -5.713  0.00  0.00     0.038 C 
ATOM     25  H   LIG d   1      10.495  -0.470  -4.949  0.00  0.00     0.040 H 
BRANCH  24  26
ATOM     26  C   LIG d   1      10.206  -0.983  -7.034  0.00  0.00    -0.054 C 
ATOM     27  H   LIG d   1      11.143  -0.485  -7.325  0.00  0.00     0.024 H 
ATOM     28  H   LIG d   1       9.448  -0.825  -7.815  0.00  0.00     0.024 H 
ATOM     29  H   LIG d   1      10.387  -2.062  -6.912  0.00  0.00     0.024 H 
ENDBRANCH  24  26
BRANCH  24  30
ATOM     30  C   LIG d   1       8.506  -1.175  -5.240  0.00  0.00     0.216 C 
ATOM     31  O   LIG d   1       7.894  -1.878  -6.017  0.00  0.00    -0.276 OA
ATOM     32  N   LIG d   1       8.112  -1.090  -3.954  0.00  0.00    -0.311 N 
ATOM     33  H   LIG d   1       8.667  -0.452  -3.250  0.00  0.00     0.149 HD
BRANCH  32  34
ATOM     34  C   LIG d   1       6.944  -1.846  -3.493  0.00  0.00     0.037 C 
ATOM     35  H   LIG d   1       6.567  -2.474  -4.315  0.00  0.00     0.051 H 
ATOM     36  H   LIG d   1       7.232  -2.485  -2.645  0.00  0.00     0.051 H 
BRANCH  34  37
ATOM     37  C   LIG d   1       5.866  -0.888  -3.058  0.00  0.00    -0.030 A 
ATOM     38  C   LIG d   1       4.630  -1.370  -2.668  0.00  0.00    -0.057 A 
ATOM     39  C   LIG d   1       3.641  -0.490  -2.269  0.00  0.00    -0.061 A 
ATOM     40  H   LIG d   1       4.437  -2.431  -2.677  0.00  0.00     0.062 H 
ATOM     41  C   LIG d   1       3.888   0.870  -2.257  0.00  0.00    -0.062 A 
ATOM     42  H   LIG d   1       2.674  -0.866  -1.964  0.00  0.00     0.062 H 
ATOM     43  C   LIG d   1       5.124   1.351  -2.647  0.00  0.00    -0.061 A 
ATOM     44  H   LIG d   1       3.115   1.556  -1.945  0.00  0.00     0.062 H 
ATOM     45  C   LIG d   1       6.115   0.472  -3.042  0.00  0.00    -0.057 A 
ATOM     46  H   LIG d   1       5.317   2.413  -2.638  0.00  0.00     0.062 H 
ATOM     47  H   LIG d   1       7.081   0.847  -3.343  0.00  0.00     0.062 H 
ENDBRANCH  34  37
ENDBRANCH  32  34
ENDBRANCH  24  30
ENDBRANCH  12  24
BRANCH  10  48
ATOM     48  O   LIG d   1       9.753   1.546  -3.589  0.00  0.00    -0.391 OA
ATOM     49  H   LIG d   1       8.703   1.539  -3.260  0.00  0.00     0.210 HD
ENDBRANCH  10  48
BRANCH   1  50
ATOM     50  C   LIG d   1      10.102   3.858  -2.706  0.00  0.00    -0.060 C 
ATOM     51  H   LIG d   1      10.910   4.162  -2.023  0.00  0.00     0.023 H 
ATOM     52  H   LIG d   1       9.982   2.766  -2.668  0.00  0.00     0.023 H 
ATOM     53  H   LIG d   1       9.162   4.341  -2.399  0.00  0.00     0.023 H 
ENDBRANCH   1  50
BRANCH   7  54
ATOM     54  C   LIG d   1      11.546   3.670  -6.781  0.00  0.00    -0.059 C 
ATOM     55  H   LIG d   1      11.918   4.507  -7.392  0.00  0.00     0.024 H 
ATOM     56  H   LIG d   1      11.737   2.721  -7.304  0.00  0.00     0.024 H 
ATOM     57  H   LIG d   1      12.063   3.666  -5.811  0.00  0.00     0.024 H 
ENDBRANCH   7  54
BRANCH   3  58
ATOM     58  N   LIG d   1      10.794   6.588  -3.385  0.00  0.00    -0.312 N 
ATOM     59  C   LIG d   1      10.133   7.208  -2.388  0.00  0.00     0.216 C 
ATOM     60  O   LIG d   1       8.933   7.073  -2.280  0.00  0.00    -0.276 OA
ATOM     61  H   LIG d   1      11.883   6.710  -3.483  0.00  0.00     0.149 HD
BRANCH  59  62
ATOM     62  C   LIG d   1      10.885   8.071  -1.408  0.00  0.00     0.036 C 
ATOM     63  C   LIG d   1       9.894   8.929  -0.619  0.00  0.00    -0.042 C 
ATOM     64  C   LIG d   1      10.657   9.804   0.377  0.00  0.00    -0.052 C 
ATOM     65  H   LIG d   1       9.330   9.570  -1.313  0.00  0.00     0.027 H 
ATOM     66  H   LIG d   1       9.196   8.277  -0.074  0.00  0.00     0.027 H 
ATOM     67  C   LIG d   1      11.441   8.914   1.342  0.00  0.00    -0.053 C 
ATOM     68  H   LIG d   1       9.944  10.422   0.944  0.00  0.00     0.026 H 
ATOM     69  H   LIG d   1      11.355  10.457  -0.169  0.00  0.00     0.026 H 
ATOM     70  C   LIG d   1      12.432   8.055   0.554  0.00  0.00    -0.052 C 
ATOM     71  H   LIG d   1      10.744   8.262   1.888  0.00  0.00     0.026 H 
ATOM     72  H   LIG d   1      11.990   9.543   2.058  0.00  0.00     0.026 H 
ATOM     73  C   LIG d   1      11.669   7.180  -0.442  0.00  0.00    -0.042 C 
ATOM     74  H   LIG d   1      12.996   7.415   1.248  0.00  0.00     0.026 H 
ATOM     75  H   LIG d   1      13.130   8.708   0.008  0.00  0.00     0.026 H 
ATOM     76  H   LIG d   1      10.972   6.528   0.103  0.00  0.00     0.027 H 
ATOM     77  H   LIG d   1      12.382   6.562  -1.009  0.00  0.00     0.027 H 
ATOM     78  H   LIG d   1      11.578   8.717  -1.966  0.00  0.00     0.039 H 
ENDBRANCH  59  62
ENDBRANCH   3  58
TORSDOF 10
ENDMDL
MODEL 4
REMARK VINA RESULT:      -6.8      4.623      8.629
REMARK  10 active torsions:
REMARK  status: ('A' for Active; 'I' for Inactive)
REMARK    1  A    between atoms: C_1  and  C_2 
REMARK    2  A    between atoms: C_4  and  N_32 
REMARK    3  A    between atoms: C_8  and  C_31 
REMARK    4  A    between atoms: C_11  and  O_30 
REMARK    5  A    between atoms: C_13  and  C_17 
REMARK    6  A    between atoms: C_17  and  C_19 
REMARK    7  A    between atoms: C_17  and  C_20 
REMARK       I    between atoms: C_20  and  N_22 
REMARK    8  A    between atoms: N_22  and  C_23 
REMARK    9  A    between atoms: C_23  and  C_24 
REMARK       I    between atoms: N_32  and  C_33 
REMARK   10  A    between atoms: C_33  and  C_35 
ROOT
ATOM      1  C   LIG d   1       7.466   0.085  -5.008  0.00  0.00    -0.020 C 
ATOM      2  H   LIG d   1       6.800   0.469  -5.795  0.00  0.00     0.032 H 
ATOM      3  C   LIG d   1       7.641   1.149  -3.923  0.00  0.00     0.026 C 
ATOM      4  H   LIG d   1       8.335   0.800  -3.145  0.00  0.00     0.050 H 
ATOM      5  C   LIG d   1       6.277   1.488  -3.317  0.00  0.00    -0.034 C 
ATOM      6  C   LIG d   1       5.666   0.228  -2.701  0.00  0.00    -0.046 C 
ATOM      7  C   LIG d   1       5.492  -0.837  -3.786  0.00  0.00    -0.026 C 
ATOM      8  C   LIG d   1       6.855  -1.176  -4.392  0.00  0.00    -0.005 C 
ATOM      9  H   LIG d   1       7.522  -1.559  -3.605  0.00  0.00     0.033 H 
ATOM     10  C   LIG d   1       6.681  -2.240  -5.478  0.00  0.00     0.062 C 
ATOM     11  H   LIG d   1       6.067  -1.865  -6.310  0.00  0.00     0.060 H 
ATOM     12  C   LIG d   1       6.070  -3.500  -4.861  0.00  0.00    -0.004 C 
ATOM     13  H   LIG d   1       6.737  -3.884  -4.074  0.00  0.00     0.033 H 
ATOM     14  C   LIG d   1       4.707  -3.162  -4.255  0.00  0.00    -0.047 C 
ATOM     15  C   LIG d   1       4.881  -2.098  -3.170  0.00  0.00    -0.047 C 
ATOM     16  H   LIG d   1       6.403   2.253  -2.538  0.00  0.00     0.028 H 
ATOM     17  H   LIG d   1       5.611   1.871  -4.104  0.00  0.00     0.028 H 
ATOM     18  H   LIG d   1       6.333  -0.156  -1.914  0.00  0.00     0.027 H 
ATOM     19  H   LIG d   1       4.686   0.471  -2.266  0.00  0.00     0.027 H 
ATOM     20  H   LIG d   1       4.041  -2.779  -5.042  0.00  0.00     0.027 H 
ATOM     21  H   LIG d   1       4.267  -4.068  -3.812  0.00  0.00     0.027 H 
ATOM     22  H   LIG d   1       5.547  -2.482  -2.383  0.00  0.00     0.027 H 
ATOM     23  H   LIG d   1       3.901  -1.854  -2.734  0.00  0.00     0.027 H 
ENDROOT
BRANCH  12  24
ATOM     24  C   LIG d   1       5.896  -4.565  -5.946  0.00  0.00     0.038 C 
ATOM     25  H   LIG d   1       6.252  -4.176  -6.911  0.00  0.00     0.040 H 
BRANCH  24  26
ATOM     26  C   LIG d   1       4.420  -4.949  -6.052  0.00  0.00    -0.054 C 
ATOM     27  H   LIG d   1       3.820  -4.048  -6.249  0.00  0.00     0.024 H 
ATOM     28  H   LIG d   1       4.092  -5.410  -5.108  0.00  0.00     0.024 H 
ATOM     29  H   LIG d   1       4.285  -5.666  -6.876  0.00  0.00     0.024 H 
ENDBRANCH  24  26
BRANCH  24  30
ATOM     30  C   LIG d   1       6.708  -5.783  -5.589  0.00  0.00     0.216 C 
ATOM     31  O   LIG d   1       7.900  -5.681  -5.390  0.00  0.00    -0.276 OA
ATOM     32  N   LIG d   1       6.109  -6.987  -5.490  0.00  0.00    -0.311 N 
ATOM     33  H   LIG d   1       5.028  -7.079  -5.671  0.00  0.00     0.149 HD
BRANCH  32  34
ATOM     34  C   LIG d   1       6.898  -8.171  -5.142  0.00  0.00     0.037 C 
ATOM     35  H   LIG d   1       7.195  -8.697  -6.062  0.00  0.00     0.051 H 
ATOM     36  H   LIG d   1       7.798  -7.864  -4.588  0.00  0.00     0.051 H 
BRANCH  34  37
ATOM     37  C   LIG d   1       6.070  -9.092  -4.283  0.00  0.00    -0.030 A 
ATOM     38  C   LIG d   1       4.722  -9.254  -4.543  0.00  0.00    -0.057 A 
ATOM     39  C   LIG d   1       3.963 -10.098  -3.754  0.00  0.00    -0.061 A 
ATOM     40  H   LIG d   1       4.262  -8.721  -5.361  0.00  0.00     0.062 H 
ATOM     41  C   LIG d   1       4.552 -10.783  -2.707  0.00  0.00    -0.062 A 
ATOM     42  H   LIG d   1       2.910 -10.226  -3.957  0.00  0.00     0.062 H 
ATOM     43  C   LIG d   1       5.900 -10.621  -2.447  0.00  0.00    -0.061 A 
ATOM     44  H   LIG d   1       3.960 -11.442  -2.092  0.00  0.00     0.062 H 
ATOM     45  C   LIG d   1       6.661  -9.780  -3.239  0.00  0.00    -0.057 A 
ATOM     46  H   LIG d   1       6.361 -11.155  -1.630  0.00  0.00     0.062 H 
ATOM     47  H   LIG d   1       7.714  -9.655  -3.038  0.00  0.00     0.062 H 
ENDBRANCH  34  37
ENDBRANCH  32  34
ENDBRANCH  24  30
ENDBRANCH  12  24
BRANCH  10  48
ATOM     48  O   LIG d   1       7.955  -2.556  -6.044  0.00  0.00    -0.391 OA
ATOM     49  H   LIG d   1       8.817  -1.895  -5.862  0.00  0.00     0.210 HD
ENDBRANCH  10  48
BRANCH   1  50
ATOM     50  C   LIG d   1       8.830  -0.254  -5.615  0.00  0.00    -0.060 C 
ATOM     51  H   LIG d   1       9.176   0.588  -6.233  0.00  0.00     0.023 H 
ATOM     52  H   LIG d   1       8.740  -1.154  -6.239  0.00  0.00     0.023 H 
ATOM     53  H   LIG d   1       9.555  -0.437  -4.808  0.00  0.00     0.023 H 
ENDBRANCH   1  50
BRANCH   7  54
ATOM     54  C   LIG d   1       4.565  -0.303  -4.880  0.00  0.00    -0.059 C 
ATOM     55  H   LIG d   1       3.724   0.235  -4.418  0.00  0.00     0.024 H 
ATOM     56  H   LIG d   1       4.180  -1.144  -5.476  0.00  0.00     0.024 H 
ATOM     57  H   LIG d   1       5.125   0.382  -5.532  0.00  0.00     0.024 H 
ENDBRANCH   7  54
BRANCH   3  58
ATOM     58  N   LIG d   1       8.226   2.357  -4.513  0.00  0.00    -0.312 N 
ATOM     59  C   LIG d   1       9.364   2.871  -4.007  0.00  0.00     0.216 C 
ATOM     60  O   LIG d   1       9.903   2.335  -3.062  0.00  0.00    -0.276 OA
ATOM     61  H   LIG d   1       7.736   2.843  -5.370  0.00  0.00     0.149 HD
BRANCH  59  62
ATOM     62  C   LIG d   1       9.964   4.112  -4.613  0.00  0.00     0.036 C 
ATOM     63  C   LIG d   1       9.602   4.181  -6.099  0.00  0.00    -0.042 C 
ATOM     64  C   LIG d   1      10.211   5.441  -6.715  0.00  0.00    -0.052 C 
ATOM     65  H   LIG d   1       9.998   3.292  -6.614  0.00  0.00     0.027 H 
ATOM     66  H   LIG d   1       8.509   4.210  -6.209  0.00  0.00     0.027 H 
ATOM     67  C   LIG d   1       9.661   6.676  -5.999  0.00  0.00    -0.053 C 
ATOM     68  H   LIG d   1       9.951   5.490  -7.783  0.00  0.00     0.026 H 
ATOM     69  H   LIG d   1      11.306   5.411  -6.605  0.00  0.00     0.026 H 
ATOM     70  C   LIG d   1      10.023   6.608  -4.514  0.00  0.00    -0.052 C 
ATOM     71  H   LIG d   1       8.567   6.707  -6.109  0.00  0.00     0.026 H 
ATOM     72  H   LIG d   1      10.099   7.583  -6.442  0.00  0.00     0.026 H 
ATOM     73  C   LIG d   1       9.414   5.347  -3.898  0.00  0.00    -0.042 C 
ATOM     74  H   LIG d   1       9.627   7.496  -3.999  0.00  0.00     0.026 H 
ATOM     75  H   LIG d   1      11.117   6.578  -4.404  0.00  0.00     0.026 H 
ATOM     76  H   LIG d   1       8.320   5.377  -4.008  0.00  0.00     0.027 H 
ATOM     77  H   LIG d   1       9.674   5.299  -2.830  0.00  0.00     0.027 H 
ATOM     78  H   LIG d   1      11.057   4.068  -4.497  0.00  0.00     0.039 H 
ENDBRANCH  59  62
ENDBRANCH   3  58
TORSDOF 10
ENDMDL
MODEL 5
REMARK VINA RESULT:      -6.8      8.812     15.999
REMARK  10 active torsions:
REMARK  status: ('A' for Active; 'I' for Inactive)
REMARK    1  A    between atoms: C_1  and  C_2 
REMARK    2  A    between atoms: C_4  and  N_32 
REMARK    3  A    between atoms: C_8  and  C_31 
REMARK    4  A    between atoms: C_11  and  O_30 
REMARK    5  A    between atoms: C_13  and  C_17 
REMARK    6  A    between atoms: C_17  and  C_19 
REMARK    7  A    between atoms: C_17  and  C_20 
REMARK       I    between atoms: C_20  and  N_22 
REMARK    8  A    between atoms: N_22  and  C_23 
REMARK    9  A    between atoms: C_23  and  C_24 
REMARK       I    between atoms: N_32  and  C_33 
REMARK   10  A    between atoms: C_33  and  C_35 
ROOT
ATOM      1  C   LIG d   1       2.082  -4.439 -10.408  0.00  0.00    -0.020 C 
ATOM      2  H   LIG d   1       2.592  -4.237 -11.361  0.00  0.00     0.032 H 
ATOM      3  C   LIG d   1       2.042  -5.947 -10.158  0.00  0.00     0.026 C 
ATOM      4  H   LIG d   1       1.502  -6.173  -9.227  0.00  0.00     0.050 H 
ATOM      5  C   LIG d   1       3.472  -6.491 -10.096  0.00  0.00    -0.034 C 
ATOM      6  C   LIG d   1       4.229  -5.805  -8.958  0.00  0.00    -0.046 C 
ATOM      7  C   LIG d   1       4.268  -4.297  -9.206  0.00  0.00    -0.026 C 
ATOM      8  C   LIG d   1       2.839  -3.752  -9.268  0.00  0.00    -0.005 C 
ATOM      9  H   LIG d   1       2.328  -3.954  -8.315  0.00  0.00     0.033 H 
ATOM     10  C   LIG d   1       2.877  -2.243  -9.518  0.00  0.00     0.062 C 
ATOM     11  H   LIG d   1       3.329  -2.012 -10.494  0.00  0.00     0.060 H 
ATOM     12  C   LIG d   1       3.635  -1.558  -8.378  0.00  0.00    -0.004 C 
ATOM     13  H   LIG d   1       3.123  -1.759  -7.425  0.00  0.00     0.033 H 
ATOM     14  C   LIG d   1       5.063  -2.101  -8.317  0.00  0.00    -0.047 C 
ATOM     15  C   LIG d   1       5.025  -3.610  -8.068  0.00  0.00    -0.047 C 
ATOM     16  H   LIG d   1       3.444  -7.576  -9.917  0.00  0.00     0.028 H 
ATOM     17  H   LIG d   1       3.982  -6.289 -11.049  0.00  0.00     0.028 H 
ATOM     18  H   LIG d   1       3.718  -6.007  -8.004  0.00  0.00     0.027 H 
ATOM     19  H   LIG d   1       5.256  -6.196  -8.913  0.00  0.00     0.027 H 
ATOM     20  H   LIG d   1       5.574  -1.900  -9.270  0.00  0.00     0.027 H 
ATOM     21  H   LIG d   1       5.608  -1.608  -7.498  0.00  0.00     0.027 H 
ATOM     22  H   LIG d   1       4.514  -3.812  -7.114  0.00  0.00     0.027 H 
ATOM     23  H   LIG d   1       6.051  -4.001  -8.023  0.00  0.00     0.027 H 
ENDROOT
BRANCH  12  24
ATOM     24  C   LIG d   1       3.673  -0.048  -8.628  0.00  0.00     0.038 C 
ATOM     25  H   LIG d   1       3.040   0.203  -9.491  0.00  0.00     0.040 H 
BRANCH  24  26
ATOM     26  C   LIG d   1       5.114   0.388  -8.893  0.00  0.00    -0.054 C 
ATOM     27  H   LIG d   1       5.153   0.981  -9.819  0.00  0.00     0.024 H 
ATOM     28  H   LIG d   1       5.753  -0.501  -8.999  0.00  0.00     0.024 H 
ATOM     29  H   LIG d   1       5.474   0.999  -8.051  0.00  0.00     0.024 H 
ENDBRANCH  24  26
BRANCH  24  30
ATOM     30  C   LIG d   1       3.144   0.674  -7.416  0.00  0.00     0.216 C 
ATOM     31  O   LIG d   1       2.928   1.866  -7.467  0.00  0.00    -0.276 OA
ATOM     32  N   LIG d   1       2.910  -0.005  -6.276  0.00  0.00    -0.311 N 
ATOM     33  H   LIG d   1       3.108  -1.086  -6.230  0.00  0.00     0.149 HD
BRANCH  32  34
ATOM     34  C   LIG d   1       2.396   0.696  -5.097  0.00  0.00     0.037 C 
ATOM     35  H   LIG d   1       2.569   1.777  -5.209  0.00  0.00     0.051 H 
ATOM     36  H   LIG d   1       1.316   0.506  -4.999  0.00  0.00     0.051 H 
BRANCH  34  37
ATOM     37  C   LIG d   1       3.107   0.199  -3.865  0.00  0.00    -0.030 A 
ATOM     38  C   LIG d   1       3.099  -1.149  -3.559  0.00  0.00    -0.057 A 
ATOM     39  C   LIG d   1       3.751  -1.605  -2.429  0.00  0.00    -0.061 A 
ATOM     40  H   LIG d   1       2.582  -1.846  -4.202  0.00  0.00     0.062 H 
ATOM     41  C   LIG d   1       4.414  -0.713  -1.606  0.00  0.00    -0.062 A 
ATOM     42  H   LIG d   1       3.745  -2.658  -2.189  0.00  0.00     0.062 H 
ATOM     43  C   LIG d   1       4.422   0.635  -1.912  0.00  0.00    -0.061 A 
ATOM     44  H   LIG d   1       4.923  -1.069  -0.723  0.00  0.00     0.062 H 
ATOM     45  C   LIG d   1       3.773   1.090  -3.045  0.00  0.00    -0.057 A 
ATOM     46  H   LIG d   1       4.939   1.332  -1.269  0.00  0.00     0.062 H 
ATOM     47  H   LIG d   1       3.782   2.143  -3.286  0.00  0.00     0.062 H 
ENDBRANCH  34  37
ENDBRANCH  32  34
ENDBRANCH  24  30
ENDBRANCH  12  24
BRANCH  10  48
ATOM     48  O   LIG d   1       1.542  -1.736  -9.576  0.00  0.00    -0.391 OA
ATOM     49  H   LIG d   1       1.233  -0.924  -8.902  0.00  0.00     0.210 HD
ENDBRANCH  10  48
BRANCH   1  50
ATOM     50  C   LIG d   1       0.652  -3.895 -10.469  0.00  0.00    -0.060 C 
ATOM     51  H   LIG d   1       0.646  -2.944 -11.023  0.00  0.00     0.023 H 
ATOM     52  H   LIG d   1       0.280  -3.727  -9.449  0.00  0.00     0.023 H 
ATOM     53  H   LIG d   1       0.005  -4.621 -10.982  0.00  0.00     0.023 H 
ENDBRANCH   1  50
BRANCH   7  54
ATOM     54  C   LIG d   1       4.978  -4.016 -10.533  0.00  0.00    -0.059 C 
ATOM     55  H   LIG d   1       5.029  -2.930 -10.699  0.00  0.00     0.024 H 
ATOM     56  H   LIG d   1       4.418  -4.487 -11.355  0.00  0.00     0.024 H 
ATOM     57  H   LIG d   1       5.996  -4.430 -10.497  0.00  0.00     0.024 H 
ENDBRANCH   7  54
BRANCH   3  58
ATOM     58  N   LIG d   1       1.317  -6.604 -11.249  0.00  0.00    -0.312 N 
ATOM     59  C   LIG d   1       0.292  -7.434 -10.973  0.00  0.00     0.216 C 
ATOM     60  O   LIG d   1      -0.030  -7.638  -9.822  0.00  0.00    -0.276 OA
ATOM     61  H   LIG d   1       1.610  -6.420 -12.293  0.00  0.00     0.149 HD
BRANCH  59  62
ATOM     62  C   LIG d   1      -0.453  -8.109 -12.095  0.00  0.00     0.036 C 
ATOM     63  C   LIG d   1      -1.056  -9.422 -11.589  0.00  0.00    -0.042 C 
ATOM     64  C   LIG d   1      -1.813 -10.108 -12.728  0.00  0.00    -0.052 C 
ATOM     65  H   LIG d   1      -0.251 -10.083 -11.234  0.00  0.00     0.027 H 
ATOM     66  H   LIG d   1      -1.749  -9.212 -10.762  0.00  0.00     0.027 H 
ATOM     67  C   LIG d   1      -2.933  -9.190 -13.222  0.00  0.00    -0.053 C 
ATOM     68  H   LIG d   1      -2.247 -11.051 -12.364  0.00  0.00     0.026 H 
ATOM     69  H   LIG d   1      -1.119 -10.318 -13.556  0.00  0.00     0.026 H 
ATOM     70  C   LIG d   1      -2.330  -7.877 -13.727  0.00  0.00    -0.052 C 
ATOM     71  H   LIG d   1      -3.627  -8.980 -12.395  0.00  0.00     0.026 H 
ATOM     72  H   LIG d   1      -3.477  -9.682 -14.041  0.00  0.00     0.026 H 
ATOM     73  C   LIG d   1      -1.573  -7.192 -12.588  0.00  0.00    -0.042 C 
ATOM     74  H   LIG d   1      -3.135  -7.217 -14.083  0.00  0.00     0.026 H 
ATOM     75  H   LIG d   1      -1.636  -8.087 -14.555  0.00  0.00     0.026 H 
ATOM     76  H   LIG d   1      -2.266  -6.982 -11.761  0.00  0.00     0.027 H 
ATOM     77  H   LIG d   1      -1.140  -6.248 -12.952  0.00  0.00     0.027 H 
ATOM     78  H   LIG d   1       0.252  -8.313 -12.914  0.00  0.00     0.039 H 
ENDBRANCH  59  62
ENDBRANCH   3  58
TORSDOF 10
ENDMDL
MODEL 6
REMARK VINA RESULT:      -6.6      7.590     14.546
REMARK  10 active torsions:
REMARK  status: ('A' for Active; 'I' for Inactive)
REMARK    1  A    between atoms: C_1  and  C_2 
REMARK    2  A    between atoms: C_4  and  N_32 
REMARK    3  A    between atoms: C_8  and  C_31 
REMARK    4  A    between atoms: C_11  and  O_30 
REMARK    5  A    between atoms: C_13  and  C_17 
REMARK    6  A    between atoms: C_17  and  C_19 
REMARK    7  A    between atoms: C_17  and  C_20 
REMARK       I    between atoms: C_20  and  N_22 
REMARK    8  A    between atoms: N_22  and  C_23 
REMARK    9  A    between atoms: C_23  and  C_24 
REMARK       I    between atoms: N_32  and  C_33 
REMARK   10  A    between atoms: C_33  and  C_35 
ROOT
ATOM      1  C   LIG d   1       7.833  -7.068  -5.211  0.00  0.00    -0.020 C 
ATOM      2  H   LIG d   1       8.655  -7.534  -5.773  0.00  0.00     0.032 H 
ATOM      3  C   LIG d   1       7.124  -8.130  -4.367  0.00  0.00     0.026 C 
ATOM      4  H   LIG d   1       6.273  -7.691  -3.826  0.00  0.00     0.050 H 
ATOM      5  C   LIG d   1       8.123  -8.751  -3.389  0.00  0.00    -0.034 C 
ATOM      6  C   LIG d   1       8.684  -7.663  -2.472  0.00  0.00    -0.046 C 
ATOM      7  C   LIG d   1       9.392  -6.601  -3.316  0.00  0.00    -0.026 C 
ATOM      8  C   LIG d   1       8.394  -5.978  -4.295  0.00  0.00    -0.005 C 
ATOM      9  H   LIG d   1       7.571  -5.512  -3.733  0.00  0.00     0.033 H 
ATOM     10  C   LIG d   1       9.101  -4.917  -5.139  0.00  0.00     0.062 C 
ATOM     11  H   LIG d   1       9.893  -5.362  -5.760  0.00  0.00     0.060 H 
ATOM     12  C   LIG d   1       9.662  -3.828  -4.222  0.00  0.00    -0.004 C 
ATOM     13  H   LIG d   1       8.839  -3.361  -3.661  0.00  0.00     0.033 H 
ATOM     14  C   LIG d   1      10.660  -4.449  -3.244  0.00  0.00    -0.047 C 
ATOM     15  C   LIG d   1       9.953  -5.511  -2.399  0.00  0.00    -0.047 C 
ATOM     16  H   LIG d   1       7.614  -9.515  -2.782  0.00  0.00     0.028 H 
ATOM     17  H   LIG d   1       8.946  -9.217  -3.950  0.00  0.00     0.028 H 
ATOM     18  H   LIG d   1       7.861  -7.196  -1.910  0.00  0.00     0.027 H 
ATOM     19  H   LIG d   1       9.402  -8.109  -1.768  0.00  0.00     0.027 H 
ATOM     20  H   LIG d   1      11.483  -4.915  -3.805  0.00  0.00     0.027 H 
ATOM     21  H   LIG d   1      11.064  -3.666  -2.584  0.00  0.00     0.027 H 
ATOM     22  H   LIG d   1       9.130  -5.045  -1.837  0.00  0.00     0.027 H 
ATOM     23  H   LIG d   1      10.670  -5.959  -1.696  0.00  0.00     0.027 H 
ENDROOT
BRANCH  12  24
ATOM     24  C   LIG d   1      10.370  -2.765  -5.067  0.00  0.00     0.038 C 
ATOM     25  H   LIG d   1      10.452  -3.110  -6.107  0.00  0.00     0.040 H 
BRANCH  24  26
ATOM     26  C   LIG d   1      11.763  -2.503  -4.493  0.00  0.00    -0.054 C 
ATOM     27  H   LIG d   1      11.927  -1.418  -4.410  0.00  0.00     0.024 H 
ATOM     28  H   LIG d   1      12.522  -2.939  -5.159  0.00  0.00     0.024 H 
ATOM     29  H   LIG d   1      11.842  -2.963  -3.496  0.00  0.00     0.024 H 
ENDBRANCH  24  26
BRANCH  24  30
ATOM     30  C   LIG d   1       9.568  -1.490  -5.043  0.00  0.00     0.216 C 
ATOM     31  O   LIG d   1      10.006  -0.488  -5.569  0.00  0.00    -0.276 OA
ATOM     32  N   LIG d   1       8.364  -1.462  -4.439  0.00  0.00    -0.311 N 
ATOM     33  H   LIG d   1       7.968  -2.371  -3.962  0.00  0.00     0.149 HD
BRANCH  32  34
ATOM     34  C   LIG d   1       7.583  -0.223  -4.416  0.00  0.00     0.037 C 
ATOM     35  H   LIG d   1       8.214   0.601  -4.049  0.00  0.00     0.051 H 
ATOM     36  H   LIG d   1       7.233   0.009  -5.433  0.00  0.00     0.051 H 
BRANCH  34  37
ATOM     37  C   LIG d   1       6.397  -0.392  -3.503  0.00  0.00    -0.030 A 
ATOM     38  C   LIG d   1       5.835   0.710  -2.886  0.00  0.00    -0.057 A 
ATOM     39  C   LIG d   1       4.747   0.553  -2.048  0.00  0.00    -0.061 A 
ATOM     40  H   LIG d   1       6.247   1.693  -3.059  0.00  0.00     0.062 H 
ATOM     41  C   LIG d   1       4.219  -0.705  -1.828  0.00  0.00    -0.062 A 
ATOM     42  H   LIG d   1       4.308   1.415  -1.566  0.00  0.00     0.062 H 
ATOM     43  C   LIG d   1       4.780  -1.808  -2.445  0.00  0.00    -0.061 A 
ATOM     44  H   LIG d   1       3.369  -0.828  -1.174  0.00  0.00     0.062 H 
ATOM     45  C   LIG d   1       5.866  -1.651  -3.287  0.00  0.00    -0.057 A 
ATOM     46  H   LIG d   1       4.369  -2.791  -2.273  0.00  0.00     0.062 H 
ATOM     47  H   LIG d   1       6.303  -2.512  -3.771  0.00  0.00     0.062 H 
ENDBRANCH  34  37
ENDBRANCH  32  34
ENDBRANCH  24  30
ENDBRANCH  12  24
BRANCH  10  48
ATOM     48  O   LIG d   1       8.169  -4.336  -6.054  0.00  0.00    -0.391 OA
ATOM     49  H   LIG d   1       8.050  -3.243  -6.098  0.00  0.00     0.210 HD
ENDBRANCH  10  48
BRANCH   1  50
ATOM     50  C   LIG d   1       6.834  -6.446  -6.190  0.00  0.00    -0.060 C 
ATOM     51  H   LIG d   1       6.298  -5.623  -5.693  0.00  0.00     0.023 H 
ATOM     52  H   LIG d   1       6.114  -7.210  -6.515  0.00  0.00     0.023 H 
ATOM     53  H   LIG d   1       7.374  -6.055  -7.065  0.00  0.00     0.023 H 
ENDBRANCH   1  50
BRANCH   7  54
ATOM     54  C   LIG d   1      10.536  -7.249  -4.097  0.00  0.00    -0.059 C 
ATOM     55  H   LIG d   1      11.494  -6.820  -3.768  0.00  0.00     0.024 H 
ATOM     56  H   LIG d   1      10.400  -7.059  -5.172  0.00  0.00     0.024 H 
ATOM     57  H   LIG d   1      10.537  -8.333  -3.913  0.00  0.00     0.024 H 
ENDBRANCH   7  54
BRANCH   3  58
ATOM     58  N   LIG d   1       6.587  -9.173  -5.245  0.00  0.00    -0.312 N 
ATOM     59  C   LIG d   1       5.259  -9.391  -5.297  0.00  0.00     0.216 C 
ATOM     60  O   LIG d   1       4.508  -8.725  -4.617  0.00  0.00    -0.276 OA
ATOM     61  H   LIG d   1       7.269  -9.777  -5.862  0.00  0.00     0.149 HD
BRANCH  59  62
ATOM     62  C   LIG d   1       4.707 -10.464  -6.200  0.00  0.00     0.036 C 
ATOM     63  C   LIG d   1       5.860 -11.172  -6.915  0.00  0.00    -0.042 C 
ATOM     64  C   LIG d   1       5.300 -12.262  -7.831  0.00  0.00    -0.052 C 
ATOM     65  H   LIG d   1       6.422 -10.441  -7.516  0.00  0.00     0.027 H 
ATOM     66  H   LIG d   1       6.530 -11.626  -6.171  0.00  0.00     0.027 H 
ATOM     67  C   LIG d   1       4.519 -13.278  -6.996  0.00  0.00    -0.053 C 
ATOM     68  H   LIG d   1       6.130 -12.770  -8.345  0.00  0.00     0.026 H 
ATOM     69  H   LIG d   1       4.631 -11.806  -8.576  0.00  0.00     0.026 H 
ATOM     70  C   LIG d   1       3.366 -12.571  -6.280  0.00  0.00    -0.052 C 
ATOM     71  H   LIG d   1       5.188 -13.733  -6.251  0.00  0.00     0.026 H 
ATOM     72  H   LIG d   1       4.116 -14.062  -7.654  0.00  0.00     0.026 H 
ATOM     73  C   LIG d   1       3.926 -11.480  -5.365  0.00  0.00    -0.042 C 
ATOM     74  H   LIG d   1       2.803 -13.301  -5.680  0.00  0.00     0.026 H 
ATOM     75  H   LIG d   1       2.696 -12.115  -7.025  0.00  0.00     0.026 H 
ATOM     76  H   LIG d   1       4.595 -11.935  -4.620  0.00  0.00     0.027 H 
ATOM     77  H   LIG d   1       3.097 -10.972  -4.850  0.00  0.00     0.027 H 
ATOM     78  H   LIG d   1       4.041  -9.995  -6.939  0.00  0.00     0.039 H 
ENDBRANCH  59  62
ENDBRANCH   3  58
TORSDOF 10
ENDMDL
MODEL 7
REMARK VINA RESULT:      -6.5      8.909     15.804
REMARK  10 active torsions:
REMARK  status: ('A' for Active; 'I' for Inactive)
REMARK    1  A    between atoms: C_1  and  C_2 
REMARK    2  A    between atoms: C_4  and  N_32 
REMARK    3  A    between atoms: C_8  and  C_31 
REMARK    4  A    between atoms: C_11  and  O_30 
REMARK    5  A    between atoms: C_13  and  C_17 
REMARK    6  A    between atoms: C_17  and  C_19 
REMARK    7  A    between atoms: C_17  and  C_20 
REMARK       I    between atoms: C_20  and  N_22 
REMARK    8  A    between atoms: N_22  and  C_23 
REMARK    9  A    between atoms: C_23  and  C_24 
REMARK       I    between atoms: N_32  and  C_33 
REMARK   10  A    between atoms: C_33  and  C_35 
ROOT
ATOM      1  C   LIG d   1       1.993  -4.050 -10.934  0.00  0.00    -0.020 C 
ATOM      2  H   LIG d   1       0.918  -3.820 -10.918  0.00  0.00     0.032 H 
ATOM      3  C   LIG d   1       2.331  -4.825 -12.209  0.00  0.00     0.026 C 
ATOM      4  H   LIG d   1       3.396  -5.099 -12.226  0.00  0.00     0.050 H 
ATOM      5  C   LIG d   1       1.972  -3.976 -13.431  0.00  0.00    -0.034 C 
ATOM      6  C   LIG d   1       2.774  -2.674 -13.399  0.00  0.00    -0.046 C 
ATOM      7  C   LIG d   1       2.437  -1.899 -12.124  0.00  0.00    -0.026 C 
ATOM      8  C   LIG d   1       2.796  -2.747 -10.902  0.00  0.00    -0.005 C 
ATOM      9  H   LIG d   1       3.871  -2.978 -10.918  0.00  0.00     0.033 H 
ATOM     10  C   LIG d   1       2.459  -1.973  -9.626  0.00  0.00     0.062 C 
ATOM     11  H   LIG d   1       1.379  -1.778  -9.551  0.00  0.00     0.060 H 
ATOM     12  C   LIG d   1       3.261  -0.670  -9.595  0.00  0.00    -0.004 C 
ATOM     13  H   LIG d   1       4.337  -0.901  -9.611  0.00  0.00     0.033 H 
ATOM     14  C   LIG d   1       2.903   0.179 -10.816  0.00  0.00    -0.047 C 
ATOM     15  C   LIG d   1       3.239  -0.596 -12.092  0.00  0.00    -0.047 C 
ATOM     16  H   LIG d   1       2.214  -4.534 -14.348  0.00  0.00     0.028 H 
ATOM     17  H   LIG d   1       0.897  -3.745 -13.415  0.00  0.00     0.028 H 
ATOM     18  H   LIG d   1       3.850  -2.905 -13.416  0.00  0.00     0.027 H 
ATOM     19  H   LIG d   1       2.516  -2.063 -14.278  0.00  0.00     0.027 H 
ATOM     20  H   LIG d   1       1.828   0.410 -10.800  0.00  0.00     0.027 H 
ATOM     21  H   LIG d   1       3.479   1.116 -10.794  0.00  0.00     0.027 H 
ATOM     22  H   LIG d   1       4.315  -0.826 -12.108  0.00  0.00     0.027 H 
ATOM     23  H   LIG d   1       2.982   0.013 -12.970  0.00  0.00     0.027 H 
ENDROOT
BRANCH  12  24
ATOM     24  C   LIG d   1       2.924   0.105  -8.319  0.00  0.00     0.038 C 
ATOM     25  H   LIG d   1       1.983  -0.269  -7.892  0.00  0.00     0.040 H 
BRANCH  24  26
ATOM     26  C   LIG d   1       2.793   1.593  -8.645  0.00  0.00    -0.054 C 
ATOM     27  H   LIG d   1       3.243   1.794  -9.629  0.00  0.00     0.024 H 
ATOM     28  H   LIG d   1       3.311   2.185  -7.877  0.00  0.00     0.024 H 
ATOM     29  H   LIG d   1       1.728   1.872  -8.666  0.00  0.00     0.024 H 
ENDBRANCH  24  26
BRANCH  24  30
ATOM     30  C   LIG d   1       4.023  -0.093  -7.308  0.00  0.00     0.216 C 
ATOM     31  O   LIG d   1       4.984   0.648  -7.303  0.00  0.00    -0.276 OA
ATOM     32  N   LIG d   1       3.939  -1.092  -6.408  0.00  0.00    -0.311 N 
ATOM     33  H   LIG d   1       3.068  -1.765  -6.413  0.00  0.00     0.149 HD
BRANCH  32  34
ATOM     34  C   LIG d   1       5.007  -1.285  -5.424  0.00  0.00     0.037 C 
ATOM     35  H   LIG d   1       5.066  -2.350  -5.150  0.00  0.00     0.051 H 
ATOM     36  H   LIG d   1       5.966  -0.964  -5.856  0.00  0.00     0.051 H 
BRANCH  34  37
ATOM     37  C   LIG d   1       4.711  -0.467  -4.193  0.00  0.00    -0.030 A 
ATOM     38  C   LIG d   1       5.710   0.290  -3.610  0.00  0.00    -0.057 A 
ATOM     39  C   LIG d   1       5.437   1.040  -2.481  0.00  0.00    -0.061 A 
ATOM     40  H   LIG d   1       6.702   0.295  -4.035  0.00  0.00     0.062 H 
ATOM     41  C   LIG d   1       4.167   1.035  -1.937  0.00  0.00    -0.062 A 
ATOM     42  H   LIG d   1       6.217   1.633  -2.025  0.00  0.00     0.062 H 
ATOM     43  C   LIG d   1       3.168   0.278  -2.521  0.00  0.00    -0.061 A 
ATOM     44  H   LIG d   1       3.954   1.621  -1.056  0.00  0.00     0.062 H 
ATOM     45  C   LIG d   1       3.439  -0.469  -3.652  0.00  0.00    -0.057 A 
ATOM     46  H   LIG d   1       2.175   0.273  -2.096  0.00  0.00     0.062 H 
ATOM     47  H   LIG d   1       2.658  -1.059  -4.110  0.00  0.00     0.062 H 
ENDBRANCH  34  37
ENDBRANCH  32  34
ENDBRANCH  24  30
ENDBRANCH  12  24
BRANCH  10  48
ATOM     48  O   LIG d   1       2.793  -2.766  -8.485  0.00  0.00    -0.391 OA
ATOM     49  H   LIG d   1       2.660  -3.858  -8.516  0.00  0.00     0.210 HD
ENDBRANCH  10  48
BRANCH   1  50
ATOM     50  C   LIG d   1       2.352  -4.899  -9.712  0.00  0.00    -0.060 C 
ATOM     51  H   LIG d   1       3.082  -4.358  -9.091  0.00  0.00     0.023 H 
ATOM     52  H   LIG d   1       2.787  -5.852 -10.042  0.00  0.00     0.023 H 
ATOM     53  H   LIG d   1       1.444  -5.095  -9.122  0.00  0.00     0.023 H 
ENDBRANCH   1  50
BRANCH   7  54
ATOM     54  C   LIG d   1       0.941  -1.578 -12.102  0.00  0.00    -0.059 C 
ATOM     55  H   LIG d   1       0.702  -0.887 -12.924  0.00  0.00     0.024 H 
ATOM     56  H   LIG d   1       0.682  -1.108 -11.141  0.00  0.00     0.024 H 
ATOM     57  H   LIG d   1       0.366  -2.506 -12.223  0.00  0.00     0.024 H 
ENDBRANCH   7  54
BRANCH   3  58
ATOM     58  N   LIG d   1       1.562  -6.073 -12.240  0.00  0.00    -0.312 N 
ATOM     59  C   LIG d   1       2.203  -7.257 -12.300  0.00  0.00     0.216 C 
ATOM     60  O   LIG d   1       3.415  -7.290 -12.331  0.00  0.00    -0.276 OA
ATOM     61  H   LIG d   1       0.463  -6.043 -12.212  0.00  0.00     0.149 HD
BRANCH  59  62
ATOM     62  C   LIG d   1       1.413  -8.540 -12.332  0.00  0.00     0.036 C 
ATOM     63  C   LIG d   1       1.416  -9.175 -10.939  0.00  0.00    -0.042 C 
ATOM     64  C   LIG d   1       0.613 -10.476 -10.971  0.00  0.00    -0.052 C 
ATOM     65  H   LIG d   1       2.452  -9.390 -10.637  0.00  0.00     0.027 H 
ATOM     66  H   LIG d   1       0.960  -8.480 -10.219  0.00  0.00     0.027 H 
ATOM     67  C   LIG d   1      -0.827 -10.178 -11.391  0.00  0.00    -0.053 C 
ATOM     68  H   LIG d   1       0.615 -10.933  -9.970  0.00  0.00     0.026 H 
ATOM     69  H   LIG d   1       1.069 -11.171 -11.692  0.00  0.00     0.026 H 
ATOM     70  C   LIG d   1      -0.831  -9.543 -12.783  0.00  0.00    -0.052 C 
ATOM     71  H   LIG d   1      -1.283  -9.484 -10.671  0.00  0.00     0.026 H 
ATOM     72  H   LIG d   1      -1.405 -11.114 -11.414  0.00  0.00     0.026 H 
ATOM     73  C   LIG d   1      -0.027  -8.241 -12.752  0.00  0.00    -0.042 C 
ATOM     74  H   LIG d   1      -1.866  -9.328 -13.087  0.00  0.00     0.026 H 
ATOM     75  H   LIG d   1      -0.375 -10.237 -13.505  0.00  0.00     0.026 H 
ATOM     76  H   LIG d   1      -0.484  -7.547 -12.031  0.00  0.00     0.027 H 
ATOM     77  H   LIG d   1      -0.030  -7.784 -13.753  0.00  0.00     0.027 H 
ATOM     78  H   LIG d   1       1.880  -9.224 -13.056  0.00  0.00     0.039 H 
ENDBRANCH  59  62
ENDBRANCH   3  58
TORSDOF 10
ENDMDL
MODEL 8
REMARK VINA RESULT:      -6.4      6.843     12.909
REMARK  10 active torsions:
REMARK  status: ('A' for Active; 'I' for Inactive)
REMARK    1  A    between atoms: C_1  and  C_2 
REMARK    2  A    between atoms: C_4  and  N_32 
REMARK    3  A    between atoms: C_8  and  C_31 
REMARK    4  A    between atoms: C_11  and  O_30 
REMARK    5  A    between atoms: C_13  and  C_17 
REMARK    6  A    between atoms: C_17  and  C_19 
REMARK    7  A    between atoms: C_17  and  C_20 
REMARK       I    between atoms: C_20  and  N_22 
REMARK    8  A    between atoms: N_22  and  C_23 
REMARK    9  A    between atoms: C_23  and  C_24 
REMARK       I    between atoms: N_32  and  C_33 
REMARK   10  A    between atoms: C_33  and  C_35 
ROOT
ATOM      1  C   LIG d   1       8.995  -5.379  -4.761  0.00  0.00    -0.020 C 
ATOM      2  H   LIG d   1       9.347  -5.736  -5.739  0.00  0.00     0.032 H 
ATOM      3  C   LIG d   1       9.252  -6.452  -3.701  0.00  0.00     0.026 C 
ATOM      4  H   LIG d   1       8.871  -6.129  -2.721  0.00  0.00     0.050 H 
ATOM      5  C   LIG d   1      10.752  -6.745  -3.627  0.00  0.00    -0.034 C 
ATOM      6  C   LIG d   1      11.503  -5.467  -3.251  0.00  0.00    -0.046 C 
ATOM      7  C   LIG d   1      11.246  -4.393  -4.309  0.00  0.00    -0.026 C 
ATOM      8  C   LIG d   1       9.746  -4.099  -4.384  0.00  0.00    -0.005 C 
ATOM      9  H   LIG d   1       9.393  -3.742  -3.405  0.00  0.00     0.033 H 
ATOM     10  C   LIG d   1       9.487  -3.026  -5.443  0.00  0.00     0.062 C 
ATOM     11  H   LIG d   1       9.775  -3.377  -6.445  0.00  0.00     0.060 H 
ATOM     12  C   LIG d   1      10.239  -1.747  -5.065  0.00  0.00    -0.004 C 
ATOM     13  H   LIG d   1       9.885  -1.390  -4.087  0.00  0.00     0.033 H 
ATOM     14  C   LIG d   1      11.738  -2.040  -4.992  0.00  0.00    -0.047 C 
ATOM     15  C   LIG d   1      11.997  -3.114  -3.933  0.00  0.00    -0.047 C 
ATOM     16  H   LIG d   1      10.938  -7.517  -2.866  0.00  0.00     0.028 H 
ATOM     17  H   LIG d   1      11.105  -7.102  -4.606  0.00  0.00     0.028 H 
ATOM     18  H   LIG d   1      11.150  -5.109  -2.271  0.00  0.00     0.027 H 
ATOM     19  H   LIG d   1      12.582  -5.677  -3.197  0.00  0.00     0.027 H 
ATOM     20  H   LIG d   1      12.091  -2.398  -5.970  0.00  0.00     0.027 H 
ATOM     21  H   LIG d   1      12.279  -1.121  -4.721  0.00  0.00     0.027 H 
ATOM     22  H   LIG d   1      11.644  -2.756  -2.954  0.00  0.00     0.027 H 
ATOM     23  H   LIG d   1      13.074  -3.325  -3.879  0.00  0.00     0.027 H 
ENDROOT
BRANCH  12  24
ATOM     24  C   LIG d   1       9.980  -0.673  -6.125  0.00  0.00     0.038 C 
ATOM     25  H   LIG d   1       9.512  -1.127  -7.010  0.00  0.00     0.040 H 
BRANCH  24  26
ATOM     26  C   LIG d   1      11.303  -0.014  -6.517  0.00  0.00    -0.054 C 
ATOM     27  H   LIG d   1      11.103   0.958  -6.990  0.00  0.00     0.024 H 
ATOM     28  H   LIG d   1      11.842  -0.663  -7.223  0.00  0.00     0.024 H 
ATOM     29  H   LIG d   1      11.918   0.137  -5.616  0.00  0.00     0.024 H 
ENDBRANCH  24  26
BRANCH  24  30
ATOM     30  C   LIG d   1       9.046   0.368  -5.566  0.00  0.00     0.216 C 
ATOM     31  O   LIG d   1       8.882   1.416  -6.155  0.00  0.00    -0.276 OA
ATOM     32  N   LIG d   1       8.391   0.135  -4.411  0.00  0.00    -0.311 N 
ATOM     33  H   LIG d   1       8.541  -0.814  -3.877  0.00  0.00     0.149 HD
BRANCH  32  34
ATOM     34  C   LIG d   1       7.482   1.147  -3.867  0.00  0.00     0.037 C 
ATOM     35  H   LIG d   1       8.019   1.766  -3.132  0.00  0.00     0.051 H 
ATOM     36  H   LIG d   1       7.113   1.785  -4.684  0.00  0.00     0.051 H 
BRANCH  34  37
ATOM     37  C   LIG d   1       6.317   0.467  -3.195  0.00  0.00    -0.030 A 
ATOM     38  C   LIG d   1       5.364   1.220  -2.535  0.00  0.00    -0.057 A 
ATOM     39  C   LIG d   1       4.296   0.595  -1.919  0.00  0.00    -0.061 A 
ATOM     40  H   LIG d   1       5.453   2.295  -2.502  0.00  0.00     0.062 H 
ATOM     41  C   LIG d   1       4.181  -0.782  -1.963  0.00  0.00    -0.062 A 
ATOM     42  H   LIG d   1       3.550   1.183  -1.403  0.00  0.00     0.062 H 
ATOM     43  C   LIG d   1       5.134  -1.535  -2.622  0.00  0.00    -0.061 A 
ATOM     44  H   LIG d   1       3.346  -1.270  -1.481  0.00  0.00     0.062 H 
ATOM     45  C   LIG d   1       6.200  -0.910  -3.243  0.00  0.00    -0.057 A 
ATOM     46  H   LIG d   1       5.045  -2.610  -2.657  0.00  0.00     0.062 H 
ATOM     47  H   LIG d   1       6.943  -1.497  -3.761  0.00  0.00     0.062 H 
ENDBRANCH  34  37
ENDBRANCH  32  34
ENDBRANCH  24  30
ENDBRANCH  12  24
BRANCH  10  48
ATOM     48  O   LIG d   1       8.086  -2.753  -5.512  0.00  0.00    -0.391 OA
ATOM     49  H   LIG d   1       7.636  -2.010  -4.836  0.00  0.00     0.210 HD
ENDBRANCH  10  48
BRANCH   1  50
ATOM     50  C   LIG d   1       7.494  -5.085  -4.835  0.00  0.00    -0.060 C 
ATOM     51  H   LIG d   1       7.034  -5.721  -5.606  0.00  0.00     0.023 H 
ATOM     52  H   LIG d   1       7.340  -4.028  -5.092  0.00  0.00     0.023 H 
ATOM     53  H   LIG d   1       7.030  -5.297  -3.861  0.00  0.00     0.023 H 
ENDBRANCH   1  50
BRANCH   7  54
ATOM     54  C   LIG d   1      11.736  -4.890  -5.671  0.00  0.00    -0.059 C 
ATOM     55  H   LIG d   1      12.748  -4.502  -5.860  0.00  0.00     0.024 H 
ATOM     56  H   LIG d   1      11.054  -4.536  -6.458  0.00  0.00     0.024 H 
ATOM     57  H   LIG d   1      11.759  -5.989  -5.672  0.00  0.00     0.024 H 
ENDBRANCH   7  54
BRANCH   3  58
ATOM     58  N   LIG d   1       8.533  -7.677  -4.062  0.00  0.00    -0.312 N 
ATOM     59  C   LIG d   1       8.150  -8.540  -3.102  0.00  0.00     0.216 C 
ATOM     60  O   LIG d   1       8.400  -8.305  -1.939  0.00  0.00    -0.276 OA
ATOM     61  H   LIG d   1       8.306  -7.891  -5.117  0.00  0.00     0.149 HD
BRANCH  59  62
ATOM     62  C   LIG d   1       7.410  -9.800  -3.473  0.00  0.00     0.036 C 
ATOM     63  C   LIG d   1       6.472 -10.196  -2.330  0.00  0.00    -0.042 C 
ATOM     64  C   LIG d   1       5.721 -11.475  -2.708  0.00  0.00    -0.052 C 
ATOM     65  H   LIG d   1       7.061 -10.373  -1.418  0.00  0.00     0.027 H 
ATOM     66  H   LIG d   1       5.751  -9.387  -2.150  0.00  0.00     0.027 H 
ATOM     67  C   LIG d   1       4.903 -11.230  -3.976  0.00  0.00    -0.053 C 
ATOM     68  H   LIG d   1       5.047 -11.760  -1.886  0.00  0.00     0.026 H 
ATOM     69  H   LIG d   1       6.444 -12.285  -2.888  0.00  0.00     0.026 H 
ATOM     70  C   LIG d   1       5.840 -10.833  -5.119  0.00  0.00    -0.052 C 
ATOM     71  H   LIG d   1       4.181 -10.421  -3.797  0.00  0.00     0.026 H 
ATOM     72  H   LIG d   1       4.363 -12.149  -4.248  0.00  0.00     0.026 H 
ATOM     73  C   LIG d   1       6.592  -9.555  -4.742  0.00  0.00    -0.042 C 
ATOM     74  H   LIG d   1       5.252 -10.657  -6.032  0.00  0.00     0.026 H 
ATOM     75  H   LIG d   1       6.562 -11.643  -5.299  0.00  0.00     0.026 H 
ATOM     76  H   LIG d   1       5.869  -8.745  -4.562  0.00  0.00     0.027 H 
ATOM     77  H   LIG d   1       7.265  -9.269  -5.564  0.00  0.00     0.027 H 
ATOM     78  H   LIG d   1       8.144 -10.600  -3.650  0.00  0.00     0.039 H 
ENDBRANCH  59  62
ENDBRANCH   3  58
TORSDOF 10
ENDMDL
MODEL 9
REMARK VINA RESULT:      -6.3      8.043     11.703
REMARK  10 active torsions:
REMARK  status: ('A' for Active; 'I' for Inactive)
REMARK    1  A    between atoms: C_1  and  C_2 
REMARK    2  A    between atoms: C_4  and  N_32 
REMARK    3  A    between atoms: C_8  and  C_31 
REMARK    4  A    between atoms: C_11  and  O_30 
REMARK    5  A    between atoms: C_13  and  C_17 
REMARK    6  A    between atoms: C_17  and  C_19 
REMARK    7  A    between atoms: C_17  and  C_20 
REMARK       I    between atoms: C_20  and  N_22 
REMARK    8  A    between atoms: N_22  and  C_23 
REMARK    9  A    between atoms: C_23  and  C_24 
REMARK       I    between atoms: N_32  and  C_33 
REMARK   10  A    between atoms: C_33  and  C_35 
ROOT
ATOM      1  C   LIG d   1       8.963  -3.922  -3.946  0.00  0.00    -0.020 C 
ATOM      2  H   LIG d   1       9.589  -3.143  -4.405  0.00  0.00     0.032 H 
ATOM      3  C   LIG d   1       7.554  -3.861  -4.538  0.00  0.00     0.026 C 
ATOM      4  H   LIG d   1       6.901  -4.608  -4.064  0.00  0.00     0.050 H 
ATOM      5  C   LIG d   1       7.627  -4.089  -6.050  0.00  0.00    -0.034 C 
ATOM      6  C   LIG d   1       8.237  -5.463  -6.329  0.00  0.00    -0.046 C 
ATOM      7  C   LIG d   1       9.646  -5.525  -5.737  0.00  0.00    -0.026 C 
ATOM      8  C   LIG d   1       9.574  -5.298  -4.225  0.00  0.00    -0.005 C 
ATOM      9  H   LIG d   1       8.948  -6.077  -3.766  0.00  0.00     0.033 H 
ATOM     10  C   LIG d   1      10.983  -5.359  -3.632  0.00  0.00     0.062 C 
ATOM     11  H   LIG d   1      11.618  -4.553  -4.027  0.00  0.00     0.060 H 
ATOM     12  C   LIG d   1      11.594  -6.735  -3.912  0.00  0.00    -0.004 C 
ATOM     13  H   LIG d   1      10.968  -7.514  -3.452  0.00  0.00     0.033 H 
ATOM     14  C   LIG d   1      11.666  -6.962  -5.423  0.00  0.00    -0.047 C 
ATOM     15  C   LIG d   1      10.257  -6.900  -6.016  0.00  0.00    -0.047 C 
ATOM     16  H   LIG d   1       6.613  -4.044  -6.476  0.00  0.00     0.028 H 
ATOM     17  H   LIG d   1       8.252  -3.309  -6.509  0.00  0.00     0.028 H 
ATOM     18  H   LIG d   1       7.611  -6.243  -5.870  0.00  0.00     0.027 H 
ATOM     19  H   LIG d   1       8.289  -5.627  -7.416  0.00  0.00     0.027 H 
ATOM     20  H   LIG d   1      12.292  -6.183  -5.882  0.00  0.00     0.027 H 
ATOM     21  H   LIG d   1      12.106  -7.951  -5.624  0.00  0.00     0.027 H 
ATOM     22  H   LIG d   1       9.631  -7.680  -5.557  0.00  0.00     0.027 H 
ATOM     23  H   LIG d   1      10.309  -7.064  -7.102  0.00  0.00     0.027 H 
ENDROOT
BRANCH  12  24
ATOM     24  C   LIG d   1      13.003  -6.796  -3.319  0.00  0.00     0.038 C 
ATOM     25  H   LIG d   1      13.300  -5.801  -2.956  0.00  0.00     0.040 H 
BRANCH  24  26
ATOM     26  C   LIG d   1      13.986  -7.275  -4.388  0.00  0.00    -0.054 C 
ATOM     27  H   LIG d   1      14.907  -7.635  -3.905  0.00  0.00     0.024 H 
ATOM     28  H   LIG d   1      14.227  -6.442  -5.064  0.00  0.00     0.024 H 
ATOM     29  H   LIG d   1      13.530  -8.095  -4.964  0.00  0.00     0.024 H 
ENDBRANCH  24  26
BRANCH  24  30
ATOM     30  C   LIG d   1      13.017  -7.756  -2.157  0.00  0.00     0.216 C 
ATOM     31  O   LIG d   1      13.784  -8.696  -2.155  0.00  0.00    -0.276 OA
ATOM     32  N   LIG d   1      12.177  -7.569  -1.120  0.00  0.00    -0.311 N 
ATOM     33  H   LIG d   1      11.481  -6.718  -1.122  0.00  0.00     0.149 HD
BRANCH  32  34
ATOM     34  C   LIG d   1      12.190  -8.502   0.011  0.00  0.00     0.037 C 
ATOM     35  H   LIG d   1      13.127  -9.079  -0.001  0.00  0.00     0.051 H 
ATOM     36  H   LIG d   1      12.117  -7.937   0.952  0.00  0.00     0.051 H 
BRANCH  34  37
ATOM     37  C   LIG d   1      11.019  -9.444  -0.102  0.00  0.00    -0.030 A 
ATOM     38  C   LIG d   1       9.953  -9.127  -0.923  0.00  0.00    -0.057 A 
ATOM     39  C   LIG d   1       8.879  -9.991  -1.025  0.00  0.00    -0.061 A 
ATOM     40  H   LIG d   1       9.959  -8.205  -1.484  0.00  0.00     0.062 H 
ATOM     41  C   LIG d   1       8.872 -11.173  -0.308  0.00  0.00    -0.062 A 
ATOM     42  H   LIG d   1       8.046  -9.745  -1.667  0.00  0.00     0.062 H 
ATOM     43  C   LIG d   1       9.937 -11.490   0.514  0.00  0.00    -0.061 A 
ATOM     44  H   LIG d   1       8.033 -11.848  -0.388  0.00  0.00     0.062 H 
ATOM     45  C   LIG d   1      11.014 -10.628   0.613  0.00  0.00    -0.057 A 
ATOM     46  H   LIG d   1       9.932 -12.412   1.075  0.00  0.00     0.062 H 
ATOM     47  H   LIG d   1      11.848 -10.876   1.252  0.00  0.00     0.062 H 
ENDBRANCH  34  37
ENDBRANCH  32  34
ENDBRANCH  24  30
ENDBRANCH  12  24
BRANCH  10  48
ATOM     48  O   LIG d   1      10.915  -5.146  -2.220  0.00  0.00    -0.391 OA
ATOM     49  H   LIG d   1      10.765  -4.130  -1.824  0.00  0.00     0.210 HD
ENDBRANCH  10  48
BRANCH   1  50
ATOM     50  C   LIG d   1       8.891  -3.695  -2.434  0.00  0.00    -0.060 C 
ATOM     51  H   LIG d   1       9.309  -2.706  -2.192  0.00  0.00     0.023 H 
ATOM     52  H   LIG d   1       9.471  -4.474  -1.918  0.00  0.00     0.023 H 
ATOM     53  H   LIG d   1       7.843  -3.740  -2.106  0.00  0.00     0.023 H 
ENDBRANCH   1  50
BRANCH   7  54
ATOM     54  C   LIG d   1      10.517  -4.441  -6.375  0.00  0.00    -0.059 C 
ATOM     55  H   LIG d   1      11.577  -4.659  -6.178  0.00  0.00     0.024 H 
ATOM     56  H   LIG d   1      10.257  -3.462  -5.944  0.00  0.00     0.024 H 
ATOM     57  H   LIG d   1      10.341  -4.423  -7.460  0.00  0.00     0.024 H 
ENDBRANCH   7  54
BRANCH   3  58
ATOM     58  N   LIG d   1       6.969  -2.544  -4.271  0.00  0.00    -0.312 N 
ATOM     59  C   LIG d   1       5.644  -2.427  -4.055  0.00  0.00     0.216 C 
ATOM     60  O   LIG d   1       4.936  -3.411  -4.084  0.00  0.00    -0.276 OA
ATOM     61  H   LIG d   1       7.612  -1.652  -4.245  0.00  0.00     0.149 HD
BRANCH  59  62
ATOM     62  C   LIG d   1       5.043  -1.073  -3.780  0.00  0.00     0.036 C 
ATOM     63  C   LIG d   1       3.826  -1.232  -2.866  0.00  0.00    -0.042 C 
ATOM     64  C   LIG d   1       3.216   0.143  -2.586  0.00  0.00    -0.052 C 
ATOM     65  H   LIG d   1       3.078  -1.871  -3.359  0.00  0.00     0.027 H 
ATOM     66  H   LIG d   1       4.137  -1.694  -1.918  0.00  0.00     0.027 H 
ATOM     67  C   LIG d   1       4.254   1.033  -1.902  0.00  0.00    -0.053 C 
ATOM     68  H   LIG d   1       2.341   0.029  -1.929  0.00  0.00     0.026 H 
ATOM     69  H   LIG d   1       2.904   0.606  -3.535  0.00  0.00     0.026 H 
ATOM     70  C   LIG d   1       5.472   1.191  -2.815  0.00  0.00    -0.052 C 
ATOM     71  H   LIG d   1       4.566   0.570  -0.954  0.00  0.00     0.026 H 
ATOM     72  H   LIG d   1       3.817   2.021  -1.700  0.00  0.00     0.026 H 
ATOM     73  C   LIG d   1       6.082  -0.184  -3.095  0.00  0.00    -0.042 C 
ATOM     74  H   LIG d   1       6.219   1.831  -2.323  0.00  0.00     0.026 H 
ATOM     75  H   LIG d   1       5.161   1.654  -3.764  0.00  0.00     0.026 H 
ATOM     76  H   LIG d   1       6.393  -0.646  -2.147  0.00  0.00     0.027 H 
ATOM     77  H   LIG d   1       6.957  -0.069  -3.752  0.00  0.00     0.027 H 
ATOM     78  H   LIG d   1       4.736  -0.623  -4.736  0.00  0.00     0.039 H 
ENDBRANCH  59  62
ENDBRANCH   3  58
TORSDOF 10
ENDMDL
