MODEL 1
REMARK VINA RESULT:      -6.1      0.000      0.000
REMARK  13 active torsions:
REMARK  status: ('A' for Active; 'I' for Inactive)
REMARK    1  A    between atoms: C_1  and  C_2 
REMARK    2  A    between atoms: C_2  and  O_3 
REMARK    3  A    between atoms: O_3  and  C_4 
REMARK    4  A    between atoms: C_9  and  O_10 
REMARK    5  A    between atoms: O_10  and  C_11 
REMARK    6  A    between atoms: C_11  and  C_12 
REMARK    7  A    between atoms: C_13  and  C_29 
REMARK    8  A    between atoms: N_15  and  C_19 
REMARK    9  A    between atoms: C_22  and  C_25 
REMARK   10  A    between atoms: C_25  and  O_27 
REMARK   11  A    between atoms: O_27  and  C_28 
REMARK   12  A    between atoms: C_32  and  O_35 
REMARK   13  A    between atoms: O_35  and  C_36 
ROOT
ATOM      1  C   LIG d   1       7.639  -7.505  -4.702  0.00  0.00     0.162 A 
ATOM      2  C   LIG d   1       6.381  -7.360  -5.259  0.00  0.00    -0.012 A 
ATOM      3  C   LIG d   1       5.945  -6.117  -5.693  0.00  0.00    -0.030 A 
ATOM      4  C   LIG d   1       6.766  -5.016  -5.567  0.00  0.00    -0.015 A 
ATOM      5  C   LIG d   1       8.029  -5.157  -5.010  0.00  0.00    -0.011 A 
ATOM      6  C   LIG d   1       8.470  -6.395  -4.577  0.00  0.00     0.162 A 
ATOM      7  C   LIG d   1       6.329  -3.651  -6.021  0.00  0.00     0.082 C 
ATOM      8  H   LIG d   1       7.182  -3.134  -6.460  0.00  0.00     0.060 H 
ATOM      9  N   LIG d   1       5.261  -3.721  -7.002  0.00  0.00    -0.260 N 
ATOM     10  C   LIG d   1       4.452  -4.772  -7.140  0.00  0.00     0.225 C 
ATOM     11  O   LIG d   1       3.582  -4.730  -7.983  0.00  0.00    -0.275 OA
ATOM     12  C   LIG d   1       4.573  -6.005  -6.299  0.00  0.00     0.050 C 
ATOM     13  H   LIG d   1       5.735  -8.220  -5.358  0.00  0.00     0.066 H 
ATOM     14  H   LIG d   1       8.672  -4.295  -4.914  0.00  0.00     0.066 H 
ATOM     15  H   LIG d   1       4.384  -6.881  -6.919  0.00  0.00     0.041 H 
ATOM     16  H   LIG d   1       3.831  -5.965  -5.502  0.00  0.00     0.041 H 
ENDROOT
BRANCH   9  17
ATOM     17  C   LIG d   1       5.071  -2.628  -7.848  0.00  0.00     0.037 A 
ATOM     18  C   LIG d   1       5.963  -2.395  -8.891  0.00  0.00    -0.040 A 
ATOM     19  C   LIG d   1       5.779  -1.318  -9.729  0.00  0.00    -0.046 A 
ATOM     20  H   LIG d   1       6.800  -3.060  -9.044  0.00  0.00     0.064 H 
ATOM     21  C   LIG d   1       4.694  -0.459  -9.531  0.00  0.00     0.059 A 
ATOM     22  H   LIG d   1       6.471  -1.138 -10.538  0.00  0.00     0.063 H 
ATOM     23  C   LIG d   1       3.801  -0.696  -8.481  0.00  0.00    -0.046 A 
ATOM     24  C   LIG d   1       3.988  -1.777  -7.651  0.00  0.00    -0.040 A 
ATOM     25  H   LIG d   1       2.962  -0.034  -8.325  0.00  0.00     0.063 H 
ATOM     26  H   LIG d   1       3.297  -1.964  -6.844  0.00  0.00     0.064 H 
BRANCH  21  27
ATOM     27  C   LIG d   1       4.493   0.696 -10.425  0.00  0.00     0.339 C 
ATOM     28  O   LIG d   1       3.913   0.551 -11.484  0.00  0.00    -0.245 OA
BRANCH  27  29
ATOM     29  O   LIG d   1       4.952   1.912 -10.070  0.00  0.00    -0.465 OA
BRANCH  29  30
ATOM     30  C   LIG d   1       4.062   2.749  -9.286  0.00  0.00     0.082 C 
ATOM     31  H   LIG d   1       4.529   2.981  -8.329  0.00  0.00     0.066 H 
ATOM     32  H   LIG d   1       3.862   3.674  -9.827  0.00  0.00     0.066 H 
ATOM     33  H   LIG d   1       3.124   2.220  -9.114  0.00  0.00     0.066 H 
ENDBRANCH  29  30
ENDBRANCH  27  29
ENDBRANCH  21  27
ENDBRANCH   9  17
BRANCH   7  34
ATOM     34  C   LIG d   1       5.847  -2.870  -4.826  0.00  0.00    -0.022 A 
ATOM     35  C   LIG d   1       6.598  -1.813  -4.344  0.00  0.00    -0.053 A 
ATOM     36  C   LIG d   1       6.158  -1.094  -3.250  0.00  0.00    -0.020 A 
ATOM     37  H   LIG d   1       7.529  -1.549  -4.824  0.00  0.00     0.062 H 
ATOM     38  C   LIG d   1       4.961  -1.433  -2.633  0.00  0.00     0.120 A 
ATOM     39  H   LIG d   1       6.745  -0.269  -2.873  0.00  0.00     0.065 H 
ATOM     40  C   LIG d   1       4.210  -2.494  -3.119  0.00  0.00    -0.020 A 
ATOM     41  C   LIG d   1       4.652  -3.206  -4.218  0.00  0.00    -0.053 A 
ATOM     42  H   LIG d   1       3.280  -2.760  -2.641  0.00  0.00     0.065 H 
ATOM     43  H   LIG d   1       4.066  -4.028  -4.599  0.00  0.00     0.062 H 
BRANCH  38  44
ATOM     44  O   LIG d   1       4.527  -0.727  -1.557  0.00  0.00    -0.495 OA
BRANCH  44  45
ATOM     45  C   LIG d   1       4.539   0.698  -1.668  0.00  0.00     0.079 C 
ATOM     46  H   LIG d   1       5.490   1.022  -2.092  0.00  0.00     0.066 H 
ATOM     47  H   LIG d   1       3.724   1.018  -2.318  0.00  0.00     0.066 H 
ATOM     48  H   LIG d   1       4.411   1.141  -0.681  0.00  0.00     0.066 H 
ENDBRANCH  44  45
ENDBRANCH  38  44
ENDBRANCH   7  34
BRANCH   6  49
ATOM     49  O   LIG d   1       9.708  -6.526  -4.031  0.00  0.00    -0.489 OA
BRANCH  49  50
ATOM     50  C   LIG d   1      10.131  -5.502  -3.130  0.00  0.00     0.087 C 
ATOM     51  H   LIG d   1      11.215  -5.397  -3.181  0.00  0.00     0.069 H 
ATOM     52  H   LIG d   1       9.662  -4.557  -3.407  0.00  0.00     0.069 H 
BRANCH  50  53
ATOM     53  C   LIG d   1       9.722  -5.875  -1.704  0.00  0.00    -0.031 C 
ATOM     54  H   LIG d   1       8.637  -5.830  -1.613  0.00  0.00     0.026 H 
ATOM     55  H   LIG d   1      10.064  -6.885  -1.481  0.00  0.00     0.026 H 
ATOM     56  H   LIG d   1      10.175  -5.175  -1.000  0.00  0.00     0.026 H 
ENDBRANCH  50  53
ENDBRANCH  49  50
ENDBRANCH   6  49
BRANCH   1  57
ATOM     57  O   LIG d   1       8.063  -8.726  -4.279  0.00  0.00    -0.489 OA
BRANCH  57  58
ATOM     58  C   LIG d   1       7.262  -9.388  -3.297  0.00  0.00     0.087 C 
ATOM     59  H   LIG d   1       6.246  -8.996  -3.335  0.00  0.00     0.069 H 
ATOM     60  H   LIG d   1       7.246 -10.458  -3.502  0.00  0.00     0.069 H 
BRANCH  58  61
ATOM     61  C   LIG d   1       7.854  -9.143  -1.908  0.00  0.00    -0.031 C 
ATOM     62  H   LIG d   1       8.480  -9.989  -1.626  0.00  0.00     0.026 H 
ATOM     63  H   LIG d   1       8.455  -8.234  -1.925  0.00  0.00     0.026 H 
ATOM     64  H   LIG d   1       7.047  -9.031  -1.183  0.00  0.00     0.026 H 
ENDBRANCH  58  61
ENDBRANCH  57  58
ENDBRANCH   1  57
TORSDOF 13
ENDMDL
MODEL 2
REMARK VINA RESULT:      -5.5      3.309      8.118
REMARK  13 active torsions:
REMARK  status: ('A' for Active; 'I' for Inactive)
REMARK    1  A    between atoms: C_1  and  C_2 
REMARK    2  A    between atoms: C_2  and  O_3 
REMARK    3  A    between atoms: O_3  and  C_4 
REMARK    4  A    between atoms: C_9  and  O_10 
REMARK    5  A    between atoms: O_10  and  C_11 
REMARK    6  A    between atoms: C_11  and  C_12 
REMARK    7  A    between atoms: C_13  and  C_29 
REMARK    8  A    between atoms: N_15  and  C_19 
REMARK    9  A    between atoms: C_22  and  C_25 
REMARK   10  A    between atoms: C_25  and  O_27 
REMARK   11  A    between atoms: O_27  and  C_28 
REMARK   12  A    between atoms: C_32  and  O_35 
REMARK   13  A    between atoms: O_35  and  C_36 
ROOT
ATOM      1  C   LIG d   1       8.460   2.597  -4.762  0.00  0.00     0.162 A 
ATOM      2  C   LIG d   1       7.658   1.902  -3.872  0.00  0.00    -0.012 A 
ATOM      3  C   LIG d   1       7.058   0.711  -4.251  0.00  0.00    -0.030 A 
ATOM      4  C   LIG d   1       7.256   0.214  -5.523  0.00  0.00    -0.015 A 
ATOM      5  C   LIG d   1       8.060   0.905  -6.417  0.00  0.00    -0.011 A 
ATOM      6  C   LIG d   1       8.662   2.093  -6.044  0.00  0.00     0.162 A 
ATOM      7  C   LIG d   1       6.620  -1.072  -5.974  0.00  0.00     0.082 C 
ATOM      8  H   LIG d   1       7.323  -1.611  -6.608  0.00  0.00     0.060 H 
ATOM      9  N   LIG d   1       6.250  -1.918  -4.853  0.00  0.00    -0.260 N 
ATOM     10  C   LIG d   1       6.048  -1.459  -3.617  0.00  0.00     0.225 C 
ATOM     11  O   LIG d   1       5.731  -2.244  -2.749  0.00  0.00    -0.275 OA
ATOM     12  C   LIG d   1       6.200  -0.015  -3.252  0.00  0.00     0.050 C 
ATOM     13  H   LIG d   1       7.500   2.290  -2.876  0.00  0.00     0.066 H 
ATOM     14  H   LIG d   1       8.216   0.514  -7.412  0.00  0.00     0.066 H 
ATOM     15  H   LIG d   1       6.660   0.059  -2.267  0.00  0.00     0.041 H 
ATOM     16  H   LIG d   1       5.215   0.449  -3.221  0.00  0.00     0.041 H 
ENDROOT
BRANCH   9  17
ATOM     17  C   LIG d   1       6.096  -3.285  -5.082  0.00  0.00     0.037 A 
ATOM     18  C   LIG d   1       7.219  -4.100  -5.196  0.00  0.00    -0.040 A 
ATOM     19  C   LIG d   1       7.072  -5.450  -5.421  0.00  0.00    -0.046 A 
ATOM     20  H   LIG d   1       8.206  -3.672  -5.107  0.00  0.00     0.064 H 
ATOM     21  C   LIG d   1       5.792  -6.002  -5.534  0.00  0.00     0.059 A 
ATOM     22  H   LIG d   1       7.943  -6.081  -5.509  0.00  0.00     0.063 H 
ATOM     23  C   LIG d   1       4.667  -5.180  -5.420  0.00  0.00    -0.046 A 
ATOM     24  C   LIG d   1       4.821  -3.832  -5.190  0.00  0.00    -0.040 A 
ATOM     25  H   LIG d   1       3.677  -5.603  -5.507  0.00  0.00     0.063 H 
ATOM     26  H   LIG d   1       3.953  -3.198  -5.096  0.00  0.00     0.064 H 
BRANCH  21  27
ATOM     27  C   LIG d   1       5.630  -7.448  -5.775  0.00  0.00     0.339 C 
ATOM     28  O   LIG d   1       6.488  -8.063  -6.377  0.00  0.00    -0.245 OA
BRANCH  27  29
ATOM     29  O   LIG d   1       4.530  -8.086  -5.329  0.00  0.00    -0.465 OA
BRANCH  29  30
ATOM     30  C   LIG d   1       4.736  -9.335  -4.618  0.00  0.00     0.082 C 
ATOM     31  H   LIG d   1       3.942  -9.471  -3.885  0.00  0.00     0.066 H 
ATOM     32  H   LIG d   1       4.724 -10.163  -5.326  0.00  0.00     0.066 H 
ATOM     33  H   LIG d   1       5.700  -9.307  -4.109  0.00  0.00     0.066 H 
ENDBRANCH  29  30
ENDBRANCH  27  29
ENDBRANCH  21  27
ENDBRANCH   9  17
BRANCH   7  34
ATOM     34  C   LIG d   1       5.386  -0.751  -6.775  0.00  0.00    -0.022 A 
ATOM     35  C   LIG d   1       4.267  -0.237  -6.146  0.00  0.00    -0.053 A 
ATOM     36  C   LIG d   1       3.134   0.058  -6.879  0.00  0.00    -0.020 A 
ATOM     37  H   LIG d   1       4.280  -0.066  -5.080  0.00  0.00     0.062 H 
ATOM     38  C   LIG d   1       3.119  -0.162  -8.249  0.00  0.00     0.120 A 
ATOM     39  H   LIG d   1       2.261   0.459  -6.386  0.00  0.00     0.065 H 
ATOM     40  C   LIG d   1       4.243  -0.678  -8.879  0.00  0.00    -0.020 A 
ATOM     41  C   LIG d   1       5.375  -0.966  -8.142  0.00  0.00    -0.053 A 
ATOM     42  H   LIG d   1       4.232  -0.850  -9.944  0.00  0.00     0.065 H 
ATOM     43  H   LIG d   1       6.251  -1.363  -8.632  0.00  0.00     0.062 H 
BRANCH  38  44
ATOM     44  O   LIG d   1       2.006   0.128  -8.971  0.00  0.00    -0.495 OA
BRANCH  44  45
ATOM     45  C   LIG d   1       1.550  -0.870  -9.888  0.00  0.00     0.079 C 
ATOM     46  H   LIG d   1       0.986  -1.630  -9.347  0.00  0.00     0.066 H 
ATOM     47  H   LIG d   1       0.909  -0.407 -10.639  0.00  0.00     0.066 H 
ATOM     48  H   LIG d   1       2.406  -1.332 -10.378  0.00  0.00     0.066 H 
ENDBRANCH  44  45
ENDBRANCH  38  44
ENDBRANCH   7  34
BRANCH   6  49
ATOM     49  O   LIG d   1       9.448   2.768  -6.925  0.00  0.00    -0.489 OA
BRANCH  49  50
ATOM     50  C   LIG d   1       9.263   2.478  -8.312  0.00  0.00     0.087 C 
ATOM     51  H   LIG d   1      10.216   2.182  -8.752  0.00  0.00     0.069 H 
ATOM     52  H   LIG d   1       8.545   1.664  -8.421  0.00  0.00     0.069 H 
BRANCH  50  53
ATOM     53  C   LIG d   1       8.736   3.722  -9.028  0.00  0.00    -0.031 C 
ATOM     54  H   LIG d   1       9.448   4.030  -9.794  0.00  0.00     0.026 H 
ATOM     55  H   LIG d   1       7.777   3.495  -9.493  0.00  0.00     0.026 H 
ATOM     56  H   LIG d   1       8.607   4.530  -8.307  0.00  0.00     0.026 H 
ENDBRANCH  50  53
ENDBRANCH  49  50
ENDBRANCH   6  49
BRANCH   1  57
ATOM     57  O   LIG d   1       9.047   3.763  -4.385  0.00  0.00    -0.489 OA
BRANCH  57  58
ATOM     58  C   LIG d   1       9.869   3.728  -3.215  0.00  0.00     0.087 C 
ATOM     59  H   LIG d   1       9.423   3.060  -2.479  0.00  0.00     0.069 H 
ATOM     60  H   LIG d   1      10.863   3.366  -3.480  0.00  0.00     0.069 H 
BRANCH  58  61
ATOM     61  C   LIG d   1       9.979   5.137  -2.627  0.00  0.00    -0.031 C 
ATOM     62  H   LIG d   1      11.019   5.343  -2.373  0.00  0.00     0.026 H 
ATOM     63  H   LIG d   1       9.633   5.864  -3.362  0.00  0.00     0.026 H 
ATOM     64  H   LIG d   1       9.365   5.205  -1.729  0.00  0.00     0.026 H 
ENDBRANCH  58  61
ENDBRANCH  57  58
ENDBRANCH   1  57
TORSDOF 13
ENDMDL
MODEL 3
REMARK VINA RESULT:      -5.5      2.165      8.095
REMARK  13 active torsions:
REMARK  status: ('A' for Active; 'I' for Inactive)
REMARK    1  A    between atoms: C_1  and  C_2 
REMARK    2  A    between atoms: C_2  and  O_3 
REMARK    3  A    between atoms: O_3  and  C_4 
REMARK    4  A    between atoms: C_9  and  O_10 
REMARK    5  A    between atoms: O_10  and  C_11 
REMARK    6  A    between atoms: C_11  and  C_12 
REMARK    7  A    between atoms: C_13  and  C_29 
REMARK    8  A    between atoms: N_15  and  C_19 
REMARK    9  A    between atoms: C_22  and  C_25 
REMARK   10  A    between atoms: C_25  and  O_27 
REMARK   11  A    between atoms: O_27  and  C_28 
REMARK   12  A    between atoms: C_32  and  O_35 
REMARK   13  A    between atoms: O_35  and  C_36 
ROOT
ATOM      1  C   LIG d   1       3.599  -0.085  -6.810  0.00  0.00     0.162 A 
ATOM      2  C   LIG d   1       3.987  -1.048  -7.726  0.00  0.00    -0.012 A 
ATOM      3  C   LIG d   1       4.656  -2.187  -7.306  0.00  0.00    -0.030 A 
ATOM      4  C   LIG d   1       4.942  -2.365  -5.968  0.00  0.00    -0.015 A 
ATOM      5  C   LIG d   1       4.555  -1.403  -5.046  0.00  0.00    -0.011 A 
ATOM      6  C   LIG d   1       3.885  -0.265  -5.459  0.00  0.00     0.162 A 
ATOM      7  C   LIG d   1       5.669  -3.583  -5.473  0.00  0.00     0.082 C 
ATOM      8  H   LIG d   1       5.246  -3.883  -4.514  0.00  0.00     0.060 H 
ATOM      9  N   LIG d   1       5.566  -4.693  -6.403  0.00  0.00    -0.260 N 
ATOM     10  C   LIG d   1       5.295  -4.546  -7.701  0.00  0.00     0.225 C 
ATOM     11  O   LIG d   1       5.241  -5.536  -8.400  0.00  0.00    -0.275 OA
ATOM     12  C   LIG d   1       5.052  -3.211  -8.333  0.00  0.00     0.050 C 
ATOM     13  H   LIG d   1       3.765  -0.911  -8.774  0.00  0.00     0.066 H 
ATOM     14  H   LIG d   1       4.778  -1.544  -3.999  0.00  0.00     0.066 H 
ATOM     15  H   LIG d   1       4.255  -3.304  -9.071  0.00  0.00     0.041 H 
ATOM     16  H   LIG d   1       5.964  -2.884  -8.832  0.00  0.00     0.041 H 
ENDROOT
BRANCH   9  17
ATOM     17  C   LIG d   1       5.761  -5.984  -5.913  0.00  0.00     0.037 A 
ATOM     18  C   LIG d   1       4.668  -6.746  -5.510  0.00  0.00    -0.040 A 
ATOM     19  C   LIG d   1       4.856  -8.021  -5.027  0.00  0.00    -0.046 A 
ATOM     20  H   LIG d   1       3.672  -6.336  -5.578  0.00  0.00     0.064 H 
ATOM     21  C   LIG d   1       6.147  -8.551  -4.941  0.00  0.00     0.059 A 
ATOM     22  H   LIG d   1       4.007  -8.611  -4.715  0.00  0.00     0.063 H 
ATOM     23  C   LIG d   1       7.243  -7.783  -5.346  0.00  0.00    -0.046 A 
ATOM     24  C   LIG d   1       7.047  -6.510  -5.834  0.00  0.00    -0.040 A 
ATOM     25  H   LIG d   1       8.241  -8.188  -5.281  0.00  0.00     0.063 H 
ATOM     26  H   LIG d   1       7.892  -5.919  -6.151  0.00  0.00     0.064 H 
BRANCH  21  27
ATOM     27  C   LIG d   1       6.353  -9.916  -4.423  0.00  0.00     0.339 C 
ATOM     28  O   LIG d   1       6.338 -10.863  -5.185  0.00  0.00    -0.245 OA
BRANCH  27  29
ATOM     29  O   LIG d   1       6.557 -10.114  -3.107  0.00  0.00    -0.465 OA
BRANCH  29  30
ATOM     30  C   LIG d   1       5.426 -10.589  -2.329  0.00  0.00     0.082 C 
ATOM     31  H   LIG d   1       5.525 -10.249  -1.299  0.00  0.00     0.066 H 
ATOM     32  H   LIG d   1       4.502 -10.198  -2.755  0.00  0.00     0.066 H 
ATOM     33  H   LIG d   1       5.403 -11.679  -2.351  0.00  0.00     0.066 H 
ENDBRANCH  29  30
ENDBRANCH  27  29
ENDBRANCH  21  27
ENDBRANCH   9  17
BRANCH   7  34
ATOM     34  C   LIG d   1       7.123  -3.240  -5.278  0.00  0.00    -0.022 A 
ATOM     35  C   LIG d   1       7.852  -2.702  -6.323  0.00  0.00    -0.053 A 
ATOM     36  C   LIG d   1       9.185  -2.385  -6.147  0.00  0.00    -0.020 A 
ATOM     37  H   LIG d   1       7.378  -2.529  -7.278  0.00  0.00     0.062 H 
ATOM     38  C   LIG d   1       9.793  -2.607  -4.920  0.00  0.00     0.120 A 
ATOM     39  H   LIG d   1       9.753  -1.965  -6.964  0.00  0.00     0.065 H 
ATOM     40  C   LIG d   1       9.060  -3.148  -3.873  0.00  0.00    -0.020 A 
ATOM     41  C   LIG d   1       7.726  -3.457  -4.053  0.00  0.00    -0.053 A 
ATOM     42  H   LIG d   1       9.532  -3.322  -2.918  0.00  0.00     0.065 H 
ATOM     43  H   LIG d   1       7.154  -3.873  -3.237  0.00  0.00     0.062 H 
BRANCH  38  44
ATOM     44  O   LIG d   1      11.104  -2.297  -4.745  0.00  0.00    -0.495 OA
BRANCH  44  45
ATOM     45  C   LIG d   1      11.840  -3.092  -3.812  0.00  0.00     0.079 C 
ATOM     46  H   LIG d   1      12.024  -4.077  -4.241  0.00  0.00     0.066 H 
ATOM     47  H   LIG d   1      12.792  -2.607  -3.593  0.00  0.00     0.066 H 
ATOM     48  H   LIG d   1      11.266  -3.198  -2.892  0.00  0.00     0.066 H 
ENDBRANCH  44  45
ENDBRANCH  38  44
ENDBRANCH   7  34
BRANCH   6  49
ATOM     49  O   LIG d   1       3.510   0.674  -4.551  0.00  0.00    -0.489 OA
BRANCH  49  50
ATOM     50  C   LIG d   1       3.170   0.212  -3.243  0.00  0.00     0.087 C 
ATOM     51  H   LIG d   1       2.096   0.318  -3.087  0.00  0.00     0.069 H 
ATOM     52  H   LIG d   1       3.449  -0.838  -3.144  0.00  0.00     0.069 H 
BRANCH  50  53
ATOM     53  C   LIG d   1       3.920   1.040  -2.198  0.00  0.00    -0.031 C 
ATOM     54  H   LIG d   1       3.515   0.830  -1.208  0.00  0.00     0.026 H 
ATOM     55  H   LIG d   1       4.978   0.779  -2.219  0.00  0.00     0.026 H 
ATOM     56  H   LIG d   1       3.804   2.101  -2.421  0.00  0.00     0.026 H 
ENDBRANCH  50  53
ENDBRANCH  49  50
ENDBRANCH   6  49
BRANCH   1  57
ATOM     57  O   LIG d   1       2.942   1.030  -7.226  0.00  0.00    -0.489 OA
BRANCH  57  58
ATOM     58  C   LIG d   1       2.803   1.212  -8.637  0.00  0.00     0.087 C 
ATOM     59  H   LIG d   1       3.225   0.353  -9.157  0.00  0.00     0.069 H 
ATOM     60  H   LIG d   1       1.746   1.306  -8.889  0.00  0.00     0.069 H 
BRANCH  58  61
ATOM     61  C   LIG d   1       3.543   2.482  -9.062  0.00  0.00    -0.031 C 
ATOM     62  H   LIG d   1       3.353   3.273  -8.335  0.00  0.00     0.026 H 
ATOM     63  H   LIG d   1       4.613   2.280  -9.109  0.00  0.00     0.026 H 
ATOM     64  H   LIG d   1       3.189   2.798 -10.043  0.00  0.00     0.026 H 
ENDBRANCH  58  61
ENDBRANCH  57  58
ENDBRANCH   1  57
TORSDOF 13
ENDMDL
MODEL 4
REMARK VINA RESULT:      -5.4      1.916      8.228
REMARK  13 active torsions:
REMARK  status: ('A' for Active; 'I' for Inactive)
REMARK    1  A    between atoms: C_1  and  C_2 
REMARK    2  A    between atoms: C_2  and  O_3 
REMARK    3  A    between atoms: O_3  and  C_4 
REMARK    4  A    between atoms: C_9  and  O_10 
REMARK    5  A    between atoms: O_10  and  C_11 
REMARK    6  A    between atoms: C_11  and  C_12 
REMARK    7  A    between atoms: C_13  and  C_29 
REMARK    8  A    between atoms: N_15  and  C_19 
REMARK    9  A    between atoms: C_22  and  C_25 
REMARK   10  A    between atoms: C_25  and  O_27 
REMARK   11  A    between atoms: O_27  and  C_28 
REMARK   12  A    between atoms: C_32  and  O_35 
REMARK   13  A    between atoms: O_35  and  C_36 
ROOT
ATOM      1  C   LIG d   1       6.029  -1.529  -9.402  0.00  0.00     0.162 A 
ATOM      2  C   LIG d   1       7.246  -1.318  -8.777  0.00  0.00    -0.012 A 
ATOM      3  C   LIG d   1       7.523  -1.920  -7.560  0.00  0.00    -0.030 A 
ATOM      4  C   LIG d   1       6.582  -2.734  -6.963  0.00  0.00    -0.015 A 
ATOM      5  C   LIG d   1       5.362  -2.950  -7.587  0.00  0.00    -0.011 A 
ATOM      6  C   LIG d   1       5.080  -2.352  -8.802  0.00  0.00     0.162 A 
ATOM      7  C   LIG d   1       6.843  -3.403  -5.643  0.00  0.00     0.082 C 
ATOM      8  H   LIG d   1       6.405  -4.400  -5.658  0.00  0.00     0.060 H 
ATOM      9  N   LIG d   1       8.263  -3.514  -5.360  0.00  0.00    -0.260 N 
ATOM     10  C   LIG d   1       9.190  -2.736  -5.921  0.00  0.00     0.225 C 
ATOM     11  O   LIG d   1      10.351  -2.899  -5.611  0.00  0.00    -0.275 OA
ATOM     12  C   LIG d   1       8.860  -1.670  -6.919  0.00  0.00     0.050 C 
ATOM     13  H   LIG d   1       7.984  -0.680  -9.242  0.00  0.00     0.066 H 
ATOM     14  H   LIG d   1       4.627  -3.588  -7.119  0.00  0.00     0.066 H 
ATOM     15  H   LIG d   1       9.629  -1.653  -7.691  0.00  0.00     0.041 H 
ATOM     16  H   LIG d   1       8.840  -0.705  -6.414  0.00  0.00     0.041 H 
ENDROOT
BRANCH   9  17
ATOM     17  C   LIG d   1       8.680  -4.487  -4.453  0.00  0.00     0.037 A 
ATOM     18  C   LIG d   1       8.576  -5.835  -4.784  0.00  0.00    -0.040 A 
ATOM     19  C   LIG d   1       8.987  -6.799  -3.892  0.00  0.00    -0.046 A 
ATOM     20  H   LIG d   1       8.171  -6.124  -5.742  0.00  0.00     0.064 H 
ATOM     21  C   LIG d   1       9.511  -6.422  -2.651  0.00  0.00     0.059 A 
ATOM     22  H   LIG d   1       8.906  -7.844  -4.150  0.00  0.00     0.063 H 
ATOM     23  C   LIG d   1       9.614  -5.067  -2.322  0.00  0.00    -0.046 A 
ATOM     24  C   LIG d   1       9.205  -4.109  -3.221  0.00  0.00    -0.040 A 
ATOM     25  H   LIG d   1      10.017  -4.773  -1.364  0.00  0.00     0.063 H 
ATOM     26  H   LIG d   1       9.289  -3.063  -2.969  0.00  0.00     0.064 H 
BRANCH  21  27
ATOM     27  C   LIG d   1       9.953  -7.452  -1.692  0.00  0.00     0.339 C 
ATOM     28  O   LIG d   1      10.835  -7.200  -0.895  0.00  0.00    -0.245 OA
BRANCH  27  29
ATOM     29  O   LIG d   1       9.379  -8.671  -1.700  0.00  0.00    -0.465 OA
BRANCH  29  30
ATOM     30  C   LIG d   1       9.890  -9.645  -0.753  0.00  0.00     0.082 C 
ATOM     31  H   LIG d   1       9.523 -10.637  -1.018  0.00  0.00     0.066 H 
ATOM     32  H   LIG d   1      10.980  -9.641  -0.779  0.00  0.00     0.066 H 
ATOM     33  H   LIG d   1       9.551  -9.388   0.251  0.00  0.00     0.066 H 
ENDBRANCH  29  30
ENDBRANCH  27  29
ENDBRANCH  21  27
ENDBRANCH   9  17
BRANCH   7  34
ATOM     34  C   LIG d   1       6.187  -2.599  -4.550  0.00  0.00    -0.022 A 
ATOM     35  C   LIG d   1       6.800  -1.457  -4.070  0.00  0.00    -0.053 A 
ATOM     36  C   LIG d   1       6.200  -0.717  -3.069  0.00  0.00    -0.020 A 
ATOM     37  H   LIG d   1       7.749  -1.142  -4.478  0.00  0.00     0.062 H 
ATOM     38  C   LIG d   1       4.981  -1.122  -2.544  0.00  0.00     0.120 A 
ATOM     39  H   LIG d   1       6.680   0.175  -2.693  0.00  0.00     0.065 H 
ATOM     40  C   LIG d   1       4.367  -2.270  -3.028  0.00  0.00    -0.020 A 
ATOM     41  C   LIG d   1       4.969  -3.001  -4.034  0.00  0.00    -0.053 A 
ATOM     42  H   LIG d   1       3.419  -2.586  -2.621  0.00  0.00     0.065 H 
ATOM     43  H   LIG d   1       4.490  -3.891  -4.413  0.00  0.00     0.062 H 
BRANCH  38  44
ATOM     44  O   LIG d   1       4.389  -0.397  -1.560  0.00  0.00    -0.495 OA
BRANCH  44  45
ATOM     45  C   LIG d   1       4.412   1.025  -1.700  0.00  0.00     0.079 C 
ATOM     46  H   LIG d   1       5.265   1.431  -1.156  0.00  0.00     0.066 H 
ATOM     47  H   LIG d   1       4.497   1.286  -2.755  0.00  0.00     0.066 H 
ATOM     48  H   LIG d   1       3.491   1.446  -1.296  0.00  0.00     0.066 H 
ENDBRANCH  44  45
ENDBRANCH  38  44
ENDBRANCH   7  34
BRANCH   6  49
ATOM     49  O   LIG d   1       3.882  -2.566  -9.407  0.00  0.00    -0.489 OA
BRANCH  49  50
ATOM     50  C   LIG d   1       2.779  -1.775  -8.960  0.00  0.00     0.087 C 
ATOM     51  H   LIG d   1       2.407  -2.170  -8.015  0.00  0.00     0.069 H 
ATOM     52  H   LIG d   1       3.105  -0.744  -8.819  0.00  0.00     0.069 H 
BRANCH  50  53
ATOM     53  C   LIG d   1       1.663  -1.818 -10.005  0.00  0.00    -0.031 C 
ATOM     54  H   LIG d   1       1.387  -2.855 -10.200  0.00  0.00     0.026 H 
ATOM     55  H   LIG d   1       0.795  -1.275  -9.632  0.00  0.00     0.026 H 
ATOM     56  H   LIG d   1       2.011  -1.356 -10.930  0.00  0.00     0.026 H 
ENDBRANCH  50  53
ENDBRANCH  49  50
ENDBRANCH   6  49
BRANCH   1  57
ATOM     57  O   LIG d   1       5.762  -0.937 -10.597  0.00  0.00    -0.489 OA
BRANCH  57  58
ATOM     58  C   LIG d   1       5.432   0.454 -10.573  0.00  0.00     0.087 C 
ATOM     59  H   LIG d   1       5.330   0.784  -9.540  0.00  0.00     0.069 H 
ATOM     60  H   LIG d   1       6.225   1.024 -11.059  0.00  0.00     0.069 H 
BRANCH  58  61
ATOM     61  C   LIG d   1       4.113   0.678 -11.315  0.00  0.00    -0.031 C 
ATOM     62  H   LIG d   1       4.320   1.059 -12.315  0.00  0.00     0.026 H 
ATOM     63  H   LIG d   1       3.574  -0.266 -11.389  0.00  0.00     0.026 H 
ATOM     64  H   LIG d   1       3.507   1.401 -10.769  0.00  0.00     0.026 H 
ENDBRANCH  58  61
ENDBRANCH  57  58
ENDBRANCH   1  57
TORSDOF 13
ENDMDL
MODEL 5
REMARK VINA RESULT:      -5.3      2.655      5.459
REMARK  13 active torsions:
REMARK  status: ('A' for Active; 'I' for Inactive)
REMARK    1  A    between atoms: C_1  and  C_2 
REMARK    2  A    between atoms: C_2  and  O_3 
REMARK    3  A    between atoms: O_3  and  C_4 
REMARK    4  A    between atoms: C_9  and  O_10 
REMARK    5  A    between atoms: O_10  and  C_11 
REMARK    6  A    between atoms: C_11  and  C_12 
REMARK    7  A    between atoms: C_13  and  C_29 
REMARK    8  A    between atoms: N_15  and  C_19 
REMARK    9  A    between atoms: C_22  and  C_25 
REMARK   10  A    between atoms: C_25  and  O_27 
REMARK   11  A    between atoms: O_27  and  C_28 
REMARK   12  A    between atoms: C_32  and  O_35 
REMARK   13  A    between atoms: O_35  and  C_36 
ROOT
ATOM      1  C   LIG d   1       7.058  -8.965  -5.102  0.00  0.00     0.162 A 
ATOM      2  C   LIG d   1       7.823  -7.811  -5.077  0.00  0.00    -0.012 A 
ATOM      3  C   LIG d   1       7.224  -6.570  -5.226  0.00  0.00    -0.030 A 
ATOM      4  C   LIG d   1       5.859  -6.479  -5.404  0.00  0.00    -0.015 A 
ATOM      5  C   LIG d   1       5.088  -7.633  -5.428  0.00  0.00    -0.011 A 
ATOM      6  C   LIG d   1       5.680  -8.874  -5.278  0.00  0.00     0.162 A 
ATOM      7  C   LIG d   1       5.173  -5.153  -5.573  0.00  0.00     0.082 C 
ATOM      8  H   LIG d   1       4.214  -5.182  -5.056  0.00  0.00     0.060 H 
ATOM      9  N   LIG d   1       5.964  -4.059  -5.040  0.00  0.00    -0.260 N 
ATOM     10  C   LIG d   1       7.285  -4.121  -4.864  0.00  0.00     0.225 C 
ATOM     11  O   LIG d   1       7.860  -3.149  -4.422  0.00  0.00    -0.275 OA
ATOM     12  C   LIG d   1       8.091  -5.341  -5.186  0.00  0.00     0.050 C 
ATOM     13  H   LIG d   1       8.892  -7.879  -4.939  0.00  0.00     0.066 H 
ATOM     14  H   LIG d   1       4.020  -7.561  -5.566  0.00  0.00     0.066 H 
ATOM     15  H   LIG d   1       8.861  -5.473  -4.426  0.00  0.00     0.041 H 
ATOM     16  H   LIG d   1       8.566  -5.206  -6.156  0.00  0.00     0.041 H 
ENDROOT
BRANCH   9  17
ATOM     17  C   LIG d   1       5.308  -2.878  -4.693  0.00  0.00     0.037 A 
ATOM     18  C   LIG d   1       5.519  -1.722  -5.439  0.00  0.00    -0.040 A 
ATOM     19  C   LIG d   1       4.873  -0.555  -5.101  0.00  0.00    -0.046 A 
ATOM     20  H   LIG d   1       6.189  -1.742  -6.285  0.00  0.00     0.064 H 
ATOM     21  C   LIG d   1       4.004  -0.531  -4.006  0.00  0.00     0.059 A 
ATOM     22  H   LIG d   1       5.037   0.341  -5.680  0.00  0.00     0.063 H 
ATOM     23  C   LIG d   1       3.796  -1.694  -3.258  0.00  0.00    -0.046 A 
ATOM     24  C   LIG d   1       4.441  -2.859  -3.605  0.00  0.00    -0.040 A 
ATOM     25  H   LIG d   1       3.126  -1.680  -2.411  0.00  0.00     0.063 H 
ATOM     26  H   LIG d   1       4.277  -3.759  -3.031  0.00  0.00     0.064 H 
BRANCH  21  27
ATOM     27  C   LIG d   1       3.310   0.717  -3.639  0.00  0.00     0.339 C 
ATOM     28  O   LIG d   1       2.734   1.364  -4.491  0.00  0.00    -0.245 OA
BRANCH  27  29
ATOM     29  O   LIG d   1       3.317   1.141  -2.360  0.00  0.00    -0.465 OA
BRANCH  29  30
ATOM     30  C   LIG d   1       4.579   1.062  -1.646  0.00  0.00     0.082 C 
ATOM     31  H   LIG d   1       4.514   1.646  -0.728  0.00  0.00     0.066 H 
ATOM     32  H   LIG d   1       4.793   0.022  -1.401  0.00  0.00     0.066 H 
ATOM     33  H   LIG d   1       5.376   1.459  -2.275  0.00  0.00     0.066 H 
ENDBRANCH  29  30
ENDBRANCH  27  29
ENDBRANCH  21  27
ENDBRANCH   9  17
BRANCH   7  34
ATOM     34  C   LIG d   1       4.929  -4.913  -7.040  0.00  0.00    -0.022 A 
ATOM     35  C   LIG d   1       3.639  -4.929  -7.538  0.00  0.00    -0.053 A 
ATOM     36  C   LIG d   1       3.412  -4.708  -8.882  0.00  0.00    -0.020 A 
ATOM     37  H   LIG d   1       2.807  -5.114  -6.874  0.00  0.00     0.062 H 
ATOM     38  C   LIG d   1       4.481  -4.469  -9.735  0.00  0.00     0.120 A 
ATOM     39  H   LIG d   1       2.404  -4.721  -9.270  0.00  0.00     0.065 H 
ATOM     40  C   LIG d   1       5.775  -4.454  -9.233  0.00  0.00    -0.020 A 
ATOM     41  C   LIG d   1       5.995  -4.669  -7.887  0.00  0.00    -0.053 A 
ATOM     42  H   LIG d   1       6.607  -4.269  -9.895  0.00  0.00     0.065 H 
ATOM     43  H   LIG d   1       7.001  -4.653  -7.496  0.00  0.00     0.062 H 
BRANCH  38  44
ATOM     44  O   LIG d   1       4.260  -4.252 -11.057  0.00  0.00    -0.495 OA
BRANCH  44  45
ATOM     45  C   LIG d   1       3.533  -3.072 -11.408  0.00  0.00     0.079 C 
ATOM     46  H   LIG d   1       3.996  -2.604 -12.277  0.00  0.00     0.066 H 
ATOM     47  H   LIG d   1       2.502  -3.338 -11.645  0.00  0.00     0.066 H 
ATOM     48  H   LIG d   1       3.544  -2.375 -10.570  0.00  0.00     0.066 H 
ENDBRANCH  44  45
ENDBRANCH  38  44
ENDBRANCH   7  34
BRANCH   6  49
ATOM     49  O   LIG d   1       4.920 -10.001  -5.305  0.00  0.00    -0.489 OA
BRANCH  49  50
ATOM     50  C   LIG d   1       4.015 -10.198  -4.217  0.00  0.00     0.087 C 
ATOM     51  H   LIG d   1       3.726  -9.232  -3.804  0.00  0.00     0.069 H 
ATOM     52  H   LIG d   1       3.127 -10.721  -4.574  0.00  0.00     0.069 H 
BRANCH  50  53
ATOM     53  C   LIG d   1       4.696 -11.034  -3.132  0.00  0.00    -0.031 C 
ATOM     54  H   LIG d   1       4.126 -11.948  -2.966  0.00  0.00     0.026 H 
ATOM     55  H   LIG d   1       5.707 -11.289  -3.450  0.00  0.00     0.026 H 
ATOM     56  H   LIG d   1       4.741 -10.461  -2.205  0.00  0.00     0.026 H 
ENDBRANCH  50  53
ENDBRANCH  49  50
ENDBRANCH   6  49
BRANCH   1  57
ATOM     57  O   LIG d   1       7.650 -10.180  -4.954  0.00  0.00    -0.489 OA
BRANCH  57  58
ATOM     58  C   LIG d   1       8.978 -10.196  -4.426  0.00  0.00     0.087 C 
ATOM     59  H   LIG d   1       9.636 -10.725  -5.115  0.00  0.00     0.069 H 
ATOM     60  H   LIG d   1       9.331  -9.171  -4.301  0.00  0.00     0.069 H 
BRANCH  58  61
ATOM     61  C   LIG d   1       8.980 -10.904  -3.070  0.00  0.00    -0.031 C 
ATOM     62  H   LIG d   1       9.975 -10.840  -2.629  0.00  0.00     0.026 H 
ATOM     63  H   LIG d   1       8.257 -10.426  -2.410  0.00  0.00     0.026 H 
ATOM     64  H   LIG d   1       8.711 -11.952  -3.207  0.00  0.00     0.026 H 
ENDBRANCH  58  61
ENDBRANCH  57  58
ENDBRANCH   1  57
TORSDOF 13
ENDMDL
MODEL 6
REMARK VINA RESULT:      -5.2      3.469      6.501
REMARK  13 active torsions:
REMARK  status: ('A' for Active; 'I' for Inactive)
REMARK    1  A    between atoms: C_1  and  C_2 
REMARK    2  A    between atoms: C_2  and  O_3 
REMARK    3  A    between atoms: O_3  and  C_4 
REMARK    4  A    between atoms: C_9  and  O_10 
REMARK    5  A    between atoms: O_10  and  C_11 
REMARK    6  A    between atoms: C_11  and  C_12 
REMARK    7  A    between atoms: C_13  and  C_29 
REMARK    8  A    between atoms: N_15  and  C_19 
REMARK    9  A    between atoms: C_22  and  C_25 
REMARK   10  A    between atoms: C_25  and  O_27 
REMARK   11  A    between atoms: O_27  and  C_28 
REMARK   12  A    between atoms: C_32  and  O_35 
REMARK   13  A    between atoms: O_35  and  C_36 
ROOT
ATOM      1  C   LIG d   1       3.890  -0.852  -4.393  0.00  0.00     0.162 A 
ATOM      2  C   LIG d   1       3.184  -0.083  -5.303  0.00  0.00    -0.012 A 
ATOM      3  C   LIG d   1       3.512  -0.112  -6.649  0.00  0.00    -0.030 A 
ATOM      4  C   LIG d   1       4.549  -0.909  -7.089  0.00  0.00    -0.015 A 
ATOM      5  C   LIG d   1       5.258  -1.683  -6.181  0.00  0.00    -0.011 A 
ATOM      6  C   LIG d   1       4.934  -1.659  -4.837  0.00  0.00     0.162 A 
ATOM      7  C   LIG d   1       4.938  -0.967  -8.540  0.00  0.00     0.082 C 
ATOM      8  H   LIG d   1       5.216  -1.990  -8.792  0.00  0.00     0.060 H 
ATOM      9  N   LIG d   1       3.856  -0.542  -9.410  0.00  0.00    -0.260 N 
ATOM     10  C   LIG d   1       2.846   0.232  -9.009  0.00  0.00     0.225 C 
ATOM     11  O   LIG d   1       1.995   0.541  -9.815  0.00  0.00    -0.275 OA
ATOM     12  C   LIG d   1       2.716   0.733  -7.604  0.00  0.00     0.050 C 
ATOM     13  H   LIG d   1       2.373   0.544  -4.961  0.00  0.00     0.066 H 
ATOM     14  H   LIG d   1       6.068  -2.308  -6.527  0.00  0.00     0.066 H 
ATOM     15  H   LIG d   1       1.666   0.710  -7.312  0.00  0.00     0.041 H 
ATOM     16  H   LIG d   1       3.077   1.760  -7.560  0.00  0.00     0.041 H 
ENDROOT
BRANCH   9  17
ATOM     17  C   LIG d   1       3.873  -0.967 -10.738  0.00  0.00     0.037 A 
ATOM     18  C   LIG d   1       4.274  -0.091 -11.743  0.00  0.00    -0.040 A 
ATOM     19  C   LIG d   1       4.293  -0.507 -13.054  0.00  0.00    -0.046 A 
ATOM     20  H   LIG d   1       4.572   0.916 -11.491  0.00  0.00     0.064 H 
ATOM     21  C   LIG d   1       3.908  -1.811 -13.378  0.00  0.00     0.059 A 
ATOM     22  H   LIG d   1       4.605   0.174 -13.833  0.00  0.00     0.063 H 
ATOM     23  C   LIG d   1       3.505  -2.689 -12.367  0.00  0.00    -0.046 A 
ATOM     24  C   LIG d   1       3.493  -2.268 -11.056  0.00  0.00    -0.040 A 
ATOM     25  H   LIG d   1       3.206  -3.697 -12.613  0.00  0.00     0.063 H 
ATOM     26  H   LIG d   1       3.187  -2.946 -10.275  0.00  0.00     0.064 H 
BRANCH  21  27
ATOM     27  C   LIG d   1       3.926  -2.261 -14.782  0.00  0.00     0.339 C 
ATOM     28  O   LIG d   1       2.993  -2.900 -15.227  0.00  0.00    -0.245 OA
BRANCH  27  29
ATOM     29  O   LIG d   1       4.977  -1.964 -15.571  0.00  0.00    -0.465 OA
BRANCH  29  30
ATOM     30  C   LIG d   1       4.705  -1.182 -16.765  0.00  0.00     0.082 C 
ATOM     31  H   LIG d   1       3.750  -0.671 -16.653  0.00  0.00     0.066 H 
ATOM     32  H   LIG d   1       5.498  -0.447 -16.906  0.00  0.00     0.066 H 
ATOM     33  H   LIG d   1       4.665  -1.844 -17.630  0.00  0.00     0.066 H 
ENDBRANCH  29  30
ENDBRANCH  27  29
ENDBRANCH  21  27
ENDBRANCH   9  17
BRANCH   7  34
ATOM     34  C   LIG d   1       6.127  -0.069  -8.763  0.00  0.00    -0.022 A 
ATOM     35  C   LIG d   1       7.347  -0.615  -9.118  0.00  0.00    -0.053 A 
ATOM     36  C   LIG d   1       8.439   0.206  -9.324  0.00  0.00    -0.020 A 
ATOM     37  H   LIG d   1       7.446  -1.684  -9.235  0.00  0.00     0.062 H 
ATOM     38  C   LIG d   1       8.312   1.579  -9.174  0.00  0.00     0.120 A 
ATOM     39  H   LIG d   1       9.392  -0.221  -9.601  0.00  0.00     0.065 H 
ATOM     40  C   LIG d   1       7.086   2.125  -8.817  0.00  0.00    -0.020 A 
ATOM     41  C   LIG d   1       5.996   1.300  -8.619  0.00  0.00    -0.053 A 
ATOM     42  H   LIG d   1       6.985   3.193  -8.699  0.00  0.00     0.065 H 
ATOM     43  H   LIG d   1       5.042   1.724  -8.345  0.00  0.00     0.062 H 
BRANCH  38  44
ATOM     44  O   LIG d   1       9.384   2.388  -9.376  0.00  0.00    -0.495 OA
BRANCH  44  45
ATOM     45  C   LIG d   1       9.173   3.794  -9.229  0.00  0.00     0.079 C 
ATOM     46  H   LIG d   1       8.588   4.164 -10.072  0.00  0.00     0.066 H 
ATOM     47  H   LIG d   1       8.633   3.985  -8.301  0.00  0.00     0.066 H 
ATOM     48  H   LIG d   1      10.134   4.306  -9.201  0.00  0.00     0.066 H 
ENDBRANCH  44  45
ENDBRANCH  38  44
ENDBRANCH   7  34
BRANCH   6  49
ATOM     49  O   LIG d   1       5.633  -2.417  -3.952  0.00  0.00    -0.489 OA
BRANCH  49  50
ATOM     50  C   LIG d   1       6.894  -1.908  -3.515  0.00  0.00     0.087 C 
ATOM     51  H   LIG d   1       7.106  -0.971  -4.030  0.00  0.00     0.069 H 
ATOM     52  H   LIG d   1       6.863  -1.731  -2.439  0.00  0.00     0.069 H 
BRANCH  50  53
ATOM     53  C   LIG d   1       7.993  -2.924  -3.833  0.00  0.00    -0.031 C 
ATOM     54  H   LIG d   1       8.403  -2.720  -4.822  0.00  0.00     0.026 H 
ATOM     55  H   LIG d   1       8.785  -2.846  -3.088  0.00  0.00     0.026 H 
ATOM     56  H   LIG d   1       7.575  -3.931  -3.814  0.00  0.00     0.026 H 
ENDBRANCH  50  53
ENDBRANCH  49  50
ENDBRANCH   6  49
BRANCH   1  57
ATOM     57  O   LIG d   1       3.563  -0.820  -3.073  0.00  0.00    -0.489 OA
BRANCH  57  58
ATOM     58  C   LIG d   1       3.360   0.467  -2.485  0.00  0.00     0.087 C 
ATOM     59  H   LIG d   1       3.162   1.196  -3.270  0.00  0.00     0.069 H 
ATOM     60  H   LIG d   1       2.508   0.425  -1.805  0.00  0.00     0.069 H 
BRANCH  58  61
ATOM     61  C   LIG d   1       4.613   0.877  -1.710  0.00  0.00    -0.031 C 
ATOM     62  H   LIG d   1       4.333   1.172  -0.698  0.00  0.00     0.026 H 
ATOM     63  H   LIG d   1       5.303   0.035  -1.665  0.00  0.00     0.026 H 
ATOM     64  H   LIG d   1       5.094   1.716  -2.213  0.00  0.00     0.026 H 
ENDBRANCH  58  61
ENDBRANCH  57  58
ENDBRANCH   1  57
TORSDOF 13
ENDMDL
MODEL 7
REMARK VINA RESULT:      -5.1      3.996      6.446
REMARK  13 active torsions:
REMARK  status: ('A' for Active; 'I' for Inactive)
REMARK    1  A    between atoms: C_1  and  C_2 
REMARK    2  A    between atoms: C_2  and  O_3 
REMARK    3  A    between atoms: O_3  and  C_4 
REMARK    4  A    between atoms: C_9  and  O_10 
REMARK    5  A    between atoms: O_10  and  C_11 
REMARK    6  A    between atoms: C_11  and  C_12 
REMARK    7  A    between atoms: C_13  and  C_29 
REMARK    8  A    between atoms: N_15  and  C_19 
REMARK    9  A    between atoms: C_22  and  C_25 
REMARK   10  A    between atoms: C_25  and  O_27 
REMARK   11  A    between atoms: O_27  and  C_28 
REMARK   12  A    between atoms: C_32  and  O_35 
REMARK   13  A    between atoms: O_35  and  C_36 
ROOT
ATOM      1  C   LIG d   1       1.599  -4.138 -10.275  0.00  0.00     0.162 A 
ATOM      2  C   LIG d   1       1.574  -2.818 -10.693  0.00  0.00    -0.012 A 
ATOM      3  C   LIG d   1       2.515  -1.916 -10.223  0.00  0.00    -0.030 A 
ATOM      4  C   LIG d   1       3.483  -2.330  -9.332  0.00  0.00    -0.015 A 
ATOM      5  C   LIG d   1       3.514  -3.652  -8.911  0.00  0.00    -0.011 A 
ATOM      6  C   LIG d   1       2.578  -4.557  -9.378  0.00  0.00     0.162 A 
ATOM      7  C   LIG d   1       4.519  -1.381  -8.796  0.00  0.00     0.082 C 
ATOM      8  H   LIG d   1       5.470  -1.907  -8.710  0.00  0.00     0.060 H 
ATOM      9  N   LIG d   1       4.693  -0.225  -9.656  0.00  0.00    -0.260 N 
ATOM     10  C   LIG d   1       3.770   0.198 -10.522  0.00  0.00     0.225 C 
ATOM     11  O   LIG d   1       4.006   1.182 -11.190  0.00  0.00    -0.275 OA
ATOM     12  C   LIG d   1       2.455  -0.493 -10.708  0.00  0.00     0.050 C 
ATOM     13  H   LIG d   1       0.816  -2.491 -11.390  0.00  0.00     0.066 H 
ATOM     14  H   LIG d   1       4.273  -3.975  -8.215  0.00  0.00     0.066 H 
ATOM     15  H   LIG d   1       2.194  -0.488 -11.766  0.00  0.00     0.041 H 
ATOM     16  H   LIG d   1       1.690   0.044 -10.149  0.00  0.00     0.041 H 
ENDROOT
BRANCH   9  17
ATOM     17  C   LIG d   1       5.892   0.484  -9.573  0.00  0.00     0.037 A 
ATOM     18  C   LIG d   1       7.037  -0.015 -10.187  0.00  0.00    -0.040 A 
ATOM     19  C   LIG d   1       8.221   0.681 -10.108  0.00  0.00    -0.046 A 
ATOM     20  H   LIG d   1       6.996  -0.949 -10.727  0.00  0.00     0.064 H 
ATOM     21  C   LIG d   1       8.273   1.892  -9.410  0.00  0.00     0.059 A 
ATOM     22  H   LIG d   1       9.109   0.294 -10.585  0.00  0.00     0.063 H 
ATOM     23  C   LIG d   1       7.121   2.390  -8.793  0.00  0.00    -0.046 A 
ATOM     24  C   LIG d   1       5.939   1.690  -8.881  0.00  0.00    -0.040 A 
ATOM     25  H   LIG d   1       7.157   3.323  -8.253  0.00  0.00     0.063 H 
ATOM     26  H   LIG d   1       5.048   2.076  -8.410  0.00  0.00     0.064 H 
BRANCH  21  27
ATOM     27  C   LIG d   1       9.540   2.641  -9.322  0.00  0.00     0.339 C 
ATOM     28  O   LIG d   1      10.319   2.414  -8.417  0.00  0.00    -0.245 OA
BRANCH  27  29
ATOM     29  O   LIG d   1       9.834   3.578 -10.245  0.00  0.00    -0.465 OA
BRANCH  29  30
ATOM     30  C   LIG d   1       9.597   4.963  -9.876  0.00  0.00     0.082 C 
ATOM     31  H   LIG d   1       8.627   5.279 -10.259  0.00  0.00     0.066 H 
ATOM     32  H   LIG d   1       9.608   5.056  -8.790  0.00  0.00     0.066 H 
ATOM     33  H   LIG d   1      10.379   5.591 -10.303  0.00  0.00     0.066 H 
ENDBRANCH  29  30
ENDBRANCH  27  29
ENDBRANCH  21  27
ENDBRANCH   9  17
BRANCH   7  34
ATOM     34  C   LIG d   1       4.094  -0.915  -7.428  0.00  0.00    -0.022 A 
ATOM     35  C   LIG d   1       4.790  -1.333  -6.309  0.00  0.00    -0.053 A 
ATOM     36  C   LIG d   1       4.404  -0.907  -5.053  0.00  0.00    -0.020 A 
ATOM     37  H   LIG d   1       5.638  -1.994  -6.417  0.00  0.00     0.062 H 
ATOM     38  C   LIG d   1       3.315  -0.058  -4.915  0.00  0.00     0.120 A 
ATOM     39  H   LIG d   1       4.948  -1.234  -4.179  0.00  0.00     0.065 H 
ATOM     40  C   LIG d   1       2.617   0.360  -6.039  0.00  0.00    -0.020 A 
ATOM     41  C   LIG d   1       3.012  -0.065  -7.293  0.00  0.00    -0.053 A 
ATOM     42  H   LIG d   1       1.769   1.020  -5.934  0.00  0.00     0.065 H 
ATOM     43  H   LIG d   1       2.472   0.264  -8.168  0.00  0.00     0.062 H 
BRANCH  38  44
ATOM     44  O   LIG d   1       2.933   0.363  -3.681  0.00  0.00    -0.495 OA
BRANCH  44  45
ATOM     45  C   LIG d   1       3.862   1.170  -2.955  0.00  0.00     0.079 C 
ATOM     46  H   LIG d   1       3.763   0.968  -1.888  0.00  0.00     0.066 H 
ATOM     47  H   LIG d   1       4.877   0.934  -3.276  0.00  0.00     0.066 H 
ATOM     48  H   LIG d   1       3.657   2.223  -3.145  0.00  0.00     0.066 H 
ENDBRANCH  44  45
ENDBRANCH  38  44
ENDBRANCH   7  34
BRANCH   6  49
ATOM     49  O   LIG d   1       2.612  -5.851  -8.961  0.00  0.00    -0.489 OA
BRANCH  49  50
ATOM     50  C   LIG d   1       3.838  -6.560  -9.146  0.00  0.00     0.087 C 
ATOM     51  H   LIG d   1       3.689  -7.360  -9.872  0.00  0.00     0.069 H 
ATOM     52  H   LIG d   1       4.602  -5.875  -9.514  0.00  0.00     0.069 H 
BRANCH  50  53
ATOM     53  C   LIG d   1       4.288  -7.159  -7.812  0.00  0.00    -0.031 C 
ATOM     54  H   LIG d   1       5.296  -6.815  -7.581  0.00  0.00     0.026 H 
ATOM     55  H   LIG d   1       3.607  -6.841  -7.023  0.00  0.00     0.026 H 
ATOM     56  H   LIG d   1       4.282  -8.247  -7.881  0.00  0.00     0.026 H 
ENDBRANCH  50  53
ENDBRANCH  49  50
ENDBRANCH   6  49
BRANCH   1  57
ATOM     57  O   LIG d   1       0.675  -5.020 -10.739  0.00  0.00    -0.489 OA
BRANCH  57  58
ATOM     58  C   LIG d   1      -0.700  -4.700 -10.511  0.00  0.00     0.087 C 
ATOM     59  H   LIG d   1      -0.767  -3.765  -9.956  0.00  0.00     0.069 H 
ATOM     60  H   LIG d   1      -1.212  -4.593 -11.468  0.00  0.00     0.069 H 
BRANCH  58  61
ATOM     61  C   LIG d   1      -1.357  -5.822  -9.705  0.00  0.00    -0.031 C 
ATOM     62  H   LIG d   1      -1.916  -6.473 -10.378  0.00  0.00     0.026 H 
ATOM     63  H   LIG d   1      -0.587  -6.401  -9.195  0.00  0.00     0.026 H 
ATOM     64  H   LIG d   1      -2.036  -5.392  -8.969  0.00  0.00     0.026 H 
ENDBRANCH  58  61
ENDBRANCH  57  58
ENDBRANCH   1  57
TORSDOF 13
ENDMDL
MODEL 8
REMARK VINA RESULT:      -5.1      2.915      6.576
REMARK  13 active torsions:
REMARK  status: ('A' for Active; 'I' for Inactive)
REMARK    1  A    between atoms: C_1  and  C_2 
REMARK    2  A    between atoms: C_2  and  O_3 
REMARK    3  A    between atoms: O_3  and  C_4 
REMARK    4  A    between atoms: C_9  and  O_10 
REMARK    5  A    between atoms: O_10  and  C_11 
REMARK    6  A    between atoms: C_11  and  C_12 
REMARK    7  A    between atoms: C_13  and  C_29 
REMARK    8  A    between atoms: N_15  and  C_19 
REMARK    9  A    between atoms: C_22  and  C_25 
REMARK   10  A    between atoms: C_25  and  O_27 
REMARK   11  A    between atoms: O_27  and  C_28 
REMARK   12  A    between atoms: C_32  and  O_35 
REMARK   13  A    between atoms: O_35  and  C_36 
ROOT
ATOM      1  C   LIG d   1       7.257   1.116  -4.200  0.00  0.00     0.162 A 
ATOM      2  C   LIG d   1       7.560   0.895  -5.533  0.00  0.00    -0.012 A 
ATOM      3  C   LIG d   1       6.813   0.001  -6.283  0.00  0.00    -0.030 A 
ATOM      4  C   LIG d   1       5.761  -0.677  -5.701  0.00  0.00    -0.015 A 
ATOM      5  C   LIG d   1       5.452  -0.457  -4.367  0.00  0.00    -0.011 A 
ATOM      6  C   LIG d   1       6.194   0.435  -3.614  0.00  0.00     0.162 A 
ATOM      7  C   LIG d   1       4.928  -1.657  -6.480  0.00  0.00     0.082 C 
ATOM      8  H   LIG d   1       3.889  -1.566  -6.166  0.00  0.00     0.060 H 
ATOM      9  N   LIG d   1       5.012  -1.426  -7.911  0.00  0.00    -0.260 N 
ATOM     10  C   LIG d   1       6.021  -0.778  -8.496  0.00  0.00     0.225 C 
ATOM     11  O   LIG d   1       6.006  -0.646  -9.701  0.00  0.00    -0.275 OA
ATOM     12  C   LIG d   1       7.172  -0.205  -7.729  0.00  0.00     0.050 C 
ATOM     13  H   LIG d   1       8.385   1.423  -5.990  0.00  0.00     0.066 H 
ATOM     14  H   LIG d   1       4.627  -0.986  -3.913  0.00  0.00     0.066 H 
ATOM     15  H   LIG d   1       7.452   0.753  -8.166  0.00  0.00     0.041 H 
ATOM     16  H   LIG d   1       8.017  -0.889  -7.794  0.00  0.00     0.041 H 
ENDROOT
BRANCH   9  17
ATOM     17  C   LIG d   1       3.982  -1.908  -8.718  0.00  0.00     0.037 A 
ATOM     18  C   LIG d   1       2.840  -1.137  -8.919  0.00  0.00    -0.040 A 
ATOM     19  C   LIG d   1       1.822  -1.608  -9.716  0.00  0.00    -0.046 A 
ATOM     20  H   LIG d   1       2.755  -0.168  -8.450  0.00  0.00     0.064 H 
ATOM     21  C   LIG d   1       1.935  -2.863 -10.323  0.00  0.00     0.059 A 
ATOM     22  H   LIG d   1       0.936  -1.010  -9.871  0.00  0.00     0.063 H 
ATOM     23  C   LIG d   1       3.083  -3.634 -10.118  0.00  0.00    -0.046 A 
ATOM     24  C   LIG d   1       4.100  -3.154  -9.324  0.00  0.00    -0.040 A 
ATOM     25  H   LIG d   1       3.173  -4.604 -10.584  0.00  0.00     0.063 H 
ATOM     26  H   LIG d   1       4.988  -3.747  -9.169  0.00  0.00     0.064 H 
BRANCH  21  27
ATOM     27  C   LIG d   1       0.845  -3.372 -11.177  0.00  0.00     0.339 C 
ATOM     28  O   LIG d   1      -0.027  -4.068 -10.697  0.00  0.00    -0.245 OA
BRANCH  27  29
ATOM     29  O   LIG d   1       0.818  -3.065 -12.488  0.00  0.00    -0.465 OA
BRANCH  29  30
ATOM     30  C   LIG d   1      -0.301  -2.267 -12.955  0.00  0.00     0.082 C 
ATOM     31  H   LIG d   1      -0.143  -1.994 -13.998  0.00  0.00     0.066 H 
ATOM     32  H   LIG d   1      -1.222  -2.843 -12.865  0.00  0.00     0.066 H 
ATOM     33  H   LIG d   1      -0.379  -1.362 -12.351  0.00  0.00     0.066 H 
ENDBRANCH  29  30
ENDBRANCH  27  29
ENDBRANCH  21  27
ENDBRANCH   9  17
BRANCH   7  34
ATOM     34  C   LIG d   1       5.408  -3.053  -6.179  0.00  0.00    -0.022 A 
ATOM     35  C   LIG d   1       4.511  -4.015  -5.754  0.00  0.00    -0.053 A 
ATOM     36  C   LIG d   1       4.948  -5.296  -5.479  0.00  0.00    -0.020 A 
ATOM     37  H   LIG d   1       3.466  -3.765  -5.639  0.00  0.00     0.062 H 
ATOM     38  C   LIG d   1       6.290  -5.618  -5.628  0.00  0.00     0.120 A 
ATOM     39  H   LIG d   1       4.246  -6.047  -5.147  0.00  0.00     0.065 H 
ATOM     40  C   LIG d   1       7.189  -4.650  -6.054  0.00  0.00    -0.020 A 
ATOM     41  C   LIG d   1       6.745  -3.372  -6.334  0.00  0.00    -0.053 A 
ATOM     42  H   LIG d   1       8.233  -4.897  -6.170  0.00  0.00     0.065 H 
ATOM     43  H   LIG d   1       7.443  -2.620  -6.669  0.00  0.00     0.062 H 
BRANCH  38  44
ATOM     44  O   LIG d   1       6.721  -6.877  -5.358  0.00  0.00    -0.495 OA
BRANCH  44  45
ATOM     45  C   LIG d   1       5.725  -7.897  -5.263  0.00  0.00     0.079 C 
ATOM     46  H   LIG d   1       4.737  -7.438  -5.222  0.00  0.00     0.066 H 
ATOM     47  H   LIG d   1       5.788  -8.548  -6.136  0.00  0.00     0.066 H 
ATOM     48  H   LIG d   1       5.891  -8.485  -4.360  0.00  0.00     0.066 H 
ENDBRANCH  44  45
ENDBRANCH  38  44
ENDBRANCH   7  34
BRANCH   6  49
ATOM     49  O   LIG d   1       5.888   0.645  -2.306  0.00  0.00    -0.489 OA
BRANCH  49  50
ATOM     50  C   LIG d   1       4.561   0.318  -1.890  0.00  0.00     0.087 C 
ATOM     51  H   LIG d   1       4.245  -0.606  -2.374  0.00  0.00     0.069 H 
ATOM     52  H   LIG d   1       4.541   0.185  -0.808  0.00  0.00     0.069 H 
BRANCH  50  53
ATOM     53  C   LIG d   1       3.609   1.450  -2.282  0.00  0.00    -0.031 C 
ATOM     54  H   LIG d   1       4.144   2.399  -2.258  0.00  0.00     0.026 H 
ATOM     55  H   LIG d   1       3.229   1.272  -3.288  0.00  0.00     0.026 H 
ATOM     56  H   LIG d   1       2.776   1.484  -1.580  0.00  0.00     0.026 H 
ENDBRANCH  50  53
ENDBRANCH  49  50
ENDBRANCH   6  49
BRANCH   1  57
ATOM     57  O   LIG d   1       7.993   1.995  -3.469  0.00  0.00    -0.489 OA
BRANCH  57  58
ATOM     58  C   LIG d   1       9.194   2.491  -4.065  0.00  0.00     0.087 C 
ATOM     59  H   LIG d   1       9.878   1.663  -4.244  0.00  0.00     0.069 H 
ATOM     60  H   LIG d   1       8.955   2.976  -5.012  0.00  0.00     0.069 H 
BRANCH  58  61
ATOM     61  C   LIG d   1       9.850   3.503  -3.124  0.00  0.00    -0.031 C 
ATOM     62  H   LIG d   1       9.425   3.399  -2.126  0.00  0.00     0.026 H 
ATOM     63  H   LIG d   1      10.923   3.318  -3.084  0.00  0.00     0.026 H 
ATOM     64  H   LIG d   1       9.668   4.513  -3.492  0.00  0.00     0.026 H 
ENDBRANCH  58  61
ENDBRANCH  57  58
ENDBRANCH   1  57
TORSDOF 13
ENDMDL
MODEL 9
REMARK VINA RESULT:      -5.0      2.220      8.459
REMARK  13 active torsions:
REMARK  status: ('A' for Active; 'I' for Inactive)
REMARK    1  A    between atoms: C_1  and  C_2 
REMARK    2  A    between atoms: C_2  and  O_3 
REMARK    3  A    between atoms: O_3  and  C_4 
REMARK    4  A    between atoms: C_9  and  O_10 
REMARK    5  A    between atoms: O_10  and  C_11 
REMARK    6  A    between atoms: C_11  and  C_12 
REMARK    7  A    between atoms: C_13  and  C_29 
REMARK    8  A    between atoms: N_15  and  C_19 
REMARK    9  A    between atoms: C_22  and  C_25 
REMARK   10  A    between atoms: C_25  and  O_27 
REMARK   11  A    between atoms: O_27  and  C_28 
REMARK   12  A    between atoms: C_32  and  O_35 
REMARK   13  A    between atoms: O_35  and  C_36 
ROOT
ATOM      1  C   LIG d   1       3.531  -0.180  -7.944  0.00  0.00     0.162 A 
ATOM      2  C   LIG d   1       3.812  -0.169  -6.589  0.00  0.00    -0.012 A 
ATOM      3  C   LIG d   1       4.804  -0.986  -6.071  0.00  0.00    -0.030 A 
ATOM      4  C   LIG d   1       5.517  -1.820  -6.907  0.00  0.00    -0.015 A 
ATOM      5  C   LIG d   1       5.241  -1.834  -8.267  0.00  0.00    -0.011 A 
ATOM      6  C   LIG d   1       4.253  -1.019  -8.789  0.00  0.00     0.162 A 
ATOM      7  C   LIG d   1       6.598  -2.724  -6.385  0.00  0.00     0.082 C 
ATOM      8  H   LIG d   1       7.412  -2.759  -7.109  0.00  0.00     0.060 H 
ATOM      9  N   LIG d   1       7.119  -2.268  -5.109  0.00  0.00    -0.260 N 
ATOM     10  C   LIG d   1       6.447  -1.466  -4.281  0.00  0.00     0.225 C 
ATOM     11  O   LIG d   1       6.964  -1.148  -3.231  0.00  0.00    -0.275 OA
ATOM     12  C   LIG d   1       5.081  -0.937  -4.593  0.00  0.00     0.050 C 
ATOM     13  H   LIG d   1       3.255   0.482  -5.931  0.00  0.00     0.066 H 
ATOM     14  H   LIG d   1       5.801  -2.486  -8.921  0.00  0.00     0.066 H 
ATOM     15  H   LIG d   1       5.010   0.095  -4.251  0.00  0.00     0.041 H 
ATOM     16  H   LIG d   1       4.340  -1.540  -4.070  0.00  0.00     0.041 H 
ENDROOT
BRANCH   9  17
ATOM     17  C   LIG d   1       8.392  -2.691  -4.727  0.00  0.00     0.037 A 
ATOM     18  C   LIG d   1       9.518  -2.105  -5.298  0.00  0.00    -0.040 A 
ATOM     19  C   LIG d   1      10.776  -2.519  -4.924  0.00  0.00    -0.046 A 
ATOM     20  H   LIG d   1       9.404  -1.325  -6.035  0.00  0.00     0.064 H 
ATOM     21  C   LIG d   1      10.922  -3.529  -3.968  0.00  0.00     0.059 A 
ATOM     22  H   LIG d   1      11.649  -2.064  -5.367  0.00  0.00     0.063 H 
ATOM     23  C   LIG d   1       9.789  -4.116  -3.397  0.00  0.00    -0.046 A 
ATOM     24  C   LIG d   1       8.534  -3.693  -3.772  0.00  0.00    -0.040 A 
ATOM     25  H   LIG d   1       9.897  -4.896  -2.659  0.00  0.00     0.063 H 
ATOM     26  H   LIG d   1       7.658  -4.142  -3.328  0.00  0.00     0.064 H 
BRANCH  21  27
ATOM     27  C   LIG d   1      12.268  -3.976  -3.564  0.00  0.00     0.339 C 
ATOM     28  O   LIG d   1      13.157  -3.162  -3.410  0.00  0.00    -0.245 OA
BRANCH  27  29
ATOM     29  O   LIG d   1      12.512  -5.286  -3.367  0.00  0.00    -0.465 OA
BRANCH  29  30
ATOM     30  C   LIG d   1      12.764  -6.094  -4.546  0.00  0.00     0.082 C 
ATOM     31  H   LIG d   1      13.188  -5.469  -5.332  0.00  0.00     0.066 H 
ATOM     32  H   LIG d   1      13.465  -6.891  -4.298  0.00  0.00     0.066 H 
ATOM     33  H   LIG d   1      11.827  -6.530  -4.894  0.00  0.00     0.066 H 
ENDBRANCH  29  30
ENDBRANCH  27  29
ENDBRANCH  21  27
ENDBRANCH   9  17
BRANCH   7  34
ATOM     34  C   LIG d   1       6.036  -4.112  -6.217  0.00  0.00    -0.022 A 
ATOM     35  C   LIG d   1       4.934  -4.317  -5.406  0.00  0.00    -0.053 A 
ATOM     36  C   LIG d   1       4.416  -5.588  -5.251  0.00  0.00    -0.020 A 
ATOM     37  H   LIG d   1       4.478  -3.483  -4.895  0.00  0.00     0.062 H 
ATOM     38  C   LIG d   1       5.002  -6.661  -5.909  0.00  0.00     0.120 A 
ATOM     39  H   LIG d   1       3.556  -5.748  -4.618  0.00  0.00     0.065 H 
ATOM     40  C   LIG d   1       6.108  -6.452  -6.722  0.00  0.00    -0.020 A 
ATOM     41  C   LIG d   1       6.618  -5.178  -6.878  0.00  0.00    -0.053 A 
ATOM     42  H   LIG d   1       6.565  -7.285  -7.234  0.00  0.00     0.065 H 
ATOM     43  H   LIG d   1       7.475  -5.014  -7.513  0.00  0.00     0.062 H 
BRANCH  38  44
ATOM     44  O   LIG d   1       4.494  -7.911  -5.758  0.00  0.00    -0.495 OA
BRANCH  44  45
ATOM     45  C   LIG d   1       5.167  -8.778  -4.842  0.00  0.00     0.079 C 
ATOM     46  H   LIG d   1       4.734  -9.777  -4.902  0.00  0.00     0.066 H 
ATOM     47  H   LIG d   1       6.226  -8.824  -5.096  0.00  0.00     0.066 H 
ATOM     48  H   LIG d   1       5.054  -8.394  -3.828  0.00  0.00     0.066 H 
ENDBRANCH  44  45
ENDBRANCH  38  44
ENDBRANCH   7  34
BRANCH   6  49
ATOM     49  O   LIG d   1       3.985  -1.038 -10.122  0.00  0.00    -0.489 OA
BRANCH  49  50
ATOM     50  C   LIG d   1       4.980  -0.495 -10.991  0.00  0.00     0.087 C 
ATOM     51  H   LIG d   1       5.408   0.400 -10.540  0.00  0.00     0.069 H 
ATOM     52  H   LIG d   1       5.767  -1.234 -11.149  0.00  0.00     0.069 H 
BRANCH  50  53
ATOM     53  C   LIG d   1       4.343  -0.135 -12.335  0.00  0.00    -0.031 C 
ATOM     54  H   LIG d   1       3.840   0.828 -12.252  0.00  0.00     0.026 H 
ATOM     55  H   LIG d   1       5.118  -0.076 -13.099  0.00  0.00     0.026 H 
ATOM     56  H   LIG d   1       3.618  -0.901 -12.611  0.00  0.00     0.026 H 
ENDBRANCH  50  53
ENDBRANCH  49  50
ENDBRANCH   6  49
BRANCH   1  57
ATOM     57  O   LIG d   1       2.558   0.625  -8.448  0.00  0.00    -0.489 OA
BRANCH  57  58
ATOM     58  C   LIG d   1       2.763   2.036  -8.342  0.00  0.00     0.087 C 
ATOM     59  H   LIG d   1       1.800   2.544  -8.351  0.00  0.00     0.069 H 
ATOM     60  H   LIG d   1       3.282   2.258  -7.409  0.00  0.00     0.069 H 
BRANCH  58  61
ATOM     61  C   LIG d   1       3.608   2.518  -9.523  0.00  0.00    -0.031 C 
ATOM     62  H   LIG d   1       3.197   2.116 -10.450  0.00  0.00     0.026 H 
ATOM     63  H   LIG d   1       3.591   3.607  -9.560  0.00  0.00     0.026 H 
ATOM     64  H   LIG d   1       4.635   2.173  -9.401  0.00  0.00     0.026 H 
ENDBRANCH  58  61
ENDBRANCH  57  58
ENDBRANCH   1  57
TORSDOF 13
ENDMDL
