MODEL 1
REMARK VINA RESULT:      -7.1      0.000      0.000
REMARK  6 active torsions:
REMARK  status: ('A' for Active; 'I' for Inactive)
REMARK    1  A    between atoms: C_1  and  C_2 
REMARK    2  A    between atoms: C_3  and  O_23 
REMARK    3  A    between atoms: C_10  and  C_11 
REMARK    4  A    between atoms: N_13  and  C_20 
REMARK    5  A    between atoms: O_23  and  C_24 
REMARK    6  A    between atoms: C_24  and  C_26 
ROOT
ATOM      1  C   LIG d   1       2.380  -2.969  -9.774  0.00  0.00     0.035 A 
ATOM      2  C   LIG d   1       1.486  -2.199 -10.501  0.00  0.00     0.138 A 
ATOM      3  C   LIG d   1       1.365  -0.835 -10.255  0.00  0.00    -0.018 A 
ATOM      4  C   LIG d   1       2.120  -0.240  -9.283  0.00  0.00    -0.044 A 
ATOM      5  C   LIG d   1       3.023  -1.002  -8.543  0.00  0.00     0.068 A 
ATOM      6  C   LIG d   1       3.158  -2.379  -8.787  0.00  0.00     0.146 A 
ATOM      7  O   LIG d   1       4.087  -2.880  -7.945  0.00  0.00    -0.451 OA
ATOM      8  C   LIG d   1       4.596  -1.918  -7.139  0.00  0.00     0.176 A 
ATOM      9  C   LIG d   1       5.549  -2.103  -6.183  0.00  0.00    -0.006 C 
ATOM     10  C   LIG d   1       3.967  -0.685  -7.456  0.00  0.00     0.232 A 
ATOM     11  O   LIG d   1       4.167   0.402  -6.942  0.00  0.00    -0.283 OA
ATOM     12  H   LIG d   1       0.669  -0.243 -10.832  0.00  0.00     0.066 H 
ATOM     13  H   LIG d   1       2.021   0.819  -9.092  0.00  0.00     0.063 H 
ATOM     14  H   LIG d   1       6.053  -3.055  -6.099  0.00  0.00     0.066 H 
ENDROOT
BRANCH   9  15
ATOM     15  C   LIG d   1       5.892  -1.012  -5.272  0.00  0.00     0.004 A 
ATOM     16  C   LIG d   1       5.095  -0.531  -4.128  0.00  0.00     0.007 A 
ATOM     17  C   LIG d   1       5.829   0.525  -3.562  0.00  0.00     0.049 A 
ATOM     18  C   LIG d   1       3.875  -0.907  -3.575  0.00  0.00    -0.052 A 
ATOM     19  N   LIG d   1       6.984   0.677  -4.303  0.00  0.00    -0.349 N 
ATOM     20  C   LIG d   1       5.323   1.187  -2.449  0.00  0.00    -0.038 A 
ATOM     21  C   LIG d   1       7.027  -0.231  -5.309  0.00  0.00     0.013 A 
ATOM     22  H   LIG d   1       7.826  -0.326  -6.029  0.00  0.00     0.082 H 
ATOM     23  C   LIG d   1       4.113   0.804  -1.912  0.00  0.00    -0.060 A 
ATOM     24  H   LIG d   1       5.878   2.000  -2.005  0.00  0.00     0.064 H 
ATOM     25  C   LIG d   1       3.390  -0.239  -2.471  0.00  0.00    -0.061 A 
ATOM     26  H   LIG d   1       3.724   1.322  -1.047  0.00  0.00     0.062 H 
ATOM     27  H   LIG d   1       2.442  -0.528  -2.041  0.00  0.00     0.062 H 
ATOM     28  H   LIG d   1       3.309  -1.718  -4.010  0.00  0.00     0.062 H 
BRANCH  19  29
ATOM     29  C   LIG d   1       8.021   1.676  -4.036  0.00  0.00     0.012 C 
ATOM     30  H   LIG d   1       7.617   2.674  -4.208  0.00  0.00     0.046 H 
ATOM     31  H   LIG d   1       8.349   1.592  -3.000  0.00  0.00     0.046 H 
ATOM     32  H   LIG d   1       8.868   1.508  -4.701  0.00  0.00     0.046 H 
ENDBRANCH  19  29
ENDBRANCH   9  15
BRANCH   1  33
ATOM     33  C   LIG d   1       2.506  -4.444 -10.053  0.00  0.00    -0.033 C 
ATOM     34  H   LIG d   1       1.845  -4.715 -10.876  0.00  0.00     0.028 H 
ATOM     35  H   LIG d   1       3.537  -4.677 -10.323  0.00  0.00     0.028 H 
ATOM     36  H   LIG d   1       2.228  -5.008  -9.162  0.00  0.00     0.028 H 
ENDBRANCH   1  33
BRANCH   2  37
ATOM     37  O   LIG d   1       0.728  -2.779 -11.465  0.00  0.00    -0.422 OA
BRANCH  37  38
ATOM     38  C   LIG d   1       0.934  -2.371 -12.733  0.00  0.00     0.344 C 
ATOM     39  O   LIG d   1       0.024  -1.881 -13.370  0.00  0.00    -0.244 OA
BRANCH  38  40
ATOM     40  C   LIG d   1       2.270  -2.514 -13.345  0.00  0.00     0.059 A 
ATOM     41  C   LIG d   1       2.735  -3.774 -13.729  0.00  0.00    -0.047 A 
ATOM     42  C   LIG d   1       3.984  -3.901 -14.300  0.00  0.00    -0.047 A 
ATOM     43  H   LIG d   1       2.118  -4.648 -13.578  0.00  0.00     0.063 H 
ATOM     44  C   LIG d   1       4.777  -2.782 -14.494  0.00  0.00     0.018 A 
ATOM     45  H   LIG d   1       4.344  -4.875 -14.597  0.00  0.00     0.063 H 
ATOM     46  C   LIG d   1       4.322  -1.530 -14.117  0.00  0.00    -0.047 A 
ATOM     47 BR   LIG d   1       6.488  -2.966 -15.278  0.00  0.00    -0.050 Br
ATOM     48  C   LIG d   1       3.073  -1.389 -13.550  0.00  0.00    -0.047 A 
ATOM     49  H   LIG d   1       4.945  -0.661 -14.271  0.00  0.00     0.063 H 
ATOM     50  H   LIG d   1       2.717  -0.411 -13.260  0.00  0.00     0.063 H 
ENDBRANCH  38  40
ENDBRANCH  37  38
ENDBRANCH   2  37
TORSDOF 6
ENDMDL
MODEL 2
REMARK VINA RESULT:      -7.0      2.469      3.159
REMARK  6 active torsions:
REMARK  status: ('A' for Active; 'I' for Inactive)
REMARK    1  A    between atoms: C_1  and  C_2 
REMARK    2  A    between atoms: C_3  and  O_23 
REMARK    3  A    between atoms: C_10  and  C_11 
REMARK    4  A    between atoms: N_13  and  C_20 
REMARK    5  A    between atoms: O_23  and  C_24 
REMARK    6  A    between atoms: C_24  and  C_26 
ROOT
ATOM      1  C   LIG d   1       2.387  -2.937  -9.795  0.00  0.00     0.035 A 
ATOM      2  C   LIG d   1       1.472  -2.169 -10.496  0.00  0.00     0.138 A 
ATOM      3  C   LIG d   1       1.331  -0.812 -10.222  0.00  0.00    -0.018 A 
ATOM      4  C   LIG d   1       2.088  -0.224  -9.247  0.00  0.00    -0.044 A 
ATOM      5  C   LIG d   1       3.014  -0.985  -8.534  0.00  0.00     0.068 A 
ATOM      6  C   LIG d   1       3.168  -2.354  -8.807  0.00  0.00     0.146 A 
ATOM      7  O   LIG d   1       4.116  -2.856  -7.987  0.00  0.00    -0.451 OA
ATOM      8  C   LIG d   1       4.619  -1.901  -7.168  0.00  0.00     0.176 A 
ATOM      9  C   LIG d   1       5.587  -2.089  -6.228  0.00  0.00    -0.006 C 
ATOM     10  C   LIG d   1       3.966  -0.673  -7.453  0.00  0.00     0.232 A 
ATOM     11  O   LIG d   1       4.155   0.407  -6.920  0.00  0.00    -0.283 OA
ATOM     12  H   LIG d   1       0.618  -0.221 -10.779  0.00  0.00     0.066 H 
ATOM     13  H   LIG d   1       1.975   0.830  -9.034  0.00  0.00     0.063 H 
ATOM     14  H   LIG d   1       6.107  -3.033  -6.169  0.00  0.00     0.066 H 
ENDROOT
BRANCH   9  15
ATOM     15  C   LIG d   1       5.924  -1.010  -5.300  0.00  0.00     0.004 A 
ATOM     16  C   LIG d   1       5.135  -0.567  -4.135  0.00  0.00     0.007 A 
ATOM     17  C   LIG d   1       5.858   0.490  -3.559  0.00  0.00     0.049 A 
ATOM     18  C   LIG d   1       3.929  -0.976  -3.573  0.00  0.00    -0.052 A 
ATOM     19  N   LIG d   1       6.999   0.678  -4.313  0.00  0.00    -0.349 N 
ATOM     20  C   LIG d   1       5.357   1.121  -2.425  0.00  0.00    -0.038 A 
ATOM     21  C   LIG d   1       7.044  -0.208  -5.337  0.00  0.00     0.013 A 
ATOM     22  H   LIG d   1       7.834  -0.274  -6.070  0.00  0.00     0.082 H 
ATOM     23  C   LIG d   1       4.161   0.706  -1.879  0.00  0.00    -0.060 A 
ATOM     24  H   LIG d   1       5.903   1.935  -1.973  0.00  0.00     0.064 H 
ATOM     25  C   LIG d   1       3.449  -0.339  -2.449  0.00  0.00    -0.061 A 
ATOM     26  H   LIG d   1       3.775   1.199  -0.999  0.00  0.00     0.062 H 
ATOM     27  H   LIG d   1       2.513  -0.654  -2.011  0.00  0.00     0.062 H 
ATOM     28  H   LIG d   1       3.373  -1.788  -4.016  0.00  0.00     0.062 H 
BRANCH  19  29
ATOM     29  C   LIG d   1       8.022   1.691  -4.040  0.00  0.00     0.012 C 
ATOM     30  H   LIG d   1       7.723   2.638  -4.488  0.00  0.00     0.046 H 
ATOM     31  H   LIG d   1       8.130   1.818  -2.962  0.00  0.00     0.046 H 
ATOM     32  H   LIG d   1       8.973   1.371  -4.465  0.00  0.00     0.046 H 
ENDBRANCH  19  29
ENDBRANCH   9  15
BRANCH   1  33
ATOM     33  C   LIG d   1       2.534  -4.405 -10.105  0.00  0.00    -0.033 C 
ATOM     34  H   LIG d   1       1.560  -4.889 -10.037  0.00  0.00     0.028 H 
ATOM     35  H   LIG d   1       2.931  -4.526 -11.113  0.00  0.00     0.028 H 
ATOM     36  H   LIG d   1       3.217  -4.861  -9.388  0.00  0.00     0.028 H 
ENDBRANCH   1  33
BRANCH   2  37
ATOM     37  O   LIG d   1       0.710  -2.743 -11.462  0.00  0.00    -0.422 OA
BRANCH  37  38
ATOM     38  C   LIG d   1       0.776  -2.200 -12.694  0.00  0.00     0.344 C 
ATOM     39  O   LIG d   1       1.850  -2.068 -13.244  0.00  0.00    -0.244 OA
BRANCH  38  40
ATOM     40  C   LIG d   1      -0.461  -1.772 -13.378  0.00  0.00     0.059 A 
ATOM     41  C   LIG d   1      -0.812  -2.331 -14.608  0.00  0.00    -0.047 A 
ATOM     42  C   LIG d   1      -1.968  -1.927 -15.243  0.00  0.00    -0.047 A 
ATOM     43  H   LIG d   1      -0.178  -3.078 -15.064  0.00  0.00     0.063 H 
ATOM     44  C   LIG d   1      -2.781  -0.969 -14.660  0.00  0.00     0.018 A 
ATOM     45  H   LIG d   1      -2.240  -2.359 -16.194  0.00  0.00     0.063 H 
ATOM     46  C   LIG d   1      -2.440  -0.411 -13.441  0.00  0.00    -0.047 A 
ATOM     47 BR   LIG d   1      -4.365  -0.421 -15.537  0.00  0.00    -0.050 Br
ATOM     48  C   LIG d   1      -1.289  -0.810 -12.794  0.00  0.00    -0.047 A 
ATOM     49  H   LIG d   1      -3.078   0.336 -12.992  0.00  0.00     0.063 H 
ATOM     50  H   LIG d   1      -1.026  -0.377 -11.840  0.00  0.00     0.063 H 
ENDBRANCH  38  40
ENDBRANCH  37  38
ENDBRANCH   2  37
TORSDOF 6
ENDMDL
MODEL 3
REMARK VINA RESULT:      -6.8      6.493      9.376
REMARK  6 active torsions:
REMARK  status: ('A' for Active; 'I' for Inactive)
REMARK    1  A    between atoms: C_1  and  C_2 
REMARK    2  A    between atoms: C_3  and  O_23 
REMARK    3  A    between atoms: C_10  and  C_11 
REMARK    4  A    between atoms: N_13  and  C_20 
REMARK    5  A    between atoms: O_23  and  C_24 
REMARK    6  A    between atoms: C_24  and  C_26 
ROOT
ATOM      1  C   LIG d   1      10.542   3.387  -7.358  0.00  0.00     0.035 A 
ATOM      2  C   LIG d   1      10.289   3.760  -8.667  0.00  0.00     0.138 A 
ATOM      3  C   LIG d   1       9.122   3.352  -9.307  0.00  0.00    -0.018 A 
ATOM      4  C   LIG d   1       8.217   2.564  -8.651  0.00  0.00    -0.044 A 
ATOM      5  C   LIG d   1       8.458   2.181  -7.333  0.00  0.00     0.068 A 
ATOM      6  C   LIG d   1       9.630   2.593  -6.676  0.00  0.00     0.146 A 
ATOM      7  O   LIG d   1       9.624   2.091  -5.422  0.00  0.00    -0.451 OA
ATOM      8  C   LIG d   1       8.509   1.358  -5.187  0.00  0.00     0.176 A 
ATOM      9  C   LIG d   1       8.207   0.722  -4.021  0.00  0.00    -0.006 C 
ATOM     10  C   LIG d   1       7.710   1.364  -6.360  0.00  0.00     0.232 A 
ATOM     11  O   LIG d   1       6.634   0.814  -6.526  0.00  0.00    -0.283 OA
ATOM     12  H   LIG d   1       8.932   3.654 -10.327  0.00  0.00     0.066 H 
ATOM     13  H   LIG d   1       7.314   2.246  -9.151  0.00  0.00     0.063 H 
ATOM     14  H   LIG d   1       8.822   0.876  -3.146  0.00  0.00     0.066 H 
ENDROOT
BRANCH   9  15
ATOM     15  C   LIG d   1       7.051  -0.170  -3.953  0.00  0.00     0.004 A 
ATOM     16  C   LIG d   1       5.727   0.139  -3.378  0.00  0.00     0.007 A 
ATOM     17  C   LIG d   1       4.954  -1.021  -3.543  0.00  0.00     0.049 A 
ATOM     18  C   LIG d   1       5.179   1.263  -2.768  0.00  0.00    -0.052 A 
ATOM     19  N   LIG d   1       5.742  -1.965  -4.170  0.00  0.00    -0.349 N 
ATOM     20  C   LIG d   1       3.638  -1.033  -3.092  0.00  0.00    -0.038 A 
ATOM     21  C   LIG d   1       6.977  -1.465  -4.418  0.00  0.00     0.013 A 
ATOM     22  H   LIG d   1       7.780  -2.000  -4.903  0.00  0.00     0.082 H 
ATOM     23  C   LIG d   1       3.108   0.087  -2.489  0.00  0.00    -0.060 A 
ATOM     24  H   LIG d   1       3.033  -1.919  -3.212  0.00  0.00     0.064 H 
ATOM     25  C   LIG d   1       3.873   1.232  -2.327  0.00  0.00    -0.061 A 
ATOM     26  H   LIG d   1       2.086   0.074  -2.139  0.00  0.00     0.062 H 
ATOM     27  H   LIG d   1       3.445   2.104  -1.853  0.00  0.00     0.062 H 
ATOM     28  H   LIG d   1       5.774   2.156  -2.640  0.00  0.00     0.062 H 
BRANCH  19  29
ATOM     29  C   LIG d   1       5.302  -3.317  -4.523  0.00  0.00     0.012 C 
ATOM     30  H   LIG d   1       6.045  -3.783  -5.170  0.00  0.00     0.046 H 
ATOM     31  H   LIG d   1       5.188  -3.911  -3.616  0.00  0.00     0.046 H 
ATOM     32  H   LIG d   1       4.347  -3.264  -5.045  0.00  0.00     0.046 H 
ENDBRANCH  19  29
ENDBRANCH   9  15
BRANCH   1  33
ATOM     33  C   LIG d   1      11.806   3.841  -6.674  0.00  0.00    -0.033 C 
ATOM     34  H   LIG d   1      12.239   3.006  -6.122  0.00  0.00     0.028 H 
ATOM     35  H   LIG d   1      12.518   4.191  -7.421  0.00  0.00     0.028 H 
ATOM     36  H   LIG d   1      11.574   4.652  -5.984  0.00  0.00     0.028 H 
ENDBRANCH   1  33
BRANCH   2  37
ATOM     37  O   LIG d   1      11.182   4.537  -9.330  0.00  0.00    -0.422 OA
BRANCH  37  38
ATOM     38  C   LIG d   1      10.754   5.749  -9.739  0.00  0.00     0.344 C 
ATOM     39  O   LIG d   1      10.584   5.966 -10.922  0.00  0.00    -0.244 OA
BRANCH  38  40
ATOM     40  C   LIG d   1      10.485   6.809  -8.748  0.00  0.00     0.059 A 
ATOM     41  C   LIG d   1      11.501   7.246  -7.895  0.00  0.00    -0.047 A 
ATOM     42  C   LIG d   1      11.244   8.237  -6.971  0.00  0.00    -0.047 A 
ATOM     43  H   LIG d   1      12.487   6.809  -7.958  0.00  0.00     0.063 H 
ATOM     44  C   LIG d   1       9.980   8.799  -6.887  0.00  0.00     0.018 A 
ATOM     45  H   LIG d   1      12.029   8.575  -6.311  0.00  0.00     0.063 H 
ATOM     46  C   LIG d   1       8.969   8.370  -7.730  0.00  0.00    -0.047 A 
ATOM     47 BR   LIG d   1       9.636  10.156  -5.617  0.00  0.00    -0.050 Br
ATOM     48  C   LIG d   1       9.215   7.384  -8.662  0.00  0.00    -0.047 A 
ATOM     49  H   LIG d   1       7.986   8.812  -7.660  0.00  0.00     0.063 H 
ATOM     50  H   LIG d   1       8.426   7.054  -9.322  0.00  0.00     0.063 H 
ENDBRANCH  38  40
ENDBRANCH  37  38
ENDBRANCH   2  37
TORSDOF 6
ENDMDL
MODEL 4
REMARK VINA RESULT:      -6.8      6.744      9.498
REMARK  6 active torsions:
REMARK  status: ('A' for Active; 'I' for Inactive)
REMARK    1  A    between atoms: C_1  and  C_2 
REMARK    2  A    between atoms: C_3  and  O_23 
REMARK    3  A    between atoms: C_10  and  C_11 
REMARK    4  A    between atoms: N_13  and  C_20 
REMARK    5  A    between atoms: O_23  and  C_24 
REMARK    6  A    between atoms: C_24  and  C_26 
ROOT
ATOM      1  C   LIG d   1       7.428  -7.692  -5.383  0.00  0.00     0.035 A 
ATOM      2  C   LIG d   1       6.602  -8.803  -5.439  0.00  0.00     0.138 A 
ATOM      3  C   LIG d   1       5.224  -8.654  -5.559  0.00  0.00    -0.018 A 
ATOM      4  C   LIG d   1       4.668  -7.406  -5.611  0.00  0.00    -0.044 A 
ATOM      5  C   LIG d   1       5.486  -6.279  -5.556  0.00  0.00     0.068 A 
ATOM      6  C   LIG d   1       6.880  -6.418  -5.441  0.00  0.00     0.146 A 
ATOM      7  O   LIG d   1       7.437  -5.189  -5.407  0.00  0.00    -0.451 OA
ATOM      8  C   LIG d   1       6.499  -4.216  -5.494  0.00  0.00     0.176 A 
ATOM      9  C   LIG d   1       6.739  -2.875  -5.488  0.00  0.00    -0.006 C 
ATOM     10  C   LIG d   1       5.222  -4.830  -5.592  0.00  0.00     0.232 A 
ATOM     11  O   LIG d   1       4.139  -4.276  -5.687  0.00  0.00    -0.283 OA
ATOM     12  H   LIG d   1       4.590  -9.528  -5.607  0.00  0.00     0.066 H 
ATOM     13  H   LIG d   1       3.597  -7.294  -5.701  0.00  0.00     0.063 H 
ATOM     14  H   LIG d   1       7.754  -2.508  -5.531  0.00  0.00     0.066 H 
ENDROOT
BRANCH   9  15
ATOM     15  C   LIG d   1       5.623  -1.933  -5.424  0.00  0.00     0.004 A 
ATOM     16  C   LIG d   1       4.945  -1.445  -4.208  0.00  0.00     0.007 A 
ATOM     17  C   LIG d   1       3.945  -0.564  -4.650  0.00  0.00     0.049 A 
ATOM     18  C   LIG d   1       5.113  -1.684  -2.847  0.00  0.00    -0.052 A 
ATOM     19  N   LIG d   1       4.007  -0.517  -6.028  0.00  0.00    -0.349 N 
ATOM     20  C   LIG d   1       3.127   0.063  -3.716  0.00  0.00    -0.038 A 
ATOM     21  C   LIG d   1       4.999  -1.319  -6.488  0.00  0.00     0.013 A 
ATOM     22  H   LIG d   1       5.257  -1.456  -7.527  0.00  0.00     0.082 H 
ATOM     23  C   LIG d   1       3.304  -0.183  -2.372  0.00  0.00    -0.060 A 
ATOM     24  H   LIG d   1       2.354   0.742  -4.043  0.00  0.00     0.064 H 
ATOM     25  C   LIG d   1       4.293  -1.053  -1.937  0.00  0.00    -0.061 A 
ATOM     26  H   LIG d   1       2.667   0.306  -1.649  0.00  0.00     0.062 H 
ATOM     27  H   LIG d   1       4.421  -1.237  -0.880  0.00  0.00     0.062 H 
ATOM     28  H   LIG d   1       5.882  -2.362  -2.506  0.00  0.00     0.062 H 
BRANCH  19  29
ATOM     29  C   LIG d   1       3.126   0.290  -6.876  0.00  0.00     0.012 C 
ATOM     30  H   LIG d   1       3.328   1.348  -6.705  0.00  0.00     0.046 H 
ATOM     31  H   LIG d   1       3.309   0.051  -7.923  0.00  0.00     0.046 H 
ATOM     32  H   LIG d   1       2.086   0.074  -6.630  0.00  0.00     0.046 H 
ENDBRANCH  19  29
ENDBRANCH   9  15
BRANCH   1  33
ATOM     33  C   LIG d   1       8.920  -7.866  -5.259  0.00  0.00    -0.033 C 
ATOM     34  H   LIG d   1       9.141  -8.498  -4.399  0.00  0.00     0.028 H 
ATOM     35  H   LIG d   1       9.308  -8.334  -6.164  0.00  0.00     0.028 H 
ATOM     36  H   LIG d   1       9.389  -6.891  -5.125  0.00  0.00     0.028 H 
ENDBRANCH   1  33
BRANCH   2  37
ATOM     37  O   LIG d   1       7.143 -10.047  -5.383  0.00  0.00    -0.422 OA
BRANCH  37  38
ATOM     38  C   LIG d   1       6.921 -10.759  -4.260  0.00  0.00     0.344 C 
ATOM     39  O   LIG d   1       6.011 -11.563  -4.220  0.00  0.00    -0.244 OA
BRANCH  38  40
ATOM     40  C   LIG d   1       7.789 -10.568  -3.081  0.00  0.00     0.059 A 
ATOM     41  C   LIG d   1       7.268 -10.012  -1.910  0.00  0.00    -0.047 A 
ATOM     42  C   LIG d   1       8.084  -9.835  -0.812  0.00  0.00    -0.047 A 
ATOM     43  H   LIG d   1       6.229  -9.721  -1.864  0.00  0.00     0.063 H 
ATOM     44  C   LIG d   1       9.417 -10.208  -0.869  0.00  0.00     0.018 A 
ATOM     45  H   LIG d   1       7.682  -9.406   0.094  0.00  0.00     0.063 H 
ATOM     46  C   LIG d   1       9.939 -10.759  -2.027  0.00  0.00    -0.047 A 
ATOM     47 BR   LIG d   1      10.528  -9.962   0.641  0.00  0.00    -0.050 Br
ATOM     48  C   LIG d   1       9.133 -10.947  -3.130  0.00  0.00    -0.047 A 
ATOM     49  H   LIG d   1      10.979 -11.048  -2.065  0.00  0.00     0.063 H 
ATOM     50  H   LIG d   1       9.539 -11.381  -4.031  0.00  0.00     0.063 H 
ENDBRANCH  38  40
ENDBRANCH  37  38
ENDBRANCH   2  37
TORSDOF 6
ENDMDL
MODEL 5
REMARK VINA RESULT:      -6.7      6.834      9.788
REMARK  6 active torsions:
REMARK  status: ('A' for Active; 'I' for Inactive)
REMARK    1  A    between atoms: C_1  and  C_2 
REMARK    2  A    between atoms: C_3  and  O_23 
REMARK    3  A    between atoms: C_10  and  C_11 
REMARK    4  A    between atoms: N_13  and  C_20 
REMARK    5  A    between atoms: O_23  and  C_24 
REMARK    6  A    between atoms: C_24  and  C_26 
ROOT
ATOM      1  C   LIG d   1       9.453  -6.905  -4.636  0.00  0.00     0.035 A 
ATOM      2  C   LIG d   1      10.226  -7.436  -3.616  0.00  0.00     0.138 A 
ATOM      3  C   LIG d   1      10.446  -6.714  -2.446  0.00  0.00    -0.018 A 
ATOM      4  C   LIG d   1       9.910  -5.465  -2.298  0.00  0.00    -0.044 A 
ATOM      5  C   LIG d   1       9.131  -4.918  -3.316  0.00  0.00     0.068 A 
ATOM      6  C   LIG d   1       8.897  -5.641  -4.498  0.00  0.00     0.146 A 
ATOM      7  O   LIG d   1       8.122  -4.897  -5.315  0.00  0.00    -0.451 OA
ATOM      8  C   LIG d   1       7.812  -3.704  -4.755  0.00  0.00     0.176 A 
ATOM      9  C   LIG d   1       7.047  -2.731  -5.325  0.00  0.00    -0.006 C 
ATOM     10  C   LIG d   1       8.420  -3.637  -3.473  0.00  0.00     0.232 A 
ATOM     11  O   LIG d   1       8.363  -2.717  -2.674  0.00  0.00    -0.283 OA
ATOM     12  H   LIG d   1      11.046  -7.140  -1.655  0.00  0.00     0.066 H 
ATOM     13  H   LIG d   1      10.086  -4.905  -1.390  0.00  0.00     0.063 H 
ATOM     14  H   LIG d   1       6.530  -2.925  -6.253  0.00  0.00     0.066 H 
ENDROOT
BRANCH   9  15
ATOM     15  C   LIG d   1       6.925  -1.425  -4.680  0.00  0.00     0.004 A 
ATOM     16  C   LIG d   1       5.917  -1.023  -3.679  0.00  0.00     0.007 A 
ATOM     17  C   LIG d   1       6.203   0.314  -3.359  0.00  0.00     0.049 A 
ATOM     18  C   LIG d   1       4.851  -1.675  -3.067  0.00  0.00    -0.052 A 
ATOM     19  N   LIG d   1       7.299   0.699  -4.106  0.00  0.00    -0.349 N 
ATOM     20  C   LIG d   1       5.411   0.976  -2.428  0.00  0.00    -0.038 A 
ATOM     21  C   LIG d   1       7.730  -0.326  -4.881  0.00  0.00     0.013 A 
ATOM     22  H   LIG d   1       8.574  -0.285  -5.554  0.00  0.00     0.082 H 
ATOM     23  C   LIG d   1       4.358   0.319  -1.829  0.00  0.00    -0.060 A 
ATOM     24  H   LIG d   1       5.619   2.004  -2.174  0.00  0.00     0.064 H 
ATOM     25  C   LIG d   1       4.078  -1.002  -2.146  0.00  0.00    -0.061 A 
ATOM     26  H   LIG d   1       3.744   0.836  -1.106  0.00  0.00     0.062 H 
ATOM     27  H   LIG d   1       3.249  -1.506  -1.670  0.00  0.00     0.062 H 
ATOM     28  H   LIG d   1       4.631  -2.703  -3.313  0.00  0.00     0.062 H 
BRANCH  19  29
ATOM     29  C   LIG d   1       7.913   2.028  -4.061  0.00  0.00     0.012 C 
ATOM     30  H   LIG d   1       8.391   2.176  -3.093  0.00  0.00     0.046 H 
ATOM     31  H   LIG d   1       8.660   2.111  -4.851  0.00  0.00     0.046 H 
ATOM     32  H   LIG d   1       7.145   2.789  -4.207  0.00  0.00     0.046 H 
ENDBRANCH  19  29
ENDBRANCH   9  15
BRANCH   1  33
ATOM     33  C   LIG d   1       9.217  -7.699  -5.895  0.00  0.00    -0.033 C 
ATOM     34  H   LIG d   1       8.762  -7.057  -6.649  0.00  0.00     0.028 H 
ATOM     35  H   LIG d   1      10.168  -8.080  -6.269  0.00  0.00     0.028 H 
ATOM     36  H   LIG d   1       8.551  -8.534  -5.678  0.00  0.00     0.028 H 
ENDBRANCH   1  33
BRANCH   2  37
ATOM     37  O   LIG d   1      10.767  -8.673  -3.755  0.00  0.00    -0.422 OA
BRANCH  37  38
ATOM     38  C   LIG d   1      10.276  -9.647  -2.963  0.00  0.00     0.344 C 
ATOM     39  O   LIG d   1      11.017 -10.262  -2.224  0.00  0.00    -0.244 OA
BRANCH  38  40
ATOM     40  C   LIG d   1       8.833  -9.961  -2.990  0.00  0.00     0.059 A 
ATOM     41  C   LIG d   1       8.280 -10.625  -4.088  0.00  0.00    -0.047 A 
ATOM     42  C   LIG d   1       6.932 -10.916  -4.108  0.00  0.00    -0.047 A 
ATOM     43  H   LIG d   1       8.907 -10.910  -4.921  0.00  0.00     0.063 H 
ATOM     44  C   LIG d   1       6.127 -10.552  -3.041  0.00  0.00     0.018 A 
ATOM     45  H   LIG d   1       6.504 -11.429  -4.956  0.00  0.00     0.063 H 
ATOM     46  C   LIG d   1       6.669  -9.894  -1.950  0.00  0.00    -0.047 A 
ATOM     47 BR   LIG d   1       4.280 -10.954  -3.076  0.00  0.00    -0.050 Br
ATOM     48  C   LIG d   1       8.016  -9.602  -1.915  0.00  0.00    -0.047 A 
ATOM     49  H   LIG d   1       6.036  -9.613  -1.121  0.00  0.00     0.063 H 
ATOM     50  H   LIG d   1       8.439  -9.093  -1.062  0.00  0.00     0.063 H 
ENDBRANCH  38  40
ENDBRANCH  37  38
ENDBRANCH   2  37
TORSDOF 6
ENDMDL
MODEL 6
REMARK VINA RESULT:      -6.6      3.292      4.492
REMARK  6 active torsions:
REMARK  status: ('A' for Active; 'I' for Inactive)
REMARK    1  A    between atoms: C_1  and  C_2 
REMARK    2  A    between atoms: C_3  and  O_23 
REMARK    3  A    between atoms: C_10  and  C_11 
REMARK    4  A    between atoms: N_13  and  C_20 
REMARK    5  A    between atoms: O_23  and  C_24 
REMARK    6  A    between atoms: C_24  and  C_26 
ROOT
ATOM      1  C   LIG d   1       1.566  -2.325 -11.108  0.00  0.00     0.035 A 
ATOM      2  C   LIG d   1       1.584  -3.615 -11.612  0.00  0.00     0.138 A 
ATOM      3  C   LIG d   1       2.279  -4.623 -10.951  0.00  0.00    -0.018 A 
ATOM      4  C   LIG d   1       2.963  -4.348  -9.800  0.00  0.00    -0.044 A 
ATOM      5  C   LIG d   1       2.954  -3.054  -9.281  0.00  0.00     0.068 A 
ATOM      6  C   LIG d   1       2.251  -2.029  -9.937  0.00  0.00     0.146 A 
ATOM      7  O   LIG d   1       2.401  -0.884  -9.238  0.00  0.00    -0.451 OA
ATOM      8  C   LIG d   1       3.168  -1.071  -8.138  0.00  0.00     0.176 A 
ATOM      9  C   LIG d   1       3.504  -0.113  -7.230  0.00  0.00    -0.006 C 
ATOM     10  C   LIG d   1       3.564  -2.433  -8.091  0.00  0.00     0.232 A 
ATOM     11  O   LIG d   1       4.259  -2.974  -7.247  0.00  0.00    -0.283 OA
ATOM     12  H   LIG d   1       2.281  -5.628 -11.351  0.00  0.00     0.066 H 
ATOM     13  H   LIG d   1       3.504  -5.132  -9.291  0.00  0.00     0.063 H 
ATOM     14  H   LIG d   1       3.054   0.868  -7.288  0.00  0.00     0.066 H 
ENDROOT
BRANCH   9  15
ATOM     15  C   LIG d   1       4.472  -0.411  -6.176  0.00  0.00     0.004 A 
ATOM     16  C   LIG d   1       4.177  -0.725  -4.765  0.00  0.00     0.007 A 
ATOM     17  C   LIG d   1       5.420  -0.936  -4.148  0.00  0.00     0.049 A 
ATOM     18  C   LIG d   1       3.003  -0.835  -4.027  0.00  0.00    -0.052 A 
ATOM     19  N   LIG d   1       6.399  -0.765  -5.106  0.00  0.00    -0.349 N 
ATOM     20  C   LIG d   1       5.463  -1.255  -2.794  0.00  0.00    -0.038 A 
ATOM     21  C   LIG d   1       5.843  -0.460  -6.304  0.00  0.00     0.013 A 
ATOM     22  H   LIG d   1       6.392  -0.282  -7.218  0.00  0.00     0.082 H 
ATOM     23  C   LIG d   1       4.293  -1.360  -2.075  0.00  0.00    -0.060 A 
ATOM     24  H   LIG d   1       6.413  -1.419  -2.308  0.00  0.00     0.064 H 
ATOM     25  C   LIG d   1       3.066  -1.152  -2.687  0.00  0.00    -0.061 A 
ATOM     26  H   LIG d   1       4.331  -1.608  -1.024  0.00  0.00     0.062 H 
ATOM     27  H   LIG d   1       2.156  -1.238  -2.111  0.00  0.00     0.062 H 
ATOM     28  H   LIG d   1       2.046  -0.672  -4.501  0.00  0.00     0.062 H 
BRANCH  19  29
ATOM     29  C   LIG d   1       7.837  -0.898  -4.862  0.00  0.00     0.012 C 
ATOM     30  H   LIG d   1       8.350  -1.084  -5.806  0.00  0.00     0.046 H 
ATOM     31  H   LIG d   1       8.218   0.021  -4.417  0.00  0.00     0.046 H 
ATOM     32  H   LIG d   1       8.015  -1.731  -4.181  0.00  0.00     0.046 H 
ENDBRANCH  19  29
ENDBRANCH   9  15
BRANCH   1  33
ATOM     33  C   LIG d   1       0.806  -1.242 -11.830  0.00  0.00    -0.033 C 
ATOM     34  H   LIG d   1       1.461  -0.387 -11.994  0.00  0.00     0.028 H 
ATOM     35  H   LIG d   1       0.456  -1.622 -12.790  0.00  0.00     0.028 H 
ATOM     36  H   LIG d   1      -0.049  -0.935 -11.227  0.00  0.00     0.028 H 
ENDBRANCH   1  33
BRANCH   2  37
ATOM     37  O   LIG d   1       0.913  -3.899 -12.757  0.00  0.00    -0.422 OA
BRANCH  37  38
ATOM     38  C   LIG d   1      -0.002  -4.888 -12.699  0.00  0.00     0.344 C 
ATOM     39  O   LIG d   1       0.256  -5.983 -13.156  0.00  0.00    -0.244 OA
BRANCH  38  40
ATOM     40  C   LIG d   1      -1.317  -4.640 -12.074  0.00  0.00     0.059 A 
ATOM     41  C   LIG d   1      -2.266  -3.851 -12.726  0.00  0.00    -0.047 A 
ATOM     42  C   LIG d   1      -3.492  -3.623 -12.137  0.00  0.00    -0.047 A 
ATOM     43  H   LIG d   1      -2.041  -3.418 -13.690  0.00  0.00     0.063 H 
ATOM     44  C   LIG d   1      -3.783  -4.176 -10.901  0.00  0.00     0.018 A 
ATOM     45  H   LIG d   1      -4.227  -3.012 -12.640  0.00  0.00     0.063 H 
ATOM     46  C   LIG d   1      -2.846  -4.960 -10.249  0.00  0.00    -0.047 A 
ATOM     47 BR   LIG d   1      -5.466  -3.859 -10.101  0.00  0.00    -0.050 Br
ATOM     48  C   LIG d   1      -1.619  -5.200 -10.830  0.00  0.00    -0.047 A 
ATOM     49  H   LIG d   1      -3.079  -5.389  -9.285  0.00  0.00     0.063 H 
ATOM     50  H   LIG d   1      -0.891  -5.815 -10.323  0.00  0.00     0.063 H 
ENDBRANCH  38  40
ENDBRANCH  37  38
ENDBRANCH   2  37
TORSDOF 6
ENDMDL
MODEL 7
REMARK VINA RESULT:      -6.6      6.460      8.746
REMARK  6 active torsions:
REMARK  status: ('A' for Active; 'I' for Inactive)
REMARK    1  A    between atoms: C_1  and  C_2 
REMARK    2  A    between atoms: C_3  and  O_23 
REMARK    3  A    between atoms: C_10  and  C_11 
REMARK    4  A    between atoms: N_13  and  C_20 
REMARK    5  A    between atoms: O_23  and  C_24 
REMARK    6  A    between atoms: C_24  and  C_26 
ROOT
ATOM      1  C   LIG d   1      10.024   4.431  -7.229  0.00  0.00     0.035 A 
ATOM      2  C   LIG d   1       9.795   4.646  -8.579  0.00  0.00     0.138 A 
ATOM      3  C   LIG d   1       8.885   3.857  -9.276  0.00  0.00    -0.018 A 
ATOM      4  C   LIG d   1       8.216   2.851  -8.638  0.00  0.00    -0.044 A 
ATOM      5  C   LIG d   1       8.436   2.623  -7.281  0.00  0.00     0.068 A 
ATOM      6  C   LIG d   1       9.347   3.417  -6.565  0.00  0.00     0.146 A 
ATOM      7  O   LIG d   1       9.378   2.996  -5.283  0.00  0.00    -0.451 OA
ATOM      8  C   LIG d   1       8.534   1.955  -5.083  0.00  0.00     0.176 A 
ATOM      9  C   LIG d   1       8.336   1.307  -3.901  0.00  0.00    -0.006 C 
ATOM     10  C   LIG d   1       7.892   1.653  -6.313  0.00  0.00     0.232 A 
ATOM     11  O   LIG d   1       7.067   0.780  -6.522  0.00  0.00    -0.283 OA
ATOM     12  H   LIG d   1       8.711   4.037 -10.328  0.00  0.00     0.066 H 
ATOM     13  H   LIG d   1       7.512   2.237  -9.183  0.00  0.00     0.063 H 
ATOM     14  H   LIG d   1       8.782   1.688  -2.994  0.00  0.00     0.066 H 
ENDROOT
BRANCH   9  15
ATOM     15  C   LIG d   1       7.519   0.096  -3.860  0.00  0.00     0.004 A 
ATOM     16  C   LIG d   1       6.192  -0.056  -3.233  0.00  0.00     0.007 A 
ATOM     17  C   LIG d   1       5.811  -1.390  -3.451  0.00  0.00     0.049 A 
ATOM     18  C   LIG d   1       5.347   0.806  -2.540  0.00  0.00    -0.052 A 
ATOM     19  N   LIG d   1       6.826  -2.006  -4.155  0.00  0.00    -0.349 N 
ATOM     20  C   LIG d   1       4.586  -1.837  -2.967  0.00  0.00    -0.038 A 
ATOM     21  C   LIG d   1       7.832  -1.131  -4.403  0.00  0.00     0.013 A 
ATOM     22  H   LIG d   1       8.739  -1.362  -4.941  0.00  0.00     0.082 H 
ATOM     23  C   LIG d   1       3.760  -0.973  -2.282  0.00  0.00    -0.060 A 
ATOM     24  H   LIG d   1       4.283  -2.861  -3.127  0.00  0.00     0.064 H 
ATOM     25  C   LIG d   1       4.137   0.345  -2.069  0.00  0.00    -0.061 A 
ATOM     26  H   LIG d   1       2.810  -1.324  -1.908  0.00  0.00     0.062 H 
ATOM     27  H   LIG d   1       3.480   1.012  -1.530  0.00  0.00     0.062 H 
ATOM     28  H   LIG d   1       5.640   1.833  -2.372  0.00  0.00     0.062 H 
BRANCH  19  29
ATOM     29  C   LIG d   1       6.815  -3.407  -4.581  0.00  0.00     0.012 C 
ATOM     30  H   LIG d   1       6.728  -3.457  -5.666  0.00  0.00     0.046 H 
ATOM     31  H   LIG d   1       7.741  -3.890  -4.269  0.00  0.00     0.046 H 
ATOM     32  H   LIG d   1       5.967  -3.919  -4.124  0.00  0.00     0.046 H 
ENDBRANCH  19  29
ENDBRANCH   9  15
BRANCH   1  33
ATOM     33  C   LIG d   1      11.007   5.296  -6.483  0.00  0.00    -0.033 C 
ATOM     34  H   LIG d   1      11.346   4.771  -5.590  0.00  0.00     0.028 H 
ATOM     35  H   LIG d   1      11.862   5.511  -7.124  0.00  0.00     0.028 H 
ATOM     36  H   LIG d   1      10.524   6.229  -6.196  0.00  0.00     0.028 H 
ENDBRANCH   1  33
BRANCH   2  37
ATOM     37  O   LIG d   1      10.459   5.639  -9.224  0.00  0.00    -0.422 OA
BRANCH  37  38
ATOM     38  C   LIG d   1       9.727   6.691  -9.642  0.00  0.00     0.344 C 
ATOM     39  O   LIG d   1       9.062   7.323  -8.846  0.00  0.00    -0.244 OA
BRANCH  38  40
ATOM     40  C   LIG d   1       9.741   7.081 -11.066  0.00  0.00     0.059 A 
ATOM     41  C   LIG d   1      10.356   8.270 -11.462  0.00  0.00    -0.047 A 
ATOM     42  C   LIG d   1      10.366   8.629 -12.793  0.00  0.00    -0.047 A 
ATOM     43  H   LIG d   1      10.824   8.909 -10.727  0.00  0.00     0.063 H 
ATOM     44  C   LIG d   1       9.767   7.811 -13.738  0.00  0.00     0.018 A 
ATOM     45  H   LIG d   1      10.841   9.548 -13.101  0.00  0.00     0.063 H 
ATOM     46  C   LIG d   1       9.155   6.631 -13.352  0.00  0.00    -0.047 A 
ATOM     47 BR   LIG d   1       9.785   8.310 -15.562  0.00  0.00    -0.050 Br
ATOM     48  C   LIG d   1       9.144   6.258 -12.024  0.00  0.00    -0.047 A 
ATOM     49  H   LIG d   1       8.690   5.997 -14.093  0.00  0.00     0.063 H 
ATOM     50  H   LIG d   1       8.670   5.335 -11.725  0.00  0.00     0.063 H 
ENDBRANCH  38  40
ENDBRANCH  37  38
ENDBRANCH   2  37
TORSDOF 6
ENDMDL
MODEL 8
REMARK VINA RESULT:      -6.5      6.361     11.800
REMARK  6 active torsions:
REMARK  status: ('A' for Active; 'I' for Inactive)
REMARK    1  A    between atoms: C_1  and  C_2 
REMARK    2  A    between atoms: C_3  and  O_23 
REMARK    3  A    between atoms: C_10  and  C_11 
REMARK    4  A    between atoms: N_13  and  C_20 
REMARK    5  A    between atoms: O_23  and  C_24 
REMARK    6  A    between atoms: C_24  and  C_26 
ROOT
ATOM      1  C   LIG d   1      11.562   2.087  -4.089  0.00  0.00     0.035 A 
ATOM      2  C   LIG d   1      11.708   3.348  -3.535  0.00  0.00     0.138 A 
ATOM      3  C   LIG d   1      10.592   4.085  -3.149  0.00  0.00    -0.018 A 
ATOM      4  C   LIG d   1       9.336   3.575  -3.325  0.00  0.00    -0.044 A 
ATOM      5  C   LIG d   1       9.173   2.307  -3.881  0.00  0.00     0.068 A 
ATOM      6  C   LIG d   1      10.293   1.552  -4.268  0.00  0.00     0.146 A 
ATOM      7  O   LIG d   1       9.869   0.375  -4.773  0.00  0.00    -0.451 OA
ATOM      8  C   LIG d   1       8.518   0.283  -4.751  0.00  0.00     0.176 A 
ATOM      9  C   LIG d   1       7.785  -0.777  -5.190  0.00  0.00    -0.006 C 
ATOM     10  C   LIG d   1       7.995   1.480  -4.195  0.00  0.00     0.232 A 
ATOM     11  O   LIG d   1       6.822   1.762  -4.014  0.00  0.00    -0.283 OA
ATOM     12  H   LIG d   1      10.718   5.066  -2.713  0.00  0.00     0.066 H 
ATOM     13  H   LIG d   1       8.471   4.151  -3.027  0.00  0.00     0.063 H 
ATOM     14  H   LIG d   1       8.279  -1.691  -5.486  0.00  0.00     0.066 H 
ENDROOT
BRANCH   9  15
ATOM     15  C   LIG d   1       6.328  -0.680  -5.260  0.00  0.00     0.004 A 
ATOM     16  C   LIG d   1       5.369  -0.967  -4.176  0.00  0.00     0.007 A 
ATOM     17  C   LIG d   1       4.093  -0.734  -4.717  0.00  0.00     0.049 A 
ATOM     18  C   LIG d   1       5.501  -1.383  -2.855  0.00  0.00    -0.052 A 
ATOM     19  N   LIG d   1       4.260  -0.336  -6.028  0.00  0.00    -0.349 N 
ATOM     20  C   LIG d   1       2.970  -0.923  -3.919  0.00  0.00    -0.038 A 
ATOM     21  C   LIG d   1       5.577  -0.298  -6.350  0.00  0.00     0.013 A 
ATOM     22  H   LIG d   1       5.974  -0.013  -7.313  0.00  0.00     0.082 H 
ATOM     23  C   LIG d   1       3.116  -1.336  -2.612  0.00  0.00    -0.060 A 
ATOM     24  H   LIG d   1       1.984  -0.748  -4.323  0.00  0.00     0.064 H 
ATOM     25  C   LIG d   1       4.376  -1.565  -2.080  0.00  0.00    -0.061 A 
ATOM     26  H   LIG d   1       2.241  -1.482  -1.996  0.00  0.00     0.062 H 
ATOM     27  H   LIG d   1       4.476  -1.888  -1.054  0.00  0.00     0.062 H 
ATOM     28  H   LIG d   1       6.482  -1.563  -2.439  0.00  0.00     0.062 H 
BRANCH  19  29
ATOM     29  C   LIG d   1       3.167   0.004  -6.942  0.00  0.00     0.012 C 
ATOM     30  H   LIG d   1       3.570   0.514  -7.816  0.00  0.00     0.046 H 
ATOM     31  H   LIG d   1       2.659  -0.908  -7.256  0.00  0.00     0.046 H 
ATOM     32  H   LIG d   1       2.458   0.658  -6.433  0.00  0.00     0.046 H 
ENDBRANCH  19  29
ENDBRANCH   9  15
BRANCH   1  33
ATOM     33  C   LIG d   1      12.778   1.296  -4.497  0.00  0.00    -0.033 C 
ATOM     34  H   LIG d   1      13.632   1.609  -3.896  0.00  0.00     0.028 H 
ATOM     35  H   LIG d   1      12.592   0.234  -4.338  0.00  0.00     0.028 H 
ATOM     36  H   LIG d   1      12.990   1.474  -5.551  0.00  0.00     0.028 H 
ENDBRANCH   1  33
BRANCH   2  37
ATOM     37  O   LIG d   1      12.950   3.867  -3.360  0.00  0.00    -0.422 OA
BRANCH  37  38
ATOM     38  C   LIG d   1      13.087   5.197  -3.534  0.00  0.00     0.344 C 
ATOM     39  O   LIG d   1      13.452   5.636  -4.606  0.00  0.00    -0.244 OA
BRANCH  38  40
ATOM     40  C   LIG d   1      12.785   6.121  -2.422  0.00  0.00     0.059 A 
ATOM     41  C   LIG d   1      12.211   7.367  -2.682  0.00  0.00    -0.047 A 
ATOM     42  C   LIG d   1      11.932   8.226  -1.641  0.00  0.00    -0.047 A 
ATOM     43  H   LIG d   1      11.988   7.659  -3.698  0.00  0.00     0.063 H 
ATOM     44  C   LIG d   1      12.218   7.854  -0.337  0.00  0.00     0.018 A 
ATOM     45  H   LIG d   1      11.489   9.190  -1.840  0.00  0.00     0.063 H 
ATOM     46  C   LIG d   1      12.787   6.620  -0.072  0.00  0.00    -0.047 A 
ATOM     47 BR   LIG d   1      11.832   9.038   1.086  0.00  0.00    -0.050 Br
ATOM     48  C   LIG d   1      13.066   5.750  -1.105  0.00  0.00    -0.047 A 
ATOM     49  H   LIG d   1      13.008   6.335   0.946  0.00  0.00     0.063 H 
ATOM     50  H   LIG d   1      13.505   4.785  -0.897  0.00  0.00     0.063 H 
ENDBRANCH  38  40
ENDBRANCH  37  38
ENDBRANCH   2  37
TORSDOF 6
ENDMDL
MODEL 9
REMARK VINA RESULT:      -6.2      7.292     10.882
REMARK  6 active torsions:
REMARK  status: ('A' for Active; 'I' for Inactive)
REMARK    1  A    between atoms: C_1  and  C_2 
REMARK    2  A    between atoms: C_3  and  O_23 
REMARK    3  A    between atoms: C_10  and  C_11 
REMARK    4  A    between atoms: N_13  and  C_20 
REMARK    5  A    between atoms: O_23  and  C_24 
REMARK    6  A    between atoms: C_24  and  C_26 
ROOT
ATOM      1  C   LIG d   1      10.890  -5.059  -4.015  0.00  0.00     0.035 A 
ATOM      2  C   LIG d   1      10.745  -6.436  -4.021  0.00  0.00     0.138 A 
ATOM      3  C   LIG d   1       9.516  -7.017  -4.320  0.00  0.00    -0.018 A 
ATOM      4  C   LIG d   1       8.433  -6.231  -4.598  0.00  0.00    -0.044 A 
ATOM      5  C   LIG d   1       8.563  -4.844  -4.596  0.00  0.00     0.068 A 
ATOM      6  C   LIG d   1       9.801  -4.247  -4.302  0.00  0.00     0.146 A 
ATOM      7  O   LIG d   1       9.662  -2.906  -4.364  0.00  0.00    -0.451 OA
ATOM      8  C   LIG d   1       8.395  -2.553  -4.686  0.00  0.00     0.176 A 
ATOM      9  C   LIG d   1       7.935  -1.278  -4.827  0.00  0.00    -0.006 C 
ATOM     10  C   LIG d   1       7.626  -3.735  -4.851  0.00  0.00     0.232 A 
ATOM     11  O   LIG d   1       6.445  -3.816  -5.144  0.00  0.00    -0.283 OA
ATOM     12  H   LIG d   1       9.416  -8.093  -4.327  0.00  0.00     0.066 H 
ATOM     13  H   LIG d   1       7.479  -6.685  -4.827  0.00  0.00     0.063 H 
ATOM     14  H   LIG d   1       8.625  -0.448  -4.799  0.00  0.00     0.066 H 
ENDROOT
BRANCH   9  15
ATOM     15  C   LIG d   1       6.506  -1.033  -5.017  0.00  0.00     0.004 A 
ATOM     16  C   LIG d   1       5.452  -1.097  -3.987  0.00  0.00     0.007 A 
ATOM     17  C   LIG d   1       4.250  -0.788  -4.644  0.00  0.00     0.049 A 
ATOM     18  C   LIG d   1       5.450  -1.381  -2.624  0.00  0.00    -0.052 A 
ATOM     19  N   LIG d   1       4.546  -0.553  -5.972  0.00  0.00    -0.349 N 
ATOM     20  C   LIG d   1       3.063  -0.768  -3.920  0.00  0.00    -0.038 A 
ATOM     21  C   LIG d   1       5.877  -0.692  -6.194  0.00  0.00     0.013 A 
ATOM     22  H   LIG d   1       6.366  -0.557  -7.147  0.00  0.00     0.082 H 
ATOM     23  C   LIG d   1       3.075  -1.051  -2.571  0.00  0.00    -0.060 A 
ATOM     24  H   LIG d   1       2.132  -0.532  -4.413  0.00  0.00     0.064 H 
ATOM     25  C   LIG d   1       4.263  -1.356  -1.924  0.00  0.00    -0.061 A 
ATOM     26  H   LIG d   1       2.151  -1.035  -2.012  0.00  0.00     0.062 H 
ATOM     27  H   LIG d   1       4.259  -1.576  -0.866  0.00  0.00     0.062 H 
ATOM     28  H   LIG d   1       6.374  -1.619  -2.119  0.00  0.00     0.062 H 
BRANCH  19  29
ATOM     29  C   LIG d   1       3.561  -0.198  -6.996  0.00  0.00     0.012 C 
ATOM     30  H   LIG d   1       2.899   0.577  -6.610  0.00  0.00     0.046 H 
ATOM     31  H   LIG d   1       4.076   0.173  -7.883  0.00  0.00     0.046 H 
ATOM     32  H   LIG d   1       2.975  -1.079  -7.258  0.00  0.00     0.046 H 
ENDBRANCH  19  29
ENDBRANCH   9  15
BRANCH   1  33
ATOM     33  C   LIG d   1      12.227  -4.442  -3.696  0.00  0.00    -0.033 C 
ATOM     34  H   LIG d   1      12.426  -4.540  -2.628  0.00  0.00     0.028 H 
ATOM     35  H   LIG d   1      13.008  -4.953  -4.259  0.00  0.00     0.028 H 
ATOM     36  H   LIG d   1      12.215  -3.387  -3.967  0.00  0.00     0.028 H 
ENDBRANCH   1  33
BRANCH   2  37
ATOM     37  O   LIG d   1      11.812  -7.227  -3.740  0.00  0.00    -0.422 OA
BRANCH  37  38
ATOM     38  C   LIG d   1      11.554  -8.429  -3.186  0.00  0.00     0.344 C 
ATOM     39  O   LIG d   1      11.431  -9.409  -3.892  0.00  0.00    -0.244 OA
BRANCH  38  40
ATOM     40  C   LIG d   1      11.427  -8.553  -1.720  0.00  0.00     0.059 A 
ATOM     41  C   LIG d   1      12.334  -7.904  -0.880  0.00  0.00    -0.047 A 
ATOM     42  C   LIG d   1      12.211  -8.024   0.488  0.00  0.00    -0.047 A 
ATOM     43  H   LIG d   1      13.133  -7.310  -1.301  0.00  0.00     0.063 H 
ATOM     44  C   LIG d   1      11.189  -8.786   1.030  0.00  0.00     0.018 A 
ATOM     45  H   LIG d   1      12.913  -7.523   1.139  0.00  0.00     0.063 H 
ATOM     46  C   LIG d   1      10.286  -9.431   0.203  0.00  0.00    -0.047 A 
ATOM     47 BR   LIG d   1      11.027  -8.945   2.907  0.00  0.00    -0.050 Br
ATOM     48  C   LIG d   1      10.394  -9.315  -1.167  0.00  0.00    -0.047 A 
ATOM     49  H   LIG d   1       9.490 -10.024   0.631  0.00  0.00     0.063 H 
ATOM     50  H   LIG d   1       9.687  -9.815  -1.811  0.00  0.00     0.063 H 
ENDBRANCH  38  40
ENDBRANCH  37  38
ENDBRANCH   2  37
TORSDOF 6
ENDMDL
MODEL 10
REMARK VINA RESULT:      -6.1      4.650      7.993
REMARK  6 active torsions:
REMARK  status: ('A' for Active; 'I' for Inactive)
REMARK    1  A    between atoms: C_1  and  C_2 
REMARK    2  A    between atoms: C_3  and  O_23 
REMARK    3  A    between atoms: C_10  and  C_11 
REMARK    4  A    between atoms: N_13  and  C_20 
REMARK    5  A    between atoms: O_23  and  C_24 
REMARK    6  A    between atoms: C_24  and  C_26 
ROOT
ATOM      1  C   LIG d   1       7.908  -0.896  -5.162  0.00  0.00     0.035 A 
ATOM      2  C   LIG d   1       6.847  -1.254  -4.347  0.00  0.00     0.138 A 
ATOM      3  C   LIG d   1       6.425  -0.410  -3.323  0.00  0.00    -0.018 A 
ATOM      4  C   LIG d   1       7.065   0.778  -3.103  0.00  0.00    -0.044 A 
ATOM      5  C   LIG d   1       8.134   1.151  -3.915  0.00  0.00     0.068 A 
ATOM      6  C   LIG d   1       8.564   0.310  -4.955  0.00  0.00     0.146 A 
ATOM      7  O   LIG d   1       9.605   0.895  -5.584  0.00  0.00    -0.451 OA
ATOM      8  C   LIG d   1       9.911   2.092  -5.030  0.00  0.00     0.176 A 
ATOM      9  C   LIG d   1      10.909   2.926  -5.436  0.00  0.00    -0.006 C 
ATOM     10  C   LIG d   1       9.016   2.332  -3.954  0.00  0.00     0.232 A 
ATOM     11  O   LIG d   1       8.983   3.305  -3.220  0.00  0.00    -0.283 OA
ATOM     12  H   LIG d   1       5.592  -0.697  -2.696  0.00  0.00     0.066 H 
ATOM     13  H   LIG d   1       6.738   1.429  -2.305  0.00  0.00     0.063 H 
ATOM     14  H   LIG d   1      11.458   2.711  -6.341  0.00  0.00     0.066 H 
ENDROOT
BRANCH   9  15
ATOM     15  C   LIG d   1      11.235   4.113  -4.649  0.00  0.00     0.004 A 
ATOM     16  C   LIG d   1      10.656   5.462  -4.799  0.00  0.00     0.007 A 
ATOM     17  C   LIG d   1      11.279   6.261  -3.826  0.00  0.00     0.049 A 
ATOM     18  C   LIG d   1       9.702   6.014  -5.648  0.00  0.00    -0.052 A 
ATOM     19  N   LIG d   1      12.169   5.463  -3.135  0.00  0.00    -0.349 N 
ATOM     20  C   LIG d   1      10.932   7.604  -3.722  0.00  0.00    -0.038 A 
ATOM     21  C   LIG d   1      12.142   4.195  -3.614  0.00  0.00     0.013 A 
ATOM     22  H   LIG d   1      12.740   3.376  -3.243  0.00  0.00     0.082 H 
ATOM     23  C   LIG d   1       9.986   8.137  -4.570  0.00  0.00    -0.060 A 
ATOM     24  H   LIG d   1      11.405   8.228  -2.979  0.00  0.00     0.064 H 
ATOM     25  C   LIG d   1       9.371   7.346  -5.530  0.00  0.00    -0.061 A 
ATOM     26  H   LIG d   1       9.719   9.181  -4.487  0.00  0.00     0.062 H 
ATOM     27  H   LIG d   1       8.630   7.777  -6.188  0.00  0.00     0.062 H 
ATOM     28  H   LIG d   1       9.223   5.400  -6.397  0.00  0.00     0.062 H 
BRANCH  19  29
ATOM     29  C   LIG d   1      13.020   5.922  -2.035  0.00  0.00     0.012 C 
ATOM     30  H   LIG d   1      14.066   5.853  -2.332  0.00  0.00     0.046 H 
ATOM     31  H   LIG d   1      12.778   6.957  -1.795  0.00  0.00     0.046 H 
ATOM     32  H   LIG d   1      12.849   5.297  -1.158  0.00  0.00     0.046 H 
ENDBRANCH  19  29
ENDBRANCH   9  15
BRANCH   1  33
ATOM     33  C   LIG d   1       8.351  -1.815  -6.271  0.00  0.00    -0.033 C 
ATOM     34  H   LIG d   1       9.372  -2.148  -6.080  0.00  0.00     0.028 H 
ATOM     35  H   LIG d   1       7.689  -2.680  -6.313  0.00  0.00     0.028 H 
ATOM     36  H   LIG d   1       8.314  -1.282  -7.221  0.00  0.00     0.028 H 
ENDBRANCH   1  33
BRANCH   2  37
ATOM     37  O   LIG d   1       6.207  -2.433  -4.552  0.00  0.00    -0.422 OA
BRANCH  37  38
ATOM     38  C   LIG d   1       4.881  -2.377  -4.786  0.00  0.00     0.344 C 
ATOM     39  O   LIG d   1       4.119  -3.058  -4.130  0.00  0.00    -0.244 OA
BRANCH  38  40
ATOM     40  C   LIG d   1       4.354  -1.481  -5.834  0.00  0.00     0.059 A 
ATOM     41  C   LIG d   1       3.507  -0.424  -5.493  0.00  0.00    -0.047 A 
ATOM     42  C   LIG d   1       3.017   0.410  -6.476  0.00  0.00    -0.047 A 
ATOM     43  H   LIG d   1       3.234  -0.260  -4.460  0.00  0.00     0.063 H 
ATOM     44  C   LIG d   1       3.366   0.201  -7.801  0.00  0.00     0.018 A 
ATOM     45  H   LIG d   1       2.362   1.227  -6.214  0.00  0.00     0.063 H 
ATOM     46  C   LIG d   1       4.205  -0.844  -8.146  0.00  0.00    -0.047 A 
ATOM     47 BR   LIG d   1       2.690   1.349  -9.143  0.00  0.00    -0.050 Br
ATOM     48  C   LIG d   1       4.705  -1.682  -7.171  0.00  0.00    -0.047 A 
ATOM     49  H   LIG d   1       4.473  -1.002  -9.181  0.00  0.00     0.063 H 
ATOM     50  H   LIG d   1       5.364  -2.494  -7.441  0.00  0.00     0.063 H 
ENDBRANCH  38  40
ENDBRANCH  37  38
ENDBRANCH   2  37
TORSDOF 6
ENDMDL
