MODEL 1
REMARK VINA RESULT:      -5.7      0.000      0.000
REMARK  1 active torsions:
REMARK  status: ('A' for Active; 'I' for Inactive)
REMARK    1  A    between atoms: C_9  and  C_13 
ROOT
ATOM      1  C   LIG d   1       6.544  -4.522  -5.098  0.00  0.00    -0.044 A 
ATOM      2  C   LIG d   1       5.272  -4.051  -4.846  0.00  0.00    -0.018 A 
ATOM      3  C   LIG d   1       5.096  -2.811  -4.242  0.00  0.00     0.139 A 
ATOM      4  C   LIG d   1       6.226  -2.048  -3.895  0.00  0.00     0.019 A 
ATOM      5  C   LIG d   1       7.511  -2.546  -4.160  0.00  0.00    -0.037 A 
ATOM      6  C   LIG d   1       7.658  -3.768  -4.754  0.00  0.00     0.019 A 
ATOM      7 BR   LIG d   1       9.391  -4.436  -5.111  0.00  0.00    -0.050 Br
ATOM      8  C   LIG d   1       6.066  -0.781  -3.280  0.00  0.00    -0.035 A 
ATOM      9  C   LIG d   1       4.784  -0.320  -3.031  0.00  0.00     0.082 A 
ATOM     10  C   LIG d   1       3.644  -1.160  -3.415  0.00  0.00     0.346 A 
ATOM     11  O   LIG d   1       2.509  -0.775  -3.206  0.00  0.00    -0.244 OA
ATOM     12  O   LIG d   1       3.850  -2.354  -3.996  0.00  0.00    -0.422 OA
ATOM     13  H   LIG d   1       6.674  -5.486  -5.567  0.00  0.00     0.063 H 
ATOM     14  H   LIG d   1       4.413  -4.648  -5.113  0.00  0.00     0.066 H 
ATOM     15  H   LIG d   1       8.382  -1.965  -3.895  0.00  0.00     0.064 H 
ATOM     16  H   LIG d   1       6.927  -0.187  -3.010  0.00  0.00     0.063 H 
ENDROOT
BRANCH   9  17
ATOM     17  C   LIG d   1       4.569   0.988  -2.394  0.00  0.00     0.079 C 
ATOM     18  O   LIG d   1       4.786   1.129  -1.206  0.00  0.00    -0.544 OA
ATOM     19  O   LIG d   1       4.133   2.032  -3.126  0.00  0.00    -0.544 OA
ENDBRANCH   9  17
TORSDOF 1
ENDMDL
MODEL 2
REMARK VINA RESULT:      -5.4      1.857      2.563
REMARK  1 active torsions:
REMARK  status: ('A' for Active; 'I' for Inactive)
REMARK    1  A    between atoms: C_9  and  C_13 
ROOT
ATOM      1  C   LIG d   1       6.939  -4.007  -4.995  0.00  0.00    -0.044 A 
ATOM      2  C   LIG d   1       7.398  -2.788  -4.540  0.00  0.00    -0.018 A 
ATOM      3  C   LIG d   1       6.493  -1.800  -4.169  0.00  0.00     0.139 A 
ATOM      4  C   LIG d   1       5.114  -2.058  -4.262  0.00  0.00     0.019 A 
ATOM      5  C   LIG d   1       4.669  -3.305  -4.728  0.00  0.00    -0.037 A 
ATOM      6  C   LIG d   1       5.578  -4.261  -5.088  0.00  0.00     0.019 A 
ATOM      7 BR   LIG d   1       4.976  -5.940  -5.715  0.00  0.00    -0.050 Br
ATOM      8  C   LIG d   1       4.177  -1.062  -3.887  0.00  0.00    -0.035 A 
ATOM      9  C   LIG d   1       4.650   0.157  -3.433  0.00  0.00     0.082 A 
ATOM     10  C   LIG d   1       6.099   0.370  -3.357  0.00  0.00     0.346 A 
ATOM     11  O   LIG d   1       6.537   1.434  -2.961  0.00  0.00    -0.244 OA
ATOM     12  O   LIG d   1       6.946  -0.608  -3.724  0.00  0.00    -0.422 OA
ATOM     13  H   LIG d   1       7.647  -4.771  -5.283  0.00  0.00     0.063 H 
ATOM     14  H   LIG d   1       8.459  -2.600  -4.477  0.00  0.00     0.066 H 
ATOM     15  H   LIG d   1       3.611  -3.509  -4.803  0.00  0.00     0.064 H 
ATOM     16  H   LIG d   1       3.116  -1.252  -3.955  0.00  0.00     0.063 H 
ENDROOT
BRANCH   9  17
ATOM     17  C   LIG d   1       3.715   1.220  -3.033  0.00  0.00     0.079 C 
ATOM     18  O   LIG d   1       3.427   1.368  -1.862  0.00  0.00    -0.544 OA
ATOM     19  O   LIG d   1       3.178   2.032  -3.966  0.00  0.00    -0.544 OA
ENDBRANCH   9  17
TORSDOF 1
ENDMDL
MODEL 3
REMARK VINA RESULT:      -5.4      2.282      3.923
REMARK  1 active torsions:
REMARK  status: ('A' for Active; 'I' for Inactive)
REMARK    1  A    between atoms: C_9  and  C_13 
ROOT
ATOM      1  C   LIG d   1       8.961   1.456  -4.715  0.00  0.00    -0.044 A 
ATOM      2  C   LIG d   1       8.009   1.867  -3.805  0.00  0.00    -0.018 A 
ATOM      3  C   LIG d   1       6.885   1.082  -3.573  0.00  0.00     0.139 A 
ATOM      4  C   LIG d   1       6.734  -0.129  -4.273  0.00  0.00     0.019 A 
ATOM      5  C   LIG d   1       7.714  -0.527  -5.194  0.00  0.00    -0.037 A 
ATOM      6  C   LIG d   1       8.810   0.261  -5.406  0.00  0.00     0.019 A 
ATOM      7 BR   LIG d   1      10.131  -0.278  -6.648  0.00  0.00    -0.050 Br
ATOM      8  C   LIG d   1       5.595  -0.942  -4.047  0.00  0.00    -0.035 A 
ATOM      9  C   LIG d   1       4.647  -0.519  -3.132  0.00  0.00     0.082 A 
ATOM     10  C   LIG d   1       4.857   0.753  -2.433  0.00  0.00     0.346 A 
ATOM     11  O   LIG d   1       4.036   1.145  -1.625  0.00  0.00    -0.244 OA
ATOM     12  O   LIG d   1       5.955   1.487  -2.682  0.00  0.00    -0.422 OA
ATOM     13  H   LIG d   1       9.832   2.071  -4.892  0.00  0.00     0.063 H 
ATOM     14  H   LIG d   1       8.134   2.800  -3.278  0.00  0.00     0.066 H 
ATOM     15  H   LIG d   1       7.604  -1.455  -5.735  0.00  0.00     0.064 H 
ATOM     16  H   LIG d   1       5.470  -1.874  -4.580  0.00  0.00     0.063 H 
ENDROOT
BRANCH   9  17
ATOM     17  C   LIG d   1       3.448  -1.330  -2.867  0.00  0.00     0.079 C 
ATOM     18  O   LIG d   1       2.351  -0.918  -3.190  0.00  0.00    -0.544 OA
ATOM     19  O   LIG d   1       3.566  -2.531  -2.265  0.00  0.00    -0.544 OA
ENDBRANCH   9  17
TORSDOF 1
ENDMDL
MODEL 4
REMARK VINA RESULT:      -5.2      8.022      8.963
REMARK  1 active torsions:
REMARK  status: ('A' for Active; 'I' for Inactive)
REMARK    1  A    between atoms: C_9  and  C_13 
ROOT
ATOM      1  C   LIG d   1       9.284  -9.421  -2.325  0.00  0.00    -0.044 A 
ATOM      2  C   LIG d   1       8.488  -8.980  -3.361  0.00  0.00    -0.018 A 
ATOM      3  C   LIG d   1       7.139  -9.314  -3.392  0.00  0.00     0.139 A 
ATOM      4  C   LIG d   1       6.601 -10.102  -2.359  0.00  0.00     0.019 A 
ATOM      5  C   LIG d   1       7.428 -10.541  -1.315  0.00  0.00    -0.037 A 
ATOM      6  C   LIG d   1       8.752 -10.200  -1.306  0.00  0.00     0.019 A 
ATOM      7 BR   LIG d   1       9.865 -10.791   0.104  0.00  0.00    -0.050 Br
ATOM      8  C   LIG d   1       5.227 -10.452  -2.374  0.00  0.00    -0.035 A 
ATOM      9  C   LIG d   1       4.439 -10.003  -3.420  0.00  0.00     0.082 A 
ATOM     10  C   LIG d   1       5.055  -9.185  -4.470  0.00  0.00     0.346 A 
ATOM     11  O   LIG d   1       4.382  -8.780  -5.399  0.00  0.00    -0.244 OA
ATOM     12  O   LIG d   1       6.363  -8.881  -4.409  0.00  0.00    -0.422 OA
ATOM     13  H   LIG d   1      10.332  -9.159  -2.306  0.00  0.00     0.063 H 
ATOM     14  H   LIG d   1       8.914  -8.379  -4.150  0.00  0.00     0.066 H 
ATOM     15  H   LIG d   1       7.021 -11.147  -0.519  0.00  0.00     0.064 H 
ATOM     16  H   LIG d   1       4.804 -11.056  -1.585  0.00  0.00     0.063 H 
ENDROOT
BRANCH   9  17
ATOM     17  C   LIG d   1       3.008 -10.342  -3.478  0.00  0.00     0.079 C 
ATOM     18  O   LIG d   1       2.197  -9.659  -2.884  0.00  0.00    -0.544 OA
ATOM     19  O   LIG d   1       2.596 -11.410  -4.191  0.00  0.00    -0.544 OA
ENDBRANCH   9  17
TORSDOF 1
ENDMDL
MODEL 5
REMARK VINA RESULT:      -5.1      4.455      5.378
REMARK  1 active torsions:
REMARK  status: ('A' for Active; 'I' for Inactive)
REMARK    1  A    between atoms: C_9  and  C_13 
ROOT
ATOM      1  C   LIG d   1       3.049   1.330  -9.424  0.00  0.00    -0.044 A 
ATOM      2  C   LIG d   1       2.729   1.510  -8.095  0.00  0.00    -0.018 A 
ATOM      3  C   LIG d   1       3.220   0.630  -7.136  0.00  0.00     0.139 A 
ATOM      4  C   LIG d   1       4.043  -0.438  -7.539  0.00  0.00     0.019 A 
ATOM      5  C   LIG d   1       4.355  -0.602  -8.896  0.00  0.00    -0.037 A 
ATOM      6  C   LIG d   1       3.860   0.275  -9.820  0.00  0.00     0.019 A 
ATOM      7 BR   LIG d   1       4.284   0.051 -11.650  0.00  0.00    -0.050 Br
ATOM      8  C   LIG d   1       4.553  -1.343  -6.575  0.00  0.00    -0.035 A 
ATOM      9  C   LIG d   1       4.224  -1.152  -5.244  0.00  0.00     0.082 A 
ATOM     10  C   LIG d   1       3.362  -0.022  -4.883  0.00  0.00     0.346 A 
ATOM     11  O   LIG d   1       3.060   0.165  -3.720  0.00  0.00    -0.244 OA
ATOM     12  O   LIG d   1       2.904   0.809  -5.836  0.00  0.00    -0.422 OA
ATOM     13  H   LIG d   1       2.664   2.016 -10.164  0.00  0.00     0.063 H 
ATOM     14  H   LIG d   1       2.093   2.330  -7.799  0.00  0.00     0.066 H 
ATOM     15  H   LIG d   1       4.986  -1.420  -9.211  0.00  0.00     0.064 H 
ATOM     16  H   LIG d   1       5.186  -2.166  -6.874  0.00  0.00     0.063 H 
ENDROOT
BRANCH   9  17
ATOM     17  C   LIG d   1       4.730  -2.068  -4.209  0.00  0.00     0.079 C 
ATOM     18  O   LIG d   1       4.154  -3.116  -3.990  0.00  0.00    -0.544 OA
ATOM     19  O   LIG d   1       5.832  -1.745  -3.503  0.00  0.00    -0.544 OA
ENDBRANCH   9  17
TORSDOF 1
ENDMDL
MODEL 6
REMARK VINA RESULT:      -5.1      3.673      4.232
REMARK  1 active torsions:
REMARK  status: ('A' for Active; 'I' for Inactive)
REMARK    1  A    between atoms: C_9  and  C_13 
ROOT
ATOM      1  C   LIG d   1       3.691  -2.016  -8.427  0.00  0.00    -0.044 A 
ATOM      2  C   LIG d   1       4.462  -2.360  -7.336  0.00  0.00    -0.018 A 
ATOM      3  C   LIG d   1       4.436  -1.574  -6.190  0.00  0.00     0.139 A 
ATOM      4  C   LIG d   1       3.617  -0.430  -6.158  0.00  0.00     0.019 A 
ATOM      5  C   LIG d   1       2.841  -0.098  -7.279  0.00  0.00    -0.037 A 
ATOM      6  C   LIG d   1       2.884  -0.887  -8.394  0.00  0.00     0.019 A 
ATOM      7 BR   LIG d   1       1.836  -0.438  -9.903  0.00  0.00    -0.050 Br
ATOM      8  C   LIG d   1       3.577   0.382  -4.997  0.00  0.00    -0.035 A 
ATOM      9  C   LIG d   1       4.356   0.027  -3.910  0.00  0.00     0.082 A 
ATOM     10  C   LIG d   1       5.191  -1.176  -4.001  0.00  0.00     0.346 A 
ATOM     11  O   LIG d   1       5.884  -1.507  -3.057  0.00  0.00    -0.244 OA
ATOM     12  O   LIG d   1       5.192  -1.914  -5.125  0.00  0.00    -0.422 OA
ATOM     13  H   LIG d   1       3.716  -2.631  -9.315  0.00  0.00     0.063 H 
ATOM     14  H   LIG d   1       5.090  -3.238  -7.375  0.00  0.00     0.066 H 
ATOM     15  H   LIG d   1       2.211   0.778  -7.261  0.00  0.00     0.064 H 
ATOM     16  H   LIG d   1       2.951   1.262  -4.963  0.00  0.00     0.063 H 
ENDROOT
BRANCH   9  17
ATOM     17  C   LIG d   1       4.347   0.841  -2.685  0.00  0.00     0.079 C 
ATOM     18  O   LIG d   1       3.332   0.932  -2.022  0.00  0.00    -0.544 OA
ATOM     19  O   LIG d   1       5.465   1.487  -2.296  0.00  0.00    -0.544 OA
ENDBRANCH   9  17
TORSDOF 1
ENDMDL
MODEL 7
REMARK VINA RESULT:      -4.9      8.153      9.257
REMARK  1 active torsions:
REMARK  status: ('A' for Active; 'I' for Inactive)
REMARK    1  A    between atoms: C_9  and  C_13 
ROOT
ATOM      1  C   LIG d   1       9.632   4.636  -5.318  0.00  0.00    -0.044 A 
ATOM      2  C   LIG d   1       9.227   5.703  -4.544  0.00  0.00    -0.018 A 
ATOM      3  C   LIG d   1       9.701   5.837  -3.244  0.00  0.00     0.139 A 
ATOM      4  C   LIG d   1      10.593   4.876  -2.733  0.00  0.00     0.019 A 
ATOM      5  C   LIG d   1      10.991   3.799  -3.538  0.00  0.00    -0.037 A 
ATOM      6  C   LIG d   1      10.512   3.688  -4.813  0.00  0.00     0.019 A 
ATOM      7 BR   LIG d   1      11.051   2.235  -5.897  0.00  0.00    -0.050 Br
ATOM      8  C   LIG d   1      11.087   4.998  -1.410  0.00  0.00    -0.035 A 
ATOM      9  C   LIG d   1      10.672   6.073  -0.642  0.00  0.00     0.082 A 
ATOM     10  C   LIG d   1       9.741   7.043  -1.227  0.00  0.00     0.346 A 
ATOM     11  O   LIG d   1       9.363   7.995  -0.571  0.00  0.00    -0.244 OA
ATOM     12  O   LIG d   1       9.302   6.883  -2.488  0.00  0.00    -0.422 OA
ATOM     13  H   LIG d   1       9.260   4.536  -6.328  0.00  0.00     0.063 H 
ATOM     14  H   LIG d   1       8.539   6.431  -4.945  0.00  0.00     0.066 H 
ATOM     15  H   LIG d   1      11.675   3.058  -3.152  0.00  0.00     0.064 H 
ATOM     16  H   LIG d   1      11.772   4.266  -1.009  0.00  0.00     0.063 H 
ENDROOT
BRANCH   9  17
ATOM     17  C   LIG d   1      11.158   6.239   0.737  0.00  0.00     0.079 C 
ATOM     18  O   LIG d   1      10.656   5.599   1.640  0.00  0.00    -0.544 OA
ATOM     19  O   LIG d   1      12.160   7.102   1.000  0.00  0.00    -0.544 OA
ENDBRANCH   9  17
TORSDOF 1
ENDMDL
MODEL 8
REMARK VINA RESULT:      -4.9      7.802      8.346
REMARK  1 active torsions:
REMARK  status: ('A' for Active; 'I' for Inactive)
REMARK    1  A    between atoms: C_9  and  C_13 
ROOT
ATOM      1  C   LIG d   1       2.527  -1.877 -13.562  0.00  0.00    -0.044 A 
ATOM      2  C   LIG d   1       3.513  -1.014 -13.132  0.00  0.00    -0.018 A 
ATOM      3  C   LIG d   1       3.416  -0.416 -11.880  0.00  0.00     0.139 A 
ATOM      4  C   LIG d   1       2.307  -0.703 -11.064  0.00  0.00     0.019 A 
ATOM      5  C   LIG d   1       1.316  -1.585 -11.521  0.00  0.00    -0.037 A 
ATOM      6  C   LIG d   1       1.433  -2.160 -12.755  0.00  0.00     0.019 A 
ATOM      7 BR   LIG d   1       0.096  -3.348 -13.368  0.00  0.00    -0.050 Br
ATOM      8  C   LIG d   1       2.193  -0.104  -9.784  0.00  0.00    -0.035 A 
ATOM      9  C   LIG d   1       3.188   0.762  -9.365  0.00  0.00     0.082 A 
ATOM     10  C   LIG d   1       4.320   1.024 -10.259  0.00  0.00     0.346 A 
ATOM     11  O   LIG d   1       5.206   1.782  -9.911  0.00  0.00    -0.244 OA
ATOM     12  O   LIG d   1       4.382   0.430 -11.463  0.00  0.00    -0.422 OA
ATOM     13  H   LIG d   1       2.607  -2.339 -14.535  0.00  0.00     0.063 H 
ATOM     14  H   LIG d   1       4.356  -0.798 -13.769  0.00  0.00     0.066 H 
ATOM     15  H   LIG d   1       0.462  -1.809 -10.899  0.00  0.00     0.064 H 
ATOM     16  H   LIG d   1       1.345  -0.319  -9.150  0.00  0.00     0.063 H 
ENDROOT
BRANCH   9  17
ATOM     17  C   LIG d   1       3.111   1.408  -8.045  0.00  0.00     0.079 C 
ATOM     18  O   LIG d   1       2.747   2.564  -7.954  0.00  0.00    -0.544 OA
ATOM     19  O   LIG d   1       3.443   0.718  -6.936  0.00  0.00    -0.544 OA
ENDBRANCH   9  17
TORSDOF 1
ENDMDL
MODEL 9
REMARK VINA RESULT:      -4.8      7.729      8.991
REMARK  1 active torsions:
REMARK  status: ('A' for Active; 'I' for Inactive)
REMARK    1  A    between atoms: C_9  and  C_13 
ROOT
ATOM      1  C   LIG d   1      10.495   2.868  -4.474  0.00  0.00    -0.044 A 
ATOM      2  C   LIG d   1      10.748   3.182  -3.155  0.00  0.00    -0.018 A 
ATOM      3  C   LIG d   1      10.411   4.437  -2.662  0.00  0.00     0.139 A 
ATOM      4  C   LIG d   1       9.812   5.377  -3.521  0.00  0.00     0.019 A 
ATOM      5  C   LIG d   1       9.564   5.037  -4.859  0.00  0.00    -0.037 A 
ATOM      6  C   LIG d   1       9.904   3.796  -5.321  0.00  0.00     0.019 A 
ATOM      7 BR   LIG d   1       9.568   3.340  -7.125  0.00  0.00    -0.050 Br
ATOM      8  C   LIG d   1       9.460   6.661  -3.035  0.00  0.00    -0.035 A 
ATOM      9  C   LIG d   1       9.720   6.964  -1.709  0.00  0.00     0.082 A 
ATOM     10  C   LIG d   1      10.347   5.945  -0.861  0.00  0.00     0.346 A 
ATOM     11  O   LIG d   1      10.585   6.190   0.307  0.00  0.00    -0.244 OA
ATOM     12  O   LIG d   1      10.660   4.741  -1.370  0.00  0.00    -0.422 OA
ATOM     13  H   LIG d   1      10.759   1.891  -4.851  0.00  0.00     0.063 H 
ATOM     14  H   LIG d   1      11.212   2.454  -2.506  0.00  0.00     0.066 H 
ATOM     15  H   LIG d   1       9.105   5.753  -5.524  0.00  0.00     0.064 H 
ATOM     16  H   LIG d   1       9.000   7.389  -3.687  0.00  0.00     0.063 H 
ENDROOT
BRANCH   9  17
ATOM     17  C   LIG d   1       9.374   8.285  -1.162  0.00  0.00     0.079 C 
ATOM     18  O   LIG d   1       8.276   8.473  -0.675  0.00  0.00    -0.544 OA
ATOM     19  O   LIG d   1      10.274   9.288  -1.200  0.00  0.00    -0.544 OA
ENDBRANCH   9  17
TORSDOF 1
ENDMDL
MODEL 10
REMARK VINA RESULT:      -4.6      2.992      4.157
REMARK  1 active torsions:
REMARK  status: ('A' for Active; 'I' for Inactive)
REMARK    1  A    between atoms: C_9  and  C_13 
ROOT
ATOM      1  C   LIG d   1       9.086   1.074  -5.127  0.00  0.00    -0.044 A 
ATOM      2  C   LIG d   1       8.391  -0.031  -5.573  0.00  0.00    -0.018 A 
ATOM      3  C   LIG d   1       7.202  -0.401  -4.953  0.00  0.00     0.139 A 
ATOM      4  C   LIG d   1       6.721   0.363  -3.874  0.00  0.00     0.019 A 
ATOM      5  C   LIG d   1       7.444   1.483  -3.437  0.00  0.00    -0.037 A 
ATOM      6  C   LIG d   1       8.610   1.827  -4.061  0.00  0.00     0.019 A 
ATOM      7 BR   LIG d   1       9.582   3.337  -3.470  0.00  0.00    -0.050 Br
ATOM      8  C   LIG d   1       5.510   0.000  -3.232  0.00  0.00    -0.035 A 
ATOM      9  C   LIG d   1       4.823  -1.111  -3.688  0.00  0.00     0.082 A 
ATOM     10  C   LIG d   1       5.373  -1.869  -4.817  0.00  0.00     0.346 A 
ATOM     11  O   LIG d   1       4.785  -2.850  -5.234  0.00  0.00    -0.244 OA
ATOM     12  O   LIG d   1       6.525  -1.484  -5.392  0.00  0.00    -0.422 OA
ATOM     13  H   LIG d   1      10.008   1.357  -5.612  0.00  0.00     0.063 H 
ATOM     14  H   LIG d   1       8.772  -0.611  -6.399  0.00  0.00     0.066 H 
ATOM     15  H   LIG d   1       7.080   2.072  -2.609  0.00  0.00     0.064 H 
ATOM     16  H   LIG d   1       5.132   0.581  -2.403  0.00  0.00     0.063 H 
ENDROOT
BRANCH   9  17
ATOM     17  C   LIG d   1       3.563  -1.525  -3.051  0.00  0.00     0.079 C 
ATOM     18  O   LIG d   1       3.543  -2.490  -2.312  0.00  0.00    -0.544 OA
ATOM     19  O   LIG d   1       2.429  -0.835  -3.287  0.00  0.00    -0.544 OA
ENDBRANCH   9  17
TORSDOF 1
ENDMDL
