MODEL 1
REMARK VINA RESULT:      -8.5      0.000      0.000
REMARK  6 active torsions:
REMARK  status: ('A' for Active; 'I' for Inactive)
REMARK    1  A    between atoms: C_1  and  C_2 
REMARK    2  A    between atoms: C_6  and  N_8 
REMARK       I    between atoms: N_8  and  C_9 
REMARK    3  A    between atoms: C_9  and  C_11 
REMARK    4  A    between atoms: C_11  and  C_13 
REMARK    5  A    between atoms: C_11  and  N_20 
REMARK    6  A    between atoms: C_13  and  C_14 
REMARK       I    between atoms: N_20  and  C_21 
REMARK       I    between atoms: C_21  and  N_23 
ROOT
ATOM      1  C   LIG d   1       4.015   0.256  -8.171  0.00  0.00     0.105 C 
ATOM      2  H   LIG d   1       4.151  -0.774  -8.501  0.00  0.00     0.060 H 
ENDROOT
BRANCH   1   3
ATOM      3  C   LIG d   1       5.253   1.055  -8.487  0.00  0.00     0.238 C 
ATOM      4  N   LIG d   1       6.466   0.473  -8.416  0.00  0.00    -0.284 N 
ATOM      5  H   LIG d   1       6.539  -0.477  -8.226  0.00  0.00     0.155 HD
ATOM      6  O   LIG d   1       5.157   2.221  -8.805  0.00  0.00    -0.273 OA
BRANCH   4   7
ATOM      7  C   LIG d   1       7.621   1.236  -8.615  0.00  0.00     0.034 A 
ATOM      8  C   LIG d   1       8.263   1.220  -9.846  0.00  0.00    -0.041 A 
ATOM      9  C   LIG d   1       9.403   1.974 -10.040  0.00  0.00    -0.060 A 
ATOM     10  H   LIG d   1       7.870   0.617 -10.653  0.00  0.00     0.064 H 
ATOM     11  C   LIG d   1       9.906   2.746  -9.009  0.00  0.00    -0.059 A 
ATOM     12  H   LIG d   1       9.903   1.962 -10.998  0.00  0.00     0.062 H 
ATOM     13  C   LIG d   1       9.269   2.766  -7.781  0.00  0.00    -0.049 A 
ATOM     14  H   LIG d   1      10.797   3.336  -9.162  0.00  0.00     0.062 H 
ATOM     15  C   LIG d   1       8.126   2.017  -7.583  0.00  0.00    -0.038 A 
ATOM     16  H   LIG d   1       7.627   2.036  -6.626  0.00  0.00     0.064 H 
BRANCH  13  17
ATOM     17  C   LIG d   1       9.820   3.609  -6.661  0.00  0.00    -0.040 C 
ATOM     18  H   LIG d   1       9.045   4.284  -6.298  0.00  0.00     0.028 H 
ATOM     19  H   LIG d   1      10.149   2.963  -5.847  0.00  0.00     0.028 H 
ATOM     20  H   LIG d   1      10.666   4.191  -7.027  0.00  0.00     0.028 H 
ENDBRANCH  13  17
ENDBRANCH   4   7
ENDBRANCH   1   3
BRANCH   1  21
ATOM     21  C   LIG d   1       2.813   0.869  -8.896  0.00  0.00    -0.001 C 
ATOM     22  H   LIG d   1       1.954   0.883  -8.226  0.00  0.00     0.034 H 
ATOM     23  H   LIG d   1       3.054   1.887  -9.201  0.00  0.00     0.034 H 
BRANCH  21  24
ATOM     24  C   LIG d   1       2.488   0.043 -10.114  0.00  0.00    -0.045 A 
ATOM     25  C   LIG d   1       3.369   0.005 -11.178  0.00  0.00    -0.059 A 
ATOM     26  C   LIG d   1       3.071  -0.754 -12.295  0.00  0.00    -0.061 A 
ATOM     27  H   LIG d   1       4.291   0.565 -11.137  0.00  0.00     0.062 H 
ATOM     28  C   LIG d   1       1.891  -1.471 -12.349  0.00  0.00    -0.062 A 
ATOM     29  H   LIG d   1       3.759  -0.783 -13.126  0.00  0.00     0.062 H 
ATOM     30  C   LIG d   1       1.010  -1.433 -11.284  0.00  0.00    -0.061 A 
ATOM     31  H   LIG d   1       1.658  -2.063 -13.221  0.00  0.00     0.062 H 
ATOM     32  C   LIG d   1       1.311  -0.680 -10.165  0.00  0.00    -0.059 A 
ATOM     33  H   LIG d   1       0.088  -1.995 -11.325  0.00  0.00     0.062 H 
ATOM     34  H   LIG d   1       0.624  -0.653  -9.332  0.00  0.00     0.062 H 
ENDBRANCH  21  24
ENDBRANCH   1  21
BRANCH   1  35
ATOM     35  N   LIG d   1       3.776   0.279  -6.725  0.00  0.00    -0.288 N 
ATOM     36  C   LIG d   1       4.106  -0.788  -5.971  0.00  0.00     0.303 C 
ATOM     37  O   LIG d   1       4.686  -1.732  -6.474  0.00  0.00    -0.253 OA
ATOM     38  N   LIG d   1       3.795  -0.810  -4.660  0.00  0.00    -0.285 N 
ATOM     39  C   LIG d   1       4.035  -2.014  -3.849  0.00  0.00     0.024 C 
ATOM     40  C   LIG d   1       3.205   0.367  -4.011  0.00  0.00     0.021 C 
ATOM     41  C   LIG d   1       4.899  -1.595  -2.648  0.00  0.00     0.016 C 
ATOM     42  H   LIG d   1       3.086  -2.420  -3.499  0.00  0.00     0.047 H 
ATOM     43  H   LIG d   1       4.562  -2.761  -4.443  0.00  0.00     0.047 H 
ATOM     44  C   LIG d   1       4.136  -0.532  -1.854  0.00  0.00    -0.037 C 
ATOM     45  H   LIG d   1       5.119  -2.461  -2.024  0.00  0.00     0.038 H 
ATOM     46  C   LIG d   1       6.181  -1.005  -3.188  0.00  0.00     0.027 A 
ATOM     47  C   LIG d   1       3.969   0.704  -2.738  0.00  0.00    -0.006 C 
ATOM     48  H   LIG d   1       4.699  -0.270  -0.957  0.00  0.00     0.028 H 
ATOM     49  H   LIG d   1       3.157  -0.918  -1.572  0.00  0.00     0.028 H 
ATOM     50  H   LIG d   1       3.385   1.433  -2.175  0.00  0.00     0.033 H 
ATOM     51  C   LIG d   1       5.326   1.315  -3.033  0.00  0.00     0.031 C 
ATOM     52  N   LIG d   1       6.309   0.317  -3.453  0.00  0.00    -0.312 N 
ATOM     53  H   LIG d   1       5.215   2.055  -3.826  0.00  0.00     0.050 H 
ATOM     54  H   LIG d   1       5.693   1.812  -2.135  0.00  0.00     0.050 H 
ATOM     55  C   LIG d   1       7.396   0.766  -4.125  0.00  0.00     0.252 A 
ATOM     56  C   LIG d   1       8.461  -0.095  -4.426  0.00  0.00     0.003 A 
ATOM     57  O   LIG d   1       7.450   1.936  -4.473  0.00  0.00    -0.268 OA
ATOM     58  C   LIG d   1       8.368  -1.410  -4.076  0.00  0.00    -0.055 A 
ATOM     59  H   LIG d   1       9.342   0.277  -4.926  0.00  0.00     0.067 H 
ATOM     60  C   LIG d   1       7.201  -1.864  -3.453  0.00  0.00    -0.042 A 
ATOM     61  H   LIG d   1       9.184  -2.091  -4.278  0.00  0.00     0.062 H 
ATOM     62  H   LIG d   1       7.109  -2.905  -3.180  0.00  0.00     0.064 H 
ATOM     63  H   LIG d   1       3.247   1.215  -4.693  0.00  0.00     0.047 H 
ATOM     64  H   LIG d   1       2.165   0.157  -3.760  0.00  0.00     0.047 H 
ATOM     65  H   LIG d   1       3.380   1.061  -6.311  0.00  0.00     0.151 HD
ENDBRANCH   1  35
TORSDOF 6
ENDMDL
MODEL 2
REMARK VINA RESULT:      -8.1      2.536      6.458
REMARK  6 active torsions:
REMARK  status: ('A' for Active; 'I' for Inactive)
REMARK    1  A    between atoms: C_1  and  C_2 
REMARK    2  A    between atoms: C_6  and  N_8 
REMARK       I    between atoms: N_8  and  C_9 
REMARK    3  A    between atoms: C_9  and  C_11 
REMARK    4  A    between atoms: C_11  and  C_13 
REMARK    5  A    between atoms: C_11  and  N_20 
REMARK    6  A    between atoms: C_13  and  C_14 
REMARK       I    between atoms: N_20  and  C_21 
REMARK       I    between atoms: C_21  and  N_23 
ROOT
ATOM      1  C   LIG d   1       8.247   1.978  -4.424  0.00  0.00     0.105 C 
ATOM      2  H   LIG d   1       7.575   2.836  -4.444  0.00  0.00     0.060 H 
ENDROOT
BRANCH   1   3
ATOM      3  C   LIG d   1       8.712   1.670  -5.825  0.00  0.00     0.238 C 
ATOM      4  N   LIG d   1       7.863   1.809  -6.862  0.00  0.00    -0.284 N 
ATOM      5  H   LIG d   1       6.974   2.171  -6.717  0.00  0.00     0.155 HD
ATOM      6  O   LIG d   1       9.848   1.296  -6.017  0.00  0.00    -0.273 OA
BRANCH   4   7
ATOM      7  C   LIG d   1       8.263   1.433  -8.149  0.00  0.00     0.034 A 
ATOM      8  C   LIG d   1       7.951   0.170  -8.633  0.00  0.00    -0.041 A 
ATOM      9  C   LIG d   1       8.347  -0.199  -9.903  0.00  0.00    -0.060 A 
ATOM     10  H   LIG d   1       7.398  -0.525  -8.016  0.00  0.00     0.064 H 
ATOM     11  C   LIG d   1       9.054   0.689 -10.694  0.00  0.00    -0.059 A 
ATOM     12  H   LIG d   1       8.105  -1.182 -10.281  0.00  0.00     0.062 H 
ATOM     13  C   LIG d   1       9.365   1.949 -10.215  0.00  0.00    -0.049 A 
ATOM     14  H   LIG d   1       9.363   0.400 -11.687  0.00  0.00     0.062 H 
ATOM     15  C   LIG d   1       8.968   2.325  -8.947  0.00  0.00    -0.038 A 
ATOM     16  H   LIG d   1       9.208   3.310  -8.575  0.00  0.00     0.064 H 
BRANCH  13  17
ATOM     17  C   LIG d   1      10.134   2.914 -11.079  0.00  0.00    -0.040 C 
ATOM     18  H   LIG d   1       9.866   3.936 -10.812  0.00  0.00     0.028 H 
ATOM     19  H   LIG d   1      11.203   2.767 -10.926  0.00  0.00     0.028 H 
ATOM     20  H   LIG d   1       9.890   2.737 -12.127  0.00  0.00     0.028 H 
ENDBRANCH  13  17
ENDBRANCH   4   7
ENDBRANCH   1   3
BRANCH   1  21
ATOM     21  C   LIG d   1       9.457   2.297  -3.544  0.00  0.00    -0.001 C 
ATOM     22  H   LIG d   1       9.293   1.900  -2.543  0.00  0.00     0.034 H 
ATOM     23  H   LIG d   1      10.349   1.842  -3.973  0.00  0.00     0.034 H 
BRANCH  21  24
ATOM     24  C   LIG d   1       9.643   3.791  -3.469  0.00  0.00    -0.045 A 
ATOM     25  C   LIG d   1      10.258   4.356  -2.367  0.00  0.00    -0.059 A 
ATOM     26  C   LIG d   1      10.429   5.727  -2.299  0.00  0.00    -0.061 A 
ATOM     27  H   LIG d   1      10.606   3.728  -1.561  0.00  0.00     0.062 H 
ATOM     28  C   LIG d   1       9.984   6.531  -3.331  0.00  0.00    -0.062 A 
ATOM     29  H   LIG d   1      10.909   6.168  -1.439  0.00  0.00     0.062 H 
ATOM     30  C   LIG d   1       9.369   5.965  -4.432  0.00  0.00    -0.061 A 
ATOM     31  H   LIG d   1      10.117   7.602  -3.277  0.00  0.00     0.062 H 
ATOM     32  C   LIG d   1       9.203   4.596  -4.503  0.00  0.00    -0.059 A 
ATOM     33  H   LIG d   1       9.022   6.594  -5.239  0.00  0.00     0.062 H 
ATOM     34  H   LIG d   1       8.726   4.153  -5.365  0.00  0.00     0.062 H 
ENDBRANCH  21  24
ENDBRANCH   1  21
BRANCH   1  35
ATOM     35  N   LIG d   1       7.540   0.816  -3.879  0.00  0.00    -0.288 N 
ATOM     36  C   LIG d   1       6.317   0.968  -3.332  0.00  0.00     0.303 C 
ATOM     37  O   LIG d   1       5.762   2.049  -3.373  0.00  0.00    -0.253 OA
ATOM     38  N   LIG d   1       5.709  -0.079  -2.739  0.00  0.00    -0.285 N 
ATOM     39  C   LIG d   1       4.433   0.096  -2.028  0.00  0.00     0.024 C 
ATOM     40  C   LIG d   1       6.309  -1.418  -2.785  0.00  0.00     0.021 C 
ATOM     41  C   LIG d   1       3.430  -0.902  -2.631  0.00  0.00     0.016 C 
ATOM     42  H   LIG d   1       4.568  -0.111  -0.967  0.00  0.00     0.047 H 
ATOM     43  H   LIG d   1       4.070   1.115  -2.165  0.00  0.00     0.047 H 
ATOM     44  C   LIG d   1       3.984  -2.316  -2.440  0.00  0.00    -0.037 C 
ATOM     45  H   LIG d   1       2.460  -0.799  -2.147  0.00  0.00     0.038 H 
ATOM     46  C   LIG d   1       3.309  -0.598  -4.107  0.00  0.00     0.027 A 
ATOM     47  C   LIG d   1       5.278  -2.440  -3.244  0.00  0.00    -0.006 C 
ATOM     48  H   LIG d   1       3.258  -3.047  -2.797  0.00  0.00     0.028 H 
ATOM     49  H   LIG d   1       4.190  -2.490  -1.384  0.00  0.00     0.028 H 
ATOM     50  H   LIG d   1       5.683  -3.436  -3.062  0.00  0.00     0.033 H 
ATOM     51  C   LIG d   1       4.979  -2.320  -4.727  0.00  0.00     0.031 C 
ATOM     52  N   LIG d   1       4.105  -1.186  -5.030  0.00  0.00    -0.312 N 
ATOM     53  H   LIG d   1       5.917  -2.196  -5.268  0.00  0.00     0.050 H 
ATOM     54  H   LIG d   1       4.494  -3.236  -5.065  0.00  0.00     0.050 H 
ATOM     55  C   LIG d   1       4.103  -0.733  -6.307  0.00  0.00     0.252 A 
ATOM     56  C   LIG d   1       3.184   0.242  -6.721  0.00  0.00     0.003 A 
ATOM     57  O   LIG d   1       4.910  -1.179  -7.107  0.00  0.00    -0.268 OA
ATOM     58  C   LIG d   1       2.320   0.769  -5.807  0.00  0.00    -0.055 A 
ATOM     59  H   LIG d   1       3.160   0.570  -7.749  0.00  0.00     0.067 H 
ATOM     60  C   LIG d   1       2.397   0.340  -4.477  0.00  0.00    -0.042 A 
ATOM     61  H   LIG d   1       1.588   1.506  -6.105  0.00  0.00     0.062 H 
ATOM     62  H   LIG d   1       1.727   0.756  -3.741  0.00  0.00     0.064 H 
ATOM     63  H   LIG d   1       7.148  -1.414  -3.479  0.00  0.00     0.047 H 
ATOM     64  H   LIG d   1       6.664  -1.688  -1.791  0.00  0.00     0.047 H 
ATOM     65  H   LIG d   1       7.951  -0.062  -3.911  0.00  0.00     0.151 HD
ENDBRANCH   1  35
TORSDOF 6
ENDMDL
MODEL 3
REMARK VINA RESULT:      -8.0      3.593      8.158
REMARK  6 active torsions:
REMARK  status: ('A' for Active; 'I' for Inactive)
REMARK    1  A    between atoms: C_1  and  C_2 
REMARK    2  A    between atoms: C_6  and  N_8 
REMARK       I    between atoms: N_8  and  C_9 
REMARK    3  A    between atoms: C_9  and  C_11 
REMARK    4  A    between atoms: C_11  and  C_13 
REMARK    5  A    between atoms: C_11  and  N_20 
REMARK    6  A    between atoms: C_13  and  C_14 
REMARK       I    between atoms: N_20  and  C_21 
REMARK       I    between atoms: C_21  and  N_23 
ROOT
ATOM      1  C   LIG d   1       5.244  -2.663  -5.260  0.00  0.00     0.105 C 
ATOM      2  H   LIG d   1       6.232  -2.207  -5.201  0.00  0.00     0.060 H 
ENDROOT
BRANCH   1   3
ATOM      3  C   LIG d   1       5.366  -4.055  -5.825  0.00  0.00     0.238 C 
ATOM      4  N   LIG d   1       4.296  -4.876  -5.828  0.00  0.00    -0.284 N 
ATOM      5  H   LIG d   1       3.433  -4.550  -5.529  0.00  0.00     0.155 HD
ATOM      6  O   LIG d   1       6.424  -4.437  -6.276  0.00  0.00    -0.273 OA
BRANCH   4   7
ATOM      7  C   LIG d   1       4.431  -6.199  -6.263  0.00  0.00     0.034 A 
ATOM      8  C   LIG d   1       4.165  -6.527  -7.586  0.00  0.00    -0.041 A 
ATOM      9  C   LIG d   1       4.299  -7.834  -8.012  0.00  0.00    -0.060 A 
ATOM     10  H   LIG d   1       3.854  -5.761  -8.281  0.00  0.00     0.064 H 
ATOM     11  C   LIG d   1       4.698  -8.815  -7.124  0.00  0.00    -0.059 A 
ATOM     12  H   LIG d   1       4.093  -8.090  -9.041  0.00  0.00     0.062 H 
ATOM     13  C   LIG d   1       4.965  -8.492  -5.805  0.00  0.00    -0.049 A 
ATOM     14  H   LIG d   1       4.803  -9.836  -7.459  0.00  0.00     0.062 H 
ATOM     15  C   LIG d   1       4.837  -7.186  -5.374  0.00  0.00    -0.038 A 
ATOM     16  H   LIG d   1       5.049  -6.933  -4.346  0.00  0.00     0.064 H 
BRANCH  13  17
ATOM     17  C   LIG d   1       5.400  -9.564  -4.840  0.00  0.00    -0.040 C 
ATOM     18  H   LIG d   1       5.147 -10.543  -5.247  0.00  0.00     0.028 H 
ATOM     19  H   LIG d   1       6.477  -9.501  -4.688  0.00  0.00     0.028 H 
ATOM     20  H   LIG d   1       4.890  -9.424  -3.887  0.00  0.00     0.028 H 
ENDBRANCH  13  17
ENDBRANCH   4   7
ENDBRANCH   1   3
BRANCH   1  21
ATOM     21  C   LIG d   1       4.629  -2.733  -3.860  0.00  0.00    -0.001 C 
ATOM     22  H   LIG d   1       3.631  -3.165  -3.923  0.00  0.00     0.034 H 
ATOM     23  H   LIG d   1       5.254  -3.354  -3.220  0.00  0.00     0.034 H 
BRANCH  21  24
ATOM     24  C   LIG d   1       4.541  -1.344  -3.281  0.00  0.00    -0.045 A 
ATOM     25  C   LIG d   1       3.315  -0.832  -2.900  0.00  0.00    -0.059 A 
ATOM     26  C   LIG d   1       3.235   0.442  -2.368  0.00  0.00    -0.061 A 
ATOM     27  H   LIG d   1       2.421  -1.425  -3.016  0.00  0.00     0.062 H 
ATOM     28  C   LIG d   1       4.378   1.203  -2.219  0.00  0.00    -0.062 A 
ATOM     29  H   LIG d   1       2.277   0.843  -2.070  0.00  0.00     0.062 H 
ATOM     30  C   LIG d   1       5.604   0.689  -2.600  0.00  0.00    -0.061 A 
ATOM     31  H   LIG d   1       4.315   2.198  -1.804  0.00  0.00     0.062 H 
ATOM     32  C   LIG d   1       5.686  -0.585  -3.127  0.00  0.00    -0.059 A 
ATOM     33  H   LIG d   1       6.499   1.284  -2.483  0.00  0.00     0.062 H 
ATOM     34  H   LIG d   1       6.644  -0.988  -3.421  0.00  0.00     0.062 H 
ENDBRANCH  21  24
ENDBRANCH   1  21
BRANCH   1  35
ATOM     35  N   LIG d   1       4.384  -1.857  -6.131  0.00  0.00    -0.288 N 
ATOM     36  C   LIG d   1       4.935  -0.999  -7.013  0.00  0.00     0.303 C 
ATOM     37  O   LIG d   1       6.142  -0.959  -7.150  0.00  0.00    -0.253 OA
ATOM     38  N   LIG d   1       4.147  -0.184  -7.742  0.00  0.00    -0.285 N 
ATOM     39  C   LIG d   1       4.733   0.845  -8.616  0.00  0.00     0.024 C 
ATOM     40  C   LIG d   1       2.685  -0.300  -7.677  0.00  0.00     0.021 C 
ATOM     41  C   LIG d   1       4.166   0.624 -10.029  0.00  0.00     0.016 C 
ATOM     42  H   LIG d   1       4.457   1.836  -8.257  0.00  0.00     0.047 H 
ATOM     43  H   LIG d   1       5.818   0.743  -8.631  0.00  0.00     0.047 H 
ATOM     44  C   LIG d   1       2.642   0.753  -9.962  0.00  0.00    -0.037 C 
ATOM     45  H   LIG d   1       4.585   1.355 -10.720  0.00  0.00     0.038 H 
ATOM     46  C   LIG d   1       4.541  -0.774 -10.461  0.00  0.00     0.027 A 
ATOM     47  C   LIG d   1       2.101  -0.374  -9.082  0.00  0.00    -0.006 C 
ATOM     48  H   LIG d   1       2.222   0.670 -10.965  0.00  0.00     0.028 H 
ATOM     49  H   LIG d   1       2.374   1.717  -9.531  0.00  0.00     0.028 H 
ATOM     50  H   LIG d   1       1.021  -0.242  -9.007  0.00  0.00     0.033 H 
ATOM     51  C   LIG d   1       2.366  -1.716  -9.739  0.00  0.00     0.031 C 
ATOM     52  N   LIG d   1       3.742  -1.840 -10.220  0.00  0.00    -0.312 N 
ATOM     53  H   LIG d   1       2.173  -2.508  -9.015  0.00  0.00     0.050 H 
ATOM     54  H   LIG d   1       1.688  -1.836 -10.584  0.00  0.00     0.050 H 
ATOM     55  C   LIG d   1       4.208  -3.094 -10.438  0.00  0.00     0.252 A 
ATOM     56  C   LIG d   1       5.455  -3.300 -11.046  0.00  0.00     0.003 A 
ATOM     57  O   LIG d   1       3.535  -4.055 -10.101  0.00  0.00    -0.268 OA
ATOM     58  C   LIG d   1       6.220  -2.219 -11.372  0.00  0.00    -0.055 A 
ATOM     59  H   LIG d   1       5.804  -4.300 -11.254  0.00  0.00     0.067 H 
ATOM     60  C   LIG d   1       5.749  -0.939 -11.064  0.00  0.00    -0.042 A 
ATOM     61  H   LIG d   1       7.176  -2.350 -11.860  0.00  0.00     0.062 H 
ATOM     62  H   LIG d   1       6.349  -0.074 -11.306  0.00  0.00     0.064 H 
ATOM     63  H   LIG d   1       2.419  -1.202  -7.127  0.00  0.00     0.047 H 
ATOM     64  H   LIG d   1       2.276   0.569  -7.164  0.00  0.00     0.047 H 
ATOM     65  H   LIG d   1       3.420  -1.941  -6.074  0.00  0.00     0.151 HD
ENDBRANCH   1  35
TORSDOF 6
ENDMDL
MODEL 4
REMARK VINA RESULT:      -7.9      2.402      6.623
REMARK  6 active torsions:
REMARK  status: ('A' for Active; 'I' for Inactive)
REMARK    1  A    between atoms: C_1  and  C_2 
REMARK    2  A    between atoms: C_6  and  N_8 
REMARK       I    between atoms: N_8  and  C_9 
REMARK    3  A    between atoms: C_9  and  C_11 
REMARK    4  A    between atoms: C_11  and  C_13 
REMARK    5  A    between atoms: C_11  and  N_20 
REMARK    6  A    between atoms: C_13  and  C_14 
REMARK       I    between atoms: N_20  and  C_21 
REMARK       I    between atoms: C_21  and  N_23 
ROOT
ATOM      1  C   LIG d   1       6.992   0.737  -4.597  0.00  0.00     0.105 C 
ATOM      2  H   LIG d   1       6.082   1.330  -4.506  0.00  0.00     0.060 H 
ENDROOT
BRANCH   1   3
ATOM      3  C   LIG d   1       8.193   1.646  -4.554  0.00  0.00     0.238 C 
ATOM      4  N   LIG d   1       8.976   1.675  -3.458  0.00  0.00    -0.284 N 
ATOM      5  H   LIG d   1       8.807   1.063  -2.724  0.00  0.00     0.155 HD
ATOM      6  O   LIG d   1       8.454   2.352  -5.505  0.00  0.00    -0.273 OA
BRANCH   4   7
ATOM      7  C   LIG d   1      10.035   2.587  -3.378  0.00  0.00     0.034 A 
ATOM      8  C   LIG d   1      11.323   2.189  -3.710  0.00  0.00    -0.041 A 
ATOM      9  C   LIG d   1      12.365   3.091  -3.629  0.00  0.00    -0.060 A 
ATOM     10  H   LIG d   1      11.509   1.174  -4.030  0.00  0.00     0.064 H 
ATOM     11  C   LIG d   1      12.127   4.390  -3.220  0.00  0.00    -0.059 A 
ATOM     12  H   LIG d   1      13.368   2.782  -3.887  0.00  0.00     0.062 H 
ATOM     13  C   LIG d   1      10.845   4.790  -2.890  0.00  0.00    -0.049 A 
ATOM     14  H   LIG d   1      12.943   5.095  -3.159  0.00  0.00     0.062 H 
ATOM     15  C   LIG d   1       9.798   3.894  -2.972  0.00  0.00    -0.038 A 
ATOM     16  H   LIG d   1       8.796   4.208  -2.718  0.00  0.00     0.064 H 
BRANCH  13  17
ATOM     17  C   LIG d   1      10.590   6.207  -2.445  0.00  0.00    -0.040 C 
ATOM     18  H   LIG d   1      10.257   6.802  -3.296  0.00  0.00     0.028 H 
ATOM     19  H   LIG d   1       9.819   6.213  -1.674  0.00  0.00     0.028 H 
ATOM     20  H   LIG d   1      11.509   6.633  -2.043  0.00  0.00     0.028 H 
ENDBRANCH  13  17
ENDBRANCH   4   7
ENDBRANCH   1   3
BRANCH   1  21
ATOM     21  C   LIG d   1       7.068  -0.263  -3.441  0.00  0.00    -0.001 C 
ATOM     22  H   LIG d   1       7.603  -1.154  -3.766  0.00  0.00     0.034 H 
ATOM     23  H   LIG d   1       7.594   0.191  -2.602  0.00  0.00     0.034 H 
BRANCH  21  24
ATOM     24  C   LIG d   1       5.673  -0.642  -3.013  0.00  0.00    -0.045 A 
ATOM     25  C   LIG d   1       4.776   0.339  -2.635  0.00  0.00    -0.059 A 
ATOM     26  C   LIG d   1       3.496  -0.008  -2.243  0.00  0.00    -0.061 A 
ATOM     27  H   LIG d   1       5.073   1.377  -2.646  0.00  0.00     0.062 H 
ATOM     28  C   LIG d   1       3.115  -1.336  -2.228  0.00  0.00    -0.062 A 
ATOM     29  H   LIG d   1       2.796   0.758  -1.948  0.00  0.00     0.062 H 
ATOM     30  C   LIG d   1       4.012  -2.317  -2.607  0.00  0.00    -0.061 A 
ATOM     31  H   LIG d   1       2.115  -1.608  -1.921  0.00  0.00     0.062 H 
ATOM     32  C   LIG d   1       5.289  -1.970  -3.003  0.00  0.00    -0.059 A 
ATOM     33  H   LIG d   1       3.714  -3.356  -2.595  0.00  0.00     0.062 H 
ATOM     34  H   LIG d   1       5.989  -2.736  -3.302  0.00  0.00     0.062 H 
ENDBRANCH  21  24
ENDBRANCH   1  21
BRANCH   1  35
ATOM     35  N   LIG d   1       6.976   0.010  -5.870  0.00  0.00    -0.288 N 
ATOM     36  C   LIG d   1       5.812  -0.459  -6.363  0.00  0.00     0.303 C 
ATOM     37  O   LIG d   1       4.765  -0.202  -5.800  0.00  0.00    -0.253 OA
ATOM     38  N   LIG d   1       5.809  -1.214  -7.479  0.00  0.00    -0.285 N 
ATOM     39  C   LIG d   1       4.566  -1.838  -7.961  0.00  0.00     0.024 C 
ATOM     40  C   LIG d   1       7.045  -1.435  -8.238  0.00  0.00     0.021 C 
ATOM     41  C   LIG d   1       4.366  -1.397  -9.421  0.00  0.00     0.016 C 
ATOM     42  H   LIG d   1       4.654  -2.923  -7.911  0.00  0.00     0.047 H 
ATOM     43  H   LIG d   1       3.725  -1.505  -7.354  0.00  0.00     0.047 H 
ATOM     44  C   LIG d   1       5.576  -1.863 -10.235  0.00  0.00    -0.037 C 
ATOM     45  H   LIG d   1       3.446  -1.822  -9.819  0.00  0.00     0.038 H 
ATOM     46  C   LIG d   1       4.292   0.113  -9.438  0.00  0.00     0.027 A 
ATOM     47  C   LIG d   1       6.817  -1.138  -9.714  0.00  0.00    -0.006 C 
ATOM     48  H   LIG d   1       5.425  -1.623 -11.288  0.00  0.00     0.028 H 
ATOM     49  H   LIG d   1       5.703  -2.939 -10.119  0.00  0.00     0.028 H 
ATOM     50  H   LIG d   1       7.675  -1.514 -10.272  0.00  0.00     0.033 H 
ATOM     51  C   LIG d   1       6.698   0.350  -9.983  0.00  0.00     0.031 C 
ATOM     52  N   LIG d   1       5.393   0.885  -9.593  0.00  0.00    -0.312 N 
ATOM     53  H   LIG d   1       7.474   0.874  -9.425  0.00  0.00     0.050 H 
ATOM     54  H   LIG d   1       6.845   0.530 -11.048  0.00  0.00     0.050 H 
ATOM     55  C   LIG d   1       5.309   2.223  -9.396  0.00  0.00     0.252 A 
ATOM     56  C   LIG d   1       4.069   2.839  -9.175  0.00  0.00     0.003 A 
ATOM     57  O   LIG d   1       6.325   2.901  -9.411  0.00  0.00    -0.268 OA
ATOM     58  C   LIG d   1       2.947   2.067  -9.110  0.00  0.00    -0.055 A 
ATOM     59  H   LIG d   1       4.003   3.911  -9.059  0.00  0.00     0.067 H 
ATOM     60  C   LIG d   1       3.073   0.679  -9.239  0.00  0.00    -0.042 A 
ATOM     61  H   LIG d   1       1.976   2.519  -8.962  0.00  0.00     0.062 H 
ATOM     62  H   LIG d   1       2.194   0.054  -9.179  0.00  0.00     0.064 H 
ATOM     63  H   LIG d   1       7.827  -0.780  -7.854  0.00  0.00     0.047 H 
ATOM     64  H   LIG d   1       7.357  -2.473  -8.125  0.00  0.00     0.047 H 
ATOM     65  H   LIG d   1       7.802  -0.133  -6.358  0.00  0.00     0.151 HD
ENDBRANCH   1  35
TORSDOF 6
ENDMDL
MODEL 5
REMARK VINA RESULT:      -7.9      4.411      7.693
REMARK  6 active torsions:
REMARK  status: ('A' for Active; 'I' for Inactive)
REMARK    1  A    between atoms: C_1  and  C_2 
REMARK    2  A    between atoms: C_6  and  N_8 
REMARK       I    between atoms: N_8  and  C_9 
REMARK    3  A    between atoms: C_9  and  C_11 
REMARK    4  A    between atoms: C_11  and  C_13 
REMARK    5  A    between atoms: C_11  and  N_20 
REMARK    6  A    between atoms: C_13  and  C_14 
REMARK       I    between atoms: N_20  and  C_21 
REMARK       I    between atoms: C_21  and  N_23 
ROOT
ATOM      1  C   LIG d   1       5.495  -3.184  -4.899  0.00  0.00     0.105 C 
ATOM      2  H   LIG d   1       4.583  -3.340  -4.325  0.00  0.00     0.060 H 
ENDROOT
BRANCH   1   3
ATOM      3  C   LIG d   1       5.189  -2.345  -6.113  0.00  0.00     0.238 C 
ATOM      4  N   LIG d   1       3.910  -2.075  -6.440  0.00  0.00    -0.284 N 
ATOM      5  H   LIG d   1       3.189  -2.363  -5.857  0.00  0.00     0.155 HD
ATOM      6  O   LIG d   1       6.093  -1.914  -6.796  0.00  0.00    -0.273 OA
BRANCH   4   7
ATOM      7  C   LIG d   1       3.621  -1.377  -7.618  0.00  0.00     0.034 A 
ATOM      8  C   LIG d   1       3.542  -2.055  -8.826  0.00  0.00    -0.041 A 
ATOM      9  C   LIG d   1       3.257  -1.364  -9.987  0.00  0.00    -0.060 A 
ATOM     10  H   LIG d   1       3.704  -3.123  -8.859  0.00  0.00     0.064 H 
ATOM     11  C   LIG d   1       3.049   0.002  -9.947  0.00  0.00    -0.059 A 
ATOM     12  H   LIG d   1       3.195  -1.891 -10.928  0.00  0.00     0.062 H 
ATOM     13  C   LIG d   1       3.126   0.681  -8.744  0.00  0.00    -0.049 A 
ATOM     14  H   LIG d   1       2.826   0.541 -10.855  0.00  0.00     0.062 H 
ATOM     15  C   LIG d   1       3.406  -0.005  -7.579  0.00  0.00    -0.038 A 
ATOM     16  H   LIG d   1       3.462   0.525  -6.640  0.00  0.00     0.064 H 
BRANCH  13  17
ATOM     17  C   LIG d   1       2.898   2.170  -8.704  0.00  0.00    -0.040 C 
ATOM     18  H   LIG d   1       2.903   2.511  -7.669  0.00  0.00     0.028 H 
ATOM     19  H   LIG d   1       3.690   2.674  -9.257  0.00  0.00     0.028 H 
ATOM     20  H   LIG d   1       1.934   2.402  -9.158  0.00  0.00     0.028 H 
ENDBRANCH  13  17
ENDBRANCH   4   7
ENDBRANCH   1   3
BRANCH   1  21
ATOM     21  C   LIG d   1       6.529  -2.464  -4.029  0.00  0.00    -0.001 C 
ATOM     22  H   LIG d   1       6.947  -3.165  -3.307  0.00  0.00     0.034 H 
ATOM     23  H   LIG d   1       7.327  -2.074  -4.661  0.00  0.00     0.034 H 
BRANCH  21  24
ATOM     24  C   LIG d   1       5.864  -1.326  -3.299  0.00  0.00    -0.045 A 
ATOM     25  C   LIG d   1       6.306  -0.030  -3.491  0.00  0.00    -0.059 A 
ATOM     26  C   LIG d   1       5.695   1.014  -2.821  0.00  0.00    -0.061 A 
ATOM     27  H   LIG d   1       7.126   0.167  -4.164  0.00  0.00     0.062 H 
ATOM     28  C   LIG d   1       4.645   0.763  -1.959  0.00  0.00    -0.062 A 
ATOM     29  H   LIG d   1       6.041   2.026  -2.972  0.00  0.00     0.062 H 
ATOM     30  C   LIG d   1       4.204  -0.533  -1.768  0.00  0.00    -0.061 A 
ATOM     31  H   LIG d   1       4.169   1.579  -1.436  0.00  0.00     0.062 H 
ATOM     32  C   LIG d   1       4.810  -1.576  -2.441  0.00  0.00    -0.059 A 
ATOM     33  H   LIG d   1       3.382  -0.729  -1.094  0.00  0.00     0.062 H 
ATOM     34  H   LIG d   1       4.462  -2.588  -2.294  0.00  0.00     0.062 H 
ENDBRANCH  21  24
ENDBRANCH   1  21
BRANCH   1  35
ATOM     35  N   LIG d   1       6.033  -4.479  -5.325  0.00  0.00    -0.288 N 
ATOM     36  C   LIG d   1       5.198  -5.510  -5.561  0.00  0.00     0.303 C 
ATOM     37  O   LIG d   1       3.994  -5.342  -5.509  0.00  0.00    -0.253 OA
ATOM     38  N   LIG d   1       5.696  -6.728  -5.853  0.00  0.00    -0.285 N 
ATOM     39  C   LIG d   1       4.806  -7.892  -5.990  0.00  0.00     0.024 C 
ATOM     40  C   LIG d   1       7.139  -6.923  -6.037  0.00  0.00     0.021 C 
ATOM     41  C   LIG d   1       5.074  -8.516  -7.370  0.00  0.00     0.016 C 
ATOM     42  H   LIG d   1       5.022  -8.618  -5.207  0.00  0.00     0.047 H 
ATOM     43  H   LIG d   1       3.766  -7.572  -5.923  0.00  0.00     0.047 H 
ATOM     44  C   LIG d   1       6.546  -8.931  -7.433  0.00  0.00    -0.037 C 
ATOM     45  H   LIG d   1       4.424  -9.376  -7.526  0.00  0.00     0.038 H 
ATOM     46  C   LIG d   1       4.798  -7.459  -8.414  0.00  0.00     0.027 A 
ATOM     47  C   LIG d   1       7.407  -7.671  -7.335  0.00  0.00    -0.006 C 
ATOM     48  H   LIG d   1       6.745  -9.440  -8.376  0.00  0.00     0.028 H 
ATOM     49  H   LIG d   1       6.776  -9.597  -6.601  0.00  0.00     0.028 H 
ATOM     50  H   LIG d   1       8.451  -7.987  -7.336  0.00  0.00     0.033 H 
ATOM     51  C   LIG d   1       7.181  -6.795  -8.554  0.00  0.00     0.031 C 
ATOM     52  N   LIG d   1       5.761  -6.617  -8.858  0.00  0.00    -0.312 N 
ATOM     53  H   LIG d   1       7.628  -5.817  -8.374  0.00  0.00     0.050 H 
ATOM     54  H   LIG d   1       7.668  -7.254  -9.415  0.00  0.00     0.050 H 
ATOM     55  C   LIG d   1       5.424  -5.559  -9.634  0.00  0.00     0.252 A 
ATOM     56  C   LIG d   1       4.112  -5.402 -10.104  0.00  0.00     0.003 A 
ATOM     57  O   LIG d   1       6.273  -4.732  -9.929  0.00  0.00    -0.268 OA
ATOM     58  C   LIG d   1       3.161  -6.305  -9.728  0.00  0.00    -0.055 A 
ATOM     59  H   LIG d   1       3.859  -4.579 -10.755  0.00  0.00     0.067 H 
ATOM     60  C   LIG d   1       3.519  -7.344  -8.862  0.00  0.00    -0.042 A 
ATOM     61  H   LIG d   1       2.147  -6.218 -10.093  0.00  0.00     0.062 H 
ATOM     62  H   LIG d   1       2.775  -8.059  -8.547  0.00  0.00     0.064 H 
ATOM     63  H   LIG d   1       7.633  -5.953  -6.070  0.00  0.00     0.047 H 
ATOM     64  H   LIG d   1       7.534  -7.501  -5.202  0.00  0.00     0.047 H 
ATOM     65  H   LIG d   1       6.990  -4.595  -5.437  0.00  0.00     0.151 HD
ENDBRANCH   1  35
TORSDOF 6
ENDMDL
MODEL 6
REMARK VINA RESULT:      -7.7      1.950      6.445
REMARK  6 active torsions:
REMARK  status: ('A' for Active; 'I' for Inactive)
REMARK    1  A    between atoms: C_1  and  C_2 
REMARK    2  A    between atoms: C_6  and  N_8 
REMARK       I    between atoms: N_8  and  C_9 
REMARK    3  A    between atoms: C_9  and  C_11 
REMARK    4  A    between atoms: C_11  and  C_13 
REMARK    5  A    between atoms: C_11  and  N_20 
REMARK    6  A    between atoms: C_13  and  C_14 
REMARK       I    between atoms: N_20  and  C_21 
REMARK       I    between atoms: C_21  and  N_23 
ROOT
ATOM      1  C   LIG d   1       8.470   1.174  -6.361  0.00  0.00     0.105 C 
ATOM      2  H   LIG d   1       8.620   2.116  -5.834  0.00  0.00     0.060 H 
ENDROOT
BRANCH   1   3
ATOM      3  C   LIG d   1       7.584   1.401  -7.558  0.00  0.00     0.238 C 
ATOM      4  N   LIG d   1       6.340   0.882  -7.583  0.00  0.00    -0.284 N 
ATOM      5  H   LIG d   1       5.991   0.420  -6.804  0.00  0.00     0.155 HD
ATOM      6  O   LIG d   1       7.989   2.049  -8.499  0.00  0.00    -0.273 OA
BRANCH   4   7
ATOM      7  C   LIG d   1       5.551   1.010  -8.731  0.00  0.00     0.034 A 
ATOM      8  C   LIG d   1       4.610   2.027  -8.820  0.00  0.00    -0.041 A 
ATOM      9  C   LIG d   1       3.833   2.150  -9.954  0.00  0.00    -0.060 A 
ATOM     10  H   LIG d   1       4.487   2.722  -8.001  0.00  0.00     0.064 H 
ATOM     11  C   LIG d   1       3.991   1.263 -11.002  0.00  0.00    -0.059 A 
ATOM     12  H   LIG d   1       3.101   2.942 -10.024  0.00  0.00     0.062 H 
ATOM     13  C   LIG d   1       4.928   0.248 -10.918  0.00  0.00    -0.049 A 
ATOM     14  H   LIG d   1       3.383   1.361 -11.889  0.00  0.00     0.062 H 
ATOM     15  C   LIG d   1       5.711   0.122  -9.788  0.00  0.00    -0.038 A 
ATOM     16  H   LIG d   1       6.445  -0.667  -9.724  0.00  0.00     0.064 H 
BRANCH  13  17
ATOM     17  C   LIG d   1       5.097  -0.717 -12.062  0.00  0.00    -0.040 C 
ATOM     18  H   LIG d   1       4.847  -1.724 -11.729  0.00  0.00     0.028 H 
ATOM     19  H   LIG d   1       4.437  -0.430 -12.881  0.00  0.00     0.028 H 
ATOM     20  H   LIG d   1       6.132  -0.695 -12.406  0.00  0.00     0.028 H 
ENDBRANCH  13  17
ENDBRANCH   4   7
ENDBRANCH   1   3
BRANCH   1  21
ATOM     21  C   LIG d   1       9.824   0.629  -6.825  0.00  0.00    -0.001 C 
ATOM     22  H   LIG d   1       9.719  -0.421  -7.094  0.00  0.00     0.034 H 
ATOM     23  H   LIG d   1      10.165   1.194  -7.692  0.00  0.00     0.034 H 
BRANCH  21  24
ATOM     24  C   LIG d   1      10.828   0.765  -5.709  0.00  0.00    -0.045 A 
ATOM     25  C   LIG d   1      11.607  -0.318  -5.345  0.00  0.00    -0.059 A 
ATOM     26  C   LIG d   1      12.529  -0.193  -4.322  0.00  0.00    -0.061 A 
ATOM     27  H   LIG d   1      11.496  -1.260  -5.859  0.00  0.00     0.062 H 
ATOM     28  C   LIG d   1      12.671   1.013  -3.664  0.00  0.00    -0.062 A 
ATOM     29  H   LIG d   1      13.137  -1.039  -4.038  0.00  0.00     0.062 H 
ATOM     30  C   LIG d   1      11.892   2.096  -4.029  0.00  0.00    -0.061 A 
ATOM     31  H   LIG d   1      13.391   1.111  -2.864  0.00  0.00     0.062 H 
ATOM     32  C   LIG d   1      10.975   1.973  -5.054  0.00  0.00    -0.059 A 
ATOM     33  H   LIG d   1      12.004   3.039  -3.514  0.00  0.00     0.062 H 
ATOM     34  H   LIG d   1      10.369   2.820  -5.341  0.00  0.00     0.062 H 
ENDBRANCH  21  24
ENDBRANCH   1  21
BRANCH   1  35
ATOM     35  N   LIG d   1       7.837   0.206  -5.462  0.00  0.00    -0.288 N 
ATOM     36  C   LIG d   1       7.010   0.633  -4.487  0.00  0.00     0.303 C 
ATOM     37  O   LIG d   1       6.717   1.811  -4.411  0.00  0.00    -0.253 OA
ATOM     38  N   LIG d   1       6.507  -0.245  -3.597  0.00  0.00    -0.285 N 
ATOM     39  C   LIG d   1       5.705   0.219  -2.454  0.00  0.00     0.024 C 
ATOM     40  C   LIG d   1       6.752  -1.684  -3.743  0.00  0.00     0.021 C 
ATOM     41  C   LIG d   1       4.364  -0.534  -2.497  0.00  0.00     0.016 C 
ATOM     42  H   LIG d   1       6.225  -0.003  -1.522  0.00  0.00     0.047 H 
ATOM     43  H   LIG d   1       5.530   1.292  -2.535  0.00  0.00     0.047 H 
ATOM     44  C   LIG d   1       4.653  -2.035  -2.402  0.00  0.00    -0.037 C 
ATOM     45  H   LIG d   1       3.725  -0.211  -1.675  0.00  0.00     0.038 H 
ATOM     46  C   LIG d   1       3.706  -0.224  -3.821  0.00  0.00     0.027 A 
ATOM     47  C   LIG d   1       5.442  -2.454  -3.642  0.00  0.00    -0.006 C 
ATOM     48  H   LIG d   1       3.714  -2.587  -2.360  0.00  0.00     0.028 H 
ATOM     49  H   LIG d   1       5.239  -2.240  -1.506  0.00  0.00     0.028 H 
ATOM     50  H   LIG d   1       5.678  -3.513  -3.538  0.00  0.00     0.033 H 
ATOM     51  C   LIG d   1       4.585  -2.283  -4.883  0.00  0.00     0.031 C 
ATOM     52  N   LIG d   1       3.910  -0.985  -4.922  0.00  0.00    -0.312 N 
ATOM     53  H   LIG d   1       5.217  -2.378  -5.765  0.00  0.00     0.050 H 
ATOM     54  H   LIG d   1       3.830  -3.070  -4.902  0.00  0.00     0.050 H 
ATOM     55  C   LIG d   1       3.469  -0.556  -6.128  0.00  0.00     0.252 A 
ATOM     56  C   LIG d   1       2.677   0.596  -6.234  0.00  0.00     0.003 A 
ATOM     57  O   LIG d   1       3.763  -1.180  -7.136  0.00  0.00    -0.268 OA
ATOM     58  C   LIG d   1       2.395   1.313  -5.108  0.00  0.00    -0.055 A 
ATOM     59  H   LIG d   1       2.294   0.911  -7.193  0.00  0.00     0.067 H 
ATOM     60  C   LIG d   1       2.930   0.890  -3.886  0.00  0.00    -0.042 A 
ATOM     61  H   LIG d   1       1.769   2.193  -5.159  0.00  0.00     0.062 H 
ATOM     62  H   LIG d   1       2.724   1.453  -2.988  0.00  0.00     0.064 H 
ATOM     63  H   LIG d   1       7.210  -1.876  -4.713  0.00  0.00     0.047 H 
ATOM     64  H   LIG d   1       7.425  -2.018  -2.954  0.00  0.00     0.047 H 
ATOM     65  H   LIG d   1       8.013  -0.742  -5.567  0.00  0.00     0.151 HD
ENDBRANCH   1  35
TORSDOF 6
ENDMDL
MODEL 7
REMARK VINA RESULT:      -7.6      3.213      7.613
REMARK  6 active torsions:
REMARK  status: ('A' for Active; 'I' for Inactive)
REMARK    1  A    between atoms: C_1  and  C_2 
REMARK    2  A    between atoms: C_6  and  N_8 
REMARK       I    between atoms: N_8  and  C_9 
REMARK    3  A    between atoms: C_9  and  C_11 
REMARK    4  A    between atoms: C_11  and  C_13 
REMARK    5  A    between atoms: C_11  and  N_20 
REMARK    6  A    between atoms: C_13  and  C_14 
REMARK       I    between atoms: N_20  and  C_21 
REMARK       I    between atoms: C_21  and  N_23 
ROOT
ATOM      1  C   LIG d   1       5.708  -3.927  -6.403  0.00  0.00     0.105 C 
ATOM      2  H   LIG d   1       4.844  -4.590  -6.377  0.00  0.00     0.060 H 
ENDROOT
BRANCH   1   3
ATOM      3  C   LIG d   1       5.464  -2.745  -5.501  0.00  0.00     0.238 C 
ATOM      4  N   LIG d   1       4.345  -2.690  -4.751  0.00  0.00    -0.284 N 
ATOM      5  H   LIG d   1       3.730  -3.441  -4.741  0.00  0.00     0.155 HD
ATOM      6  O   LIG d   1       6.273  -1.844  -5.450  0.00  0.00    -0.273 OA
BRANCH   4   7
ATOM      7  C   LIG d   1       4.071  -1.551  -3.987  0.00  0.00     0.034 A 
ATOM      8  C   LIG d   1       4.408  -1.518  -2.640  0.00  0.00    -0.041 A 
ATOM      9  C   LIG d   1       4.136  -0.393  -1.889  0.00  0.00    -0.060 A 
ATOM     10  H   LIG d   1       4.884  -2.373  -2.182  0.00  0.00     0.064 H 
ATOM     11  C   LIG d   1       3.527   0.702  -2.475  0.00  0.00    -0.059 A 
ATOM     12  H   LIG d   1       4.398  -0.366  -0.841  0.00  0.00     0.062 H 
ATOM     13  C   LIG d   1       3.190   0.673  -3.816  0.00  0.00    -0.049 A 
ATOM     14  H   LIG d   1       3.315   1.582  -1.886  0.00  0.00     0.062 H 
ATOM     15  C   LIG d   1       3.464  -0.448  -4.575  0.00  0.00    -0.038 A 
ATOM     16  H   LIG d   1       3.205  -0.468  -5.622  0.00  0.00     0.064 H 
BRANCH  13  17
ATOM     17  C   LIG d   1       2.528   1.868  -4.452  0.00  0.00    -0.040 C 
ATOM     18  H   LIG d   1       1.447   1.785  -4.344  0.00  0.00     0.028 H 
ATOM     19  H   LIG d   1       2.874   2.779  -3.962  0.00  0.00     0.028 H 
ATOM     20  H   LIG d   1       2.786   1.906  -5.511  0.00  0.00     0.028 H 
ENDBRANCH  13  17
ENDBRANCH   4   7
ENDBRANCH   1   3
BRANCH   1  21
ATOM     21  C   LIG d   1       6.949  -4.686  -5.924  0.00  0.00    -0.001 C 
ATOM     22  H   LIG d   1       7.699  -4.689  -6.714  0.00  0.00     0.034 H 
ATOM     23  H   LIG d   1       7.354  -4.197  -5.039  0.00  0.00     0.034 H 
BRANCH  21  24
ATOM     24  C   LIG d   1       6.569  -6.105  -5.585  0.00  0.00    -0.045 A 
ATOM     25  C   LIG d   1       7.538  -7.000  -5.174  0.00  0.00    -0.059 A 
ATOM     26  C   LIG d   1       7.189  -8.301  -4.862  0.00  0.00    -0.061 A 
ATOM     27  H   LIG d   1       8.567  -6.684  -5.094  0.00  0.00     0.062 H 
ATOM     28  C   LIG d   1       5.872  -8.707  -4.963  0.00  0.00    -0.062 A 
ATOM     29  H   LIG d   1       7.947  -9.000  -4.540  0.00  0.00     0.062 H 
ATOM     30  C   LIG d   1       4.903  -7.811  -5.375  0.00  0.00    -0.061 A 
ATOM     31  H   LIG d   1       5.600  -9.723  -4.720  0.00  0.00     0.062 H 
ATOM     32  C   LIG d   1       5.250  -6.510  -5.681  0.00  0.00    -0.059 A 
ATOM     33  H   LIG d   1       3.873  -8.128  -5.453  0.00  0.00     0.062 H 
ATOM     34  H   LIG d   1       4.493  -5.809  -5.999  0.00  0.00     0.062 H 
ENDBRANCH  21  24
ENDBRANCH   1  21
BRANCH   1  35
ATOM     35  N   LIG d   1       5.923  -3.457  -7.775  0.00  0.00    -0.288 N 
ATOM     36  C   LIG d   1       4.872  -3.290  -8.601  0.00  0.00     0.303 C 
ATOM     37  O   LIG d   1       3.739  -3.441  -8.183  0.00  0.00    -0.253 OA
ATOM     38  N   LIG d   1       5.075  -2.957  -9.891  0.00  0.00    -0.285 N 
ATOM     39  C   LIG d   1       3.950  -2.892 -10.838  0.00  0.00     0.024 C 
ATOM     40  C   LIG d   1       6.424  -2.655 -10.383  0.00  0.00     0.021 C 
ATOM     41  C   LIG d   1       3.968  -1.494 -11.479  0.00  0.00     0.016 C 
ATOM     42  H   LIG d   1       4.069  -3.655 -11.607  0.00  0.00     0.047 H 
ATOM     43  H   LIG d   1       3.010  -3.045 -10.307  0.00  0.00     0.047 H 
ATOM     44  C   LIG d   1       5.309  -1.311 -12.194  0.00  0.00    -0.037 C 
ATOM     45  H   LIG d   1       3.139  -1.392 -12.179  0.00  0.00     0.038 H 
ATOM     46  C   LIG d   1       3.840  -0.478 -10.368  0.00  0.00     0.027 A 
ATOM     47  C   LIG d   1       6.422  -1.338 -11.147  0.00  0.00    -0.006 C 
ATOM     48  H   LIG d   1       5.318  -0.353 -12.716  0.00  0.00     0.028 H 
ATOM     49  H   LIG d   1       5.457  -2.119 -12.909  0.00  0.00     0.028 H 
ATOM     50  H   LIG d   1       7.372  -1.251 -11.676  0.00  0.00     0.033 H 
ATOM     51  C   LIG d   1       6.290  -0.143 -10.221  0.00  0.00     0.031 C 
ATOM     52  N   LIG d   1       4.920   0.043  -9.741  0.00  0.00    -0.312 N 
ATOM     53  H   LIG d   1       6.947  -0.286  -9.363  0.00  0.00     0.050 H 
ATOM     54  H   LIG d   1       6.598   0.755 -10.757  0.00  0.00     0.050 H 
ATOM     55  C   LIG d   1       4.755   0.788  -8.622  0.00  0.00     0.252 A 
ATOM     56  C   LIG d   1       3.473   1.148  -8.182  0.00  0.00     0.003 A 
ATOM     57  O   LIG d   1       5.734   1.151  -7.987  0.00  0.00    -0.268 OA
ATOM     58  C   LIG d   1       2.385   0.696  -8.870  0.00  0.00    -0.055 A 
ATOM     59  H   LIG d   1       3.348   1.775  -7.312  0.00  0.00     0.067 H 
ATOM     60  C   LIG d   1       2.583  -0.137  -9.977  0.00  0.00    -0.042 A 
ATOM     61  H   LIG d   1       1.387   0.976  -8.564  0.00  0.00     0.062 H 
ATOM     62  H   LIG d   1       1.731  -0.511 -10.524  0.00  0.00     0.064 H 
ATOM     63  H   LIG d   1       7.109  -2.582  -9.539  0.00  0.00     0.047 H 
ATOM     64  H   LIG d   1       6.753  -3.453 -11.047  0.00  0.00     0.047 H 
ATOM     65  H   LIG d   1       6.821  -3.267  -8.088  0.00  0.00     0.151 HD
ENDBRANCH   1  35
TORSDOF 6
ENDMDL
MODEL 8
REMARK VINA RESULT:      -7.5      3.001      7.955
REMARK  6 active torsions:
REMARK  status: ('A' for Active; 'I' for Inactive)
REMARK    1  A    between atoms: C_1  and  C_2 
REMARK    2  A    between atoms: C_6  and  N_8 
REMARK       I    between atoms: N_8  and  C_9 
REMARK    3  A    between atoms: C_9  and  C_11 
REMARK    4  A    between atoms: C_11  and  C_13 
REMARK    5  A    between atoms: C_11  and  N_20 
REMARK    6  A    between atoms: C_13  and  C_14 
REMARK       I    between atoms: N_20  and  C_21 
REMARK       I    between atoms: C_21  and  N_23 
ROOT
ATOM      1  C   LIG d   1       7.435  -3.156  -4.836  0.00  0.00     0.105 C 
ATOM      2  H   LIG d   1       6.910  -4.045  -4.488  0.00  0.00     0.060 H 
ENDROOT
BRANCH   1   3
ATOM      3  C   LIG d   1       6.746  -1.924  -4.308  0.00  0.00     0.238 C 
ATOM      4  N   LIG d   1       5.534  -2.028  -3.727  0.00  0.00    -0.284 N 
ATOM      5  H   LIG d   1       5.135  -2.902  -3.588  0.00  0.00     0.155 HD
ATOM      6  O   LIG d   1       7.280  -0.841  -4.406  0.00  0.00    -0.273 OA
BRANCH   4   7
ATOM      7  C   LIG d   1       4.851  -0.876  -3.322  0.00  0.00     0.034 A 
ATOM      8  C   LIG d   1       5.075  -0.340  -2.062  0.00  0.00    -0.041 A 
ATOM      9  C   LIG d   1       4.399   0.797  -1.666  0.00  0.00    -0.060 A 
ATOM     10  H   LIG d   1       5.778  -0.812  -1.391  0.00  0.00     0.064 H 
ATOM     11  C   LIG d   1       3.500   1.402  -2.524  0.00  0.00    -0.059 A 
ATOM     12  H   LIG d   1       4.573   1.215  -0.685  0.00  0.00     0.062 H 
ATOM     13  C   LIG d   1       3.274   0.871  -3.781  0.00  0.00    -0.049 A 
ATOM     14  H   LIG d   1       2.972   2.292  -2.213  0.00  0.00     0.062 H 
ATOM     15  C   LIG d   1       3.950  -0.263  -4.185  0.00  0.00    -0.038 A 
ATOM     16  H   LIG d   1       3.777  -0.674  -5.168  0.00  0.00     0.064 H 
BRANCH  13  17
ATOM     17  C   LIG d   1       2.294   1.535  -4.714  0.00  0.00    -0.040 C 
ATOM     18  H   LIG d   1       2.219   0.956  -5.635  0.00  0.00     0.028 H 
ATOM     19  H   LIG d   1       1.316   1.587  -4.236  0.00  0.00     0.028 H 
ATOM     20  H   LIG d   1       2.638   2.543  -4.946  0.00  0.00     0.028 H 
ENDBRANCH  13  17
ENDBRANCH   4   7
ENDBRANCH   1   3
BRANCH   1  21
ATOM     21  C   LIG d   1       8.880  -3.187  -4.332  0.00  0.00    -0.001 C 
ATOM     22  H   LIG d   1       9.562  -3.129  -5.180  0.00  0.00     0.034 H 
ATOM     23  H   LIG d   1       9.052  -2.340  -3.669  0.00  0.00     0.034 H 
BRANCH  21  24
ATOM     24  C   LIG d   1       9.122  -4.471  -3.580  0.00  0.00    -0.045 A 
ATOM     25  C   LIG d   1       9.544  -4.431  -2.264  0.00  0.00    -0.059 A 
ATOM     26  C   LIG d   1       9.765  -5.608  -1.574  0.00  0.00    -0.061 A 
ATOM     27  H   LIG d   1       9.701  -3.481  -1.775  0.00  0.00     0.062 H 
ATOM     28  C   LIG d   1       9.565  -6.824  -2.199  0.00  0.00    -0.062 A 
ATOM     29  H   LIG d   1      10.095  -5.577  -0.546  0.00  0.00     0.062 H 
ATOM     30  C   LIG d   1       9.143  -6.863  -3.515  0.00  0.00    -0.061 A 
ATOM     31  H   LIG d   1       9.738  -7.744  -1.660  0.00  0.00     0.062 H 
ATOM     32  C   LIG d   1       8.916  -5.687  -4.203  0.00  0.00    -0.059 A 
ATOM     33  H   LIG d   1       8.986  -7.814  -4.003  0.00  0.00     0.062 H 
ATOM     34  H   LIG d   1       8.583  -5.718  -5.230  0.00  0.00     0.062 H 
ENDBRANCH  21  24
ENDBRANCH   1  21
BRANCH   1  35
ATOM     35  N   LIG d   1       7.430  -3.128  -6.301  0.00  0.00    -0.288 N 
ATOM     36  C   LIG d   1       6.328  -3.508  -6.978  0.00  0.00     0.303 C 
ATOM     37  O   LIG d   1       5.310  -3.787  -6.375  0.00  0.00    -0.253 OA
ATOM     38  N   LIG d   1       6.354  -3.579  -8.323  0.00  0.00    -0.285 N 
ATOM     39  C   LIG d   1       5.204  -4.111  -9.072  0.00  0.00     0.024 C 
ATOM     40  C   LIG d   1       7.534  -3.133  -9.074  0.00  0.00     0.021 C 
ATOM     41  C   LIG d   1       4.792  -3.044 -10.100  0.00  0.00     0.016 C 
ATOM     42  H   LIG d   1       5.488  -5.029  -9.584  0.00  0.00     0.047 H 
ATOM     43  H   LIG d   1       4.378  -4.307  -8.389  0.00  0.00     0.047 H 
ATOM     44  C   LIG d   1       5.983  -2.781 -11.024  0.00  0.00    -0.037 C 
ATOM     45  H   LIG d   1       3.929  -3.386 -10.670  0.00  0.00     0.038 H 
ATOM     46  C   LIG d   1       4.447  -1.783  -9.341  0.00  0.00     0.027 A 
ATOM     47  C   LIG d   1       7.118  -2.185 -10.191  0.00  0.00    -0.006 C 
ATOM     48  H   LIG d   1       5.693  -2.079 -11.806  0.00  0.00     0.028 H 
ATOM     49  H   LIG d   1       6.312  -3.717 -11.476  0.00  0.00     0.028 H 
ATOM     50  H   LIG d   1       7.973  -2.045 -10.854  0.00  0.00     0.033 H 
ATOM     51  C   LIG d   1       6.709  -0.823  -9.660  0.00  0.00     0.031 C 
ATOM     52  N   LIG d   1       5.372  -0.835  -9.065  0.00  0.00    -0.312 N 
ATOM     53  H   LIG d   1       7.428  -0.508  -8.903  0.00  0.00     0.050 H 
ATOM     54  H   LIG d   1       6.721  -0.106 -10.480  0.00  0.00     0.050 H 
ATOM     55  C   LIG d   1       5.069   0.172  -8.210  0.00  0.00     0.252 A 
ATOM     56  C   LIG d   1       3.765   0.328  -7.719  0.00  0.00     0.003 A 
ATOM     57  O   LIG d   1       5.942   0.954  -7.864  0.00  0.00    -0.268 OA
ATOM     58  C   LIG d   1       2.811  -0.580  -8.073  0.00  0.00    -0.055 A 
ATOM     59  H   LIG d   1       3.520   1.155  -7.070  0.00  0.00     0.067 H 
ATOM     60  C   LIG d   1       3.170  -1.655  -8.893  0.00  0.00    -0.042 A 
ATOM     61  H   LIG d   1       1.793  -0.471  -7.724  0.00  0.00     0.062 H 
ATOM     62  H   LIG d   1       2.428  -2.387  -9.172  0.00  0.00     0.064 H 
ATOM     63  H   LIG d   1       8.218  -2.619  -8.400  0.00  0.00     0.047 H 
ATOM     64  H   LIG d   1       8.035  -3.998  -9.507  0.00  0.00     0.047 H 
ATOM     65  H   LIG d   1       8.218  -2.835  -6.784  0.00  0.00     0.151 HD
ENDBRANCH   1  35
TORSDOF 6
ENDMDL
MODEL 9
REMARK VINA RESULT:      -7.4      4.564      8.175
REMARK  6 active torsions:
REMARK  status: ('A' for Active; 'I' for Inactive)
REMARK    1  A    between atoms: C_1  and  C_2 
REMARK    2  A    between atoms: C_6  and  N_8 
REMARK       I    between atoms: N_8  and  C_9 
REMARK    3  A    between atoms: C_9  and  C_11 
REMARK    4  A    between atoms: C_11  and  C_13 
REMARK    5  A    between atoms: C_11  and  N_20 
REMARK    6  A    between atoms: C_13  and  C_14 
REMARK       I    between atoms: N_20  and  C_21 
REMARK       I    between atoms: C_21  and  N_23 
ROOT
ATOM      1  C   LIG d   1       9.179   1.272  -4.997  0.00  0.00     0.105 C 
ATOM      2  H   LIG d   1       9.789   1.281  -4.094  0.00  0.00     0.060 H 
ENDROOT
BRANCH   1   3
ATOM      3  C   LIG d   1       7.733   1.068  -4.625  0.00  0.00     0.238 C 
ATOM      4  N   LIG d   1       7.397   0.797  -3.348  0.00  0.00    -0.284 N 
ATOM      5  H   LIG d   1       8.078   0.799  -2.657  0.00  0.00     0.155 HD
ATOM      6  O   LIG d   1       6.872   1.147  -5.475  0.00  0.00    -0.273 OA
BRANCH   4   7
ATOM      7  C   LIG d   1       6.067   0.513  -3.019  0.00  0.00     0.034 A 
ATOM      8  C   LIG d   1       5.175   1.547  -2.773  0.00  0.00    -0.041 A 
ATOM      9  C   LIG d   1       3.863   1.264  -2.449  0.00  0.00    -0.060 A 
ATOM     10  H   LIG d   1       5.507   2.574  -2.836  0.00  0.00     0.064 H 
ATOM     11  C   LIG d   1       3.438  -0.049  -2.369  0.00  0.00    -0.059 A 
ATOM     12  H   LIG d   1       3.168   2.068  -2.257  0.00  0.00     0.062 H 
ATOM     13  C   LIG d   1       4.324  -1.083  -2.614  0.00  0.00    -0.049 A 
ATOM     14  H   LIG d   1       2.411  -0.269  -2.115  0.00  0.00     0.062 H 
ATOM     15  C   LIG d   1       5.636  -0.805  -2.944  0.00  0.00    -0.038 A 
ATOM     16  H   LIG d   1       6.326  -1.612  -3.139  0.00  0.00     0.064 H 
BRANCH  13  17
ATOM     17  C   LIG d   1       3.856  -2.512  -2.527  0.00  0.00    -0.040 C 
ATOM     18  H   LIG d   1       4.685  -3.181  -2.757  0.00  0.00     0.028 H 
ATOM     19  H   LIG d   1       3.493  -2.715  -1.520  0.00  0.00     0.028 H 
ATOM     20  H   LIG d   1       3.050  -2.675  -3.243  0.00  0.00     0.028 H 
ENDBRANCH  13  17
ENDBRANCH   4   7
ENDBRANCH   1   3
BRANCH   1  21
ATOM     21  C   LIG d   1       9.334   2.607  -5.731  0.00  0.00    -0.001 C 
ATOM     22  H   LIG d   1      10.194   2.557  -6.396  0.00  0.00     0.034 H 
ATOM     23  H   LIG d   1       8.435   2.807  -6.313  0.00  0.00     0.034 H 
BRANCH  21  24
ATOM     24  C   LIG d   1       9.537   3.711  -4.726  0.00  0.00    -0.045 A 
ATOM     25  C   LIG d   1       9.979   3.412  -3.451  0.00  0.00    -0.059 A 
ATOM     26  C   LIG d   1      10.166   4.426  -2.529  0.00  0.00    -0.061 A 
ATOM     27  H   LIG d   1      10.178   2.388  -3.174  0.00  0.00     0.062 H 
ATOM     28  C   LIG d   1       9.910   5.737  -2.882  0.00  0.00    -0.062 A 
ATOM     29  H   LIG d   1      10.511   4.192  -1.533  0.00  0.00     0.062 H 
ATOM     30  C   LIG d   1       9.469   6.036  -4.158  0.00  0.00    -0.061 A 
ATOM     31  H   LIG d   1      10.056   6.529  -2.162  0.00  0.00     0.062 H 
ATOM     32  C   LIG d   1       9.287   5.024  -5.080  0.00  0.00    -0.059 A 
ATOM     33  H   LIG d   1       9.270   7.061  -4.434  0.00  0.00     0.062 H 
ATOM     34  H   LIG d   1       8.946   5.257  -6.078  0.00  0.00     0.062 H 
ENDBRANCH  21  24
ENDBRANCH   1  21
BRANCH   1  35
ATOM     35  N   LIG d   1       9.616   0.181  -5.872  0.00  0.00    -0.288 N 
ATOM     36  C   LIG d   1      10.723  -0.525  -5.566  0.00  0.00     0.303 C 
ATOM     37  O   LIG d   1      11.307  -0.318  -4.519  0.00  0.00    -0.253 OA
ATOM     38  N   LIG d   1      11.183  -1.460  -6.420  0.00  0.00    -0.285 N 
ATOM     39  C   LIG d   1      12.457  -2.152  -6.164  0.00  0.00     0.024 C 
ATOM     40  C   LIG d   1      10.428  -1.807  -7.630  0.00  0.00     0.021 C 
ATOM     41  C   LIG d   1      12.171  -3.663  -6.182  0.00  0.00     0.016 C 
ATOM     42  H   LIG d   1      13.177  -1.902  -6.942  0.00  0.00     0.047 H 
ATOM     43  H   LIG d   1      12.847  -1.860  -5.189  0.00  0.00     0.047 H 
ATOM     44  C   LIG d   1      11.606  -4.029  -7.556  0.00  0.00    -0.037 C 
ATOM     45  H   LIG d   1      13.085  -4.221  -5.979  0.00  0.00     0.038 H 
ATOM     46  C   LIG d   1      11.140  -3.948  -5.114  0.00  0.00     0.027 A 
ATOM     47  C   LIG d   1      10.264  -3.318  -7.732  0.00  0.00    -0.006 C 
ATOM     48  H   LIG d   1      11.460  -5.108  -7.618  0.00  0.00     0.028 H 
ATOM     49  H   LIG d   1      12.297  -3.708  -8.335  0.00  0.00     0.028 H 
ATOM     50  H   LIG d   1       9.897  -3.552  -8.731  0.00  0.00     0.033 H 
ATOM     51  C   LIG d   1       9.261  -3.851  -6.726  0.00  0.00     0.031 C 
ATOM     52  N   LIG d   1       9.811  -3.923  -5.372  0.00  0.00    -0.312 N 
ATOM     53  H   LIG d   1       8.388  -3.197  -6.716  0.00  0.00     0.050 H 
ATOM     54  H   LIG d   1       8.951  -4.850  -7.032  0.00  0.00     0.050 H 
ATOM     55  C   LIG d   1       8.926  -3.980  -4.348  0.00  0.00     0.252 A 
ATOM     56  C   LIG d   1       9.361  -4.209  -3.036  0.00  0.00     0.003 A 
ATOM     57  O   LIG d   1       7.734  -3.830  -4.572  0.00  0.00    -0.268 OA
ATOM     58  C   LIG d   1      10.698  -4.325  -2.791  0.00  0.00    -0.055 A 
ATOM     59  H   LIG d   1       8.648  -4.293  -2.229  0.00  0.00     0.067 H 
ATOM     60  C   LIG d   1      11.595  -4.184  -3.855  0.00  0.00    -0.042 A 
ATOM     61  H   LIG d   1      11.058  -4.523  -1.791  0.00  0.00     0.062 H 
ATOM     62  H   LIG d   1      12.656  -4.262  -3.674  0.00  0.00     0.064 H 
ATOM     63  H   LIG d   1       9.445  -1.339  -7.588  0.00  0.00     0.047 H 
ATOM     64  H   LIG d   1      10.964  -1.445  -8.506  0.00  0.00     0.047 H 
ATOM     65  H   LIG d   1       9.110  -0.034  -6.671  0.00  0.00     0.151 HD
ENDBRANCH   1  35
TORSDOF 6
ENDMDL
