MODEL 1
REMARK VINA RESULT:      -6.8      0.000      0.000
REMARK  12 active torsions:
REMARK  status: ('A' for Active; 'I' for Inactive)
REMARK    1  A    between atoms: C_1  and  C_2 
REMARK    2  A    between atoms: C_5  and  O_40 
REMARK    3  A    between atoms: C_7  and  C_37 
REMARK    4  A    between atoms: C_7  and  C_38 
REMARK    5  A    between atoms: C_14  and  N_16 
REMARK    6  A    between atoms: N_16  and  C_17 
REMARK    7  A    between atoms: C_21  and  O_23 
REMARK    8  A    between atoms: C_24  and  C_26 
REMARK    9  A    between atoms: C_26  and  C_27 
REMARK       I    between atoms: C_27  and  N_29 
REMARK   10  A    between atoms: N_29  and  C_30 
REMARK   11  A    between atoms: C_30  and  C_31 
REMARK   12  A    between atoms: C_38  and  O_39 
ROOT
ATOM      1  C   LIG d   1       2.756  -1.768  -9.965  0.00  0.00    -0.019 C 
ATOM      2  C   LIG d   1       1.479  -1.004 -10.335  0.00  0.00    -0.044 C 
ATOM      3  C   LIG d   1       1.040  -1.358 -11.753  0.00  0.00    -0.026 C 
ATOM      4  C   LIG d   1       0.751  -2.862 -11.818  0.00  0.00     0.063 C 
ATOM      5  H   LIG d   1      -0.019  -3.119 -11.090  0.00  0.00     0.060 H 
ATOM      6  C   LIG d   1       2.035  -3.623 -11.497  0.00  0.00     0.021 C 
ATOM      7  C   LIG d   1       2.521  -3.275 -10.087  0.00  0.00    -0.021 C 
ATOM      8  H   LIG d   1       1.787  -3.598  -9.349  0.00  0.00     0.032 H 
ATOM      9  C   LIG d   1       3.860  -4.007  -9.873  0.00  0.00    -0.016 C 
ATOM     10  C   LIG d   1       4.538  -3.439  -8.677  0.00  0.00     0.015 A 
ATOM     11  C   LIG d   1       4.248  -2.281  -8.031  0.00  0.00     0.058 A 
ATOM     12  N   LIG d   1       5.012  -1.992  -6.978  0.00  0.00    -0.229 NA
ATOM     13  C   LIG d   1       5.991  -2.780  -6.584  0.00  0.00     0.163 A 
ATOM     14  S   LIG d   1       5.906  -4.073  -7.744  0.00  0.00    -0.057 SA
ATOM     15  C   LIG d   1       3.107  -1.401  -8.517  0.00  0.00     0.016 C 
ATOM     16  H   LIG d   1       2.233  -1.555  -7.881  0.00  0.00     0.037 H 
ATOM     17  H   LIG d   1       0.687  -1.267  -9.635  0.00  0.00     0.027 H 
ATOM     18  H   LIG d   1       1.670   0.068 -10.274  0.00  0.00     0.027 H 
ATOM     19  H   LIG d   1       1.835  -1.109 -12.456  0.00  0.00     0.029 H 
ATOM     20  H   LIG d   1       0.137  -0.802 -12.006  0.00  0.00     0.029 H 
ATOM     21  H   LIG d   1       3.674  -5.070  -9.714  0.00  0.00     0.032 H 
ATOM     22  H   LIG d   1       4.495  -3.873 -10.750  0.00  0.00     0.032 H 
ENDROOT
BRANCH  15  23
ATOM     23  C   LIG d   1       3.532   0.067  -8.451  0.00  0.00     0.033 C 
ATOM     24  H   LIG d   1       4.620   0.130  -8.442  0.00  0.00     0.036 H 
ATOM     25  H   LIG d   1       3.145   0.596  -9.322  0.00  0.00     0.036 H 
BRANCH  23  26
ATOM     26  C   LIG d   1       2.982   0.694  -7.196  0.00  0.00     0.214 C 
ATOM     27  O   LIG d   1       2.821   1.894  -7.138  0.00  0.00    -0.276 OA
ATOM     28  N   LIG d   1       2.670  -0.080  -6.137  0.00  0.00    -0.311 N 
ATOM     29  H   LIG d   1       2.799  -1.041  -6.184  0.00  0.00     0.149 HD
BRANCH  28  30
ATOM     30  C   LIG d   1       2.135   0.528  -4.917  0.00  0.00     0.038 C 
ATOM     31  H   LIG d   1       2.160   1.614  -5.011  0.00  0.00     0.051 H 
ATOM     32  H   LIG d   1       1.105   0.201  -4.769  0.00  0.00     0.051 H 
BRANCH  30  33
ATOM     33  C   LIG d   1       2.971   0.106  -3.736  0.00  0.00    -0.012 A 
ATOM     34  C   LIG d   1       3.573   1.054  -2.931  0.00  0.00     0.032 A 
ATOM     35  N   LIG d   1       4.301   0.692  -1.893  0.00  0.00    -0.263 NA
ATOM     36  H   LIG d   1       3.444   2.103  -3.153  0.00  0.00     0.083 H 
ATOM     37  C   LIG d   1       4.492  -0.576  -1.587  0.00  0.00     0.028 A 
ATOM     38  C   LIG d   1       3.925  -1.580  -2.350  0.00  0.00    -0.043 A 
ATOM     39  H   LIG d   1       5.098  -0.834  -0.731  0.00  0.00     0.083 H 
ATOM     40  C   LIG d   1       3.149  -1.238  -3.446  0.00  0.00    -0.054 A 
ATOM     41  H   LIG d   1       4.085  -2.617  -2.095  0.00  0.00     0.063 H 
ATOM     42  H   LIG d   1       2.693  -2.002  -4.061  0.00  0.00     0.062 H 
ENDBRANCH  30  33
ENDBRANCH  28  30
ENDBRANCH  23  26
ENDBRANCH  15  23
BRANCH   1  43
ATOM     43  C   LIG d   1       3.893  -1.348 -10.898  0.00  0.00    -0.059 C 
ATOM     44  H   LIG d   1       4.820  -1.828 -10.581  0.00  0.00     0.024 H 
ATOM     45  H   LIG d   1       3.658  -1.652 -11.918  0.00  0.00     0.024 H 
ATOM     46  H   LIG d   1       4.014  -0.265 -10.860  0.00  0.00     0.024 H 
ENDBRANCH   1  43
BRANCH   6  47
ATOM     47  C   LIG d   1       1.766  -5.127 -11.579  0.00  0.00    -0.055 C 
ATOM     48  H   LIG d   1       2.710  -5.669 -11.519  0.00  0.00     0.024 H 
ATOM     49  H   LIG d   1       1.122  -5.426 -10.752  0.00  0.00     0.024 H 
ATOM     50  H   LIG d   1       1.274  -5.357 -12.524  0.00  0.00     0.024 H 
ENDBRANCH   6  47
BRANCH   6  51
ATOM     51  C   LIG d   1       3.115  -3.246 -12.513  0.00  0.00     0.052 C 
ATOM     52  H   LIG d   1       2.961  -2.218 -12.842  0.00  0.00     0.056 H 
ATOM     53  H   LIG d   1       4.097  -3.335 -12.049  0.00  0.00     0.056 H 
BRANCH  51  54
ATOM     54  O   LIG d   1       3.037  -4.123 -13.638  0.00  0.00    -0.394 OA
ATOM     55  H   LIG d   1       2.449  -4.880 -13.507  0.00  0.00     0.209 HD
ENDBRANCH  51  54
ENDBRANCH   6  51
BRANCH  13  56
ATOM     56  N   LIG d   1       6.866  -2.620  -5.520  0.00  0.00    -0.294 N 
ATOM     57  H   LIG d   1       7.059  -3.369  -4.935  0.00  0.00     0.154 HD
BRANCH  56  58
ATOM     58  C   LIG d   1       7.467  -1.380  -5.291  0.00  0.00     0.036 A 
ATOM     59  C   LIG d   1       6.841  -0.442  -4.482  0.00  0.00     0.001 A 
ATOM     60  C   LIG d   1       7.445   0.784  -4.254  0.00  0.00     0.119 A 
ATOM     61  H   LIG d   1       5.889  -0.670  -4.027  0.00  0.00     0.067 H 
ATOM     62  C   LIG d   1       8.666   1.077  -4.843  0.00  0.00    -0.020 A 
ATOM     63  C   LIG d   1       9.286   0.144  -5.653  0.00  0.00    -0.057 A 
ATOM     64  H   LIG d   1       9.134   2.035  -4.669  0.00  0.00     0.065 H 
ATOM     65  C   LIG d   1       8.691  -1.082  -5.880  0.00  0.00    -0.040 A 
ATOM     66  H   LIG d   1      10.236   0.374  -6.111  0.00  0.00     0.062 H 
ATOM     67  H   LIG d   1       9.177  -1.808  -6.513  0.00  0.00     0.064 H 
BRANCH  60  68
ATOM     68  O   LIG d   1       6.837   1.702  -3.456  0.00  0.00    -0.507 OA
ATOM     69  H   LIG d   1       5.943   1.454  -3.182  0.00  0.00     0.292 HD
ENDBRANCH  60  68
ENDBRANCH  56  58
ENDBRANCH  13  56
BRANCH   4  70
ATOM     70  O   LIG d   1       0.304  -3.208 -13.131  0.00  0.00    -0.391 OA
ATOM     71  H   LIG d   1       0.943  -3.724 -13.640  0.00  0.00     0.210 HD
ENDBRANCH   4  70
TORSDOF 12
ENDMDL
MODEL 2
REMARK VINA RESULT:      -6.8      4.463      5.944
REMARK  12 active torsions:
REMARK  status: ('A' for Active; 'I' for Inactive)
REMARK    1  A    between atoms: C_1  and  C_2 
REMARK    2  A    between atoms: C_5  and  O_40 
REMARK    3  A    between atoms: C_7  and  C_37 
REMARK    4  A    between atoms: C_7  and  C_38 
REMARK    5  A    between atoms: C_14  and  N_16 
REMARK    6  A    between atoms: N_16  and  C_17 
REMARK    7  A    between atoms: C_21  and  O_23 
REMARK    8  A    between atoms: C_24  and  C_26 
REMARK    9  A    between atoms: C_26  and  C_27 
REMARK       I    between atoms: C_27  and  N_29 
REMARK   10  A    between atoms: N_29  and  C_30 
REMARK   11  A    between atoms: C_30  and  C_31 
REMARK   12  A    between atoms: C_38  and  O_39 
ROOT
ATOM      1  C   LIG d   1       4.024  -3.171  -8.349  0.00  0.00    -0.019 C 
ATOM      2  C   LIG d   1       3.732  -1.715  -7.964  0.00  0.00    -0.044 C 
ATOM      3  C   LIG d   1       3.371  -0.899  -9.202  0.00  0.00    -0.026 C 
ATOM      4  C   LIG d   1       2.115  -1.501  -9.840  0.00  0.00     0.063 C 
ATOM      5  H   LIG d   1       1.300  -1.501  -9.116  0.00  0.00     0.060 H 
ATOM      6  C   LIG d   1       2.420  -2.935 -10.268  0.00  0.00     0.021 C 
ATOM      7  C   LIG d   1       2.810  -3.781  -9.053  0.00  0.00    -0.021 C 
ATOM      8  H   LIG d   1       1.971  -3.846  -8.359  0.00  0.00     0.032 H 
ATOM      9  C   LIG d   1       3.188  -5.181  -9.575  0.00  0.00    -0.016 C 
ATOM     10  C   LIG d   1       3.896  -5.925  -8.499  0.00  0.00     0.015 A 
ATOM     11  C   LIG d   1       4.426  -5.424  -7.354  0.00  0.00     0.058 A 
ATOM     12  N   LIG d   1       5.016  -6.306  -6.548  0.00  0.00    -0.229 NA
ATOM     13  C   LIG d   1       5.080  -7.589  -6.840  0.00  0.00     0.163 A 
ATOM     14  S   LIG d   1       4.264  -7.655  -8.374  0.00  0.00    -0.057 SA
ATOM     15  C   LIG d   1       4.327  -3.936  -7.054  0.00  0.00     0.016 C 
ATOM     16  H   LIG d   1       3.527  -3.763  -6.334  0.00  0.00     0.037 H 
ATOM     17  H   LIG d   1       2.901  -1.689  -7.259  0.00  0.00     0.027 H 
ATOM     18  H   LIG d   1       4.616  -1.284  -7.492  0.00  0.00     0.027 H 
ATOM     19  H   LIG d   1       4.195  -0.933  -9.916  0.00  0.00     0.029 H 
ATOM     20  H   LIG d   1       3.176   0.134  -8.915  0.00  0.00     0.029 H 
ATOM     21  H   LIG d   1       2.284  -5.722  -9.857  0.00  0.00     0.032 H 
ATOM     22  H   LIG d   1       3.842  -5.084 -10.441  0.00  0.00     0.032 H 
ENDROOT
BRANCH  15  23
ATOM     23  C   LIG d   1       5.653  -3.445  -6.470  0.00  0.00     0.033 C 
ATOM     24  H   LIG d   1       6.403  -4.231  -6.559  0.00  0.00     0.036 H 
ATOM     25  H   LIG d   1       5.986  -2.562  -7.017  0.00  0.00     0.036 H 
BRANCH  23  26
ATOM     26  C   LIG d   1       5.463  -3.094  -5.018  0.00  0.00     0.214 C 
ATOM     27  O   LIG d   1       6.423  -3.022  -4.280  0.00  0.00    -0.276 OA
ATOM     28  N   LIG d   1       4.225  -2.859  -4.538  0.00  0.00    -0.311 N 
ATOM     29  H   LIG d   1       3.457  -2.917  -5.128  0.00  0.00     0.149 HD
BRANCH  28  30
ATOM     30  C   LIG d   1       4.039  -2.518  -3.126  0.00  0.00     0.038 C 
ATOM     31  H   LIG d   1       3.116  -2.968  -2.761  0.00  0.00     0.051 H 
ATOM     32  H   LIG d   1       4.881  -2.897  -2.545  0.00  0.00     0.051 H 
BRANCH  30  33
ATOM     33  C   LIG d   1       3.961  -1.020  -2.976  0.00  0.00    -0.012 A 
ATOM     34  C   LIG d   1       3.384  -0.247  -3.966  0.00  0.00     0.032 A 
ATOM     35  N   LIG d   1       3.307   1.063  -3.839  0.00  0.00    -0.263 NA
ATOM     36  H   LIG d   1       2.988  -0.723  -4.852  0.00  0.00     0.083 H 
ATOM     37  C   LIG d   1       3.781   1.686  -2.779  0.00  0.00     0.028 A 
ATOM     38  C   LIG d   1       4.376   0.981  -1.750  0.00  0.00    -0.043 A 
ATOM     39  H   LIG d   1       3.703   2.762  -2.713  0.00  0.00     0.083 H 
ATOM     40  C   LIG d   1       4.471  -0.399  -1.846  0.00  0.00    -0.054 A 
ATOM     41  H   LIG d   1       4.763   1.497  -0.885  0.00  0.00     0.063 H 
ATOM     42  H   LIG d   1       4.931  -0.978  -1.058  0.00  0.00     0.062 H 
ENDBRANCH  30  33
ENDBRANCH  28  30
ENDBRANCH  23  26
ENDBRANCH  15  23
BRANCH   1  43
ATOM     43  C   LIG d   1       5.236  -3.221  -9.281  0.00  0.00    -0.059 C 
ATOM     44  H   LIG d   1       5.026  -3.892 -10.115  0.00  0.00     0.024 H 
ATOM     45  H   LIG d   1       5.444  -2.222  -9.662  0.00  0.00     0.024 H 
ATOM     46  H   LIG d   1       6.103  -3.587  -8.729  0.00  0.00     0.024 H 
ENDBRANCH   1  43
BRANCH   6  47
ATOM     47  C   LIG d   1       1.179  -3.541 -10.926  0.00  0.00    -0.055 C 
ATOM     48  H   LIG d   1       1.446  -3.945 -11.903  0.00  0.00     0.024 H 
ATOM     49  H   LIG d   1       0.789  -4.342 -10.297  0.00  0.00     0.024 H 
ATOM     50  H   LIG d   1       0.418  -2.770 -11.046  0.00  0.00     0.024 H 
ENDBRANCH   6  47
BRANCH   6  51
ATOM     51  C   LIG d   1       3.574  -2.929 -11.272  0.00  0.00     0.052 C 
ATOM     52  H   LIG d   1       4.245  -2.099 -11.049  0.00  0.00     0.056 H 
ATOM     53  H   LIG d   1       4.122  -3.868 -11.201  0.00  0.00     0.056 H 
BRANCH  51  54
ATOM     54  O   LIG d   1       3.053  -2.779 -12.595  0.00  0.00    -0.394 OA
ATOM     55  H   LIG d   1       2.516  -3.526 -12.893  0.00  0.00     0.209 HD
ENDBRANCH  51  54
ENDBRANCH   6  51
BRANCH  13  56
ATOM     56  N   LIG d   1       5.653  -8.621  -6.112  0.00  0.00    -0.294 N 
ATOM     57  H   LIG d   1       6.601  -8.603  -5.909  0.00  0.00     0.154 HD
BRANCH  56  58
ATOM     58  C   LIG d   1       4.864  -9.688  -5.673  0.00  0.00     0.036 A 
ATOM     59  C   LIG d   1       4.283  -9.650  -4.413  0.00  0.00     0.001 A 
ATOM     60  C   LIG d   1       3.497 -10.707  -3.984  0.00  0.00     0.119 A 
ATOM     61  H   LIG d   1       4.439  -8.796  -3.771  0.00  0.00     0.067 H 
ATOM     62  C   LIG d   1       3.301 -11.806  -4.809  0.00  0.00    -0.020 A 
ATOM     63  C   LIG d   1       3.885 -11.844  -6.061  0.00  0.00    -0.057 A 
ATOM     64  H   LIG d   1       2.693 -12.632  -4.472  0.00  0.00     0.065 H 
ATOM     65  C   LIG d   1       4.665 -10.791  -6.495  0.00  0.00    -0.040 A 
ATOM     66  H   LIG d   1       3.732 -12.700  -6.701  0.00  0.00     0.062 H 
ATOM     67  H   LIG d   1       5.120 -10.824  -7.474  0.00  0.00     0.064 H 
BRANCH  60  68
ATOM     68  O   LIG d   1       2.921 -10.671  -2.753  0.00  0.00    -0.507 OA
ATOM     69  H   LIG d   1       3.551 -10.549  -2.028  0.00  0.00     0.292 HD
ENDBRANCH  60  68
ENDBRANCH  56  58
ENDBRANCH  13  56
BRANCH   4  70
ATOM     70  O   LIG d   1       1.740  -0.728 -10.982  0.00  0.00    -0.391 OA
ATOM     71  H   LIG d   1       2.484  -0.469 -11.543  0.00  0.00     0.210 HD
ENDBRANCH   4  70
TORSDOF 12
ENDMDL
MODEL 3
REMARK VINA RESULT:      -6.6      2.208      4.547
REMARK  12 active torsions:
REMARK  status: ('A' for Active; 'I' for Inactive)
REMARK    1  A    between atoms: C_1  and  C_2 
REMARK    2  A    between atoms: C_5  and  O_40 
REMARK    3  A    between atoms: C_7  and  C_37 
REMARK    4  A    between atoms: C_7  and  C_38 
REMARK    5  A    between atoms: C_14  and  N_16 
REMARK    6  A    between atoms: N_16  and  C_17 
REMARK    7  A    between atoms: C_21  and  O_23 
REMARK    8  A    between atoms: C_24  and  C_26 
REMARK    9  A    between atoms: C_26  and  C_27 
REMARK       I    between atoms: C_27  and  N_29 
REMARK   10  A    between atoms: N_29  and  C_30 
REMARK   11  A    between atoms: C_30  and  C_31 
REMARK   12  A    between atoms: C_38  and  O_39 
ROOT
ATOM      1  C   LIG d   1       4.148  -2.514  -9.747  0.00  0.00    -0.019 C 
ATOM      2  C   LIG d   1       5.022  -3.703 -10.160  0.00  0.00    -0.044 C 
ATOM      3  C   LIG d   1       4.766  -4.071 -11.619  0.00  0.00    -0.026 C 
ATOM      4  C   LIG d   1       5.124  -2.869 -12.499  0.00  0.00     0.063 C 
ATOM      5  H   LIG d   1       6.166  -2.593 -12.339  0.00  0.00     0.060 H 
ATOM      6  C   LIG d   1       4.219  -1.697 -12.122  0.00  0.00     0.021 C 
ATOM      7  C   LIG d   1       4.430  -1.314 -10.655  0.00  0.00    -0.021 C 
ATOM      8  H   LIG d   1       5.452  -0.966 -10.504  0.00  0.00     0.032 H 
ATOM      9  C   LIG d   1       3.425  -0.193 -10.327  0.00  0.00    -0.016 C 
ATOM     10  C   LIG d   1       3.347  -0.027  -8.851  0.00  0.00     0.015 A 
ATOM     11  C   LIG d   1       3.804  -0.876  -7.896  0.00  0.00     0.058 A 
ATOM     12  N   LIG d   1       3.608  -0.495  -6.634  0.00  0.00    -0.229 NA
ATOM     13  C   LIG d   1       3.008   0.637  -6.328  0.00  0.00     0.163 A 
ATOM     14  S   LIG d   1       2.648   1.294  -7.897  0.00  0.00    -0.057 SA
ATOM     15  C   LIG d   1       4.494  -2.172  -8.292  0.00  0.00     0.016 C 
ATOM     16  H   LIG d   1       5.574  -2.053  -8.194  0.00  0.00     0.037 H 
ATOM     17  H   LIG d   1       6.072  -3.440 -10.032  0.00  0.00     0.027 H 
ATOM     18  H   LIG d   1       4.788  -4.559  -9.526  0.00  0.00     0.027 H 
ATOM     19  H   LIG d   1       3.714  -4.323 -11.754  0.00  0.00     0.029 H 
ATOM     20  H   LIG d   1       5.387  -4.923 -11.895  0.00  0.00     0.029 H 
ATOM     21  H   LIG d   1       3.759   0.741 -10.782  0.00  0.00     0.032 H 
ATOM     22  H   LIG d   1       2.442  -0.459 -10.717  0.00  0.00     0.032 H 
ENDROOT
BRANCH  15  23
ATOM     23  C   LIG d   1       4.021  -3.302  -7.376  0.00  0.00     0.033 C 
ATOM     24  H   LIG d   1       2.966  -3.161  -7.141  0.00  0.00     0.036 H 
ATOM     25  H   LIG d   1       4.156  -4.259  -7.881  0.00  0.00     0.036 H 
BRANCH  23  26
ATOM     26  C   LIG d   1       4.826  -3.286  -6.103  0.00  0.00     0.214 C 
ATOM     27  O   LIG d   1       4.408  -3.849  -5.113  0.00  0.00    -0.276 OA
ATOM     28  N   LIG d   1       6.013  -2.648  -6.063  0.00  0.00    -0.311 N 
ATOM     29  H   LIG d   1       6.348  -2.198  -6.855  0.00  0.00     0.149 HD
BRANCH  28  30
ATOM     30  C   LIG d   1       6.797  -2.633  -4.826  0.00  0.00     0.038 C 
ATOM     31  H   LIG d   1       6.128  -2.730  -3.971  0.00  0.00     0.051 H 
ATOM     32  H   LIG d   1       7.501  -3.466  -4.832  0.00  0.00     0.051 H 
BRANCH  30  33
ATOM     33  C   LIG d   1       7.555  -1.334  -4.726  0.00  0.00    -0.012 A 
ATOM     34  C   LIG d   1       8.800  -1.204  -5.310  0.00  0.00     0.032 A 
ATOM     35  N   LIG d   1       9.467  -0.069  -5.231  0.00  0.00    -0.263 NA
ATOM     36  H   LIG d   1       9.231  -2.041  -5.840  0.00  0.00     0.083 H 
ATOM     37  C   LIG d   1       8.983   0.976  -4.590  0.00  0.00     0.028 A 
ATOM     38  C   LIG d   1       7.745   0.919  -3.976  0.00  0.00    -0.043 A 
ATOM     39  H   LIG d   1       9.560   1.888  -4.543  0.00  0.00     0.083 H 
ATOM     40  C   LIG d   1       7.013  -0.256  -4.043  0.00  0.00    -0.054 A 
ATOM     41  H   LIG d   1       7.355   1.778  -3.452  0.00  0.00     0.063 H 
ATOM     42  H   LIG d   1       6.043  -0.330  -3.572  0.00  0.00     0.062 H 
ENDBRANCH  30  33
ENDBRANCH  28  30
ENDBRANCH  23  26
ENDBRANCH  15  23
BRANCH   1  43
ATOM     43  C   LIG d   1       2.671  -2.901  -9.854  0.00  0.00    -0.059 C 
ATOM     44  H   LIG d   1       2.089  -2.314  -9.142  0.00  0.00     0.024 H 
ATOM     45  H   LIG d   1       2.316  -2.702 -10.865  0.00  0.00     0.024 H 
ATOM     46  H   LIG d   1       2.557  -3.962  -9.630  0.00  0.00     0.024 H 
ENDBRANCH   1  43
BRANCH   6  47
ATOM     47  C   LIG d   1       4.551  -0.496 -13.009  0.00  0.00    -0.055 C 
ATOM     48  H   LIG d   1       4.628  -0.820 -14.047  0.00  0.00     0.024 H 
ATOM     49  H   LIG d   1       3.762   0.250 -12.919  0.00  0.00     0.024 H 
ATOM     50  H   LIG d   1       5.500  -0.062 -12.692  0.00  0.00     0.024 H 
ENDBRANCH   6  47
BRANCH   6  51
ATOM     51  C   LIG d   1       2.758  -2.097 -12.336  0.00  0.00     0.052 C 
ATOM     52  H   LIG d   1       2.633  -3.156 -12.106  0.00  0.00     0.056 H 
ATOM     53  H   LIG d   1       2.120  -1.505 -11.680  0.00  0.00     0.056 H 
BRANCH  51  54
ATOM     54  O   LIG d   1       2.394  -1.859 -13.698  0.00  0.00    -0.394 OA
ATOM     55  H   LIG d   1       2.102  -0.954 -13.874  0.00  0.00     0.209 HD
ENDBRANCH  51  54
ENDBRANCH   6  51
BRANCH  13  56
ATOM     56  N   LIG d   1       2.732   1.168  -5.077  0.00  0.00    -0.294 N 
ATOM     57  H   LIG d   1       2.165   1.950  -4.997  0.00  0.00     0.154 HD
BRANCH  56  58
ATOM     58  C   LIG d   1       3.271   0.575  -3.932  0.00  0.00     0.036 A 
ATOM     59  C   LIG d   1       3.232  -0.804  -3.779  0.00  0.00     0.001 A 
ATOM     60  C   LIG d   1       3.773  -1.388  -2.644  0.00  0.00     0.119 A 
ATOM     61  H   LIG d   1       2.785  -1.421  -4.545  0.00  0.00     0.067 H 
ATOM     62  C   LIG d   1       4.343  -0.593  -1.660  0.00  0.00    -0.020 A 
ATOM     63  C   LIG d   1       4.376   0.781  -1.812  0.00  0.00    -0.057 A 
ATOM     64  H   LIG d   1       4.759  -1.048  -0.773  0.00  0.00     0.065 H 
ATOM     65  C   LIG d   1       3.843   1.367  -2.942  0.00  0.00    -0.040 A 
ATOM     66  H   LIG d   1       4.820   1.397  -1.044  0.00  0.00     0.062 H 
ATOM     67  H   LIG d   1       3.870   2.440  -3.058  0.00  0.00     0.064 H 
BRANCH  60  68
ATOM     68  O   LIG d   1       3.742  -2.738  -2.494  0.00  0.00    -0.507 OA
ATOM     69  H   LIG d   1       4.617  -3.151  -2.464  0.00  0.00     0.292 HD
ENDBRANCH  60  68
ENDBRANCH  56  58
ENDBRANCH  13  56
BRANCH   4  70
ATOM     70  O   LIG d   1       4.924  -3.206 -13.874  0.00  0.00    -0.391 OA
ATOM     71  H   LIG d   1       4.385  -2.568 -14.361  0.00  0.00     0.210 HD
ENDBRANCH   4  70
TORSDOF 12
ENDMDL
MODEL 4
REMARK VINA RESULT:      -6.4      4.199      8.028
REMARK  12 active torsions:
REMARK  status: ('A' for Active; 'I' for Inactive)
REMARK    1  A    between atoms: C_1  and  C_2 
REMARK    2  A    between atoms: C_5  and  O_40 
REMARK    3  A    between atoms: C_7  and  C_37 
REMARK    4  A    between atoms: C_7  and  C_38 
REMARK    5  A    between atoms: C_14  and  N_16 
REMARK    6  A    between atoms: N_16  and  C_17 
REMARK    7  A    between atoms: C_21  and  O_23 
REMARK    8  A    between atoms: C_24  and  C_26 
REMARK    9  A    between atoms: C_26  and  C_27 
REMARK       I    between atoms: C_27  and  N_29 
REMARK   10  A    between atoms: N_29  and  C_30 
REMARK   11  A    between atoms: C_30  and  C_31 
REMARK   12  A    between atoms: C_38  and  O_39 
ROOT
ATOM      1  C   LIG d   1       4.792  -1.960  -4.294  0.00  0.00    -0.019 C 
ATOM      2  C   LIG d   1       3.524  -1.424  -4.970  0.00  0.00    -0.044 C 
ATOM      3  C   LIG d   1       2.962  -0.242  -4.185  0.00  0.00    -0.026 C 
ATOM      4  C   LIG d   1       4.012   0.873  -4.154  0.00  0.00     0.063 C 
ATOM      5  H   LIG d   1       4.271   1.163  -5.173  0.00  0.00     0.060 H 
ATOM      6  C   LIG d   1       5.259   0.355  -3.438  0.00  0.00     0.021 C 
ATOM      7  C   LIG d   1       5.839  -0.849  -4.185  0.00  0.00    -0.021 C 
ATOM      8  H   LIG d   1       6.167  -0.548  -5.179  0.00  0.00     0.032 H 
ATOM      9  C   LIG d   1       7.031  -1.367  -3.357  0.00  0.00    -0.016 C 
ATOM     10  C   LIG d   1       7.408  -2.721  -3.844  0.00  0.00     0.015 A 
ATOM     11  C   LIG d   1       6.688  -3.543  -4.649  0.00  0.00     0.058 A 
ATOM     12  N   LIG d   1       7.251  -4.715  -4.941  0.00  0.00    -0.229 NA
ATOM     13  C   LIG d   1       8.436  -5.058  -4.479  0.00  0.00     0.163 A 
ATOM     14  S   LIG d   1       8.876  -3.666  -3.535  0.00  0.00    -0.057 SA
ATOM     15  C   LIG d   1       5.324  -3.107  -5.163  0.00  0.00     0.016 C 
ATOM     16  H   LIG d   1       5.417  -2.769  -6.195  0.00  0.00     0.037 H 
ATOM     17  H   LIG d   1       3.764  -1.103  -5.983  0.00  0.00     0.027 H 
ATOM     18  H   LIG d   1       2.777  -2.217  -5.013  0.00  0.00     0.027 H 
ATOM     19  H   LIG d   1       2.732  -0.555  -3.166  0.00  0.00     0.029 H 
ATOM     20  H   LIG d   1       2.057   0.123  -4.671  0.00  0.00     0.029 H 
ATOM     21  H   LIG d   1       7.878  -0.690  -3.473  0.00  0.00     0.032 H 
ATOM     22  H   LIG d   1       6.748  -1.424  -2.305  0.00  0.00     0.032 H 
ENDROOT
BRANCH  15  23
ATOM     23  C   LIG d   1       4.355  -4.289  -5.098  0.00  0.00     0.033 C 
ATOM     24  H   LIG d   1       4.843  -5.134  -4.615  0.00  0.00     0.036 H 
ATOM     25  H   LIG d   1       3.472  -4.002  -4.525  0.00  0.00     0.036 H 
BRANCH  23  26
ATOM     26  C   LIG d   1       3.943  -4.677  -6.494  0.00  0.00     0.214 C 
ATOM     27  O   LIG d   1       3.631  -5.823  -6.738  0.00  0.00    -0.276 OA
ATOM     28  N   LIG d   1       3.922  -3.750  -7.473  0.00  0.00    -0.311 N 
ATOM     29  H   LIG d   1       4.172  -2.833  -7.278  0.00  0.00     0.149 HD
BRANCH  28  30
ATOM     30  C   LIG d   1       3.521  -4.127  -8.831  0.00  0.00     0.038 C 
ATOM     31  H   LIG d   1       4.408  -4.362  -9.419  0.00  0.00     0.051 H 
ATOM     32  H   LIG d   1       2.872  -5.003  -8.789  0.00  0.00     0.051 H 
BRANCH  30  33
ATOM     33  C   LIG d   1       2.780  -2.983  -9.473  0.00  0.00    -0.012 A 
ATOM     34  C   LIG d   1       2.074  -3.176 -10.644  0.00  0.00     0.032 A 
ATOM     35  N   LIG d   1       1.419  -2.180 -11.209  0.00  0.00    -0.263 NA
ATOM     36  H   LIG d   1       2.056  -4.155 -11.102  0.00  0.00     0.083 H 
ATOM     37  C   LIG d   1       1.418  -0.968 -10.691  0.00  0.00     0.028 A 
ATOM     38  C   LIG d   1       2.106  -0.698  -9.523  0.00  0.00    -0.043 A 
ATOM     39  H   LIG d   1       0.873  -0.177 -11.184  0.00  0.00     0.083 H 
ATOM     40  C   LIG d   1       2.802  -1.721  -8.898  0.00  0.00    -0.054 A 
ATOM     41  H   LIG d   1       2.102   0.296  -9.103  0.00  0.00     0.063 H 
ATOM     42  H   LIG d   1       3.350  -1.539  -7.984  0.00  0.00     0.062 H 
ENDBRANCH  30  33
ENDBRANCH  28  30
ENDBRANCH  23  26
ENDBRANCH  15  23
BRANCH   1  43
ATOM     43  C   LIG d   1       4.448  -2.480  -2.897  0.00  0.00    -0.059 C 
ATOM     44  H   LIG d   1       4.765  -1.752  -2.150  0.00  0.00     0.024 H 
ATOM     45  H   LIG d   1       3.371  -2.633  -2.822  0.00  0.00     0.024 H 
ATOM     46  H   LIG d   1       4.963  -3.426  -2.725  0.00  0.00     0.024 H 
ENDBRANCH   1  43
BRANCH   6  47
ATOM     47  C   LIG d   1       6.309   1.466  -3.381  0.00  0.00    -0.055 C 
ATOM     48  H   LIG d   1       6.117   2.104  -2.518  0.00  0.00     0.024 H 
ATOM     49  H   LIG d   1       7.301   1.024  -3.292  0.00  0.00     0.024 H 
ATOM     50  H   LIG d   1       6.257   2.061  -4.293  0.00  0.00     0.024 H 
ENDBRANCH   6  47
BRANCH   6  51
ATOM     51  C   LIG d   1       4.886  -0.063  -2.014  0.00  0.00     0.052 C 
ATOM     52  H   LIG d   1       3.918  -0.565  -2.024  0.00  0.00     0.056 H 
ATOM     53  H   LIG d   1       5.644  -0.744  -1.626  0.00  0.00     0.056 H 
BRANCH  51  54
ATOM     54  O   LIG d   1       4.814   1.096  -1.181  0.00  0.00    -0.394 OA
ATOM     55  H   LIG d   1       4.921   1.930  -1.658  0.00  0.00     0.209 HD
ENDBRANCH  51  54
ENDBRANCH   6  51
BRANCH  13  56
ATOM     56  N   LIG d   1       9.150  -6.229  -4.690  0.00  0.00    -0.294 N 
ATOM     57  H   LIG d   1       9.951  -6.217  -5.237  0.00  0.00     0.154 HD
BRANCH  56  58
ATOM     58  C   LIG d   1       8.713  -7.426  -4.117  0.00  0.00     0.036 A 
ATOM     59  C   LIG d   1       8.983  -7.697  -2.783  0.00  0.00     0.001 A 
ATOM     60  C   LIG d   1       8.543  -8.883  -2.217  0.00  0.00     0.119 A 
ATOM     61  H   LIG d   1       9.531  -6.983  -2.186  0.00  0.00     0.067 H 
ATOM     62  C   LIG d   1       7.843  -9.801  -2.987  0.00  0.00    -0.020 A 
ATOM     63  C   LIG d   1       7.580  -9.532  -4.317  0.00  0.00    -0.057 A 
ATOM     64  H   LIG d   1       7.505 -10.728  -2.547  0.00  0.00     0.065 H 
ATOM     65  C   LIG d   1       8.012  -8.350  -4.884  0.00  0.00    -0.040 A 
ATOM     66  H   LIG d   1       7.035 -10.248  -4.914  0.00  0.00     0.062 H 
ATOM     67  H   LIG d   1       7.804  -8.142  -5.923  0.00  0.00     0.064 H 
BRANCH  60  68
ATOM     68  O   LIG d   1       8.801  -9.149  -0.910  0.00  0.00    -0.507 OA
ATOM     69  H   LIG d   1       9.349  -9.934  -0.769  0.00  0.00     0.292 HD
ENDBRANCH  60  68
ENDBRANCH  56  58
ENDBRANCH  13  56
BRANCH   4  70
ATOM     70  O   LIG d   1       3.491   2.004  -3.452  0.00  0.00    -0.391 OA
ATOM     71  H   LIG d   1       2.554   2.173  -3.620  0.00  0.00     0.210 HD
ENDBRANCH   4  70
TORSDOF 12
ENDMDL
MODEL 5
REMARK VINA RESULT:      -6.4      6.212      9.940
REMARK  12 active torsions:
REMARK  status: ('A' for Active; 'I' for Inactive)
REMARK    1  A    between atoms: C_1  and  C_2 
REMARK    2  A    between atoms: C_5  and  O_40 
REMARK    3  A    between atoms: C_7  and  C_37 
REMARK    4  A    between atoms: C_7  and  C_38 
REMARK    5  A    between atoms: C_14  and  N_16 
REMARK    6  A    between atoms: N_16  and  C_17 
REMARK    7  A    between atoms: C_21  and  O_23 
REMARK    8  A    between atoms: C_24  and  C_26 
REMARK    9  A    between atoms: C_26  and  C_27 
REMARK       I    between atoms: C_27  and  N_29 
REMARK   10  A    between atoms: N_29  and  C_30 
REMARK   11  A    between atoms: C_30  and  C_31 
REMARK   12  A    between atoms: C_38  and  O_39 
ROOT
ATOM      1  C   LIG d   1      10.602   4.587  -5.967  0.00  0.00    -0.019 C 
ATOM      2  C   LIG d   1      11.204   5.971  -5.697  0.00  0.00    -0.044 C 
ATOM      3  C   LIG d   1      11.852   6.526  -6.963  0.00  0.00    -0.026 C 
ATOM      4  C   LIG d   1      10.778   6.659  -8.048  0.00  0.00     0.063 C 
ATOM      5  H   LIG d   1       9.978   7.310  -7.696  0.00  0.00     0.060 H 
ATOM      6  C   LIG d   1      10.213   5.273  -8.352  0.00  0.00     0.021 C 
ATOM      7  C   LIG d   1       9.574   4.672  -7.097  0.00  0.00    -0.021 C 
ATOM      8  H   LIG d   1       8.726   5.281  -6.783  0.00  0.00     0.032 H 
ATOM      9  C   LIG d   1       9.111   3.247  -7.458  0.00  0.00    -0.016 C 
ATOM     10  C   LIG d   1       8.805   2.504  -6.207  0.00  0.00     0.015 A 
ATOM     11  C   LIG d   1       9.145   2.843  -4.937  0.00  0.00     0.058 A 
ATOM     12  N   LIG d   1       8.750   2.001  -3.983  0.00  0.00    -0.229 NA
ATOM     13  C   LIG d   1       8.069   0.906  -4.251  0.00  0.00     0.163 A 
ATOM     14  S   LIG d   1       7.925   0.981  -5.982  0.00  0.00    -0.057 SA
ATOM     15  C   LIG d   1       9.929   4.118  -4.670  0.00  0.00     0.016 C 
ATOM     16  H   LIG d   1       9.251   4.894  -4.312  0.00  0.00     0.037 H 
ATOM     17  H   LIG d   1      10.416   6.648  -5.368  0.00  0.00     0.027 H 
ATOM     18  H   LIG d   1      11.956   5.890  -4.912  0.00  0.00     0.027 H 
ATOM     19  H   LIG d   1      12.632   5.846  -7.303  0.00  0.00     0.029 H 
ATOM     20  H   LIG d   1      12.282   7.505  -6.754  0.00  0.00     0.029 H 
ATOM     21  H   LIG d   1       8.215   3.301  -8.078  0.00  0.00     0.032 H 
ATOM     22  H   LIG d   1       9.903   2.733  -8.003  0.00  0.00     0.032 H 
ENDROOT
BRANCH  15  23
ATOM     23  C   LIG d   1      10.998   3.847  -3.610  0.00  0.00     0.033 C 
ATOM     24  H   LIG d   1      10.938   2.806  -3.292  0.00  0.00     0.036 H 
ATOM     25  H   LIG d   1      11.984   4.042  -4.031  0.00  0.00     0.036 H 
BRANCH  23  26
ATOM     26  C   LIG d   1      10.769   4.748  -2.424  0.00  0.00     0.214 C 
ATOM     27  O   LIG d   1      11.373   4.554  -1.390  0.00  0.00    -0.276 OA
ATOM     28  N   LIG d   1       9.893   5.768  -2.513  0.00  0.00    -0.311 N 
ATOM     29  H   LIG d   1       9.411   5.923  -3.340  0.00  0.00     0.149 HD
BRANCH  28  30
ATOM     30  C   LIG d   1       9.671   6.645  -1.360  0.00  0.00     0.038 C 
ATOM     31  H   LIG d   1       8.700   6.423  -0.917  0.00  0.00     0.051 H 
ATOM     32  H   LIG d   1      10.454   6.479  -0.620  0.00  0.00     0.051 H 
BRANCH  30  33
ATOM     33  C   LIG d   1       9.700   8.083  -1.809  0.00  0.00    -0.012 A 
ATOM     34  C   LIG d   1       9.147   9.074  -1.021  0.00  0.00     0.032 A 
ATOM     35  N   LIG d   1       9.174  10.335  -1.405  0.00  0.00    -0.263 NA
ATOM     36  H   LIG d   1       8.689   8.812  -0.078  0.00  0.00     0.083 H 
ATOM     37  C   LIG d   1       9.716  10.700  -2.549  0.00  0.00     0.028 A 
ATOM     38  C   LIG d   1      10.286   9.765  -3.393  0.00  0.00    -0.043 A 
ATOM     39  H   LIG d   1       9.716  11.743  -2.831  0.00  0.00     0.083 H 
ATOM     40  C   LIG d   1      10.280   8.429  -3.020  0.00  0.00    -0.054 A 
ATOM     41  H   LIG d   1      10.728  10.070  -4.329  0.00  0.00     0.063 H 
ATOM     42  H   LIG d   1      10.717   7.675  -3.660  0.00  0.00     0.062 H 
ENDBRANCH  30  33
ENDBRANCH  28  30
ENDBRANCH  23  26
ENDBRANCH  15  23
BRANCH   1  43
ATOM     43  C   LIG d   1      11.715   3.612  -6.358  0.00  0.00    -0.059 C 
ATOM     44  H   LIG d   1      11.275   2.716  -6.798  0.00  0.00     0.024 H 
ATOM     45  H   LIG d   1      12.375   4.087  -7.084  0.00  0.00     0.024 H 
ATOM     46  H   LIG d   1      12.286   3.338  -5.471  0.00  0.00     0.024 H 
ENDBRANCH   1  43
BRANCH   6  47
ATOM     47  C   LIG d   1       9.154   5.388  -9.450  0.00  0.00    -0.055 C 
ATOM     48  H   LIG d   1       8.459   4.551  -9.374  0.00  0.00     0.024 H 
ATOM     49  H   LIG d   1       8.609   6.324  -9.332  0.00  0.00     0.024 H 
ATOM     50  H   LIG d   1       9.639   5.370 -10.426  0.00  0.00     0.024 H 
ENDBRANCH   6  47
BRANCH   6  51
ATOM     51  C   LIG d   1      11.343   4.359  -8.832  0.00  0.00     0.052 C 
ATOM     52  H   LIG d   1      12.278   4.660  -8.359  0.00  0.00     0.056 H 
ATOM     53  H   LIG d   1      11.115   3.328  -8.563  0.00  0.00     0.056 H 
BRANCH  51  54
ATOM     54  O   LIG d   1      11.470   4.465 -10.251  0.00  0.00    -0.394 OA
ATOM     55  H   LIG d   1      10.763   4.025 -10.743  0.00  0.00     0.209 HD
ENDBRANCH  51  54
ENDBRANCH   6  51
BRANCH  13  56
ATOM     56  N   LIG d   1       7.591  -0.060  -3.378  0.00  0.00    -0.294 N 
ATOM     57  H   LIG d   1       8.197  -0.720  -3.006  0.00  0.00     0.154 HD
BRANCH  56  58
ATOM     58  C   LIG d   1       6.237  -0.084  -3.035  0.00  0.00     0.036 A 
ATOM     59  C   LIG d   1       5.552  -1.290  -2.988  0.00  0.00     0.001 A 
ATOM     60  C   LIG d   1       4.210  -1.308  -2.643  0.00  0.00     0.119 A 
ATOM     61  H   LIG d   1       6.065  -2.212  -3.215  0.00  0.00     0.067 H 
ATOM     62  C   LIG d   1       3.551  -0.121  -2.356  0.00  0.00    -0.020 A 
ATOM     63  C   LIG d   1       4.234   1.080  -2.409  0.00  0.00    -0.057 A 
ATOM     64  H   LIG d   1       2.504  -0.135  -2.092  0.00  0.00     0.065 H 
ATOM     65  C   LIG d   1       5.572   1.103  -2.748  0.00  0.00    -0.040 A 
ATOM     66  H   LIG d   1       3.719   2.003  -2.185  0.00  0.00     0.062 H 
ATOM     67  H   LIG d   1       6.102   2.043  -2.788  0.00  0.00     0.064 H 
BRANCH  60  68
ATOM     68  O   LIG d   1       3.538  -2.488  -2.589  0.00  0.00    -0.507 OA
ATOM     69  H   LIG d   1       3.867  -3.156  -3.208  0.00  0.00     0.292 HD
ENDBRANCH  60  68
ENDBRANCH  56  58
ENDBRANCH  13  56
BRANCH   4  70
ATOM     70  O   LIG d   1      11.359   7.210  -9.232  0.00  0.00    -0.391 OA
ATOM     71  H   LIG d   1      12.326   7.196  -9.239  0.00  0.00     0.210 HD
ENDBRANCH   4  70
TORSDOF 12
ENDMDL
MODEL 6
REMARK VINA RESULT:      -6.4      5.913      9.843
REMARK  12 active torsions:
REMARK  status: ('A' for Active; 'I' for Inactive)
REMARK    1  A    between atoms: C_1  and  C_2 
REMARK    2  A    between atoms: C_5  and  O_40 
REMARK    3  A    between atoms: C_7  and  C_37 
REMARK    4  A    between atoms: C_7  and  C_38 
REMARK    5  A    between atoms: C_14  and  N_16 
REMARK    6  A    between atoms: N_16  and  C_17 
REMARK    7  A    between atoms: C_21  and  O_23 
REMARK    8  A    between atoms: C_24  and  C_26 
REMARK    9  A    between atoms: C_26  and  C_27 
REMARK       I    between atoms: C_27  and  N_29 
REMARK   10  A    between atoms: N_29  and  C_30 
REMARK   11  A    between atoms: C_30  and  C_31 
REMARK   12  A    between atoms: C_38  and  O_39 
ROOT
ATOM      1  C   LIG d   1      10.378   4.722  -6.095  0.00  0.00    -0.019 C 
ATOM      2  C   LIG d   1      10.850   6.178  -6.000  0.00  0.00    -0.044 C 
ATOM      3  C   LIG d   1      11.636   6.565  -7.249  0.00  0.00    -0.026 C 
ATOM      4  C   LIG d   1      10.722   6.423  -8.470  0.00  0.00     0.063 C 
ATOM      5  H   LIG d   1       9.842   7.054  -8.346  0.00  0.00     0.060 H 
ATOM      6  C   LIG d   1      10.290   4.963  -8.594  0.00  0.00     0.021 C 
ATOM      7  C   LIG d   1       9.517   4.530  -7.345  0.00  0.00    -0.021 C 
ATOM      8  H   LIG d   1       8.598   5.109  -7.257  0.00  0.00     0.032 H 
ATOM      9  C   LIG d   1       9.198   3.030  -7.504  0.00  0.00    -0.016 C 
ATOM     10  C   LIG d   1       8.762   2.485  -6.191  0.00  0.00     0.015 A 
ATOM     11  C   LIG d   1       8.897   3.059  -4.968  0.00  0.00     0.058 A 
ATOM     12  N   LIG d   1       8.422   2.359  -3.939  0.00  0.00    -0.229 NA
ATOM     13  C   LIG d   1       7.854   1.181  -4.094  0.00  0.00     0.163 A 
ATOM     14  S   LIG d   1       7.953   0.952  -5.814  0.00  0.00    -0.057 SA
ATOM     15  C   LIG d   1       9.557   4.423  -4.833  0.00  0.00     0.016 C 
ATOM     16  H   LIG d   1       8.789   5.187  -4.710  0.00  0.00     0.037 H 
ATOM     17  H   LIG d   1       9.983   6.832  -5.901  0.00  0.00     0.027 H 
ATOM     18  H   LIG d   1      11.487   6.293  -5.122  0.00  0.00     0.027 H 
ATOM     19  H   LIG d   1      12.497   5.906  -7.359  0.00  0.00     0.029 H 
ATOM     20  H   LIG d   1      11.973   7.598  -7.164  0.00  0.00     0.029 H 
ATOM     21  H   LIG d   1       8.398   2.903  -8.234  0.00  0.00     0.032 H 
ATOM     22  H   LIG d   1      10.089   2.501  -7.841  0.00  0.00     0.032 H 
ENDROOT
BRANCH  15  23
ATOM     23  C   LIG d   1      10.478   4.424  -3.612  0.00  0.00     0.033 C 
ATOM     24  H   LIG d   1      10.233   3.577  -2.971  0.00  0.00     0.036 H 
ATOM     25  H   LIG d   1      11.515   4.344  -3.940  0.00  0.00     0.036 H 
BRANCH  23  26
ATOM     26  C   LIG d   1      10.292   5.707  -2.844  0.00  0.00     0.214 C 
ATOM     27  O   LIG d   1       9.226   6.284  -2.877  0.00  0.00    -0.276 OA
ATOM     28  N   LIG d   1      11.310   6.212  -2.120  0.00  0.00    -0.311 N 
ATOM     29  H   LIG d   1      12.162   5.750  -2.093  0.00  0.00     0.149 HD
BRANCH  28  30
ATOM     30  C   LIG d   1      11.129   7.459  -1.372  0.00  0.00     0.038 C 
ATOM     31  H   LIG d   1      11.933   8.152  -1.621  0.00  0.00     0.051 H 
ATOM     32  H   LIG d   1      10.170   7.906  -1.636  0.00  0.00     0.051 H 
BRANCH  30  33
ATOM     33  C   LIG d   1      11.157   7.168   0.106  0.00  0.00    -0.012 A 
ATOM     34  C   LIG d   1      11.442   8.171   1.012  0.00  0.00     0.032 A 
ATOM     35  N   LIG d   1      11.463   7.925   2.307  0.00  0.00    -0.263 NA
ATOM     36  H   LIG d   1      11.648   9.170   0.655  0.00  0.00     0.083 H 
ATOM     37  C   LIG d   1      11.224   6.721   2.788  0.00  0.00     0.028 A 
ATOM     38  C   LIG d   1      10.936   5.666   1.943  0.00  0.00    -0.043 A 
ATOM     39  H   LIG d   1      11.254   6.557   3.855  0.00  0.00     0.083 H 
ATOM     40  C   LIG d   1      10.901   5.888   0.575  0.00  0.00    -0.054 A 
ATOM     41  H   LIG d   1      10.742   4.683   2.343  0.00  0.00     0.063 H 
ATOM     42  H   LIG d   1      10.678   5.082  -0.110  0.00  0.00     0.062 H 
ENDBRANCH  30  33
ENDBRANCH  28  30
ENDBRANCH  23  26
ENDBRANCH  15  23
BRANCH   1  43
ATOM     43  C   LIG d   1      11.592   3.793  -6.159  0.00  0.00    -0.059 C 
ATOM     44  H   LIG d   1      11.388   2.977  -6.853  0.00  0.00     0.024 H 
ATOM     45  H   LIG d   1      12.461   4.354  -6.502  0.00  0.00     0.024 H 
ATOM     46  H   LIG d   1      11.790   3.385  -5.167  0.00  0.00     0.024 H 
ENDBRANCH   1  43
BRANCH   6  47
ATOM     47  C   LIG d   1       9.393   4.802  -9.822  0.00  0.00    -0.055 C 
ATOM     48  H   LIG d   1       9.117   5.786 -10.202  0.00  0.00     0.024 H 
ATOM     49  H   LIG d   1       9.931   4.252 -10.595  0.00  0.00     0.024 H 
ATOM     50  H   LIG d   1       8.493   4.253  -9.545  0.00  0.00     0.024 H 
ENDBRANCH   6  47
BRANCH   6  51
ATOM     51  C   LIG d   1      11.531   4.080  -8.753  0.00  0.00     0.052 C 
ATOM     52  H   LIG d   1      12.371   4.537  -8.229  0.00  0.00     0.056 H 
ATOM     53  H   LIG d   1      11.332   3.095  -8.331  0.00  0.00     0.056 H 
BRANCH  51  54
ATOM     54  O   LIG d   1      11.847   3.951 -10.140  0.00  0.00    -0.394 OA
ATOM     55  H   LIG d   1      11.449   3.178 -10.564  0.00  0.00     0.209 HD
ENDBRANCH  51  54
ENDBRANCH   6  51
BRANCH  13  56
ATOM     56  N   LIG d   1       7.316   0.338  -3.132  0.00  0.00    -0.294 N 
ATOM     57  H   LIG d   1       7.903  -0.158  -2.540  0.00  0.00     0.154 HD
BRANCH  56  58
ATOM     58  C   LIG d   1       5.930   0.204  -3.018  0.00  0.00     0.036 A 
ATOM     59  C   LIG d   1       5.294  -0.911  -3.544  0.00  0.00     0.001 A 
ATOM     60  C   LIG d   1       3.919  -1.042  -3.424  0.00  0.00     0.119 A 
ATOM     61  H   LIG d   1       5.869  -1.677  -4.043  0.00  0.00     0.067 H 
ATOM     62  C   LIG d   1       3.182  -0.055  -2.787  0.00  0.00    -0.020 A 
ATOM     63  C   LIG d   1       3.816   1.058  -2.268  0.00  0.00    -0.057 A 
ATOM     64  H   LIG d   1       2.110  -0.155  -2.698  0.00  0.00     0.065 H 
ATOM     65  C   LIG d   1       5.186   1.191  -2.381  0.00  0.00    -0.040 A 
ATOM     66  H   LIG d   1       3.240   1.826  -1.773  0.00  0.00     0.062 H 
ATOM     67  H   LIG d   1       5.679   2.061  -1.975  0.00  0.00     0.064 H 
BRANCH  60  68
ATOM     68  O   LIG d   1       3.294  -2.136  -3.933  0.00  0.00    -0.507 OA
ATOM     69  H   LIG d   1       2.889  -2.705  -3.263  0.00  0.00     0.292 HD
ENDBRANCH  60  68
ENDBRANCH  56  58
ENDBRANCH  13  56
BRANCH   4  70
ATOM     70  O   LIG d   1      11.430   6.815  -9.648  0.00  0.00    -0.391 OA
ATOM     71  H   LIG d   1      11.218   6.286 -10.429  0.00  0.00     0.210 HD
ENDBRANCH   4  70
TORSDOF 12
ENDMDL
MODEL 7
REMARK VINA RESULT:      -6.2      5.003      8.716
REMARK  12 active torsions:
REMARK  status: ('A' for Active; 'I' for Inactive)
REMARK    1  A    between atoms: C_1  and  C_2 
REMARK    2  A    between atoms: C_5  and  O_40 
REMARK    3  A    between atoms: C_7  and  C_37 
REMARK    4  A    between atoms: C_7  and  C_38 
REMARK    5  A    between atoms: C_14  and  N_16 
REMARK    6  A    between atoms: N_16  and  C_17 
REMARK    7  A    between atoms: C_21  and  O_23 
REMARK    8  A    between atoms: C_24  and  C_26 
REMARK    9  A    between atoms: C_26  and  C_27 
REMARK       I    between atoms: C_27  and  N_29 
REMARK   10  A    between atoms: N_29  and  C_30 
REMARK   11  A    between atoms: C_30  and  C_31 
REMARK   12  A    between atoms: C_38  and  O_39 
ROOT
ATOM      1  C   LIG d   1       6.471  -1.470  -4.423  0.00  0.00    -0.019 C 
ATOM      2  C   LIG d   1       7.289  -0.371  -3.733  0.00  0.00    -0.044 C 
ATOM      3  C   LIG d   1       6.494   0.931  -3.682  0.00  0.00    -0.026 C 
ATOM      4  C   LIG d   1       5.211   0.694  -2.878  0.00  0.00     0.063 C 
ATOM      5  H   LIG d   1       5.464   0.347  -1.877  0.00  0.00     0.060 H 
ATOM      6  C   LIG d   1       4.373  -0.366  -3.592  0.00  0.00     0.021 C 
ATOM      7  C   LIG d   1       5.149  -1.683  -3.683  0.00  0.00    -0.021 C 
ATOM      8  H   LIG d   1       5.340  -2.073  -2.684  0.00  0.00     0.032 H 
ATOM      9  C   LIG d   1       4.280  -2.668  -4.490  0.00  0.00    -0.016 C 
ATOM     10  C   LIG d   1       5.115  -3.828  -4.901  0.00  0.00     0.015 A 
ATOM     11  C   LIG d   1       6.469  -3.923  -4.881  0.00  0.00     0.058 A 
ATOM     12  N   LIG d   1       6.980  -5.078  -5.307  0.00  0.00    -0.229 NA
ATOM     13  C   LIG d   1       6.219  -6.070  -5.723  0.00  0.00     0.163 A 
ATOM     14  S   LIG d   1       4.622  -5.409  -5.534  0.00  0.00    -0.057 SA
ATOM     15  C   LIG d   1       7.310  -2.754  -4.391  0.00  0.00     0.016 C 
ATOM     16  H   LIG d   1       7.641  -2.948  -3.370  0.00  0.00     0.037 H 
ATOM     17  H   LIG d   1       7.532  -0.687  -2.718  0.00  0.00     0.027 H 
ATOM     18  H   LIG d   1       8.213  -0.208  -4.288  0.00  0.00     0.027 H 
ATOM     19  H   LIG d   1       6.238   1.243  -4.695  0.00  0.00     0.029 H 
ATOM     20  H   LIG d   1       7.090   1.704  -3.198  0.00  0.00     0.029 H 
ATOM     21  H   LIG d   1       3.453  -3.017  -3.870  0.00  0.00     0.032 H 
ATOM     22  H   LIG d   1       3.888  -2.168  -5.376  0.00  0.00     0.032 H 
ENDROOT
BRANCH  15  23
ATOM     23  C   LIG d   1       8.530  -2.589  -5.299  0.00  0.00     0.033 C 
ATOM     24  H   LIG d   1       8.388  -3.171  -6.209  0.00  0.00     0.036 H 
ATOM     25  H   LIG d   1       8.651  -1.536  -5.556  0.00  0.00     0.036 H 
BRANCH  23  26
ATOM     26  C   LIG d   1       9.761  -3.075  -4.579  0.00  0.00     0.214 C 
ATOM     27  O   LIG d   1      10.858  -2.688  -4.924  0.00  0.00    -0.276 OA
ATOM     28  N   LIG d   1       9.644  -3.940  -3.551  0.00  0.00    -0.311 N 
ATOM     29  H   LIG d   1       8.766  -4.248  -3.276  0.00  0.00     0.149 HD
BRANCH  28  30
ATOM     30  C   LIG d   1      10.840  -4.412  -2.851  0.00  0.00     0.038 C 
ATOM     31  H   LIG d   1      11.723  -4.195  -3.452  0.00  0.00     0.051 H 
ATOM     32  H   LIG d   1      10.923  -3.904  -1.889  0.00  0.00     0.051 H 
BRANCH  30  33
ATOM     33  C   LIG d   1      10.738  -5.899  -2.626  0.00  0.00    -0.012 A 
ATOM     34  C   LIG d   1      11.810  -6.724  -2.904  0.00  0.00     0.032 A 
ATOM     35  N   LIG d   1      11.730  -8.025  -2.705  0.00  0.00    -0.263 NA
ATOM     36  H   LIG d   1      12.727  -6.298  -3.287  0.00  0.00     0.083 H 
ATOM     37  C   LIG d   1      10.630  -8.590  -2.247  0.00  0.00     0.028 A 
ATOM     38  C   LIG d   1       9.515  -7.829  -1.951  0.00  0.00    -0.043 A 
ATOM     39  H   LIG d   1      10.601  -9.659  -2.100  0.00  0.00     0.083 H 
ATOM     40  C   LIG d   1       9.564  -6.457  -2.142  0.00  0.00    -0.054 A 
ATOM     41  H   LIG d   1       8.618  -8.297  -1.576  0.00  0.00     0.063 H 
ATOM     42  H   LIG d   1       8.707  -5.836  -1.920  0.00  0.00     0.062 H 
ENDBRANCH  30  33
ENDBRANCH  28  30
ENDBRANCH  23  26
ENDBRANCH  15  23
BRANCH   1  43
ATOM     43  C   LIG d   1       6.190  -1.066  -5.871  0.00  0.00    -0.059 C 
ATOM     44  H   LIG d   1       7.113  -1.123  -6.450  0.00  0.00     0.024 H 
ATOM     45  H   LIG d   1       5.450  -1.742  -6.300  0.00  0.00     0.024 H 
ATOM     46  H   LIG d   1       5.808  -0.045  -5.896  0.00  0.00     0.024 H 
ENDBRANCH   1  43
BRANCH   6  47
ATOM     47  C   LIG d   1       3.079  -0.597  -2.811  0.00  0.00    -0.055 C 
ATOM     48  H   LIG d   1       2.275  -0.846  -3.504  0.00  0.00     0.024 H 
ATOM     49  H   LIG d   1       3.220  -1.418  -2.108  0.00  0.00     0.024 H 
ATOM     50  H   LIG d   1       2.818   0.309  -2.263  0.00  0.00     0.024 H 
ENDBRANCH   6  47
BRANCH   6  51
ATOM     51  C   LIG d   1       4.034   0.122  -5.002  0.00  0.00     0.052 C 
ATOM     52  H   LIG d   1       4.875   0.691  -5.401  0.00  0.00     0.056 H 
ATOM     53  H   LIG d   1       3.839  -0.736  -5.645  0.00  0.00     0.056 H 
BRANCH  51  54
ATOM     54  O   LIG d   1       2.875   0.955  -4.951  0.00  0.00    -0.394 OA
ATOM     55  H   LIG d   1       2.068   0.526  -5.268  0.00  0.00     0.209 HD
ENDBRANCH  51  54
ENDBRANCH   6  51
BRANCH  13  56
ATOM     56  N   LIG d   1       6.595  -7.320  -6.191  0.00  0.00    -0.294 N 
ATOM     57  H   LIG d   1       7.076  -7.399  -7.030  0.00  0.00     0.154 HD
BRANCH  56  58
ATOM     58  C   LIG d   1       6.281  -8.465  -5.454  0.00  0.00     0.036 A 
ATOM     59  C   LIG d   1       5.084  -9.131  -5.680  0.00  0.00     0.001 A 
ATOM     60  C   LIG d   1       4.780 -10.269  -4.950  0.00  0.00     0.119 A 
ATOM     61  H   LIG d   1       4.394  -8.764  -6.426  0.00  0.00     0.067 H 
ATOM     62  C   LIG d   1       5.666 -10.734  -3.989  0.00  0.00    -0.020 A 
ATOM     63  C   LIG d   1       6.855 -10.068  -3.762  0.00  0.00    -0.057 A 
ATOM     64  H   LIG d   1       5.426 -11.619  -3.417  0.00  0.00     0.065 H 
ATOM     65  C   LIG d   1       7.166  -8.936  -4.490  0.00  0.00    -0.040 A 
ATOM     66  H   LIG d   1       7.543 -10.432  -3.013  0.00  0.00     0.062 H 
ATOM     67  H   LIG d   1       8.095  -8.417  -4.310  0.00  0.00     0.064 H 
BRANCH  60  68
ATOM     68  O   LIG d   1       3.612 -10.926  -5.173  0.00  0.00    -0.507 OA
ATOM     69  H   LIG d   1       3.016 -10.940  -4.410  0.00  0.00     0.292 HD
ENDBRANCH  60  68
ENDBRANCH  56  58
ENDBRANCH  13  56
BRANCH   4  70
ATOM     70  O   LIG d   1       4.469   1.912  -2.790  0.00  0.00    -0.391 OA
ATOM     71  H   LIG d   1       3.787   1.908  -2.105  0.00  0.00     0.210 HD
ENDBRANCH   4  70
TORSDOF 12
ENDMDL
MODEL 8
REMARK VINA RESULT:      -6.2      3.225      8.837
REMARK  12 active torsions:
REMARK  status: ('A' for Active; 'I' for Inactive)
REMARK    1  A    between atoms: C_1  and  C_2 
REMARK    2  A    between atoms: C_5  and  O_40 
REMARK    3  A    between atoms: C_7  and  C_37 
REMARK    4  A    between atoms: C_7  and  C_38 
REMARK    5  A    between atoms: C_14  and  N_16 
REMARK    6  A    between atoms: N_16  and  C_17 
REMARK    7  A    between atoms: C_21  and  O_23 
REMARK    8  A    between atoms: C_24  and  C_26 
REMARK    9  A    between atoms: C_26  and  C_27 
REMARK       I    between atoms: C_27  and  N_29 
REMARK   10  A    between atoms: N_29  and  C_30 
REMARK   11  A    between atoms: C_30  and  C_31 
REMARK   12  A    between atoms: C_38  and  O_39 
ROOT
ATOM      1  C   LIG d   1       9.781   2.279  -4.892  0.00  0.00    -0.019 C 
ATOM      2  C   LIG d   1       9.981   2.123  -3.380  0.00  0.00    -0.044 C 
ATOM      3  C   LIG d   1      10.987   3.150  -2.867  0.00  0.00    -0.026 C 
ATOM      4  C   LIG d   1      10.443   4.555  -3.149  0.00  0.00     0.063 C 
ATOM      5  H   LIG d   1       9.473   4.677  -2.667  0.00  0.00     0.060 H 
ATOM      6  C   LIG d   1      10.289   4.728  -4.660  0.00  0.00     0.021 C 
ATOM      7  C   LIG d   1       9.304   3.696  -5.215  0.00  0.00    -0.021 C 
ATOM      8  H   LIG d   1       8.313   3.861  -4.791  0.00  0.00     0.032 H 
ATOM      9  C   LIG d   1       9.272   3.875  -6.746  0.00  0.00    -0.016 C 
ATOM     10  C   LIG d   1       8.610   2.692  -7.359  0.00  0.00     0.015 A 
ATOM     11  C   LIG d   1       8.342   1.497  -6.775  0.00  0.00     0.058 A 
ATOM     12  N   LIG d   1       7.739   0.593  -7.546  0.00  0.00    -0.229 NA
ATOM     13  C   LIG d   1       7.418   0.841  -8.799  0.00  0.00     0.163 A 
ATOM     14  S   LIG d   1       7.981   2.473  -9.002  0.00  0.00    -0.057 SA
ATOM     15  C   LIG d   1       8.726   1.252  -5.324  0.00  0.00     0.016 C 
ATOM     16  H   LIG d   1       7.842   1.352  -4.692  0.00  0.00     0.037 H 
ATOM     17  H   LIG d   1       9.027   2.267  -2.874  0.00  0.00     0.027 H 
ATOM     18  H   LIG d   1      10.351   1.119  -3.167  0.00  0.00     0.027 H 
ATOM     19  H   LIG d   1      11.939   3.018  -3.380  0.00  0.00     0.029 H 
ATOM     20  H   LIG d   1      11.125   3.022  -1.794  0.00  0.00     0.029 H 
ATOM     21  H   LIG d   1       8.711   4.776  -6.996  0.00  0.00     0.032 H 
ATOM     22  H   LIG d   1      10.291   3.960  -7.125  0.00  0.00     0.032 H 
ENDROOT
BRANCH  15  23
ATOM     23  C   LIG d   1       9.298  -0.159  -5.179  0.00  0.00     0.033 C 
ATOM     24  H   LIG d   1       9.654  -0.508  -6.149  0.00  0.00     0.036 H 
ATOM     25  H   LIG d   1      10.128  -0.144  -4.472  0.00  0.00     0.036 H 
BRANCH  23  26
ATOM     26  C   LIG d   1       8.225  -1.088  -4.674  0.00  0.00     0.214 C 
ATOM     27  O   LIG d   1       8.067  -2.172  -5.194  0.00  0.00    -0.276 OA
ATOM     28  N   LIG d   1       7.440  -0.713  -3.645  0.00  0.00    -0.311 N 
ATOM     29  H   LIG d   1       7.567   0.154  -3.229  0.00  0.00     0.149 HD
BRANCH  28  30
ATOM     30  C   LIG d   1       6.396  -1.615  -3.153  0.00  0.00     0.038 C 
ATOM     31  H   LIG d   1       6.509  -2.592  -3.623  0.00  0.00     0.051 H 
ATOM     32  H   LIG d   1       6.487  -1.722  -2.071  0.00  0.00     0.051 H 
BRANCH  30  33
ATOM     33  C   LIG d   1       5.041  -1.049  -3.490  0.00  0.00    -0.012 A 
ATOM     34  C   LIG d   1       4.862  -0.297  -4.635  0.00  0.00     0.032 A 
ATOM     35  N   LIG d   1       3.678   0.197  -4.939  0.00  0.00    -0.263 NA
ATOM     36  H   LIG d   1       5.701  -0.115  -5.291  0.00  0.00     0.083 H 
ATOM     37  C   LIG d   1       2.627   0.006  -4.166  0.00  0.00     0.028 A 
ATOM     38  C   LIG d   1       2.730  -0.731  -3.001  0.00  0.00    -0.043 A 
ATOM     39  H   LIG d   1       1.674   0.430  -4.446  0.00  0.00     0.083 H 
ATOM     40  C   LIG d   1       3.959  -1.271  -2.652  0.00  0.00    -0.054 A 
ATOM     41  H   LIG d   1       1.867  -0.884  -2.372  0.00  0.00     0.063 H 
ATOM     42  H   LIG d   1       4.070  -1.851  -1.747  0.00  0.00     0.062 H 
ENDBRANCH  30  33
ENDBRANCH  28  30
ENDBRANCH  23  26
ENDBRANCH  15  23
BRANCH   1  43
ATOM     43  C   LIG d   1      11.101   2.005  -5.615  0.00  0.00    -0.059 C 
ATOM     44  H   LIG d   1      11.520   1.061  -5.262  0.00  0.00     0.024 H 
ATOM     45  H   LIG d   1      10.922   1.944  -6.688  0.00  0.00     0.024 H 
ATOM     46  H   LIG d   1      11.803   2.813  -5.408  0.00  0.00     0.024 H 
ENDBRANCH   1  43
BRANCH   6  47
ATOM     47  C   LIG d   1       9.767   6.134  -4.957  0.00  0.00    -0.055 C 
ATOM     48  H   LIG d   1       8.747   6.071  -5.337  0.00  0.00     0.024 H 
ATOM     49  H   LIG d   1       9.777   6.727  -4.042  0.00  0.00     0.024 H 
ATOM     50  H   LIG d   1      10.404   6.608  -5.704  0.00  0.00     0.024 H 
ENDBRANCH   6  47
BRANCH   6  51
ATOM     51  C   LIG d   1      11.651   4.541  -5.331  0.00  0.00     0.052 C 
ATOM     52  H   LIG d   1      12.236   3.811  -4.770  0.00  0.00     0.056 H 
ATOM     53  H   LIG d   1      11.507   4.184  -6.351  0.00  0.00     0.056 H 
BRANCH  51  54
ATOM     54  O   LIG d   1      12.345   5.790  -5.357  0.00  0.00    -0.394 OA
ATOM     55  H   LIG d   1      13.308   5.704  -5.369  0.00  0.00     0.209 HD
ENDBRANCH  51  54
ENDBRANCH   6  51
BRANCH  13  56
ATOM     56  N   LIG d   1       6.794   0.013  -9.720  0.00  0.00    -0.294 N 
ATOM     57  H   LIG d   1       7.325  -0.555 -10.300  0.00  0.00     0.154 HD
BRANCH  56  58
ATOM     58  C   LIG d   1       5.400  -0.001  -9.814  0.00  0.00     0.036 A 
ATOM     59  C   LIG d   1       4.630  -0.279  -8.693  0.00  0.00     0.001 A 
ATOM     60  C   LIG d   1       3.248  -0.287  -8.791  0.00  0.00     0.119 A 
ATOM     61  H   LIG d   1       5.108  -0.485  -7.747  0.00  0.00     0.067 H 
ATOM     62  C   LIG d   1       2.637  -0.027 -10.009  0.00  0.00    -0.020 A 
ATOM     63  C   LIG d   1       3.405   0.244 -11.126  0.00  0.00    -0.057 A 
ATOM     64  H   LIG d   1       1.559  -0.039 -10.085  0.00  0.00     0.065 H 
ATOM     65  C   LIG d   1       4.782   0.258 -11.033  0.00  0.00    -0.040 A 
ATOM     66  H   LIG d   1       2.926   0.446 -12.073  0.00  0.00     0.062 H 
ATOM     67  H   LIG d   1       5.380   0.470 -11.907  0.00  0.00     0.064 H 
BRANCH  60  68
ATOM     68  O   LIG d   1       2.491  -0.553  -7.694  0.00  0.00    -0.507 OA
ATOM     69  H   LIG d   1       1.718  -1.106  -7.874  0.00  0.00     0.292 HD
ENDBRANCH  60  68
ENDBRANCH  56  58
ENDBRANCH  13  56
BRANCH   4  70
ATOM     70  O   LIG d   1      11.355   5.532  -2.645  0.00  0.00    -0.391 OA
ATOM     71  H   LIG d   1      12.251   5.199  -2.505  0.00  0.00     0.210 HD
ENDBRANCH   4  70
TORSDOF 12
ENDMDL
MODEL 9
REMARK VINA RESULT:      -6.1      7.572     11.055
REMARK  12 active torsions:
REMARK  status: ('A' for Active; 'I' for Inactive)
REMARK    1  A    between atoms: C_1  and  C_2 
REMARK    2  A    between atoms: C_5  and  O_40 
REMARK    3  A    between atoms: C_7  and  C_37 
REMARK    4  A    between atoms: C_7  and  C_38 
REMARK    5  A    between atoms: C_14  and  N_16 
REMARK    6  A    between atoms: N_16  and  C_17 
REMARK    7  A    between atoms: C_21  and  O_23 
REMARK    8  A    between atoms: C_24  and  C_26 
REMARK    9  A    between atoms: C_26  and  C_27 
REMARK       I    between atoms: C_27  and  N_29 
REMARK   10  A    between atoms: N_29  and  C_30 
REMARK   11  A    between atoms: C_30  and  C_31 
REMARK   12  A    between atoms: C_38  and  O_39 
ROOT
ATOM      1  C   LIG d   1       9.742   3.421  -5.898  0.00  0.00    -0.019 C 
ATOM      2  C   LIG d   1       9.171   3.221  -7.306  0.00  0.00    -0.044 C 
ATOM      3  C   LIG d   1       8.857   1.747  -7.549  0.00  0.00    -0.026 C 
ATOM      4  C   LIG d   1       7.812   1.291  -6.525  0.00  0.00     0.063 C 
ATOM      5  H   LIG d   1       6.917   1.906  -6.616  0.00  0.00     0.060 H 
ATOM      6  C   LIG d   1       8.399   1.445  -5.123  0.00  0.00     0.021 C 
ATOM      7  C   LIG d   1       8.750   2.911  -4.851  0.00  0.00    -0.021 C 
ATOM      8  H   LIG d   1       7.845   3.519  -4.868  0.00  0.00     0.032 H 
ATOM      9  C   LIG d   1       9.415   2.970  -3.462  0.00  0.00    -0.016 C 
ATOM     10  C   LIG d   1      10.079   4.290  -3.298  0.00  0.00     0.015 A 
ATOM     11  C   LIG d   1      10.361   5.202  -4.263  0.00  0.00     0.058 A 
ATOM     12  N   LIG d   1      10.968   6.316  -3.854  0.00  0.00    -0.229 NA
ATOM     13  C   LIG d   1      11.277   6.524  -2.591  0.00  0.00     0.163 A 
ATOM     14  S   LIG d   1      10.699   5.070  -1.831  0.00  0.00    -0.057 SA
ATOM     15  C   LIG d   1       9.985   4.925  -5.710  0.00  0.00     0.016 C 
ATOM     16  H   LIG d   1       9.076   5.473  -5.961  0.00  0.00     0.037 H 
ATOM     17  H   LIG d   1       8.259   3.807  -7.412  0.00  0.00     0.027 H 
ATOM     18  H   LIG d   1       9.902   3.560  -8.042  0.00  0.00     0.027 H 
ATOM     19  H   LIG d   1       9.765   1.155  -7.432  0.00  0.00     0.029 H 
ATOM     20  H   LIG d   1       8.462   1.619  -8.556  0.00  0.00     0.029 H 
ATOM     21  H   LIG d   1       8.656   2.845  -2.689  0.00  0.00     0.032 H 
ATOM     22  H   LIG d   1      10.157   2.175  -3.378  0.00  0.00     0.032 H 
ENDROOT
BRANCH  15  23
ATOM     23  C   LIG d   1      11.122   5.376  -6.628  0.00  0.00     0.033 C 
ATOM     24  H   LIG d   1      11.994   5.635  -6.026  0.00  0.00     0.036 H 
ATOM     25  H   LIG d   1      11.380   4.567  -7.311  0.00  0.00     0.036 H 
BRANCH  23  26
ATOM     26  C   LIG d   1      10.682   6.580  -7.419  0.00  0.00     0.214 C 
ATOM     27  O   LIG d   1      10.232   6.441  -8.536  0.00  0.00    -0.276 OA
ATOM     28  N   LIG d   1      10.787   7.813  -6.884  0.00  0.00    -0.311 N 
ATOM     29  H   LIG d   1      11.147   7.925  -5.990  0.00  0.00     0.149 HD
BRANCH  28  30
ATOM     30  C   LIG d   1      10.359   8.984  -7.652  0.00  0.00     0.038 C 
ATOM     31  H   LIG d   1      11.176   9.318  -8.292  0.00  0.00     0.051 H 
ATOM     32  H   LIG d   1       9.500   8.720  -8.270  0.00  0.00     0.051 H 
BRANCH  30  33
ATOM     33  C   LIG d   1       9.975  10.093  -6.707  0.00  0.00    -0.012 A 
ATOM     34  C   LIG d   1       9.484   9.802  -5.449  0.00  0.00     0.032 A 
ATOM     35  N   LIG d   1       9.151  10.768  -4.615  0.00  0.00    -0.263 NA
ATOM     36  H   LIG d   1       9.374   8.771  -5.144  0.00  0.00     0.083 H 
ATOM     37  C   LIG d   1       9.262  12.039  -4.946  0.00  0.00     0.028 A 
ATOM     38  C   LIG d   1       9.741  12.408  -6.189  0.00  0.00    -0.043 A 
ATOM     39  H   LIG d   1       8.976  12.802  -4.237  0.00  0.00     0.083 H 
ATOM     40  C   LIG d   1      10.106  11.420  -7.091  0.00  0.00    -0.054 A 
ATOM     41  H   LIG d   1       9.830  13.450  -6.454  0.00  0.00     0.063 H 
ATOM     42  H   LIG d   1      10.483  11.678  -8.070  0.00  0.00     0.062 H 
ENDBRANCH  30  33
ENDBRANCH  28  30
ENDBRANCH  23  26
ENDBRANCH  15  23
BRANCH   1  43
ATOM     43  C   LIG d   1      11.063   2.660  -5.766  0.00  0.00    -0.059 C 
ATOM     44  H   LIG d   1      11.392   2.331  -6.753  0.00  0.00     0.024 H 
ATOM     45  H   LIG d   1      11.818   3.314  -5.331  0.00  0.00     0.024 H 
ATOM     46  H   LIG d   1      10.919   1.791  -5.123  0.00  0.00     0.024 H 
ENDBRANCH   1  43
BRANCH   6  47
ATOM     47  C   LIG d   1       7.373   0.973  -4.091  0.00  0.00    -0.055 C 
ATOM     48  H   LIG d   1       7.001  -0.013  -4.372  0.00  0.00     0.024 H 
ATOM     49  H   LIG d   1       7.844   0.918  -3.110  0.00  0.00     0.024 H 
ATOM     50  H   LIG d   1       6.542   1.679  -4.056  0.00  0.00     0.024 H 
ENDBRANCH   6  47
BRANCH   6  51
ATOM     51  C   LIG d   1       9.663   0.591  -5.007  0.00  0.00     0.052 C 
ATOM     52  H   LIG d   1      10.162   0.547  -5.976  0.00  0.00     0.056 H 
ATOM     53  H   LIG d   1      10.335   1.036  -4.273  0.00  0.00     0.056 H 
BRANCH  51  54
ATOM     54  O   LIG d   1       9.309  -0.730  -4.592  0.00  0.00    -0.394 OA
ATOM     55  H   LIG d   1       8.465  -0.781  -4.124  0.00  0.00     0.209 HD
ENDBRANCH  51  54
ENDBRANCH   6  51
BRANCH  13  56
ATOM     56  N   LIG d   1      11.902   7.619  -2.014  0.00  0.00    -0.294 N 
ATOM     57  H   LIG d   1      12.860   7.735  -2.109  0.00  0.00     0.154 HD
BRANCH  56  58
ATOM     58  C   LIG d   1      11.152   8.554  -1.296  0.00  0.00     0.036 A 
ATOM     59  C   LIG d   1       9.941   9.008  -1.799  0.00  0.00     0.001 A 
ATOM     60  C   LIG d   1       9.198   9.932  -1.081  0.00  0.00     0.119 A 
ATOM     61  H   LIG d   1       9.577   8.638  -2.747  0.00  0.00     0.067 H 
ATOM     62  C   LIG d   1       9.671  10.408   0.133  0.00  0.00    -0.020 A 
ATOM     63  C   LIG d   1      10.880   9.959   0.630  0.00  0.00    -0.057 A 
ATOM     64  H   LIG d   1       9.094  11.132   0.690  0.00  0.00     0.065 H 
ATOM     65  C   LIG d   1      11.622   9.036  -0.079  0.00  0.00    -0.040 A 
ATOM     66  H   LIG d   1      11.246  10.332   1.575  0.00  0.00     0.062 H 
ATOM     67  H   LIG d   1      12.566   8.687   0.312  0.00  0.00     0.064 H 
BRANCH  60  68
ATOM     68  O   LIG d   1       8.009  10.373  -1.569  0.00  0.00    -0.507 OA
ATOM     69  H   LIG d   1       7.755   9.970  -2.411  0.00  0.00     0.292 HD
ENDBRANCH  60  68
ENDBRANCH  56  58
ENDBRANCH  13  56
BRANCH   4  70
ATOM     70  O   LIG d   1       7.479  -0.079  -6.758  0.00  0.00    -0.391 OA
ATOM     71  H   LIG d   1       6.711  -0.387  -6.257  0.00  0.00     0.210 HD
ENDBRANCH   4  70
TORSDOF 12
ENDMDL
