MODEL 1
REMARK VINA RESULT:      -5.8      0.000      0.000
REMARK  3 active torsions:
REMARK  status: ('A' for Active; 'I' for Inactive)
REMARK    1  A    between atoms: C_1  and  C_2 
REMARK    2  A    between atoms: C_2  and  C_4 
REMARK    3  A    between atoms: C_4  and  C_5 
ROOT
ATOM      1  C   LIG d   1       3.287   0.331  -7.069  0.00  0.00    -0.034 C 
ATOM      2  H   LIG d   1       4.238   0.590  -6.605  0.00  0.00     0.030 H 
ATOM      3  C   LIG d   1       3.412  -1.026  -7.765  0.00  0.00    -0.050 C 
ATOM      4  C   LIG d   1       4.869  -1.489  -7.721  0.00  0.00    -0.053 C 
ATOM      5  C   LIG d   1       4.940  -2.897  -7.125  0.00  0.00    -0.053 C 
ATOM      6  C   LIG d   1       5.933  -2.909  -5.961  0.00  0.00    -0.053 C 
ATOM      7  C   LIG d   1       5.254  -3.484  -4.716  0.00  0.00    -0.053 C 
ATOM      8  C   LIG d   1       5.415  -2.507  -3.550  0.00  0.00    -0.053 C 
ATOM      9  C   LIG d   1       4.041  -2.201  -2.948  0.00  0.00    -0.053 C 
ATOM     10  C   LIG d   1       3.832  -0.686  -2.900  0.00  0.00    -0.053 C 
ATOM     11  C   LIG d   1       2.513  -0.330  -3.589  0.00  0.00    -0.053 C 
ATOM     12  C   LIG d   1       2.768   0.733  -4.659  0.00  0.00    -0.053 C 
ATOM     13  C   LIG d   1       2.199   0.257  -5.997  0.00  0.00    -0.050 C 
ATOM     14  H   LIG d   1       3.091  -0.934  -8.803  0.00  0.00     0.027 H 
ATOM     15  H   LIG d   1       2.784  -1.755  -7.253  0.00  0.00     0.027 H 
ATOM     16  H   LIG d   1       5.277  -1.503  -8.731  0.00  0.00     0.026 H 
ATOM     17  H   LIG d   1       5.450  -0.803  -7.103  0.00  0.00     0.026 H 
ATOM     18  H   LIG d   1       3.954  -3.188  -6.763  0.00  0.00     0.026 H 
ATOM     19  H   LIG d   1       5.269  -3.600  -7.890  0.00  0.00     0.026 H 
ATOM     20  H   LIG d   1       6.793  -3.525  -6.224  0.00  0.00     0.026 H 
ATOM     21  H   LIG d   1       6.264  -1.890  -5.756  0.00  0.00     0.026 H 
ATOM     22  H   LIG d   1       4.194  -3.637  -4.918  0.00  0.00     0.026 H 
ATOM     23  H   LIG d   1       5.716  -4.437  -4.458  0.00  0.00     0.026 H 
ATOM     24  H   LIG d   1       6.054  -2.953  -2.788  0.00  0.00     0.026 H 
ATOM     25  H   LIG d   1       5.868  -1.583  -3.909  0.00  0.00     0.026 H 
ATOM     26  H   LIG d   1       3.266  -2.655  -3.565  0.00  0.00     0.026 H 
ATOM     27  H   LIG d   1       3.988  -2.608  -1.939  0.00  0.00     0.026 H 
ATOM     28  H   LIG d   1       3.799  -0.358  -1.860  0.00  0.00     0.026 H 
ATOM     29  H   LIG d   1       4.656  -0.189  -3.411  0.00  0.00     0.026 H 
ATOM     30  H   LIG d   1       2.095  -1.223  -4.055  0.00  0.00     0.026 H 
ATOM     31  H   LIG d   1       1.811   0.057  -2.851  0.00  0.00     0.026 H 
ATOM     32  H   LIG d   1       2.283   1.664  -4.369  0.00  0.00     0.026 H 
ATOM     33  H   LIG d   1       3.841   0.898  -4.758  0.00  0.00     0.026 H 
ATOM     34  H   LIG d   1       1.855  -0.773  -5.899  0.00  0.00     0.027 H 
ATOM     35  H   LIG d   1       1.362   0.895  -6.283  0.00  0.00     0.027 H 
ENDROOT
BRANCH   1  36
ATOM     36  C   LIG d   1       2.914   1.399  -8.100  0.00  0.00     0.008 C 
ATOM     37  H   LIG d   1       2.133   1.082  -8.640  0.00  0.00     0.034 H 
ATOM     38  H   LIG d   1       2.651   2.324  -7.587  0.00  0.00     0.034 H 
BRANCH  36  39
ATOM     39  C   LIG d   1       4.087   1.647  -9.014  0.00  0.00     0.131 C 
ATOM     40  O   LIG d   1       5.160   1.949  -8.549  0.00  0.00    -0.298 OA
BRANCH  39  41
ATOM     41  C   LIG d   1       3.922   1.518 -10.506  0.00  0.00    -0.006 C 
ATOM     42  H   LIG d   1       3.023   1.130 -10.709  0.00  0.00     0.031 H 
ATOM     43  H   LIG d   1       4.006   2.502 -10.967  0.00  0.00     0.031 H 
ATOM     44  H   LIG d   1       4.698   0.863 -10.903  0.00  0.00     0.031 H 
ENDBRANCH  39  41
ENDBRANCH  36  39
ENDBRANCH   1  36
TORSDOF 3
ENDMDL
MODEL 2
REMARK VINA RESULT:      -5.8      0.977      1.453
REMARK  3 active torsions:
REMARK  status: ('A' for Active; 'I' for Inactive)
REMARK    1  A    between atoms: C_1  and  C_2 
REMARK    2  A    between atoms: C_2  and  C_4 
REMARK    3  A    between atoms: C_4  and  C_5 
ROOT
ATOM      1  C   LIG d   1       4.191  -0.472  -7.597  0.00  0.00    -0.034 C 
ATOM      2  H   LIG d   1       4.930  -0.035  -6.927  0.00  0.00     0.030 H 
ATOM      3  C   LIG d   1       4.349  -1.994  -7.610  0.00  0.00    -0.050 C 
ATOM      4  C   LIG d   1       5.594  -2.384  -6.810  0.00  0.00    -0.053 C 
ATOM      5  C   LIG d   1       5.216  -3.420  -5.750  0.00  0.00    -0.053 C 
ATOM      6  C   LIG d   1       5.693  -2.942  -4.377  0.00  0.00    -0.053 C 
ATOM      7  C   LIG d   1       4.520  -2.960  -3.395  0.00  0.00    -0.053 C 
ATOM      8  C   LIG d   1       4.388  -1.588  -2.731  0.00  0.00    -0.053 C 
ATOM      9  C   LIG d   1       2.956  -1.076  -2.899  0.00  0.00    -0.053 C 
ATOM     10  C   LIG d   1       2.985   0.322  -3.519  0.00  0.00    -0.053 C 
ATOM     11  C   LIG d   1       2.089   0.350  -4.759  0.00  0.00    -0.053 C 
ATOM     12  C   LIG d   1       2.886   0.881  -5.952  0.00  0.00    -0.053 C 
ATOM     13  C   LIG d   1       2.786  -0.109  -7.114  0.00  0.00    -0.050 C 
ATOM     14  H   LIG d   1       4.454  -2.341  -8.638  0.00  0.00     0.027 H 
ATOM     15  H   LIG d   1       3.470  -2.454  -7.159  0.00  0.00     0.027 H 
ATOM     16  H   LIG d   1       6.340  -2.808  -7.483  0.00  0.00     0.026 H 
ATOM     17  H   LIG d   1       6.005  -1.499  -6.324  0.00  0.00     0.026 H 
ATOM     18  H   LIG d   1       4.134  -3.546  -5.735  0.00  0.00     0.026 H 
ATOM     19  H   LIG d   1       5.690  -4.372  -5.988  0.00  0.00     0.026 H 
ATOM     20  H   LIG d   1       6.480  -3.603  -4.016  0.00  0.00     0.026 H 
ATOM     21  H   LIG d   1       6.080  -1.926  -4.461  0.00  0.00     0.026 H 
ATOM     22  H   LIG d   1       3.600  -3.194  -3.931  0.00  0.00     0.026 H 
ATOM     23  H   LIG d   1       4.697  -3.718  -2.631  0.00  0.00     0.026 H 
ATOM     24  H   LIG d   1       4.621  -1.675  -1.670  0.00  0.00     0.026 H 
ATOM     25  H   LIG d   1       5.082  -0.890  -3.199  0.00  0.00     0.026 H 
ATOM     26  H   LIG d   1       2.403  -1.751  -3.551  0.00  0.00     0.026 H 
ATOM     27  H   LIG d   1       2.469  -1.032  -1.925  0.00  0.00     0.026 H 
ATOM     28  H   LIG d   1       2.621   1.049  -2.792  0.00  0.00     0.026 H 
ATOM     29  H   LIG d   1       4.007   0.573  -3.803  0.00  0.00     0.026 H 
ATOM     30  H   LIG d   1       1.739  -0.659  -4.976  0.00  0.00     0.026 H 
ATOM     31  H   LIG d   1       1.234   1.000  -4.575  0.00  0.00     0.026 H 
ATOM     32  H   LIG d   1       2.481   1.844  -6.260  0.00  0.00     0.026 H 
ATOM     33  H   LIG d   1       3.931   1.001  -5.666  0.00  0.00     0.026 H 
ATOM     34  H   LIG d   1       2.272  -1.010  -6.779  0.00  0.00     0.027 H 
ATOM     35  H   LIG d   1       2.226   0.346  -7.932  0.00  0.00     0.027 H 
ENDROOT
BRANCH   1  36
ATOM     36  C   LIG d   1       4.399   0.073  -9.012  0.00  0.00     0.008 C 
ATOM     37  H   LIG d   1       5.117  -0.453  -9.469  0.00  0.00     0.034 H 
ATOM     38  H   LIG d   1       3.470  -0.013  -9.576  0.00  0.00     0.034 H 
BRANCH  36  39
ATOM     39  C   LIG d   1       4.810   1.521  -8.937  0.00  0.00     0.131 C 
ATOM     40  O   LIG d   1       5.873   1.822  -8.450  0.00  0.00    -0.298 OA
BRANCH  39  41
ATOM     41  C   LIG d   1       3.896   2.593  -9.470  0.00  0.00    -0.006 C 
ATOM     42  H   LIG d   1       4.421   3.429  -9.630  0.00  0.00     0.031 H 
ATOM     43  H   LIG d   1       3.450   2.259 -10.406  0.00  0.00     0.031 H 
ATOM     44  H   LIG d   1       3.108   2.793  -8.743  0.00  0.00     0.031 H 
ENDBRANCH  39  41
ENDBRANCH  36  39
ENDBRANCH   1  36
TORSDOF 3
ENDMDL
MODEL 3
REMARK VINA RESULT:      -5.6      2.552      5.900
REMARK  3 active torsions:
REMARK  status: ('A' for Active; 'I' for Inactive)
REMARK    1  A    between atoms: C_1  and  C_2 
REMARK    2  A    between atoms: C_2  and  C_4 
REMARK    3  A    between atoms: C_4  and  C_5 
ROOT
ATOM      1  C   LIG d   1       5.362  -0.219  -5.014  0.00  0.00    -0.034 C 
ATOM      2  H   LIG d   1       5.265   0.864  -5.092  0.00  0.00     0.030 H 
ATOM      3  C   LIG d   1       4.120  -0.886  -5.610  0.00  0.00    -0.050 C 
ATOM      4  C   LIG d   1       3.086   0.184  -5.963  0.00  0.00    -0.053 C 
ATOM      5  C   LIG d   1       2.662   0.022  -7.424  0.00  0.00    -0.053 C 
ATOM      6  C   LIG d   1       2.836   1.355  -8.156  0.00  0.00    -0.053 C 
ATOM      7  C   LIG d   1       3.688   1.141  -9.408  0.00  0.00    -0.053 C 
ATOM      8  C   LIG d   1       4.862   2.122  -9.401  0.00  0.00    -0.053 C 
ATOM      9  C   LIG d   1       6.172   1.351  -9.580  0.00  0.00    -0.053 C 
ATOM     10  C   LIG d   1       7.137   1.718  -8.452  0.00  0.00    -0.053 C 
ATOM     11  C   LIG d   1       7.630   0.442  -7.765  0.00  0.00    -0.053 C 
ATOM     12  C   LIG d   1       7.388   0.548  -6.259  0.00  0.00    -0.053 C 
ATOM     13  C   LIG d   1       6.604  -0.676  -5.780  0.00  0.00    -0.050 C 
ATOM     14  H   LIG d   1       3.694  -1.577  -4.882  0.00  0.00     0.027 H 
ATOM     15  H   LIG d   1       4.398  -1.433  -6.511  0.00  0.00     0.027 H 
ATOM     16  H   LIG d   1       2.214   0.074  -5.318  0.00  0.00     0.026 H 
ATOM     17  H   LIG d   1       3.522   1.173  -5.818  0.00  0.00     0.026 H 
ATOM     18  H   LIG d   1       3.282  -0.737  -7.900  0.00  0.00     0.026 H 
ATOM     19  H   LIG d   1       1.616  -0.282  -7.467  0.00  0.00     0.026 H 
ATOM     20  H   LIG d   1       1.858   1.742  -8.443  0.00  0.00     0.026 H 
ATOM     21  H   LIG d   1       3.331   2.069  -7.497  0.00  0.00     0.026 H 
ATOM     22  H   LIG d   1       4.068   0.119  -9.420  0.00  0.00     0.026 H 
ATOM     23  H   LIG d   1       3.078   1.311 -10.296  0.00  0.00     0.026 H 
ATOM     24  H   LIG d   1       4.745   2.835 -10.217  0.00  0.00     0.026 H 
ATOM     25  H   LIG d   1       4.882   2.657  -8.451  0.00  0.00     0.026 H 
ATOM     26  H   LIG d   1       5.970   0.280  -9.551  0.00  0.00     0.026 H 
ATOM     27  H   LIG d   1       6.618   1.611 -10.540  0.00  0.00     0.026 H 
ATOM     28  H   LIG d   1       7.989   2.260  -8.865  0.00  0.00     0.026 H 
ATOM     29  H   LIG d   1       6.625   2.348  -7.724  0.00  0.00     0.026 H 
ATOM     30  H   LIG d   1       7.086  -0.416  -8.162  0.00  0.00     0.026 H 
ATOM     31  H   LIG d   1       8.696   0.316  -7.955  0.00  0.00     0.026 H 
ATOM     32  H   LIG d   1       8.344   0.592  -5.739  0.00  0.00     0.026 H 
ATOM     33  H   LIG d   1       6.817   1.451  -6.045  0.00  0.00     0.026 H 
ATOM     34  H   LIG d   1       6.301  -1.272  -6.641  0.00  0.00     0.027 H 
ATOM     35  H   LIG d   1       7.234  -1.278  -5.125  0.00  0.00     0.027 H 
ENDROOT
BRANCH   1  36
ATOM     36  C   LIG d   1       5.496  -0.615  -3.542  0.00  0.00     0.008 C 
ATOM     37  H   LIG d   1       4.722  -1.192  -3.281  0.00  0.00     0.034 H 
ATOM     38  H   LIG d   1       6.426  -1.166  -3.398  0.00  0.00     0.034 H 
BRANCH  36  39
ATOM     39  C   LIG d   1       5.509   0.625  -2.687  0.00  0.00     0.131 C 
ATOM     40  O   LIG d   1       6.352   1.472  -2.865  0.00  0.00    -0.298 OA
BRANCH  39  41
ATOM     41  C   LIG d   1       4.472   0.810  -1.610  0.00  0.00    -0.006 C 
ATOM     42  H   LIG d   1       3.949   1.643  -1.791  0.00  0.00     0.031 H 
ATOM     43  H   LIG d   1       3.799  -0.047  -1.602  0.00  0.00     0.031 H 
ATOM     44  H   LIG d   1       4.964   0.895  -0.641  0.00  0.00     0.031 H 
ENDBRANCH  39  41
ENDBRANCH  36  39
ENDBRANCH   1  36
TORSDOF 3
ENDMDL
MODEL 4
REMARK VINA RESULT:      -5.4      0.925      3.207
REMARK  3 active torsions:
REMARK  status: ('A' for Active; 'I' for Inactive)
REMARK    1  A    between atoms: C_1  and  C_2 
REMARK    2  A    between atoms: C_2  and  C_4 
REMARK    3  A    between atoms: C_4  and  C_5 
ROOT
ATOM      1  C   LIG d   1       3.066  -0.224  -7.320  0.00  0.00    -0.034 C 
ATOM      2  H   LIG d   1       2.500  -1.083  -6.962  0.00  0.00     0.030 H 
ATOM      3  C   LIG d   1       3.075   0.865  -6.245  0.00  0.00    -0.050 C 
ATOM      4  C   LIG d   1       2.149   0.455  -5.097  0.00  0.00    -0.053 C 
ATOM      5  C   LIG d   1       2.915   0.525  -3.774  0.00  0.00    -0.053 C 
ATOM      6  C   LIG d   1       2.791  -0.813  -3.041  0.00  0.00    -0.053 C 
ATOM      7  C   LIG d   1       4.185  -1.331  -2.685  0.00  0.00    -0.053 C 
ATOM      8  C   LIG d   1       4.349  -2.759  -3.209  0.00  0.00    -0.053 C 
ATOM      9  C   LIG d   1       5.614  -2.846  -4.065  0.00  0.00    -0.053 C 
ATOM     10  C   LIG d   1       5.265  -3.437  -5.432  0.00  0.00    -0.053 C 
ATOM     11  C   LIG d   1       5.774  -2.506  -6.535  0.00  0.00    -0.053 C 
ATOM     12  C   LIG d   1       4.625  -2.170  -7.487  0.00  0.00    -0.053 C 
ATOM     13  C   LIG d   1       4.503  -0.651  -7.625  0.00  0.00    -0.050 C 
ATOM     14  H   LIG d   1       2.726   1.804  -6.675  0.00  0.00     0.027 H 
ATOM     15  H   LIG d   1       4.088   0.993  -5.865  0.00  0.00     0.027 H 
ATOM     16  H   LIG d   1       1.296   1.132  -5.058  0.00  0.00     0.026 H 
ATOM     17  H   LIG d   1       1.798  -0.564  -5.260  0.00  0.00     0.026 H 
ATOM     18  H   LIG d   1       3.966   0.733  -3.973  0.00  0.00     0.026 H 
ATOM     19  H   LIG d   1       2.499   1.319  -3.155  0.00  0.00     0.026 H 
ATOM     20  H   LIG d   1       2.210  -0.674  -2.130  0.00  0.00     0.026 H 
ATOM     21  H   LIG d   1       2.289  -1.534  -3.686  0.00  0.00     0.026 H 
ATOM     22  H   LIG d   1       4.939  -0.689  -3.140  0.00  0.00     0.026 H 
ATOM     23  H   LIG d   1       4.309  -1.325  -1.601  0.00  0.00     0.026 H 
ATOM     24  H   LIG d   1       4.430  -3.447  -2.368  0.00  0.00     0.026 H 
ATOM     25  H   LIG d   1       3.482  -3.025  -3.814  0.00  0.00     0.026 H 
ATOM     26  H   LIG d   1       6.033  -1.849  -4.196  0.00  0.00     0.026 H 
ATOM     27  H   LIG d   1       6.345  -3.485  -3.568  0.00  0.00     0.026 H 
ATOM     28  H   LIG d   1       5.737  -4.414  -5.536  0.00  0.00     0.026 H 
ATOM     29  H   LIG d   1       4.184  -3.544  -5.516  0.00  0.00     0.026 H 
ATOM     30  H   LIG d   1       6.155  -1.588  -6.087  0.00  0.00     0.026 H 
ATOM     31  H   LIG d   1       6.572  -3.000  -7.088  0.00  0.00     0.026 H 
ATOM     32  H   LIG d   1       4.823  -2.608  -8.465  0.00  0.00     0.026 H 
ATOM     33  H   LIG d   1       3.693  -2.574  -7.091  0.00  0.00     0.026 H 
ATOM     34  H   LIG d   1       5.183  -0.168  -6.922  0.00  0.00     0.027 H 
ATOM     35  H   LIG d   1       4.762  -0.356  -8.642  0.00  0.00     0.027 H 
ENDROOT
BRANCH   1  36
ATOM     36  C   LIG d   1       2.416   0.323  -8.593  0.00  0.00     0.008 C 
ATOM     37  H   LIG d   1       2.389  -0.396  -9.288  0.00  0.00     0.034 H 
ATOM     38  H   LIG d   1       1.402   0.653  -8.370  0.00  0.00     0.034 H 
BRANCH  36  39
ATOM     39  C   LIG d   1       3.222   1.488  -9.108  0.00  0.00     0.131 C 
ATOM     40  O   LIG d   1       3.304   2.500  -8.455  0.00  0.00    -0.298 OA
BRANCH  39  41
ATOM     41  C   LIG d   1       3.925   1.390 -10.437  0.00  0.00    -0.006 C 
ATOM     42  H   LIG d   1       3.602   2.120 -11.039  0.00  0.00     0.031 H 
ATOM     43  H   LIG d   1       5.000   1.491 -10.288  0.00  0.00     0.031 H 
ATOM     44  H   LIG d   1       3.710   0.422 -10.892  0.00  0.00     0.031 H 
ENDBRANCH  39  41
ENDBRANCH  36  39
ENDBRANCH   1  36
TORSDOF 3
ENDMDL
MODEL 5
REMARK VINA RESULT:      -5.4      1.817      3.692
REMARK  3 active torsions:
REMARK  status: ('A' for Active; 'I' for Inactive)
REMARK    1  A    between atoms: C_1  and  C_2 
REMARK    2  A    between atoms: C_2  and  C_4 
REMARK    3  A    between atoms: C_4  and  C_5 
ROOT
ATOM      1  C   LIG d   1       4.229  -0.810  -7.495  0.00  0.00    -0.034 C 
ATOM      2  H   LIG d   1       3.754  -1.697  -7.078  0.00  0.00     0.030 H 
ATOM      3  C   LIG d   1       3.617   0.443  -6.864  0.00  0.00    -0.050 C 
ATOM      4  C   LIG d   1       2.431   0.042  -5.984  0.00  0.00    -0.053 C 
ATOM      5  C   LIG d   1       2.615   0.627  -4.582  0.00  0.00    -0.053 C 
ATOM      6  C   LIG d   1       2.494  -0.490  -3.543  0.00  0.00    -0.053 C 
ATOM      7  C   LIG d   1       3.727  -0.481  -2.637  0.00  0.00    -0.053 C 
ATOM      8  C   LIG d   1       4.355  -1.876  -2.615  0.00  0.00    -0.053 C 
ATOM      9  C   LIG d   1       5.839  -1.772  -2.974  0.00  0.00    -0.053 C 
ATOM     10  C   LIG d   1       6.153  -2.726  -4.127  0.00  0.00    -0.053 C 
ATOM     11  C   LIG d   1       6.841  -1.955  -5.255  0.00  0.00    -0.053 C 
ATOM     12  C   LIG d   1       6.090  -2.194  -6.567  0.00  0.00    -0.053 C 
ATOM     13  C   LIG d   1       5.730  -0.849  -7.200  0.00  0.00    -0.050 C 
ATOM     14  H   LIG d   1       3.276   1.117  -7.650  0.00  0.00     0.027 H 
ATOM     15  H   LIG d   1       4.368   0.946  -6.254  0.00  0.00     0.027 H 
ATOM     16  H   LIG d   1       1.509   0.428  -6.420  0.00  0.00     0.026 H 
ATOM     17  H   LIG d   1       2.377  -1.045  -5.921  0.00  0.00     0.026 H 
ATOM     18  H   LIG d   1       3.600   1.087  -4.507  0.00  0.00     0.026 H 
ATOM     19  H   LIG d   1       1.848   1.378  -4.398  0.00  0.00     0.026 H 
ATOM     20  H   LIG d   1       1.599  -0.332  -2.943  0.00  0.00     0.026 H 
ATOM     21  H   LIG d   1       2.425  -1.453  -4.052  0.00  0.00     0.026 H 
ATOM     22  H   LIG d   1       4.452   0.239  -3.018  0.00  0.00     0.026 H 
ATOM     23  H   LIG d   1       3.432  -0.199  -1.626  0.00  0.00     0.026 H 
ATOM     24  H   LIG d   1       4.251  -2.305  -1.619  0.00  0.00     0.026 H 
ATOM     25  H   LIG d   1       3.850  -2.513  -3.340  0.00  0.00     0.026 H 
ATOM     26  H   LIG d   1       6.069  -0.750  -3.275  0.00  0.00     0.026 H 
ATOM     27  H   LIG d   1       6.442  -2.039  -2.106  0.00  0.00     0.026 H 
ATOM     28  H   LIG d   1       6.813  -3.518  -3.773  0.00  0.00     0.026 H 
ATOM     29  H   LIG d   1       5.226  -3.165  -4.498  0.00  0.00     0.026 H 
ATOM     30  H   LIG d   1       6.837  -0.891  -5.022  0.00  0.00     0.026 H 
ATOM     31  H   LIG d   1       7.870  -2.301  -5.357  0.00  0.00     0.026 H 
ATOM     32  H   LIG d   1       6.723  -2.759  -7.250  0.00  0.00     0.026 H 
ATOM     33  H   LIG d   1       5.179  -2.757  -6.367  0.00  0.00     0.026 H 
ATOM     34  H   LIG d   1       5.986  -0.043  -6.512  0.00  0.00     0.027 H 
ATOM     35  H   LIG d   1       6.286  -0.723  -8.129  0.00  0.00     0.027 H 
ENDROOT
BRANCH   1  36
ATOM     36  C   LIG d   1       4.009  -0.776  -9.009  0.00  0.00     0.008 C 
ATOM     37  H   LIG d   1       3.926   0.174  -9.313  0.00  0.00     0.034 H 
ATOM     38  H   LIG d   1       4.854  -1.246  -9.511  0.00  0.00     0.034 H 
BRANCH  36  39
ATOM     39  C   LIG d   1       2.744  -1.522  -9.349  0.00  0.00     0.131 C 
ATOM     40  O   LIG d   1       2.712  -2.726  -9.259  0.00  0.00    -0.298 OA
BRANCH  39  41
ATOM     41  C   LIG d   1       1.521  -0.768  -9.802  0.00  0.00    -0.006 C 
ATOM     42  H   LIG d   1       1.632  -0.497 -10.758  0.00  0.00     0.031 H 
ATOM     43  H   LIG d   1       0.643  -1.406  -9.705  0.00  0.00     0.031 H 
ATOM     44  H   LIG d   1       1.394   0.122  -9.185  0.00  0.00     0.031 H 
ENDBRANCH  39  41
ENDBRANCH  36  39
ENDBRANCH   1  36
TORSDOF 3
ENDMDL
MODEL 6
REMARK VINA RESULT:      -5.2      3.547      4.840
REMARK  3 active torsions:
REMARK  status: ('A' for Active; 'I' for Inactive)
REMARK    1  A    between atoms: C_1  and  C_2 
REMARK    2  A    between atoms: C_2  and  C_4 
REMARK    3  A    between atoms: C_4  and  C_5 
ROOT
ATOM      1  C   LIG d   1       5.728  -3.142  -5.157  0.00  0.00    -0.034 C 
ATOM      2  H   LIG d   1       5.157  -2.337  -5.619  0.00  0.00     0.030 H 
ATOM      3  C   LIG d   1       7.203  -2.742  -5.076  0.00  0.00    -0.050 C 
ATOM      4  C   LIG d   1       7.413  -1.421  -5.818  0.00  0.00    -0.053 C 
ATOM      5  C   LIG d   1       8.111  -0.421  -4.894  0.00  0.00    -0.053 C 
ATOM      6  C   LIG d   1       7.302   0.877  -4.841  0.00  0.00    -0.053 C 
ATOM      7  C   LIG d   1       7.008   1.236  -3.383  0.00  0.00    -0.053 C 
ATOM      8  C   LIG d   1       5.504   1.451  -3.202  0.00  0.00    -0.053 C 
ATOM      9  C   LIG d   1       4.999   0.574  -2.055  0.00  0.00    -0.053 C 
ATOM     10  C   LIG d   1       3.820  -0.271  -2.542  0.00  0.00    -0.053 C 
ATOM     11  C   LIG d   1       4.090  -1.747  -2.238  0.00  0.00    -0.053 C 
ATOM     12  C   LIG d   1       3.931  -2.568  -3.519  0.00  0.00    -0.053 C 
ATOM     13  C   LIG d   1       5.192  -3.404  -3.748  0.00  0.00    -0.050 C 
ATOM     14  H   LIG d   1       7.816  -3.518  -5.534  0.00  0.00     0.027 H 
ATOM     15  H   LIG d   1       7.489  -2.621  -4.031  0.00  0.00     0.027 H 
ATOM     16  H   LIG d   1       8.032  -1.593  -6.699  0.00  0.00     0.026 H 
ATOM     17  H   LIG d   1       6.447  -1.018  -6.126  0.00  0.00     0.026 H 
ATOM     18  H   LIG d   1       8.185  -0.844  -3.892  0.00  0.00     0.026 H 
ATOM     19  H   LIG d   1       9.110  -0.211  -5.274  0.00  0.00     0.026 H 
ATOM     20  H   LIG d   1       7.873   1.679  -5.306  0.00  0.00     0.026 H 
ATOM     21  H   LIG d   1       6.362   0.740  -5.377  0.00  0.00     0.026 H 
ATOM     22  H   LIG d   1       7.340   0.425  -2.735  0.00  0.00     0.026 H 
ATOM     23  H   LIG d   1       7.540   2.152  -3.121  0.00  0.00     0.026 H 
ATOM     24  H   LIG d   1       5.313   2.499  -2.972  0.00  0.00     0.026 H 
ATOM     25  H   LIG d   1       4.986   1.181  -4.123  0.00  0.00     0.026 H 
ATOM     26  H   LIG d   1       5.801  -0.082  -1.718  0.00  0.00     0.026 H 
ATOM     27  H   LIG d   1       4.675   1.207  -1.229  0.00  0.00     0.026 H 
ATOM     28  H   LIG d   1       2.911   0.044  -2.029  0.00  0.00     0.026 H 
ATOM     29  H   LIG d   1       3.696  -0.138  -3.616  0.00  0.00     0.026 H 
ATOM     30  H   LIG d   1       5.106  -1.859  -1.858  0.00  0.00     0.026 H 
ATOM     31  H   LIG d   1       3.381  -2.099  -1.489  0.00  0.00     0.026 H 
ATOM     32  H   LIG d   1       3.070  -3.229  -3.422  0.00  0.00     0.026 H 
ATOM     33  H   LIG d   1       3.781  -1.897  -4.364  0.00  0.00     0.026 H 
ATOM     34  H   LIG d   1       5.949  -3.128  -3.014  0.00  0.00     0.027 H 
ATOM     35  H   LIG d   1       4.951  -4.462  -3.642  0.00  0.00     0.027 H 
ENDROOT
BRANCH   1  36
ATOM     36  C   LIG d   1       5.591  -4.413  -5.998  0.00  0.00     0.008 C 
ATOM     37  H   LIG d   1       6.304  -4.426  -6.700  0.00  0.00     0.034 H 
ATOM     38  H   LIG d   1       5.697  -5.288  -5.356  0.00  0.00     0.034 H 
BRANCH  36  39
ATOM     39  C   LIG d   1       4.236  -4.436  -6.659  0.00  0.00     0.131 C 
ATOM     40  O   LIG d   1       3.388  -5.201  -6.268  0.00  0.00    -0.298 OA
BRANCH  39  41
ATOM     41  C   LIG d   1       3.941  -3.505  -7.806  0.00  0.00    -0.006 C 
ATOM     42  H   LIG d   1       3.036  -3.712  -8.179  0.00  0.00     0.031 H 
ATOM     43  H   LIG d   1       3.960  -2.474  -7.452  0.00  0.00     0.031 H 
ATOM     44  H   LIG d   1       4.693  -3.636  -8.584  0.00  0.00     0.031 H 
ENDBRANCH  39  41
ENDBRANCH  36  39
ENDBRANCH   1  36
TORSDOF 3
ENDMDL
MODEL 7
REMARK VINA RESULT:      -5.1      2.623      5.177
REMARK  3 active torsions:
REMARK  status: ('A' for Active; 'I' for Inactive)
REMARK    1  A    between atoms: C_1  and  C_2 
REMARK    2  A    between atoms: C_2  and  C_4 
REMARK    3  A    between atoms: C_4  and  C_5 
ROOT
ATOM      1  C   LIG d   1       6.090  -2.843  -5.024  0.00  0.00    -0.034 C 
ATOM      2  H   LIG d   1       5.055  -3.181  -5.026  0.00  0.00     0.030 H 
ATOM      3  C   LIG d   1       6.345  -1.968  -6.253  0.00  0.00    -0.050 C 
ATOM      4  C   LIG d   1       5.113  -1.994  -7.161  0.00  0.00    -0.053 C 
ATOM      5  C   LIG d   1       4.667  -0.561  -7.456  0.00  0.00    -0.053 C 
ATOM      6  C   LIG d   1       3.185  -0.405  -7.108  0.00  0.00    -0.053 C 
ATOM      7  C   LIG d   1       3.005   0.782  -6.161  0.00  0.00    -0.053 C 
ATOM      8  C   LIG d   1       2.234   0.333  -4.918  0.00  0.00    -0.053 C 
ATOM      9  C   LIG d   1       3.021   0.719  -3.664  0.00  0.00    -0.053 C 
ATOM     10  C   LIG d   1       3.212  -0.516  -2.782  0.00  0.00    -0.053 C 
ATOM     11  C   LIG d   1       4.699  -0.688  -2.460  0.00  0.00    -0.053 C 
ATOM     12  C   LIG d   1       5.140  -2.104  -2.834  0.00  0.00    -0.053 C 
ATOM     13  C   LIG d   1       6.360  -2.032  -3.755  0.00  0.00    -0.050 C 
ATOM     14  H   LIG d   1       7.207  -2.350  -6.800  0.00  0.00     0.027 H 
ATOM     15  H   LIG d   1       6.540  -0.943  -5.936  0.00  0.00     0.027 H 
ATOM     16  H   LIG d   1       5.361  -2.497  -8.095  0.00  0.00     0.026 H 
ATOM     17  H   LIG d   1       4.305  -2.531  -6.662  0.00  0.00     0.026 H 
ATOM     18  H   LIG d   1       5.255   0.134  -6.857  0.00  0.00     0.026 H 
ATOM     19  H   LIG d   1       4.815  -0.345  -8.514  0.00  0.00     0.026 H 
ATOM     20  H   LIG d   1       2.613  -0.234  -8.020  0.00  0.00     0.026 H 
ATOM     21  H   LIG d   1       2.829  -1.315  -6.622  0.00  0.00     0.026 H 
ATOM     22  H   LIG d   1       3.982   1.163  -5.865  0.00  0.00     0.026 H 
ATOM     23  H   LIG d   1       2.447   1.571  -6.669  0.00  0.00     0.026 H 
ATOM     24  H   LIG d   1       1.259   0.819  -4.900  0.00  0.00     0.026 H 
ATOM     25  H   LIG d   1       2.101  -0.749  -4.945  0.00  0.00     0.026 H 
ATOM     26  H   LIG d   1       3.994   1.115  -3.953  0.00  0.00     0.026 H 
ATOM     27  H   LIG d   1       2.470   1.480  -3.109  0.00  0.00     0.026 H 
ATOM     28  H   LIG d   1       2.653  -0.391  -1.855  0.00  0.00     0.026 H 
ATOM     29  H   LIG d   1       2.850  -1.399  -3.309  0.00  0.00     0.026 H 
ATOM     30  H   LIG d   1       5.279   0.037  -3.031  0.00  0.00     0.026 H 
ATOM     31  H   LIG d   1       4.861  -0.525  -1.395  0.00  0.00     0.026 H 
ATOM     32  H   LIG d   1       5.400  -2.654  -1.931  0.00  0.00     0.026 H 
ATOM     33  H   LIG d   1       4.327  -2.615  -3.349  0.00  0.00     0.026 H 
ATOM     34  H   LIG d   1       6.552  -0.992  -4.023  0.00  0.00     0.027 H 
ATOM     35  H   LIG d   1       7.230  -2.441  -3.240  0.00  0.00     0.027 H 
ENDROOT
BRANCH   1  36
ATOM     36  C   LIG d   1       7.023  -4.055  -5.061  0.00  0.00     0.008 C 
ATOM     37  H   LIG d   1       7.807  -3.855  -5.650  0.00  0.00     0.034 H 
ATOM     38  H   LIG d   1       7.373  -4.276  -4.052  0.00  0.00     0.034 H 
BRANCH  36  39
ATOM     39  C   LIG d   1       6.278  -5.247  -5.606  0.00  0.00     0.131 C 
ATOM     40  O   LIG d   1       6.882  -6.135  -6.157  0.00  0.00    -0.298 OA
BRANCH  39  41
ATOM     41  C   LIG d   1       4.780  -5.329  -5.464  0.00  0.00    -0.006 C 
ATOM     42  H   LIG d   1       4.494  -4.818  -4.654  0.00  0.00     0.031 H 
ATOM     43  H   LIG d   1       4.307  -4.902  -6.349  0.00  0.00     0.031 H 
ATOM     44  H   LIG d   1       4.481  -6.372  -5.359  0.00  0.00     0.031 H 
ENDBRANCH  39  41
ENDBRANCH  36  39
ENDBRANCH   1  36
TORSDOF 3
ENDMDL
MODEL 8
REMARK VINA RESULT:      -5.0      2.405      5.146
REMARK  3 active torsions:
REMARK  status: ('A' for Active; 'I' for Inactive)
REMARK    1  A    between atoms: C_1  and  C_2 
REMARK    2  A    between atoms: C_2  and  C_4 
REMARK    3  A    between atoms: C_4  and  C_5 
ROOT
ATOM      1  C   LIG d   1       4.657  -1.982  -4.337  0.00  0.00    -0.034 C 
ATOM      2  H   LIG d   1       3.633  -2.272  -4.572  0.00  0.00     0.030 H 
ATOM      3  C   LIG d   1       5.599  -3.152  -4.628  0.00  0.00    -0.050 C 
ATOM      4  C   LIG d   1       4.777  -4.389  -4.992  0.00  0.00    -0.053 C 
ATOM      5  C   LIG d   1       5.263  -4.950  -6.330  0.00  0.00    -0.053 C 
ATOM      6  C   LIG d   1       4.076  -5.097  -7.284  0.00  0.00    -0.053 C 
ATOM      7  C   LIG d   1       4.385  -4.375  -8.598  0.00  0.00    -0.053 C 
ATOM      8  C   LIG d   1       3.255  -3.395  -8.920  0.00  0.00    -0.053 C 
ATOM      9  C   LIG d   1       3.842  -2.003  -9.164  0.00  0.00    -0.053 C 
ATOM     10  C   LIG d   1       3.136  -0.988  -8.264  0.00  0.00    -0.053 C 
ATOM     11  C   LIG d   1       4.178  -0.205  -7.462  0.00  0.00    -0.053 C 
ATOM     12  C   LIG d   1       3.837  -0.280  -5.972  0.00  0.00    -0.053 C 
ATOM     13  C   LIG d   1       5.056  -0.779  -5.194  0.00  0.00    -0.050 C 
ATOM     14  H   LIG d   1       6.202  -3.362  -3.745  0.00  0.00     0.027 H 
ATOM     15  H   LIG d   1       6.253  -2.893  -5.461  0.00  0.00     0.027 H 
ATOM     16  H   LIG d   1       4.896  -5.146  -4.217  0.00  0.00     0.026 H 
ATOM     17  H   LIG d   1       3.724  -4.115  -5.074  0.00  0.00     0.026 H 
ATOM     18  H   LIG d   1       5.996  -4.270  -6.764  0.00  0.00     0.026 H 
ATOM     19  H   LIG d   1       5.723  -5.925  -6.170  0.00  0.00     0.026 H 
ATOM     20  H   LIG d   1       3.897  -6.153  -7.482  0.00  0.00     0.026 H 
ATOM     21  H   LIG d   1       3.188  -4.657  -6.828  0.00  0.00     0.026 H 
ATOM     22  H   LIG d   1       5.323  -3.829  -8.501  0.00  0.00     0.026 H 
ATOM     23  H   LIG d   1       4.472  -5.107  -9.402  0.00  0.00     0.026 H 
ATOM     24  H   LIG d   1       2.728  -3.729  -9.813  0.00  0.00     0.026 H 
ATOM     25  H   LIG d   1       2.559  -3.354  -8.082  0.00  0.00     0.026 H 
ATOM     26  H   LIG d   1       4.908  -2.013  -8.934  0.00  0.00     0.026 H 
ATOM     27  H   LIG d   1       3.698  -1.726 -10.208  0.00  0.00     0.026 H 
ATOM     28  H   LIG d   1       2.558  -0.298  -8.879  0.00  0.00     0.026 H 
ATOM     29  H   LIG d   1       2.468  -1.511  -7.579  0.00  0.00     0.026 H 
ATOM     30  H   LIG d   1       5.165  -0.636  -7.631  0.00  0.00     0.026 H 
ATOM     31  H   LIG d   1       4.177   0.837  -7.783  0.00  0.00     0.026 H 
ATOM     32  H   LIG d   1       3.557   0.709  -5.613  0.00  0.00     0.026 H 
ATOM     33  H   LIG d   1       3.005  -0.969  -5.825  0.00  0.00     0.026 H 
ATOM     34  H   LIG d   1       5.837  -1.075  -5.894  0.00  0.00     0.027 H 
ATOM     35  H   LIG d   1       5.428   0.019  -4.551  0.00  0.00     0.027 H 
ENDROOT
BRANCH   1  36
ATOM     36  C   LIG d   1       4.754  -1.606  -2.856  0.00  0.00     0.008 C 
ATOM     37  H   LIG d   1       4.586  -2.417  -2.296  0.00  0.00     0.034 H 
ATOM     38  H   LIG d   1       5.750  -1.217  -2.644  0.00  0.00     0.034 H 
BRANCH  36  39
ATOM     39  C   LIG d   1       3.725  -0.553  -2.536  0.00  0.00     0.131 C 
ATOM     40  O   LIG d   1       2.557  -0.764  -2.762  0.00  0.00    -0.298 OA
BRANCH  39  41
ATOM     41  C   LIG d   1       4.151   0.761  -1.935  0.00  0.00    -0.006 C 
ATOM     42  H   LIG d   1       5.150   0.796  -1.887  0.00  0.00     0.031 H 
ATOM     43  H   LIG d   1       3.788   1.580  -2.556  0.00  0.00     0.031 H 
ATOM     44  H   LIG d   1       3.736   0.854  -0.931  0.00  0.00     0.031 H 
ENDBRANCH  39  41
ENDBRANCH  36  39
ENDBRANCH   1  36
TORSDOF 3
ENDMDL
MODEL 9
REMARK VINA RESULT:      -5.0      4.041      5.984
REMARK  3 active torsions:
REMARK  status: ('A' for Active; 'I' for Inactive)
REMARK    1  A    between atoms: C_1  and  C_2 
REMARK    2  A    between atoms: C_2  and  C_4 
REMARK    3  A    between atoms: C_4  and  C_5 
ROOT
ATOM      1  C   LIG d   1       6.736  -2.768  -4.997  0.00  0.00    -0.034 C 
ATOM      2  H   LIG d   1       7.076  -2.649  -3.969  0.00  0.00     0.030 H 
ATOM      3  C   LIG d   1       5.218  -2.960  -5.015  0.00  0.00    -0.050 C 
ATOM      4  C   LIG d   1       4.704  -3.088  -3.579  0.00  0.00    -0.053 C 
ATOM      5  C   LIG d   1       3.582  -2.074  -3.346  0.00  0.00    -0.053 C 
ATOM      6  C   LIG d   1       3.903  -1.233  -2.108  0.00  0.00    -0.053 C 
ATOM      7  C   LIG d   1       3.832   0.252  -2.467  0.00  0.00    -0.053 C 
ATOM      8  C   LIG d   1       5.135   0.940  -2.056  0.00  0.00    -0.053 C 
ATOM      9  C   LIG d   1       5.715   1.691  -3.256  0.00  0.00    -0.053 C 
ATOM     10  C   LIG d   1       7.166   1.259  -3.474  0.00  0.00    -0.053 C 
ATOM     11  C   LIG d   1       7.350   0.805  -4.924  0.00  0.00    -0.053 C 
ATOM     12  C   LIG d   1       7.967  -0.595  -4.945  0.00  0.00    -0.053 C 
ATOM     13  C   LIG d   1       7.102  -1.521  -5.803  0.00  0.00    -0.050 C 
ATOM     14  H   LIG d   1       4.972  -3.864  -5.571  0.00  0.00     0.027 H 
ATOM     15  H   LIG d   1       4.749  -2.100  -5.492  0.00  0.00     0.027 H 
ATOM     16  H   LIG d   1       4.321  -4.096  -3.418  0.00  0.00     0.026 H 
ATOM     17  H   LIG d   1       5.520  -2.894  -2.882  0.00  0.00     0.026 H 
ATOM     18  H   LIG d   1       3.496  -1.421  -4.215  0.00  0.00     0.026 H 
ATOM     19  H   LIG d   1       2.641  -2.602  -3.193  0.00  0.00     0.026 H 
ATOM     20  H   LIG d   1       3.180  -1.453  -1.323  0.00  0.00     0.026 H 
ATOM     21  H   LIG d   1       4.907  -1.474  -1.756  0.00  0.00     0.026 H 
ATOM     22  H   LIG d   1       3.687   0.360  -3.542  0.00  0.00     0.026 H 
ATOM     23  H   LIG d   1       2.995   0.713  -1.940  0.00  0.00     0.026 H 
ATOM     24  H   LIG d   1       4.934   1.644  -1.248  0.00  0.00     0.026 H 
ATOM     25  H   LIG d   1       5.849   0.191  -1.716  0.00  0.00     0.026 H 
ATOM     26  H   LIG d   1       5.129   1.462  -4.146  0.00  0.00     0.026 H 
ATOM     27  H   LIG d   1       5.680   2.764  -3.065  0.00  0.00     0.026 H 
ATOM     28  H   LIG d   1       7.830   2.099  -3.270  0.00  0.00     0.026 H 
ATOM     29  H   LIG d   1       7.405   0.435  -2.802  0.00  0.00     0.026 H 
ATOM     30  H   LIG d   1       6.382   0.784  -5.423  0.00  0.00     0.026 H 
ATOM     31  H   LIG d   1       8.010   1.501  -5.442  0.00  0.00     0.026 H 
ATOM     32  H   LIG d   1       8.971  -0.544  -5.366  0.00  0.00     0.026 H 
ATOM     33  H   LIG d   1       8.019  -0.984  -3.929  0.00  0.00     0.026 H 
ATOM     34  H   LIG d   1       6.192  -0.998  -6.097  0.00  0.00     0.027 H 
ATOM     35  H   LIG d   1       7.657  -1.814  -6.695  0.00  0.00     0.027 H 
ENDROOT
BRANCH   1  36
ATOM     36  C   LIG d   1       7.411  -3.992  -5.619  0.00  0.00     0.008 C 
ATOM     37  H   LIG d   1       6.711  -4.623  -5.956  0.00  0.00     0.034 H 
ATOM     38  H   LIG d   1       8.045  -3.677  -6.448  0.00  0.00     0.034 H 
BRANCH  36  39
ATOM     39  C   LIG d   1       8.251  -4.687  -4.579  0.00  0.00     0.131 C 
ATOM     40  O   LIG d   1       8.380  -5.887  -4.610  0.00  0.00    -0.298 OA
BRANCH  39  41
ATOM     41  C   LIG d   1       8.930  -3.884  -3.499  0.00  0.00    -0.006 C 
ATOM     42  H   LIG d   1       8.658  -2.925  -3.577  0.00  0.00     0.031 H 
ATOM     43  H   LIG d   1       8.637  -4.268  -2.522  0.00  0.00     0.031 H 
ATOM     44  H   LIG d   1      10.012  -3.964  -3.613  0.00  0.00     0.031 H 
ENDBRANCH  39  41
ENDBRANCH  36  39
ENDBRANCH   1  36
TORSDOF 3
ENDMDL
MODEL 10
REMARK VINA RESULT:      -4.9      3.086      4.770
REMARK  3 active torsions:
REMARK  status: ('A' for Active; 'I' for Inactive)
REMARK    1  A    between atoms: C_1  and  C_2 
REMARK    2  A    between atoms: C_2  and  C_4 
REMARK    3  A    between atoms: C_4  and  C_5 
ROOT
ATOM      1  C   LIG d   1       7.329   0.780  -4.925  0.00  0.00    -0.034 C 
ATOM      2  H   LIG d   1       6.357   0.773  -5.417  0.00  0.00     0.030 H 
ATOM      3  C   LIG d   1       7.162   1.222  -3.469  0.00  0.00    -0.050 C 
ATOM      4  C   LIG d   1       5.717   1.666  -3.234  0.00  0.00    -0.053 C 
ATOM      5  C   LIG d   1       5.139   0.909  -2.037  0.00  0.00    -0.053 C 
ATOM      6  C   LIG d   1       3.825   0.238  -2.444  0.00  0.00    -0.053 C 
ATOM      7  C   LIG d   1       3.885  -1.252  -2.102  0.00  0.00    -0.053 C 
ATOM      8  C   LIG d   1       3.545  -2.076  -3.346  0.00  0.00    -0.053 C 
ATOM      9  C   LIG d   1       4.654  -3.099  -3.598  0.00  0.00    -0.053 C 
ATOM     10  C   LIG d   1       5.157  -2.961  -5.036  0.00  0.00    -0.053 C 
ATOM     11  C   LIG d   1       6.678  -2.786  -5.030  0.00  0.00    -0.053 C 
ATOM     12  C   LIG d   1       7.049  -1.534  -5.826  0.00  0.00    -0.053 C 
ATOM     13  C   LIG d   1       7.931  -0.626  -4.966  0.00  0.00    -0.050 C 
ATOM     14  H   LIG d   1       7.836   2.052  -3.262  0.00  0.00     0.027 H 
ATOM     15  H   LIG d   1       7.398   0.388  -2.808  0.00  0.00     0.027 H 
ATOM     16  H   LIG d   1       5.695   2.736  -3.032  0.00  0.00     0.026 H 
ATOM     17  H   LIG d   1       5.122   1.451  -4.122  0.00  0.00     0.026 H 
ATOM     18  H   LIG d   1       5.848   0.148  -1.711  0.00  0.00     0.026 H 
ATOM     19  H   LIG d   1       4.952   1.607  -1.221  0.00  0.00     0.026 H 
ATOM     20  H   LIG d   1       2.998   0.702  -1.906  0.00  0.00     0.026 H 
ATOM     21  H   LIG d   1       3.673   0.358  -3.517  0.00  0.00     0.026 H 
ATOM     22  H   LIG d   1       4.888  -1.507  -1.761  0.00  0.00     0.026 H 
ATOM     23  H   LIG d   1       3.166  -1.473  -1.312  0.00  0.00     0.026 H 
ATOM     24  H   LIG d   1       2.599  -2.595  -3.189  0.00  0.00     0.026 H 
ATOM     25  H   LIG d   1       3.458  -1.414  -4.207  0.00  0.00     0.026 H 
ATOM     26  H   LIG d   1       5.477  -2.921  -2.906  0.00  0.00     0.026 H 
ATOM     27  H   LIG d   1       4.262  -4.105  -3.445  0.00  0.00     0.026 H 
ATOM     28  H   LIG d   1       4.897  -3.858  -5.599  0.00  0.00     0.026 H 
ATOM     29  H   LIG d   1       4.693  -2.092  -5.501  0.00  0.00     0.026 H 
ATOM     30  H   LIG d   1       7.027  -2.681  -4.003  0.00  0.00     0.026 H 
ATOM     31  H   LIG d   1       7.145  -3.659  -5.485  0.00  0.00     0.026 H 
ATOM     32  H   LIG d   1       7.593  -1.822  -6.724  0.00  0.00     0.026 H 
ATOM     33  H   LIG d   1       6.142  -0.999  -6.107  0.00  0.00     0.026 H 
ATOM     34  H   LIG d   1       7.987  -1.027  -3.954  0.00  0.00     0.027 H 
ATOM     35  H   LIG d   1       8.933  -0.580  -5.394  0.00  0.00     0.027 H 
ENDROOT
BRANCH   1  36
ATOM     36  C   LIG d   1       8.261   1.754  -5.649  0.00  0.00     0.008 C 
ATOM     37  H   LIG d   1       8.065   2.688  -5.348  0.00  0.00     0.034 H 
ATOM     38  H   LIG d   1       9.297   1.506  -5.418  0.00  0.00     0.034 H 
BRANCH  36  39
ATOM     39  C   LIG d   1       8.039   1.651  -7.136  0.00  0.00     0.131 C 
ATOM     40  O   LIG d   1       6.915   1.619  -7.577  0.00  0.00    -0.298 OA
BRANCH  39  41
ATOM     41  C   LIG d   1       9.217   1.586  -8.072  0.00  0.00    -0.006 C 
ATOM     42  H   LIG d   1       8.893   1.434  -9.006  0.00  0.00     0.031 H 
ATOM     43  H   LIG d   1       9.769   2.525  -8.027  0.00  0.00     0.031 H 
ATOM     44  H   LIG d   1       9.871   0.765  -7.778  0.00  0.00     0.031 H 
ENDBRANCH  39  41
ENDBRANCH  36  39
ENDBRANCH   1  36
TORSDOF 3
ENDMDL
