MODEL 1
REMARK VINA RESULT:      -7.1      0.000      0.000
REMARK  9 active torsions:
REMARK  status: ('A' for Active; 'I' for Inactive)
REMARK    1  A    between atoms: C_1  and  C_2 
REMARK    2  A    between atoms: C_2  and  C_3 
REMARK    3  A    between atoms: C_2  and  C_4 
REMARK    4  A    between atoms: C_4  and  C_5 
REMARK    5  A    between atoms: C_15  and  O_23 
REMARK    6  A    between atoms: C_16  and  O_21 
REMARK    7  A    between atoms: O_21  and  C_22 
REMARK    8  A    between atoms: O_23  and  C_24 
REMARK    9  A    between atoms: C_25  and  O_35 
ROOT
ATOM      1  C   LIG d   1       4.836   0.351  -8.231  0.00  0.00     0.106 C 
ATOM      2  H   LIG d   1       4.848  -0.472  -8.946  0.00  0.00     0.060 H 
ATOM      3  C   LIG d   1       6.164   1.069  -8.248  0.00  0.00     0.241 C 
ATOM      4  O   LIG d   1       6.389   1.857  -9.143  0.00  0.00    -0.273 OA
ATOM      5  N   LIG d   1       7.099   0.870  -7.317  0.00  0.00    -0.262 N 
ATOM      6  C   LIG d   1       6.993  -0.005  -6.155  0.00  0.00     0.085 C 
ATOM      7  H   LIG d   1       7.842  -0.688  -6.175  0.00  0.00     0.056 H 
ATOM      8  C   LIG d   1       7.098   0.830  -4.881  0.00  0.00    -0.003 C 
ATOM      9  C   LIG d   1       8.306   1.730  -4.936  0.00  0.00    -0.033 A 
ATOM     10  C   LIG d   1       8.847   2.203  -3.754  0.00  0.00    -0.012 A 
ATOM     11  C   LIG d   1       9.953   3.036  -3.775  0.00  0.00     0.162 A 
ATOM     12  C   LIG d   1      10.532   3.405  -4.988  0.00  0.00     0.162 A 
ATOM     13  C   LIG d   1       9.999   2.935  -6.174  0.00  0.00    -0.007 A 
ATOM     14  C   LIG d   1       8.886   2.094  -6.149  0.00  0.00     0.003 A 
ATOM     15  C   LIG d   1       8.324   1.580  -7.426  0.00  0.00     0.037 C 
ATOM     16  C   LIG d   1       8.930   1.773  -8.597  0.00  0.00    -0.076 C 
ATOM     17  C   LIG d   1       5.728  -0.842  -6.131  0.00  0.00     0.183 A 
ATOM     18  N   LIG d   1       4.657  -0.168  -6.869  0.00  0.00    -0.252 N 
ATOM     19  C   LIG d   1       3.570  -0.103  -6.087  0.00  0.00     0.250 A 
ATOM     20  O   LIG d   1       2.484   0.318  -6.432  0.00  0.00    -0.270 OA
ATOM     21  C   LIG d   1       3.890  -0.617  -4.751  0.00  0.00     0.045 A 
ATOM     22  C   LIG d   1       5.221  -1.058  -4.743  0.00  0.00     0.016 A 
ATOM     23  C   LIG d   1       5.811  -1.602  -3.624  0.00  0.00    -0.053 A 
ATOM     24  C   LIG d   1       5.038  -1.659  -2.466  0.00  0.00    -0.061 A 
ATOM     25  C   LIG d   1       3.739  -1.193  -2.436  0.00  0.00    -0.061 A 
ATOM     26  C   LIG d   1       3.111  -0.695  -3.594  0.00  0.00    -0.049 A 
ATOM     27  H   LIG d   1       6.201   1.439  -4.775  0.00  0.00     0.033 H 
ATOM     28  H   LIG d   1       7.185   0.165  -4.021  0.00  0.00     0.033 H 
ATOM     29  H   LIG d   1       8.403   1.922  -2.810  0.00  0.00     0.066 H 
ATOM     30  H   LIG d   1      10.442   3.218  -7.117  0.00  0.00     0.066 H 
ATOM     31  H   LIG d   1       8.491   1.384  -9.504  0.00  0.00     0.055 H 
ATOM     32  H   LIG d   1       9.861   2.319  -8.640  0.00  0.00     0.055 H 
ATOM     33  H   LIG d   1       6.827  -1.967  -3.642  0.00  0.00     0.062 H 
ATOM     34  H   LIG d   1       5.467  -2.078  -1.568  0.00  0.00     0.062 H 
ATOM     35  H   LIG d   1       3.178  -1.261  -1.516  0.00  0.00     0.062 H 
ATOM     36  H   LIG d   1       2.088  -0.347  -3.576  0.00  0.00     0.062 H 
ENDROOT
BRANCH   1  37
ATOM     37  C   LIG d   1       3.708   1.326  -8.573  0.00  0.00    -0.023 C 
ATOM     38  H   LIG d   1       4.127   2.316  -8.755  0.00  0.00     0.029 H 
ATOM     39  H   LIG d   1       3.006   1.375  -7.741  0.00  0.00     0.029 H 
BRANCH  37  40
ATOM     40  C   LIG d   1       2.979   0.842  -9.829  0.00  0.00    -0.045 C 
ATOM     41  H   LIG d   1       2.050   1.401  -9.947  0.00  0.00     0.030 H 
BRANCH  40  42
ATOM     42  C   LIG d   1       3.869   1.065 -11.053  0.00  0.00    -0.063 C 
ATOM     43  H   LIG d   1       4.879   1.316 -10.728  0.00  0.00     0.023 H 
ATOM     44  H   LIG d   1       3.895   0.157 -11.653  0.00  0.00     0.023 H 
ATOM     45  H   LIG d   1       3.466   1.884 -11.650  0.00  0.00     0.023 H 
ENDBRANCH  40  42
BRANCH  40  46
ATOM     46  C   LIG d   1       2.663  -0.649  -9.692  0.00  0.00    -0.063 C 
ATOM     47  H   LIG d   1       1.618  -0.774  -9.407  0.00  0.00     0.023 H 
ATOM     48  H   LIG d   1       2.841  -1.147 -10.646  0.00  0.00     0.023 H 
ATOM     49  H   LIG d   1       3.303  -1.088  -8.927  0.00  0.00     0.023 H 
ENDBRANCH  40  46
ENDBRANCH  37  40
ENDBRANCH   1  37
BRANCH  17  50
ATOM     50  O   LIG d   1       5.974  -2.103  -6.757  0.00  0.00    -0.366 OA
ATOM     51  H   LIG d   1       6.462  -2.728  -6.203  0.00  0.00     0.212 HD
ENDBRANCH  17  50
BRANCH  12  52
ATOM     52  O   LIG d   1      11.617   4.225  -5.005  0.00  0.00    -0.491 OA
BRANCH  52  53
ATOM     53  C   LIG d   1      11.456   5.500  -5.629  0.00  0.00     0.079 C 
ATOM     54  H   LIG d   1      12.127   5.573  -6.484  0.00  0.00     0.066 H 
ATOM     55  H   LIG d   1      10.426   5.614  -5.964  0.00  0.00     0.066 H 
ATOM     56  H   LIG d   1      11.693   6.287  -4.912  0.00  0.00     0.066 H 
ENDBRANCH  52  53
ENDBRANCH  12  52
BRANCH  11  57
ATOM     57  O   LIG d   1      10.477   3.496  -2.607  0.00  0.00    -0.491 OA
BRANCH  57  58
ATOM     58  C   LIG d   1      10.121   4.823  -2.215  0.00  0.00     0.079 C 
ATOM     59  H   LIG d   1       9.656   4.798  -1.229  0.00  0.00     0.066 H 
ATOM     60  H   LIG d   1      11.017   5.443  -2.179  0.00  0.00     0.066 H 
ATOM     61  H   LIG d   1       9.420   5.240  -2.938  0.00  0.00     0.066 H 
ENDBRANCH  57  58
ENDBRANCH  11  57
TORSDOF 9
ENDMDL
MODEL 2
REMARK VINA RESULT:      -6.6      4.316      6.602
REMARK  9 active torsions:
REMARK  status: ('A' for Active; 'I' for Inactive)
REMARK    1  A    between atoms: C_1  and  C_2 
REMARK    2  A    between atoms: C_2  and  C_3 
REMARK    3  A    between atoms: C_2  and  C_4 
REMARK    4  A    between atoms: C_4  and  C_5 
REMARK    5  A    between atoms: C_15  and  O_23 
REMARK    6  A    between atoms: C_16  and  O_21 
REMARK    7  A    between atoms: O_21  and  C_22 
REMARK    8  A    between atoms: O_23  and  C_24 
REMARK    9  A    between atoms: C_25  and  O_35 
ROOT
ATOM      1  C   LIG d   1       8.580   0.837  -5.099  0.00  0.00     0.106 C 
ATOM      2  H   LIG d   1       8.350   1.178  -6.108  0.00  0.00     0.060 H 
ATOM      3  C   LIG d   1       9.662  -0.215  -5.143  0.00  0.00     0.241 C 
ATOM      4  O   LIG d   1      10.814   0.138  -5.281  0.00  0.00    -0.273 OA
ATOM      5  N   LIG d   1       9.399  -1.519  -5.037  0.00  0.00    -0.262 N 
ATOM      6  C   LIG d   1       8.088  -2.124  -4.831  0.00  0.00     0.085 C 
ATOM      7  H   LIG d   1       7.932  -2.857  -5.623  0.00  0.00     0.056 H 
ATOM      8  C   LIG d   1       8.079  -2.873  -3.499  0.00  0.00    -0.003 C 
ATOM      9  C   LIG d   1       9.268  -3.794  -3.402  0.00  0.00    -0.033 A 
ATOM     10  C   LIG d   1       9.213  -4.872  -2.537  0.00  0.00    -0.012 A 
ATOM     11  C   LIG d   1      10.293  -5.732  -2.423  0.00  0.00     0.162 A 
ATOM     12  C   LIG d   1      11.444  -5.519  -3.178  0.00  0.00     0.162 A 
ATOM     13  C   LIG d   1      11.506  -4.444  -4.047  0.00  0.00    -0.007 A 
ATOM     14  C   LIG d   1      10.416  -3.582  -4.162  0.00  0.00     0.003 A 
ATOM     15  C   LIG d   1      10.481  -2.436  -5.106  0.00  0.00     0.037 C 
ATOM     16  C   LIG d   1      11.490  -2.278  -5.963  0.00  0.00    -0.076 C 
ATOM     17  C   LIG d   1       6.940  -1.135  -4.886  0.00  0.00     0.183 A 
ATOM     18  N   LIG d   1       7.400   0.202  -4.500  0.00  0.00    -0.252 N 
ATOM     19  C   LIG d   1       6.596   0.673  -3.537  0.00  0.00     0.250 A 
ATOM     20  O   LIG d   1       6.653   1.790  -3.062  0.00  0.00    -0.270 OA
ATOM     21  C   LIG d   1       5.634  -0.362  -3.144  0.00  0.00     0.045 A 
ATOM     22  C   LIG d   1       5.839  -1.497  -3.943  0.00  0.00     0.016 A 
ATOM     23  C   LIG d   1       5.079  -2.638  -3.812  0.00  0.00    -0.053 A 
ATOM     24  C   LIG d   1       4.112  -2.642  -2.810  0.00  0.00    -0.061 A 
ATOM     25  C   LIG d   1       3.918  -1.554  -1.983  0.00  0.00    -0.061 A 
ATOM     26  C   LIG d   1       4.649  -0.362  -2.154  0.00  0.00    -0.049 A 
ATOM     27  H   LIG d   1       8.114  -2.152  -2.683  0.00  0.00     0.033 H 
ATOM     28  H   LIG d   1       7.163  -3.459  -3.423  0.00  0.00     0.033 H 
ATOM     29  H   LIG d   1       8.325  -5.044  -1.947  0.00  0.00     0.066 H 
ATOM     30  H   LIG d   1      12.395  -4.273  -4.634  0.00  0.00     0.066 H 
ATOM     31  H   LIG d   1      11.502  -1.433  -6.634  0.00  0.00     0.055 H 
ATOM     32  H   LIG d   1      12.296  -2.997  -5.985  0.00  0.00     0.055 H 
ATOM     33  H   LIG d   1       5.227  -3.492  -4.456  0.00  0.00     0.062 H 
ATOM     34  H   LIG d   1       3.497  -3.520  -2.677  0.00  0.00     0.062 H 
ATOM     35  H   LIG d   1       3.153  -1.603  -1.221  0.00  0.00     0.062 H 
ATOM     36  H   LIG d   1       4.485   0.497  -1.519  0.00  0.00     0.062 H 
ENDROOT
BRANCH   1  37
ATOM     37  C   LIG d   1       9.033   2.018  -4.238  0.00  0.00    -0.023 C 
ATOM     38  H   LIG d   1      10.079   1.885  -3.960  0.00  0.00     0.029 H 
ATOM     39  H   LIG d   1       8.421   2.067  -3.337  0.00  0.00     0.029 H 
BRANCH  37  40
ATOM     40  C   LIG d   1       8.878   3.317  -5.031  0.00  0.00    -0.045 C 
ATOM     41  H   LIG d   1       7.818   3.536  -5.166  0.00  0.00     0.030 H 
BRANCH  40  42
ATOM     42  C   LIG d   1       9.543   4.463  -4.268  0.00  0.00    -0.063 C 
ATOM     43  H   LIG d   1       9.904   5.210  -4.976  0.00  0.00     0.023 H 
ATOM     44  H   LIG d   1       8.818   4.921  -3.596  0.00  0.00     0.023 H 
ATOM     45  H   LIG d   1      10.382   4.076  -3.690  0.00  0.00     0.023 H 
ENDBRANCH  40  42
BRANCH  40  46
ATOM     46  C   LIG d   1       9.543   3.161  -6.401  0.00  0.00    -0.063 C 
ATOM     47  H   LIG d   1      10.421   3.805  -6.453  0.00  0.00     0.023 H 
ATOM     48  H   LIG d   1       9.846   2.123  -6.542  0.00  0.00     0.023 H 
ATOM     49  H   LIG d   1       8.838   3.444  -7.182  0.00  0.00     0.023 H 
ENDBRANCH  40  46
ENDBRANCH  37  40
ENDBRANCH   1  37
BRANCH  17  50
ATOM     50  O   LIG d   1       6.430  -1.062  -6.219  0.00  0.00    -0.366 OA
ATOM     51  H   LIG d   1       5.861  -0.297  -6.380  0.00  0.00     0.212 HD
ENDBRANCH  17  50
BRANCH  12  52
ATOM     52  O   LIG d   1      12.503  -6.364  -3.062  0.00  0.00    -0.491 OA
BRANCH  52  53
ATOM     53  C   LIG d   1      12.695  -7.312  -4.114  0.00  0.00     0.079 C 
ATOM     54  H   LIG d   1      11.933  -8.089  -4.046  0.00  0.00     0.066 H 
ATOM     55  H   LIG d   1      12.616  -6.809  -5.077  0.00  0.00     0.066 H 
ATOM     56  H   LIG d   1      13.683  -7.763  -4.021  0.00  0.00     0.066 H 
ENDBRANCH  52  53
ENDBRANCH  12  52
BRANCH  11  57
ATOM     57  O   LIG d   1      10.229  -6.789  -1.569  0.00  0.00    -0.491 OA
BRANCH  57  58
ATOM     58  C   LIG d   1       9.502  -7.937  -2.011  0.00  0.00     0.079 C 
ATOM     59  H   LIG d   1      10.193  -8.663  -2.439  0.00  0.00     0.066 H 
ATOM     60  H   LIG d   1       8.982  -8.385  -1.163  0.00  0.00     0.066 H 
ATOM     61  H   LIG d   1       8.775  -7.638  -2.765  0.00  0.00     0.066 H 
ENDBRANCH  57  58
ENDBRANCH  11  57
TORSDOF 9
ENDMDL
MODEL 3
REMARK VINA RESULT:      -6.6      3.845      8.344
REMARK  9 active torsions:
REMARK  status: ('A' for Active; 'I' for Inactive)
REMARK    1  A    between atoms: C_1  and  C_2 
REMARK    2  A    between atoms: C_2  and  C_3 
REMARK    3  A    between atoms: C_2  and  C_4 
REMARK    4  A    between atoms: C_4  and  C_5 
REMARK    5  A    between atoms: C_15  and  O_23 
REMARK    6  A    between atoms: C_16  and  O_21 
REMARK    7  A    between atoms: O_21  and  C_22 
REMARK    8  A    between atoms: O_23  and  C_24 
REMARK    9  A    between atoms: C_25  and  O_35 
ROOT
ATOM      1  C   LIG d   1       5.265  -0.481  -5.019  0.00  0.00     0.106 C 
ATOM      2  H   LIG d   1       6.131   0.182  -5.014  0.00  0.00     0.060 H 
ATOM      3  C   LIG d   1       5.706  -1.907  -4.794  0.00  0.00     0.241 C 
ATOM      4  O   LIG d   1       5.968  -2.265  -3.665  0.00  0.00    -0.273 OA
ATOM      5  N   LIG d   1       5.819  -2.788  -5.790  0.00  0.00    -0.262 N 
ATOM      6  C   LIG d   1       5.514  -2.550  -7.196  0.00  0.00     0.085 C 
ATOM      7  H   LIG d   1       6.397  -2.816  -7.777  0.00  0.00     0.056 H 
ATOM      8  C   LIG d   1       4.378  -3.473  -7.631  0.00  0.00    -0.003 C 
ATOM      9  C   LIG d   1       4.673  -4.898  -7.240  0.00  0.00    -0.033 A 
ATOM     10  C   LIG d   1       4.046  -5.926  -7.919  0.00  0.00    -0.012 A 
ATOM     11  C   LIG d   1       4.294  -7.245  -7.577  0.00  0.00     0.162 A 
ATOM     12  C   LIG d   1       5.180  -7.548  -6.545  0.00  0.00     0.162 A 
ATOM     13  C   LIG d   1       5.814  -6.526  -5.862  0.00  0.00    -0.007 A 
ATOM     14  C   LIG d   1       5.563  -5.199  -6.211  0.00  0.00     0.003 A 
ATOM     15  C   LIG d   1       6.256  -4.104  -5.483  0.00  0.00     0.037 C 
ATOM     16  C   LIG d   1       7.225  -4.341  -4.600  0.00  0.00    -0.076 C 
ATOM     17  C   LIG d   1       5.170  -1.107  -7.513  0.00  0.00     0.183 A 
ATOM     18  N   LIG d   1       4.611  -0.445  -6.332  0.00  0.00    -0.252 N 
ATOM     19  C   LIG d   1       3.449   0.131  -6.671  0.00  0.00     0.250 A 
ATOM     20  O   LIG d   1       2.777   0.833  -5.941  0.00  0.00    -0.270 OA
ATOM     21  C   LIG d   1       3.109  -0.214  -8.055  0.00  0.00     0.045 A 
ATOM     22  C   LIG d   1       4.142  -0.998  -8.592  0.00  0.00     0.016 A 
ATOM     23  C   LIG d   1       4.112  -1.471  -9.884  0.00  0.00    -0.053 A 
ATOM     24  C   LIG d   1       2.979  -1.179 -10.640  0.00  0.00    -0.061 A 
ATOM     25  C   LIG d   1       1.930  -0.446 -10.121  0.00  0.00    -0.061 A 
ATOM     26  C   LIG d   1       1.984   0.095  -8.822  0.00  0.00    -0.049 A 
ATOM     27  H   LIG d   1       3.452  -3.153  -7.154  0.00  0.00     0.033 H 
ATOM     28  H   LIG d   1       4.262  -3.414  -8.714  0.00  0.00     0.033 H 
ATOM     29  H   LIG d   1       3.357  -5.699  -8.720  0.00  0.00     0.066 H 
ATOM     30  H   LIG d   1       6.500  -6.754  -5.061  0.00  0.00     0.066 H 
ATOM     31  H   LIG d   1       7.706  -3.518  -4.091  0.00  0.00     0.055 H 
ATOM     32  H   LIG d   1       7.530  -5.356  -4.392  0.00  0.00     0.055 H 
ATOM     33  H   LIG d   1       4.930  -2.045 -10.294  0.00  0.00     0.062 H 
ATOM     34  H   LIG d   1       2.919  -1.535 -11.657  0.00  0.00     0.062 H 
ATOM     35  H   LIG d   1       1.073  -0.241 -10.747  0.00  0.00     0.062 H 
ATOM     36  H   LIG d   1       1.171   0.685  -8.422  0.00  0.00     0.062 H 
ENDROOT
BRANCH   1  37
ATOM     37  C   LIG d   1       4.278  -0.060  -3.929  0.00  0.00    -0.023 C 
ATOM     38  H   LIG d   1       4.083  -0.905  -3.269  0.00  0.00     0.029 H 
ATOM     39  H   LIG d   1       3.345   0.265  -4.390  0.00  0.00     0.029 H 
BRANCH  37  40
ATOM     40  C   LIG d   1       4.874   1.093  -3.118  0.00  0.00    -0.045 C 
ATOM     41  H   LIG d   1       4.403   2.030  -3.418  0.00  0.00     0.030 H 
BRANCH  40  42
ATOM     42  C   LIG d   1       4.625   0.851  -1.629  0.00  0.00    -0.063 C 
ATOM     43  H   LIG d   1       5.414   0.214  -1.227  0.00  0.00     0.023 H 
ATOM     44  H   LIG d   1       4.624   1.805  -1.101  0.00  0.00     0.023 H 
ATOM     45  H   LIG d   1       3.660   0.362  -1.496  0.00  0.00     0.023 H 
ENDBRANCH  40  42
BRANCH  40  46
ATOM     46  C   LIG d   1       6.380   1.175  -3.378  0.00  0.00    -0.063 C 
ATOM     47  H   LIG d   1       6.556   1.619  -4.358  0.00  0.00     0.023 H 
ATOM     48  H   LIG d   1       6.848   1.792  -2.611  0.00  0.00     0.023 H 
ATOM     49  H   LIG d   1       6.808   0.173  -3.351  0.00  0.00     0.023 H 
ENDBRANCH  40  46
ENDBRANCH  37  40
ENDBRANCH   1  37
BRANCH  17  50
ATOM     50  O   LIG d   1       6.353  -0.404  -7.900  0.00  0.00    -0.366 OA
ATOM     51  H   LIG d   1       6.961  -0.229  -7.169  0.00  0.00     0.212 HD
ENDBRANCH  17  50
BRANCH  12  52
ATOM     52  O   LIG d   1       5.420  -8.844  -6.210  0.00  0.00    -0.491 OA
BRANCH  52  53
ATOM     53  C   LIG d   1       4.765  -9.345  -5.043  0.00  0.00     0.079 C 
ATOM     54  H   LIG d   1       4.938  -8.665  -4.210  0.00  0.00     0.066 H 
ATOM     55  H   LIG d   1       3.695  -9.423  -5.232  0.00  0.00     0.066 H 
ATOM     56  H   LIG d   1       5.162 -10.330  -4.798  0.00  0.00     0.066 H 
ENDBRANCH  52  53
ENDBRANCH  12  52
BRANCH  11  57
ATOM     57  O   LIG d   1       3.671  -8.248  -8.251  0.00  0.00    -0.491 OA
BRANCH  57  58
ATOM     58  C   LIG d   1       3.084  -7.917  -9.511  0.00  0.00     0.079 C 
ATOM     59  H   LIG d   1       2.061  -7.573  -9.357  0.00  0.00     0.066 H 
ATOM     60  H   LIG d   1       3.665  -7.126  -9.986  0.00  0.00     0.066 H 
ATOM     61  H   LIG d   1       3.079  -8.798 -10.152  0.00  0.00     0.066 H 
ENDBRANCH  57  58
ENDBRANCH  11  57
TORSDOF 9
ENDMDL
MODEL 4
REMARK VINA RESULT:      -6.6      3.995      7.022
REMARK  9 active torsions:
REMARK  status: ('A' for Active; 'I' for Inactive)
REMARK    1  A    between atoms: C_1  and  C_2 
REMARK    2  A    between atoms: C_2  and  C_3 
REMARK    3  A    between atoms: C_2  and  C_4 
REMARK    4  A    between atoms: C_4  and  C_5 
REMARK    5  A    between atoms: C_15  and  O_23 
REMARK    6  A    between atoms: C_16  and  O_21 
REMARK    7  A    between atoms: O_21  and  C_22 
REMARK    8  A    between atoms: O_23  and  C_24 
REMARK    9  A    between atoms: C_25  and  O_35 
ROOT
ATOM      1  C   LIG d   1       4.237  -0.842  -4.695  0.00  0.00     0.106 C 
ATOM      2  H   LIG d   1       3.329  -1.162  -4.182  0.00  0.00     0.060 H 
ATOM      3  C   LIG d   1       3.918  -0.465  -6.121  0.00  0.00     0.241 C 
ATOM      4  O   LIG d   1       3.420   0.620  -6.340  0.00  0.00    -0.273 OA
ATOM      5  N   LIG d   1       4.164  -1.277  -7.150  0.00  0.00    -0.262 N 
ATOM      6  C   LIG d   1       4.788  -2.594  -7.085  0.00  0.00     0.085 C 
ATOM      7  H   LIG d   1       4.118  -3.304  -7.570  0.00  0.00     0.056 H 
ATOM      8  C   LIG d   1       6.095  -2.575  -7.875  0.00  0.00    -0.003 C 
ATOM      9  C   LIG d   1       5.872  -2.005  -9.252  0.00  0.00    -0.033 A 
ATOM     10  C   LIG d   1       6.765  -2.317 -10.262  0.00  0.00    -0.012 A 
ATOM     11  C   LIG d   1       6.589  -1.803 -11.535  0.00  0.00     0.162 A 
ATOM     12  C   LIG d   1       5.510  -0.966 -11.812  0.00  0.00     0.162 A 
ATOM     13  C   LIG d   1       4.611  -0.650 -10.809  0.00  0.00    -0.007 A 
ATOM     14  C   LIG d   1       4.790  -1.172  -9.528  0.00  0.00     0.003 A 
ATOM     15  C   LIG d   1       3.815  -0.841  -8.456  0.00  0.00     0.037 C 
ATOM     16  C   LIG d   1       2.686  -0.178  -8.703  0.00  0.00    -0.076 C 
ATOM     17  C   LIG d   1       5.035  -3.086  -5.672  0.00  0.00     0.183 A 
ATOM     18  N   LIG d   1       5.196  -1.952  -4.758  0.00  0.00    -0.252 N 
ATOM     19  C   LIG d   1       6.333  -2.114  -4.067  0.00  0.00     0.250 A 
ATOM     20  O   LIG d   1       6.713  -1.392  -3.166  0.00  0.00    -0.270 OA
ATOM     21  C   LIG d   1       7.051  -3.293  -4.562  0.00  0.00     0.045 A 
ATOM     22  C   LIG d   1       6.285  -3.899  -5.569  0.00  0.00     0.016 A 
ATOM     23  C   LIG d   1       6.696  -5.038  -6.224  0.00  0.00    -0.053 A 
ATOM     24  C   LIG d   1       7.943  -5.552  -5.877  0.00  0.00    -0.061 A 
ATOM     25  C   LIG d   1       8.735  -4.950  -4.919  0.00  0.00    -0.061 A 
ATOM     26  C   LIG d   1       8.292  -3.823  -4.202  0.00  0.00    -0.049 A 
ATOM     27  H   LIG d   1       6.825  -1.965  -7.346  0.00  0.00     0.033 H 
ATOM     28  H   LIG d   1       6.475  -3.593  -7.965  0.00  0.00     0.033 H 
ATOM     29  H   LIG d   1       7.605  -2.965 -10.055  0.00  0.00     0.066 H 
ATOM     30  H   LIG d   1       3.774  -0.001 -11.016  0.00  0.00     0.066 H 
ATOM     31  H   LIG d   1       2.001   0.044  -7.898  0.00  0.00     0.055 H 
ATOM     32  H   LIG d   1       2.455   0.139  -9.710  0.00  0.00     0.055 H 
ATOM     33  H   LIG d   1       6.081  -5.512  -6.974  0.00  0.00     0.062 H 
ATOM     34  H   LIG d   1       8.301  -6.443  -6.370  0.00  0.00     0.062 H 
ATOM     35  H   LIG d   1       9.695  -5.387  -4.682  0.00  0.00     0.062 H 
ATOM     36  H   LIG d   1       8.903  -3.362  -3.438  0.00  0.00     0.062 H 
ENDROOT
BRANCH   1  37
ATOM     37  C   LIG d   1       4.860   0.348  -3.964  0.00  0.00    -0.023 C 
ATOM     38  H   LIG d   1       5.045   1.154  -4.674  0.00  0.00     0.029 H 
ATOM     39  H   LIG d   1       5.801   0.042  -3.508  0.00  0.00     0.029 H 
BRANCH  37  40
ATOM     40  C   LIG d   1       3.901   0.838  -2.876  0.00  0.00    -0.045 C 
ATOM     41  H   LIG d   1       3.466   1.791  -3.178  0.00  0.00     0.030 H 
BRANCH  40  42
ATOM     42  C   LIG d   1       2.788  -0.192  -2.677  0.00  0.00    -0.063 C 
ATOM     43  H   LIG d   1       3.215  -1.122  -2.300  0.00  0.00     0.023 H 
ATOM     44  H   LIG d   1       2.063   0.192  -1.960  0.00  0.00     0.023 H 
ATOM     45  H   LIG d   1       2.292  -0.380  -3.630  0.00  0.00     0.023 H 
ENDBRANCH  40  42
BRANCH  40  46
ATOM     46  C   LIG d   1       4.668   1.020  -1.565  0.00  0.00    -0.063 C 
ATOM     47  H   LIG d   1       5.720   1.208  -1.782  0.00  0.00     0.023 H 
ATOM     48  H   LIG d   1       4.254   1.867  -1.016  0.00  0.00     0.023 H 
ATOM     49  H   LIG d   1       4.578   0.117  -0.961  0.00  0.00     0.023 H 
ENDBRANCH  40  46
ENDBRANCH  37  40
ENDBRANCH   1  37
BRANCH  17  50
ATOM     50  O   LIG d   1       3.918  -3.859  -5.228  0.00  0.00    -0.366 OA
ATOM     51  H   LIG d   1       3.299  -4.095  -5.933  0.00  0.00     0.212 HD
ENDBRANCH  17  50
BRANCH  12  52
ATOM     52  O   LIG d   1       5.341  -0.460 -13.063  0.00  0.00    -0.491 OA
BRANCH  52  53
ATOM     53  C   LIG d   1       4.155  -0.843 -13.763  0.00  0.00     0.079 C 
ATOM     54  H   LIG d   1       4.379  -1.679 -14.425  0.00  0.00     0.066 H 
ATOM     55  H   LIG d   1       3.390  -1.141 -13.046  0.00  0.00     0.066 H 
ATOM     56  H   LIG d   1       3.792  -0.000 -14.351  0.00  0.00     0.066 H 
ENDBRANCH  52  53
ENDBRANCH  12  52
BRANCH  11  57
ATOM     57  O   LIG d   1       7.473  -2.116 -12.520  0.00  0.00    -0.491 OA
BRANCH  57  58
ATOM     58  C   LIG d   1       7.355  -3.411 -13.110  0.00  0.00     0.079 C 
ATOM     59  H   LIG d   1       6.645  -3.372 -13.937  0.00  0.00     0.066 H 
ATOM     60  H   LIG d   1       8.329  -3.731 -13.483  0.00  0.00     0.066 H 
ATOM     61  H   LIG d   1       7.002  -4.121 -12.361  0.00  0.00     0.066 H 
ENDBRANCH  57  58
ENDBRANCH  11  57
TORSDOF 9
ENDMDL
MODEL 5
REMARK VINA RESULT:      -6.4      2.858      3.296
REMARK  9 active torsions:
REMARK  status: ('A' for Active; 'I' for Inactive)
REMARK    1  A    between atoms: C_1  and  C_2 
REMARK    2  A    between atoms: C_2  and  C_3 
REMARK    3  A    between atoms: C_2  and  C_4 
REMARK    4  A    between atoms: C_4  and  C_5 
REMARK    5  A    between atoms: C_15  and  O_23 
REMARK    6  A    between atoms: C_16  and  O_21 
REMARK    7  A    between atoms: O_21  and  C_22 
REMARK    8  A    between atoms: O_23  and  C_24 
REMARK    9  A    between atoms: C_25  and  O_35 
ROOT
ATOM      1  C   LIG d   1       4.015  -0.986  -7.955  0.00  0.00     0.106 C 
ATOM      2  H   LIG d   1       3.323  -1.755  -8.299  0.00  0.00     0.060 H 
ATOM      3  C   LIG d   1       5.424  -1.338  -8.367  0.00  0.00     0.241 C 
ATOM      4  O   LIG d   1       5.767  -1.128  -9.512  0.00  0.00    -0.273 OA
ATOM      5  N   LIG d   1       6.306  -1.872  -7.521  0.00  0.00    -0.262 N 
ATOM      6  C   LIG d   1       6.087  -2.160  -6.108  0.00  0.00     0.085 C 
ATOM      7  H   LIG d   1       6.326  -3.210  -5.942  0.00  0.00     0.056 H 
ATOM      8  C   LIG d   1       7.052  -1.327  -5.266  0.00  0.00    -0.003 C 
ATOM      9  C   LIG d   1       8.463  -1.479  -5.772  0.00  0.00    -0.033 A 
ATOM     10  C   LIG d   1       9.516  -1.213  -4.916  0.00  0.00    -0.012 A 
ATOM     11  C   LIG d   1      10.824  -1.338  -5.355  0.00  0.00     0.162 A 
ATOM     12  C   LIG d   1      11.090  -1.735  -6.664  0.00  0.00     0.162 A 
ATOM     13  C   LIG d   1      10.043  -2.006  -7.526  0.00  0.00    -0.007 A 
ATOM     14  C   LIG d   1       8.728  -1.880  -7.079  0.00  0.00     0.003 A 
ATOM     15  C   LIG d   1       7.604  -2.184  -8.004  0.00  0.00     0.037 C 
ATOM     16  C   LIG d   1       7.803  -2.716  -9.211  0.00  0.00    -0.076 C 
ATOM     17  C   LIG d   1       4.659  -1.934  -5.650  0.00  0.00     0.183 A 
ATOM     18  N   LIG d   1       4.010  -0.922  -6.489  0.00  0.00    -0.252 N 
ATOM     19  C   LIG d   1       3.477   0.017  -5.695  0.00  0.00     0.250 A 
ATOM     20  O   LIG d   1       2.793   0.947  -6.074  0.00  0.00    -0.270 OA
ATOM     21  C   LIG d   1       3.841  -0.247  -4.299  0.00  0.00     0.045 A 
ATOM     22  C   LIG d   1       4.592  -1.432  -4.245  0.00  0.00     0.016 A 
ATOM     23  C   LIG d   1       5.074  -1.945  -3.062  0.00  0.00    -0.053 A 
ATOM     24  C   LIG d   1       4.825  -1.210  -1.905  0.00  0.00    -0.061 A 
ATOM     25  C   LIG d   1       4.125  -0.020  -1.937  0.00  0.00    -0.061 A 
ATOM     26  C   LIG d   1       3.575   0.476  -3.134  0.00  0.00    -0.049 A 
ATOM     27  H   LIG d   1       6.761  -0.278  -5.319  0.00  0.00     0.033 H 
ATOM     28  H   LIG d   1       7.004  -1.661  -4.229  0.00  0.00     0.033 H 
ATOM     29  H   LIG d   1       9.318  -0.904  -3.899  0.00  0.00     0.066 H 
ATOM     30  H   LIG d   1      10.243  -2.312  -8.541  0.00  0.00     0.066 H 
ATOM     31  H   LIG d   1       6.961  -2.924  -9.855  0.00  0.00     0.055 H 
ATOM     32  H   LIG d   1       8.806  -2.940  -9.544  0.00  0.00     0.055 H 
ATOM     33  H   LIG d   1       5.622  -2.875  -3.031  0.00  0.00     0.062 H 
ATOM     34  H   LIG d   1       5.189  -1.580  -0.958  0.00  0.00     0.062 H 
ATOM     35  H   LIG d   1       3.954   0.513  -1.013  0.00  0.00     0.062 H 
ATOM     36  H   LIG d   1       3.011   1.398  -3.158  0.00  0.00     0.062 H 
ENDROOT
BRANCH   1  37
ATOM     37  C   LIG d   1       3.622   0.372  -8.540  0.00  0.00    -0.023 C 
ATOM     38  H   LIG d   1       4.495   0.838  -8.996  0.00  0.00     0.029 H 
ATOM     39  H   LIG d   1       3.240   1.013  -7.745  0.00  0.00     0.029 H 
BRANCH  37  40
ATOM     40  C   LIG d   1       2.537   0.175  -9.602  0.00  0.00    -0.045 C 
ATOM     41  H   LIG d   1       1.769   0.939  -9.482  0.00  0.00     0.030 H 
BRANCH  40  42
ATOM     42  C   LIG d   1       3.160   0.290 -10.994  0.00  0.00    -0.063 C 
ATOM     43  H   LIG d   1       3.536   1.302 -11.142  0.00  0.00     0.023 H 
ATOM     44  H   LIG d   1       3.981  -0.420 -11.084  0.00  0.00     0.023 H 
ATOM     45  H   LIG d   1       2.404   0.069 -11.749  0.00  0.00     0.023 H 
ENDBRANCH  40  42
BRANCH  40  46
ATOM     46  C   LIG d   1       1.907  -1.210  -9.437  0.00  0.00    -0.063 C 
ATOM     47  H   LIG d   1       2.409  -1.744  -8.629  0.00  0.00     0.023 H 
ATOM     48  H   LIG d   1       0.849  -1.102  -9.198  0.00  0.00     0.023 H 
ATOM     49  H   LIG d   1       2.016  -1.772 -10.365  0.00  0.00     0.023 H 
ENDBRANCH  40  46
ENDBRANCH  37  40
ENDBRANCH   1  37
BRANCH  17  50
ATOM     50  O   LIG d   1       3.918  -3.150  -5.765  0.00  0.00    -0.366 OA
ATOM     51  H   LIG d   1       4.063  -3.621  -6.598  0.00  0.00     0.212 HD
ENDBRANCH  17  50
BRANCH  12  52
ATOM     52  O   LIG d   1      12.375  -1.855  -7.092  0.00  0.00    -0.491 OA
BRANCH  52  53
ATOM     53  C   LIG d   1      12.864  -0.839  -7.971  0.00  0.00     0.079 C 
ATOM     54  H   LIG d   1      13.532  -0.176  -7.423  0.00  0.00     0.066 H 
ATOM     55  H   LIG d   1      13.406  -1.301  -8.795  0.00  0.00     0.066 H 
ATOM     56  H   LIG d   1      12.024  -0.266  -8.365  0.00  0.00     0.066 H 
ENDBRANCH  52  53
ENDBRANCH  12  52
BRANCH  11  57
ATOM     57  O   LIG d   1      11.852  -1.073  -4.505  0.00  0.00    -0.491 OA
BRANCH  57  58
ATOM     58  C   LIG d   1      12.168   0.301  -4.278  0.00  0.00     0.079 C 
ATOM     59  H   LIG d   1      11.318   0.922  -4.562  0.00  0.00     0.066 H 
ATOM     60  H   LIG d   1      12.391   0.453  -3.221  0.00  0.00     0.066 H 
ATOM     61  H   LIG d   1      13.037   0.578  -4.875  0.00  0.00     0.066 H 
ENDBRANCH  57  58
ENDBRANCH  11  57
TORSDOF 9
ENDMDL
MODEL 6
REMARK VINA RESULT:      -6.3      7.786     11.593
REMARK  9 active torsions:
REMARK  status: ('A' for Active; 'I' for Inactive)
REMARK    1  A    between atoms: C_1  and  C_2 
REMARK    2  A    between atoms: C_2  and  C_3 
REMARK    3  A    between atoms: C_2  and  C_4 
REMARK    4  A    between atoms: C_4  and  C_5 
REMARK    5  A    between atoms: C_15  and  O_23 
REMARK    6  A    between atoms: C_16  and  O_21 
REMARK    7  A    between atoms: O_21  and  C_22 
REMARK    8  A    between atoms: O_23  and  C_24 
REMARK    9  A    between atoms: C_25  and  O_35 
ROOT
ATOM      1  C   LIG d   1      10.677   9.962  -0.081  0.00  0.00     0.106 C 
ATOM      2  H   LIG d   1       9.918  10.044   0.698  0.00  0.00     0.060 H 
ATOM      3  C   LIG d   1      10.344  10.888  -1.225  0.00  0.00     0.241 C 
ATOM      4  O   LIG d   1      10.597  12.069  -1.112  0.00  0.00    -0.273 OA
ATOM      5  N   LIG d   1       9.784  10.457  -2.357  0.00  0.00    -0.262 N 
ATOM      6  C   LIG d   1       9.446   9.077  -2.686  0.00  0.00     0.085 C 
ATOM      7  H   LIG d   1       8.391   9.050  -2.959  0.00  0.00     0.056 H 
ATOM      8  C   LIG d   1      10.252   8.634  -3.905  0.00  0.00    -0.003 C 
ATOM      9  C   LIG d   1      10.123   9.641  -5.019  0.00  0.00    -0.033 A 
ATOM     10  C   LIG d   1      10.363   9.238  -6.320  0.00  0.00    -0.012 A 
ATOM     11  C   LIG d   1      10.258  10.143  -7.363  0.00  0.00     0.162 A 
ATOM     12  C   LIG d   1       9.909  11.468  -7.111  0.00  0.00     0.162 A 
ATOM     13  C   LIG d   1       9.665  11.879  -5.813  0.00  0.00    -0.007 A 
ATOM     14  C   LIG d   1       9.770  10.964  -4.766  0.00  0.00     0.003 A 
ATOM     15  C   LIG d   1       9.494  11.406  -3.373  0.00  0.00     0.037 C 
ATOM     16  C   LIG d   1       9.006  12.615  -3.095  0.00  0.00    -0.076 C 
ATOM     17  C   LIG d   1       9.650   8.106  -1.539  0.00  0.00     0.183 A 
ATOM     18  N   LIG d   1      10.688   8.601  -0.631  0.00  0.00    -0.252 N 
ATOM     19  C   LIG d   1      11.597   7.633  -0.447  0.00  0.00     0.250 A 
ATOM     20  O   LIG d   1      12.538   7.693   0.320  0.00  0.00    -0.270 OA
ATOM     21  C   LIG d   1      11.285   6.489  -1.309  0.00  0.00     0.045 A 
ATOM     22  C   LIG d   1      10.102   6.762  -2.013  0.00  0.00     0.016 A 
ATOM     23  C   LIG d   1       9.549   5.868  -2.901  0.00  0.00    -0.053 A 
ATOM     24  C   LIG d   1      10.241   4.678  -3.115  0.00  0.00    -0.061 A 
ATOM     25  C   LIG d   1      11.429   4.403  -2.467  0.00  0.00    -0.061 A 
ATOM     26  C   LIG d   1      11.965   5.286  -1.510  0.00  0.00    -0.049 A 
ATOM     27  H   LIG d   1      11.301   8.537  -3.626  0.00  0.00     0.033 H 
ATOM     28  H   LIG d   1       9.881   7.668  -4.249  0.00  0.00     0.033 H 
ATOM     29  H   LIG d   1      10.635   8.212  -6.524  0.00  0.00     0.066 H 
ATOM     30  H   LIG d   1       9.396  12.904  -5.611  0.00  0.00     0.066 H 
ATOM     31  H   LIG d   1       8.818  12.900  -2.071  0.00  0.00     0.055 H 
ATOM     32  H   LIG d   1       8.798  13.310  -3.895  0.00  0.00     0.055 H 
ATOM     33  H   LIG d   1       8.621   6.079  -3.411  0.00  0.00     0.062 H 
ATOM     34  H   LIG d   1       9.839   3.953  -3.806  0.00  0.00     0.062 H 
ATOM     35  H   LIG d   1      11.929   3.466  -2.663  0.00  0.00     0.062 H 
ATOM     36  H   LIG d   1      12.885   5.063  -0.989  0.00  0.00     0.062 H 
ENDROOT
BRANCH   1  37
ATOM     37  C   LIG d   1      12.053  10.308   0.491  0.00  0.00    -0.023 C 
ATOM     38  H   LIG d   1      12.554  11.015  -0.170  0.00  0.00     0.029 H 
ATOM     39  H   LIG d   1      12.651   9.400   0.573  0.00  0.00     0.029 H 
BRANCH  37  40
ATOM     40  C   LIG d   1      11.886  10.936   1.877  0.00  0.00    -0.045 C 
ATOM     41  H   LIG d   1      10.829  11.124   2.066  0.00  0.00     0.030 H 
BRANCH  40  42
ATOM     42  C   LIG d   1      12.433   9.980   2.939  0.00  0.00    -0.063 C 
ATOM     43  H   LIG d   1      12.697  10.544   3.834  0.00  0.00     0.023 H 
ATOM     44  H   LIG d   1      11.673   9.240   3.186  0.00  0.00     0.023 H 
ATOM     45  H   LIG d   1      13.319   9.476   2.552  0.00  0.00     0.023 H 
ENDBRANCH  40  42
BRANCH  40  46
ATOM     46  C   LIG d   1      12.656  12.257   1.934  0.00  0.00    -0.063 C 
ATOM     47  H   LIG d   1      11.990  13.078   1.667  0.00  0.00     0.023 H 
ATOM     48  H   LIG d   1      13.037  12.412   2.944  0.00  0.00     0.023 H 
ATOM     49  H   LIG d   1      13.490  12.223   1.233  0.00  0.00     0.023 H 
ENDBRANCH  40  46
ENDBRANCH  37  40
ENDBRANCH   1  37
BRANCH  17  50
ATOM     50  O   LIG d   1       8.436   7.973  -0.797  0.00  0.00    -0.366 OA
ATOM     51  H   LIG d   1       8.232   8.737  -0.240  0.00  0.00     0.212 HD
ENDBRANCH  17  50
BRANCH  12  52
ATOM     52  O   LIG d   1       9.809  12.355  -8.138  0.00  0.00    -0.491 OA
BRANCH  52  53
ATOM     53  C   LIG d   1       9.822  13.743  -7.799  0.00  0.00     0.079 C 
ATOM     54  H   LIG d   1       9.731  14.339  -8.706  0.00  0.00     0.066 H 
ATOM     55  H   LIG d   1       8.987  13.963  -7.134  0.00  0.00     0.066 H 
ATOM     56  H   LIG d   1      10.759  13.985  -7.297  0.00  0.00     0.066 H 
ENDBRANCH  52  53
ENDBRANCH  12  52
BRANCH  11  57
ATOM     57  O   LIG d   1      10.496   9.736  -8.639  0.00  0.00    -0.491 OA
BRANCH  57  58
ATOM     58  C   LIG d   1      10.078   8.415  -8.988  0.00  0.00     0.079 C 
ATOM     59  H   LIG d   1      10.583   7.693  -8.347  0.00  0.00     0.066 H 
ATOM     60  H   LIG d   1       9.000   8.329  -8.855  0.00  0.00     0.066 H 
ATOM     61  H   LIG d   1      10.332   8.218 -10.030  0.00  0.00     0.066 H 
ENDBRANCH  57  58
ENDBRANCH  11  57
TORSDOF 9
ENDMDL
MODEL 7
REMARK VINA RESULT:      -6.0      5.325      8.111
REMARK  9 active torsions:
REMARK  status: ('A' for Active; 'I' for Inactive)
REMARK    1  A    between atoms: C_1  and  C_2 
REMARK    2  A    between atoms: C_2  and  C_3 
REMARK    3  A    between atoms: C_2  and  C_4 
REMARK    4  A    between atoms: C_4  and  C_5 
REMARK    5  A    between atoms: C_15  and  O_23 
REMARK    6  A    between atoms: C_16  and  O_21 
REMARK    7  A    between atoms: O_21  and  C_22 
REMARK    8  A    between atoms: O_23  and  C_24 
REMARK    9  A    between atoms: C_25  and  O_35 
ROOT
ATOM      1  C   LIG d   1       2.905  -2.702 -12.680  0.00  0.00     0.106 C 
ATOM      2  H   LIG d   1       1.961  -2.757 -13.221  0.00  0.00     0.060 H 
ATOM      3  C   LIG d   1       3.022  -3.864 -11.724  0.00  0.00     0.241 C 
ATOM      4  O   LIG d   1       3.343  -4.949 -12.161  0.00  0.00    -0.273 OA
ATOM      5  N   LIG d   1       2.786  -3.744 -10.416  0.00  0.00    -0.262 N 
ATOM      6  C   LIG d   1       2.427  -2.520  -9.709  0.00  0.00     0.085 C 
ATOM      7  H   LIG d   1       1.505  -2.710  -9.161  0.00  0.00     0.056 H 
ATOM      8  C   LIG d   1       3.513  -2.188  -8.687  0.00  0.00    -0.003 C 
ATOM      9  C   LIG d   1       3.822  -3.391  -7.834  0.00  0.00    -0.033 A 
ATOM     10  C   LIG d   1       4.398  -3.204  -6.591  0.00  0.00    -0.012 A 
ATOM     11  C   LIG d   1       4.698  -4.291  -5.787  0.00  0.00     0.162 A 
ATOM     12  C   LIG d   1       4.420  -5.585  -6.224  0.00  0.00     0.162 A 
ATOM     13  C   LIG d   1       3.842  -5.781  -7.465  0.00  0.00    -0.007 A 
ATOM     14  C   LIG d   1       3.539  -4.684  -8.270  0.00  0.00     0.003 A 
ATOM     15  C   LIG d   1       2.906  -4.898  -9.598  0.00  0.00     0.037 C 
ATOM     16  C   LIG d   1       2.477  -6.096  -9.994  0.00  0.00    -0.076 C 
ATOM     17  C   LIG d   1       2.185  -1.333 -10.622  0.00  0.00     0.183 A 
ATOM     18  N   LIG d   1       2.948  -1.482 -11.864  0.00  0.00    -0.252 N 
ATOM     19  C   LIG d   1       3.661  -0.365 -12.068  0.00  0.00     0.250 A 
ATOM     20  O   LIG d   1       4.332  -0.134 -13.055  0.00  0.00    -0.270 OA
ATOM     21  C   LIG d   1       3.511   0.536 -10.921  0.00  0.00     0.045 A 
ATOM     22  C   LIG d   1       2.624  -0.046 -10.002  0.00  0.00     0.016 A 
ATOM     23  C   LIG d   1       2.277   0.570  -8.821  0.00  0.00    -0.053 A 
ATOM     24  C   LIG d   1       2.882   1.793  -8.543  0.00  0.00    -0.061 A 
ATOM     25  C   LIG d   1       3.790   2.367  -9.411  0.00  0.00    -0.061 A 
ATOM     26  C   LIG d   1       4.100   1.773 -10.649  0.00  0.00    -0.049 A 
ATOM     27  H   LIG d   1       4.417  -1.878  -9.212  0.00  0.00     0.033 H 
ATOM     28  H   LIG d   1       3.170  -1.373  -8.050  0.00  0.00     0.033 H 
ATOM     29  H   LIG d   1       4.617  -2.203  -6.245  0.00  0.00     0.066 H 
ATOM     30  H   LIG d   1       3.626  -6.781  -7.809  0.00  0.00     0.066 H 
ATOM     31  H   LIG d   1       2.021  -6.213 -10.966  0.00  0.00     0.055 H 
ATOM     32  H   LIG d   1       2.586  -6.951  -9.344  0.00  0.00     0.055 H 
ATOM     33  H   LIG d   1       1.568   0.124  -8.139  0.00  0.00     0.062 H 
ATOM     34  H   LIG d   1       2.636   2.305  -7.625  0.00  0.00     0.062 H 
ATOM     35  H   LIG d   1       4.232   3.319  -9.154  0.00  0.00     0.062 H 
ATOM     36  H   LIG d   1       4.796   2.231 -11.337  0.00  0.00     0.062 H 
ENDROOT
BRANCH   1  37
ATOM     37  C   LIG d   1       4.075  -2.714 -13.665  0.00  0.00    -0.023 C 
ATOM     38  H   LIG d   1       4.746  -3.538 -13.422  0.00  0.00     0.029 H 
ATOM     39  H   LIG d   1       4.617  -1.771 -13.598  0.00  0.00     0.029 H 
BRANCH  37  40
ATOM     40  C   LIG d   1       3.541  -2.895 -15.088  0.00  0.00    -0.045 C 
ATOM     41  H   LIG d   1       3.613  -3.946 -15.372  0.00  0.00     0.030 H 
BRANCH  40  42
ATOM     42  C   LIG d   1       2.079  -2.449 -15.145  0.00  0.00    -0.063 C 
ATOM     43  H   LIG d   1       1.976  -1.480 -14.655  0.00  0.00     0.023 H 
ATOM     44  H   LIG d   1       1.765  -2.367 -16.185  0.00  0.00     0.023 H 
ATOM     45  H   LIG d   1       1.456  -3.183 -14.634  0.00  0.00     0.023 H 
ENDBRANCH  40  42
BRANCH  40  46
ATOM     46  C   LIG d   1       4.371  -2.049 -16.056  0.00  0.00    -0.063 C 
ATOM     47  H   LIG d   1       4.174  -2.369 -17.079  0.00  0.00     0.023 H 
ATOM     48  H   LIG d   1       4.100  -0.998 -15.945  0.00  0.00     0.023 H 
ATOM     49  H   LIG d   1       5.431  -2.176 -15.834  0.00  0.00     0.023 H 
ENDBRANCH  40  46
ENDBRANCH  37  40
ENDBRANCH   1  37
BRANCH  17  50
ATOM     50  O   LIG d   1       0.798  -1.259 -10.958  0.00  0.00    -0.366 OA
ATOM     51  H   LIG d   1       0.329  -0.529 -10.530  0.00  0.00     0.212 HD
ENDBRANCH  17  50
BRANCH  12  52
ATOM     52  O   LIG d   1       4.718  -6.651  -5.433  0.00  0.00    -0.491 OA
BRANCH  52  53
ATOM     53  C   LIG d   1       4.913  -7.907  -6.085  0.00  0.00     0.079 C 
ATOM     54  H   LIG d   1       5.962  -8.195  -6.012  0.00  0.00     0.066 H 
ATOM     55  H   LIG d   1       4.294  -8.666  -5.606  0.00  0.00     0.066 H 
ATOM     56  H   LIG d   1       4.632  -7.819  -7.135  0.00  0.00     0.066 H 
ENDBRANCH  52  53
ENDBRANCH  12  52
BRANCH  11  57
ATOM     57  O   LIG d   1       5.265  -4.095  -4.567  0.00  0.00    -0.491 OA
BRANCH  57  58
ATOM     58  C   LIG d   1       5.050  -2.826  -3.947  0.00  0.00     0.079 C 
ATOM     59  H   LIG d   1       3.981  -2.661  -3.818  0.00  0.00     0.066 H 
ATOM     60  H   LIG d   1       5.541  -2.809  -2.974  0.00  0.00     0.066 H 
ATOM     61  H   LIG d   1       5.466  -2.040  -4.577  0.00  0.00     0.066 H 
ENDBRANCH  57  58
ENDBRANCH  11  57
TORSDOF 9
ENDMDL
MODEL 8
REMARK VINA RESULT:      -6.0      5.461      7.913
REMARK  9 active torsions:
REMARK  status: ('A' for Active; 'I' for Inactive)
REMARK    1  A    between atoms: C_1  and  C_2 
REMARK    2  A    between atoms: C_2  and  C_3 
REMARK    3  A    between atoms: C_2  and  C_4 
REMARK    4  A    between atoms: C_4  and  C_5 
REMARK    5  A    between atoms: C_15  and  O_23 
REMARK    6  A    between atoms: C_16  and  O_21 
REMARK    7  A    between atoms: O_21  and  C_22 
REMARK    8  A    between atoms: O_23  and  C_24 
REMARK    9  A    between atoms: C_25  and  O_35 
ROOT
ATOM      1  C   LIG d   1       5.925  -7.711  -5.853  0.00  0.00     0.106 C 
ATOM      2  H   LIG d   1       6.124  -8.216  -6.799  0.00  0.00     0.060 H 
ATOM      3  C   LIG d   1       5.197  -6.413  -6.104  0.00  0.00     0.241 C 
ATOM      4  O   LIG d   1       4.005  -6.446  -6.331  0.00  0.00    -0.273 OA
ATOM      5  N   LIG d   1       5.814  -5.230  -6.086  0.00  0.00    -0.262 N 
ATOM      6  C   LIG d   1       7.223  -4.992  -5.797  0.00  0.00     0.085 C 
ATOM      7  H   LIG d   1       7.642  -4.427  -6.629  0.00  0.00     0.056 H 
ATOM      8  C   LIG d   1       7.345  -4.128  -4.543  0.00  0.00    -0.003 C 
ATOM      9  C   LIG d   1       6.466  -2.909  -4.653  0.00  0.00    -0.033 A 
ATOM     10  C   LIG d   1       6.761  -1.797  -3.886  0.00  0.00    -0.012 A 
ATOM     11  C   LIG d   1       5.968  -0.664  -3.962  0.00  0.00     0.162 A 
ATOM     12  C   LIG d   1       4.866  -0.634  -4.813  0.00  0.00     0.162 A 
ATOM     13  C   LIG d   1       4.565  -1.742  -5.585  0.00  0.00    -0.007 A 
ATOM     14  C   LIG d   1       5.367  -2.879  -5.508  0.00  0.00     0.003 A 
ATOM     15  C   LIG d   1       5.048  -4.063  -6.349  0.00  0.00     0.037 C 
ATOM     16  C   LIG d   1       4.105  -4.031  -7.290  0.00  0.00    -0.076 C 
ATOM     17  C   LIG d   1       8.040  -6.260  -5.643  0.00  0.00     0.183 A 
ATOM     18  N   LIG d   1       7.188  -7.364  -5.192  0.00  0.00    -0.252 N 
ATOM     19  C   LIG d   1       7.748  -7.926  -4.112  0.00  0.00     0.250 A 
ATOM     20  O   LIG d   1       7.337  -8.922  -3.549  0.00  0.00    -0.270 OA
ATOM     21  C   LIG d   1       8.933  -7.160  -3.712  0.00  0.00     0.045 A 
ATOM     22  C   LIG d   1       9.124  -6.112  -4.625  0.00  0.00     0.016 A 
ATOM     23  C   LIG d   1      10.166  -5.220  -4.516  0.00  0.00    -0.053 A 
ATOM     24  C   LIG d   1      11.015  -5.370  -3.422  0.00  0.00    -0.061 A 
ATOM     25  C   LIG d   1      10.825  -6.367  -2.486  0.00  0.00    -0.061 A 
ATOM     26  C   LIG d   1       9.799  -7.320  -2.627  0.00  0.00    -0.049 A 
ATOM     27  H   LIG d   1       7.043  -4.713  -3.674  0.00  0.00     0.033 H 
ATOM     28  H   LIG d   1       8.382  -3.815  -4.422  0.00  0.00     0.033 H 
ATOM     29  H   LIG d   1       7.615  -1.812  -3.222  0.00  0.00     0.066 H 
ATOM     30  H   LIG d   1       3.711  -1.725  -6.246  0.00  0.00     0.066 H 
ATOM     31  H   LIG d   1       3.902  -4.911  -7.882  0.00  0.00     0.055 H 
ATOM     32  H   LIG d   1       3.543  -3.125  -7.461  0.00  0.00     0.055 H 
ATOM     33  H   LIG d   1      10.319  -4.438  -5.245  0.00  0.00     0.062 H 
ATOM     34  H   LIG d   1      11.844  -4.687  -3.302  0.00  0.00     0.062 H 
ATOM     35  H   LIG d   1      11.512  -6.445  -1.656  0.00  0.00     0.062 H 
ATOM     36  H   LIG d   1       9.661  -8.113  -1.906  0.00  0.00     0.062 H 
ENDROOT
BRANCH   1  37
ATOM     37  C   LIG d   1       5.088  -8.613  -4.944  0.00  0.00    -0.023 C 
ATOM     38  H   LIG d   1       4.199  -8.075  -4.617  0.00  0.00     0.029 H 
ATOM     39  H   LIG d   1       5.679  -8.902  -4.075  0.00  0.00     0.029 H 
BRANCH  37  40
ATOM     40  C   LIG d   1       4.670  -9.867  -5.716  0.00  0.00    -0.045 C 
ATOM     41  H   LIG d   1       3.833  -9.627  -6.372  0.00  0.00     0.030 H 
BRANCH  40  42
ATOM     42  C   LIG d   1       5.848 -10.368  -6.553  0.00  0.00    -0.063 C 
ATOM     43  H   LIG d   1       5.871  -9.835  -7.504  0.00  0.00     0.023 H 
ATOM     44  H   LIG d   1       6.778 -10.190  -6.014  0.00  0.00     0.023 H 
ATOM     45  H   LIG d   1       5.733 -11.436  -6.738  0.00  0.00     0.023 H 
ENDBRANCH  40  42
BRANCH  40  46
ATOM     46  C   LIG d   1       4.246 -10.956  -4.728  0.00  0.00    -0.063 C 
ATOM     47  H   LIG d   1       3.343 -11.447  -5.094  0.00  0.00     0.023 H 
ATOM     48  H   LIG d   1       5.045 -11.691  -4.632  0.00  0.00     0.023 H 
ATOM     49  H   LIG d   1       4.045 -10.507  -3.756  0.00  0.00     0.023 H 
ENDBRANCH  40  46
ENDBRANCH  37  40
ENDBRANCH   1  37
BRANCH  17  50
ATOM     50  O   LIG d   1       8.608  -6.623  -6.903  0.00  0.00    -0.366 OA
ATOM     51  H   LIG d   1       8.140  -6.255  -7.665  0.00  0.00     0.212 HD
ENDBRANCH  17  50
BRANCH  12  52
ATOM     52  O   LIG d   1       4.088   0.479  -4.884  0.00  0.00    -0.491 OA
BRANCH  52  53
ATOM     53  C   LIG d   1       2.710   0.331  -4.534  0.00  0.00     0.079 C 
ATOM     54  H   LIG d   1       2.186  -0.191  -5.334  0.00  0.00     0.066 H 
ATOM     55  H   LIG d   1       2.629  -0.243  -3.611  0.00  0.00     0.066 H 
ATOM     56  H   LIG d   1       2.264   1.315  -4.388  0.00  0.00     0.066 H 
ENDBRANCH  52  53
ENDBRANCH  12  52
BRANCH  11  57
ATOM     57  O   LIG d   1       6.267   0.424  -3.202  0.00  0.00    -0.491 OA
BRANCH  57  58
ATOM     58  C   LIG d   1       7.293   1.292  -3.687  0.00  0.00     0.079 C 
ATOM     59  H   LIG d   1       8.145   1.263  -3.009  0.00  0.00     0.066 H 
ATOM     60  H   LIG d   1       7.607   0.965  -4.679  0.00  0.00     0.066 H 
ATOM     61  H   LIG d   1       6.909   2.311  -3.746  0.00  0.00     0.066 H 
ENDBRANCH  57  58
ENDBRANCH  11  57
TORSDOF 9
ENDMDL
MODEL 9
REMARK VINA RESULT:      -5.9      2.353      4.926
REMARK  9 active torsions:
REMARK  status: ('A' for Active; 'I' for Inactive)
REMARK    1  A    between atoms: C_1  and  C_2 
REMARK    2  A    between atoms: C_2  and  C_3 
REMARK    3  A    between atoms: C_2  and  C_4 
REMARK    4  A    between atoms: C_4  and  C_5 
REMARK    5  A    between atoms: C_15  and  O_23 
REMARK    6  A    between atoms: C_16  and  O_21 
REMARK    7  A    between atoms: O_21  and  C_22 
REMARK    8  A    between atoms: O_23  and  C_24 
REMARK    9  A    between atoms: C_25  and  O_35 
ROOT
ATOM      1  C   LIG d   1       4.510  -3.096  -6.641  0.00  0.00     0.106 C 
ATOM      2  H   LIG d   1       3.599  -3.307  -6.079  0.00  0.00     0.060 H 
ATOM      3  C   LIG d   1       5.568  -2.541  -5.720  0.00  0.00     0.241 C 
ATOM      4  O   LIG d   1       6.189  -3.309  -5.014  0.00  0.00    -0.273 OA
ATOM      5  N   LIG d   1       5.849  -1.239  -5.652  0.00  0.00    -0.262 N 
ATOM      6  C   LIG d   1       5.237  -0.178  -6.444  0.00  0.00     0.085 C 
ATOM      7  H   LIG d   1       4.847   0.569  -5.754  0.00  0.00     0.056 H 
ATOM      8  C   LIG d   1       6.307   0.496  -7.301  0.00  0.00    -0.003 C 
ATOM      9  C   LIG d   1       7.492   0.886  -6.457  0.00  0.00    -0.033 A 
ATOM     10  C   LIG d   1       8.334   1.889  -6.903  0.00  0.00    -0.012 A 
ATOM     11  C   LIG d   1       9.435   2.266  -6.150  0.00  0.00     0.162 A 
ATOM     12  C   LIG d   1       9.703   1.637  -4.936  0.00  0.00     0.162 A 
ATOM     13  C   LIG d   1       8.865   0.635  -4.482  0.00  0.00    -0.007 A 
ATOM     14  C   LIG d   1       7.757   0.260  -5.241  0.00  0.00     0.003 A 
ATOM     15  C   LIG d   1       6.852  -0.808  -4.743  0.00  0.00     0.037 C 
ATOM     16  C   LIG d   1       6.972  -1.329  -3.522  0.00  0.00    -0.076 C 
ATOM     17  C   LIG d   1       4.087  -0.648  -7.314  0.00  0.00     0.183 A 
ATOM     18  N   LIG d   1       4.249  -2.065  -7.652  0.00  0.00    -0.252 N 
ATOM     19  C   LIG d   1       4.148  -2.204  -8.982  0.00  0.00     0.250 A 
ATOM     20  O   LIG d   1       4.150  -3.264  -9.576  0.00  0.00    -0.270 OA
ATOM     21  C   LIG d   1       4.035  -0.884  -9.612  0.00  0.00     0.045 A 
ATOM     22  C   LIG d   1       4.018   0.096  -8.608  0.00  0.00     0.016 A 
ATOM     23  C   LIG d   1       3.912   1.439  -8.891  0.00  0.00    -0.053 A 
ATOM     24  C   LIG d   1       3.866   1.801 -10.235  0.00  0.00    -0.061 A 
ATOM     25  C   LIG d   1       3.923   0.859 -11.243  0.00  0.00    -0.061 A 
ATOM     26  C   LIG d   1       3.967  -0.519 -10.958  0.00  0.00    -0.049 A 
ATOM     27  H   LIG d   1       6.631  -0.195  -8.079  0.00  0.00     0.033 H 
ATOM     28  H   LIG d   1       5.887   1.388  -7.765  0.00  0.00     0.033 H 
ATOM     29  H   LIG d   1       8.133   2.381  -7.844  0.00  0.00     0.066 H 
ATOM     30  H   LIG d   1       9.069   0.143  -3.543  0.00  0.00     0.066 H 
ATOM     31  H   LIG d   1       6.295  -2.104  -3.195  0.00  0.00     0.055 H 
ATOM     32  H   LIG d   1       7.749  -0.976  -2.859  0.00  0.00     0.055 H 
ATOM     33  H   LIG d   1       3.868   2.180  -8.106  0.00  0.00     0.062 H 
ATOM     34  H   LIG d   1       3.785   2.845 -10.496  0.00  0.00     0.062 H 
ATOM     35  H   LIG d   1       3.881   1.187 -12.271  0.00  0.00     0.062 H 
ATOM     36  H   LIG d   1       3.992  -1.259 -11.746  0.00  0.00     0.062 H 
ENDROOT
BRANCH   1  37
ATOM     37  C   LIG d   1       5.017  -4.373  -7.314  0.00  0.00    -0.023 C 
ATOM     38  H   LIG d   1       6.037  -4.576  -6.987  0.00  0.00     0.029 H 
ATOM     39  H   LIG d   1       5.001  -4.244  -8.396  0.00  0.00     0.029 H 
BRANCH  37  40
ATOM     40  C   LIG d   1       4.115  -5.547  -6.927  0.00  0.00    -0.045 C 
ATOM     41  H   LIG d   1       3.127  -5.172  -6.656  0.00  0.00     0.030 H 
BRANCH  40  42
ATOM     42  C   LIG d   1       3.989  -6.506  -8.111  0.00  0.00    -0.063 C 
ATOM     43  H   LIG d   1       3.091  -7.113  -7.995  0.00  0.00     0.023 H 
ATOM     44  H   LIG d   1       3.925  -5.935  -9.037  0.00  0.00     0.023 H 
ATOM     45  H   LIG d   1       4.864  -7.156  -8.146  0.00  0.00     0.023 H 
ENDBRANCH  40  42
BRANCH  40  46
ATOM     46  C   LIG d   1       4.724  -6.286  -5.733  0.00  0.00    -0.063 C 
ATOM     47  H   LIG d   1       5.644  -6.783  -6.044  0.00  0.00     0.023 H 
ATOM     48  H   LIG d   1       4.947  -5.573  -4.939  0.00  0.00     0.023 H 
ATOM     49  H   LIG d   1       4.017  -7.030  -5.367  0.00  0.00     0.023 H 
ENDBRANCH  40  46
ENDBRANCH  37  40
ENDBRANCH   1  37
BRANCH  17  50
ATOM     50  O   LIG d   1       2.855  -0.499  -6.605  0.00  0.00    -0.366 OA
ATOM     51  H   LIG d   1       2.487   0.395  -6.641  0.00  0.00     0.212 HD
ENDBRANCH  17  50
BRANCH  12  52
ATOM     52  O   LIG d   1      10.786   2.007  -4.201  0.00  0.00    -0.491 OA
BRANCH  52  53
ATOM     53  C   LIG d   1      10.535   2.745  -3.003  0.00  0.00     0.079 C 
ATOM     54  H   LIG d   1       9.944   3.629  -3.239  0.00  0.00     0.066 H 
ATOM     55  H   LIG d   1       9.988   2.120  -2.298  0.00  0.00     0.066 H 
ATOM     56  H   LIG d   1      11.483   3.049  -2.558  0.00  0.00     0.066 H 
ENDBRANCH  52  53
ENDBRANCH  12  52
BRANCH  11  57
ATOM     57  O   LIG d   1      10.256   3.252  -6.599  0.00  0.00    -0.491 OA
BRANCH  57  58
ATOM     58  C   LIG d   1       9.857   4.599  -6.334  0.00  0.00     0.079 C 
ATOM     59  H   LIG d   1      10.644   5.281  -6.656  0.00  0.00     0.066 H 
ATOM     60  H   LIG d   1       8.939   4.819  -6.878  0.00  0.00     0.066 H 
ATOM     61  H   LIG d   1       9.684   4.722  -5.265  0.00  0.00     0.066 H 
ENDBRANCH  57  58
ENDBRANCH  11  57
TORSDOF 9
ENDMDL
