MODEL 1
REMARK VINA RESULT:      -7.2      0.000      0.000
REMARK  5 active torsions:
REMARK  status: ('A' for Active; 'I' for Inactive)
REMARK    1  A    between atoms: C_1  and  C_2 
REMARK    2  A    between atoms: C_6  and  N_8 
REMARK       I    between atoms: N_8  and  C_9 
REMARK    3  A    between atoms: C_9  and  C_11 
REMARK    4  A    between atoms: C_11  and  C_12 
REMARK    5  A    between atoms: C_11  and  C_16 
ROOT
ATOM      1  C   LIG d   1       3.100  -0.342  -9.220  0.00  0.00    -0.049 A 
ATOM      2  C   LIG d   1       3.088   0.987  -9.603  0.00  0.00    -0.059 A 
ATOM      3  C   LIG d   1       2.913   1.980  -8.657  0.00  0.00    -0.060 A 
ATOM      4  C   LIG d   1       2.755   1.648  -7.325  0.00  0.00    -0.041 A 
ATOM      5  C   LIG d   1       2.773   0.315  -6.938  0.00  0.00     0.034 A 
ATOM      6  C   LIG d   1       2.948  -0.681  -7.890  0.00  0.00    -0.038 A 
ATOM      7  H   LIG d   1       3.210   1.249 -10.644  0.00  0.00     0.062 H 
ATOM      8  H   LIG d   1       2.900   3.016  -8.960  0.00  0.00     0.062 H 
ATOM      9  H   LIG d   1       2.619   2.424  -6.587  0.00  0.00     0.064 H 
ATOM     10  H   LIG d   1       2.963  -1.718  -7.591  0.00  0.00     0.064 H 
ENDROOT
BRANCH   5  11
ATOM     11  N   LIG d   1       2.614  -0.025  -5.589  0.00  0.00    -0.285 N 
ATOM     12  C   LIG d   1       3.695  -0.166  -4.797  0.00  0.00     0.238 C 
ATOM     13  O   LIG d   1       4.801   0.082  -5.232  0.00  0.00    -0.275 OA
ATOM     14  H   LIG d   1       1.725  -0.160  -5.225  0.00  0.00     0.155 HD
BRANCH  12  15
ATOM     15  C   LIG d   1       3.531  -0.632  -3.373  0.00  0.00     0.224 C 
ATOM     16  H   LIG d   1       2.471  -0.738  -3.145  0.00  0.00     0.057 H 
BRANCH  15  17
ATOM     17  C   LIG d   1       4.228  -1.983  -3.197  0.00  0.00     0.409 C 
ATOM     18  F   LIG d   1       5.583  -1.775  -2.917  0.00  0.00    -0.170 F 
ATOM     19  F   LIG d   1       3.635  -2.677  -2.136  0.00  0.00    -0.170 F 
ATOM     20  F   LIG d   1       4.104  -2.729  -4.372  0.00  0.00    -0.170 F 
ENDBRANCH  15  17
BRANCH  15  21
ATOM     21  C   LIG d   1       4.157   0.394  -2.427  0.00  0.00     0.409 C 
ATOM     22  F   LIG d   1       3.260   1.447  -2.220  0.00  0.00    -0.170 F 
ATOM     23  F   LIG d   1       4.448  -0.218  -1.203  0.00  0.00    -0.170 F 
ATOM     24  F   LIG d   1       5.337   0.890  -2.991  0.00  0.00    -0.170 F 
ENDBRANCH  15  21
ENDBRANCH  12  15
ENDBRANCH   5  11
BRANCH   1  25
ATOM     25  C   LIG d   1       3.284  -1.422 -10.256  0.00  0.00    -0.040 C 
ATOM     26  H   LIG d   1       2.725  -2.309  -9.958  0.00  0.00     0.028 H 
ATOM     27  H   LIG d   1       2.917  -1.067 -11.219  0.00  0.00     0.028 H 
ATOM     28  H   LIG d   1       4.341  -1.669 -10.338  0.00  0.00     0.028 H 
ENDBRANCH   1  25
TORSDOF 5
ENDMDL
MODEL 2
REMARK VINA RESULT:      -7.1      0.489      1.791
REMARK  5 active torsions:
REMARK  status: ('A' for Active; 'I' for Inactive)
REMARK    1  A    between atoms: C_1  and  C_2 
REMARK    2  A    between atoms: C_6  and  N_8 
REMARK       I    between atoms: N_8  and  C_9 
REMARK    3  A    between atoms: C_9  and  C_11 
REMARK    4  A    between atoms: C_11  and  C_12 
REMARK    5  A    between atoms: C_11  and  C_16 
ROOT
ATOM      1  C   LIG d   1       3.412   1.514  -8.899  0.00  0.00    -0.049 A 
ATOM      2  C   LIG d   1       3.527   0.435  -9.755  0.00  0.00    -0.059 A 
ATOM      3  C   LIG d   1       3.412  -0.854  -9.267  0.00  0.00    -0.060 A 
ATOM      4  C   LIG d   1       3.178  -1.066  -7.922  0.00  0.00    -0.041 A 
ATOM      5  C   LIG d   1       3.056   0.016  -7.061  0.00  0.00     0.034 A 
ATOM      6  C   LIG d   1       3.172   1.309  -7.554  0.00  0.00    -0.038 A 
ATOM      7  H   LIG d   1       3.712   0.598 -10.807  0.00  0.00     0.062 H 
ATOM      8  H   LIG d   1       3.507  -1.695  -9.938  0.00  0.00     0.062 H 
ATOM      9  H   LIG d   1       3.088  -2.073  -7.542  0.00  0.00     0.064 H 
ATOM     10  H   LIG d   1       3.078   2.153  -6.887  0.00  0.00     0.064 H 
ENDROOT
BRANCH   5  11
ATOM     11  N   LIG d   1       2.817  -0.196  -5.698  0.00  0.00    -0.285 N 
ATOM     12  C   LIG d   1       3.852  -0.298  -4.841  0.00  0.00     0.238 C 
ATOM     13  O   LIG d   1       4.986  -0.126  -5.236  0.00  0.00    -0.275 OA
ATOM     14  H   LIG d   1       1.907  -0.269  -5.371  0.00  0.00     0.155 HD
BRANCH  12  15
ATOM     15  C   LIG d   1       3.600  -0.628  -3.392  0.00  0.00     0.224 C 
ATOM     16  H   LIG d   1       2.528  -0.706  -3.218  0.00  0.00     0.057 H 
BRANCH  15  17
ATOM     17  C   LIG d   1       4.271  -1.960  -3.050  0.00  0.00     0.409 C 
ATOM     18  F   LIG d   1       3.593  -2.564  -1.985  0.00  0.00    -0.170 F 
ATOM     19  F   LIG d   1       4.228  -2.803  -4.166  0.00  0.00    -0.170 F 
ATOM     20  F   LIG d   1       5.601  -1.733  -2.686  0.00  0.00    -0.170 F 
ENDBRANCH  15  17
BRANCH  15  21
ATOM     21  C   LIG d   1       4.182   0.478  -2.510  0.00  0.00     0.409 C 
ATOM     22  F   LIG d   1       3.284   1.549  -2.451  0.00  0.00    -0.170 F 
ATOM     23  F   LIG d   1       4.398  -0.020  -1.221  0.00  0.00    -0.170 F 
ATOM     24  F   LIG d   1       5.396   0.916  -3.050  0.00  0.00    -0.170 F 
ENDBRANCH  15  21
ENDBRANCH  12  15
ENDBRANCH   5  11
BRANCH   1  25
ATOM     25  C   LIG d   1       3.545   2.917  -9.434  0.00  0.00    -0.040 C 
ATOM     26  H   LIG d   1       3.903   2.881 -10.463  0.00  0.00     0.028 H 
ATOM     27  H   LIG d   1       2.573   3.410  -9.405  0.00  0.00     0.028 H 
ATOM     28  H   LIG d   1       4.253   3.474  -8.822  0.00  0.00     0.028 H 
ENDBRANCH   1  25
TORSDOF 5
ENDMDL
MODEL 3
REMARK VINA RESULT:      -6.9      0.859      2.342
REMARK  5 active torsions:
REMARK  status: ('A' for Active; 'I' for Inactive)
REMARK    1  A    between atoms: C_1  and  C_2 
REMARK    2  A    between atoms: C_6  and  N_8 
REMARK       I    between atoms: N_8  and  C_9 
REMARK    3  A    between atoms: C_9  and  C_11 
REMARK    4  A    between atoms: C_11  and  C_12 
REMARK    5  A    between atoms: C_11  and  C_16 
ROOT
ATOM      1  C   LIG d   1       3.005  -0.740  -8.884  0.00  0.00    -0.049 A 
ATOM      2  C   LIG d   1       2.809   0.537  -9.376  0.00  0.00    -0.059 A 
ATOM      3  C   LIG d   1       2.757   1.614  -8.510  0.00  0.00    -0.060 A 
ATOM      4  C   LIG d   1       2.905   1.418  -7.151  0.00  0.00    -0.041 A 
ATOM      5  C   LIG d   1       3.108   0.137  -6.655  0.00  0.00     0.034 A 
ATOM      6  C   LIG d   1       3.160  -0.943  -7.526  0.00  0.00    -0.038 A 
ATOM      7  H   LIG d   1       2.691   0.694 -10.438  0.00  0.00     0.062 H 
ATOM      8  H   LIG d   1       2.599   2.610  -8.897  0.00  0.00     0.062 H 
ATOM      9  H   LIG d   1       2.863   2.260  -6.476  0.00  0.00     0.064 H 
ATOM     10  H   LIG d   1       3.318  -1.940  -7.143  0.00  0.00     0.064 H 
ENDROOT
BRANCH   5  11
ATOM     11  N   LIG d   1       3.259  -0.065  -5.278  0.00  0.00    -0.285 N 
ATOM     12  C   LIG d   1       4.491  -0.092  -4.732  0.00  0.00     0.238 C 
ATOM     13  O   LIG d   1       5.464   0.140  -5.419  0.00  0.00    -0.275 OA
ATOM     14  H   LIG d   1       2.477  -0.187  -4.717  0.00  0.00     0.155 HD
BRANCH  12  15
ATOM     15  C   LIG d   1       4.660  -0.412  -3.269  0.00  0.00     0.224 C 
ATOM     16  H   LIG d   1       5.714  -0.590  -3.055  0.00  0.00     0.057 H 
BRANCH  15  17
ATOM     17  C   LIG d   1       4.161   0.766  -2.429  0.00  0.00     0.409 C 
ATOM     18  F   LIG d   1       4.507   1.967  -3.058  0.00  0.00    -0.170 F 
ATOM     19  F   LIG d   1       2.769   0.690  -2.302  0.00  0.00    -0.170 F 
ATOM     20  F   LIG d   1       4.749   0.717  -1.162  0.00  0.00    -0.170 F 
ENDBRANCH  15  17
BRANCH  15  21
ATOM     21  C   LIG d   1       3.851  -1.664  -2.925  0.00  0.00     0.409 C 
ATOM     22  F   LIG d   1       4.114  -2.040  -1.604  0.00  0.00    -0.170 F 
ATOM     23  F   LIG d   1       2.487  -1.391  -3.069  0.00  0.00    -0.170 F 
ATOM     24  F   LIG d   1       4.212  -2.705  -3.788  0.00  0.00    -0.170 F 
ENDBRANCH  15  21
ENDBRANCH  12  15
ENDBRANCH   5  11
BRANCH   1  25
ATOM     25  C   LIG d   1       3.055  -1.912  -9.830  0.00  0.00    -0.040 C 
ATOM     26  H   LIG d   1       3.844  -2.596  -9.519  0.00  0.00     0.028 H 
ATOM     27  H   LIG d   1       2.097  -2.431  -9.816  0.00  0.00     0.028 H 
ATOM     28  H   LIG d   1       3.261  -1.555 -10.839  0.00  0.00     0.028 H 
ENDBRANCH   1  25
TORSDOF 5
ENDMDL
MODEL 4
REMARK VINA RESULT:      -6.9      3.411      6.360
REMARK  5 active torsions:
REMARK  status: ('A' for Active; 'I' for Inactive)
REMARK    1  A    between atoms: C_1  and  C_2 
REMARK    2  A    between atoms: C_6  and  N_8 
REMARK       I    between atoms: N_8  and  C_9 
REMARK    3  A    between atoms: C_9  and  C_11 
REMARK    4  A    between atoms: C_11  and  C_12 
REMARK    5  A    between atoms: C_11  and  C_16 
ROOT
ATOM      1  C   LIG d   1       4.216   0.304  -2.325  0.00  0.00    -0.049 A 
ATOM      2  C   LIG d   1       4.525  -0.987  -1.939  0.00  0.00    -0.059 A 
ATOM      3  C   LIG d   1       4.189  -2.054  -2.752  0.00  0.00    -0.060 A 
ATOM      4  C   LIG d   1       3.546  -1.832  -3.955  0.00  0.00    -0.041 A 
ATOM      5  C   LIG d   1       3.240  -0.536  -4.347  0.00  0.00     0.034 A 
ATOM      6  C   LIG d   1       3.579   0.533  -3.529  0.00  0.00    -0.038 A 
ATOM      7  H   LIG d   1       5.026  -1.164  -0.999  0.00  0.00     0.062 H 
ATOM      8  H   LIG d   1       4.427  -3.062  -2.446  0.00  0.00     0.062 H 
ATOM      9  H   LIG d   1       3.283  -2.666  -4.589  0.00  0.00     0.064 H 
ATOM     10  H   LIG d   1       3.342   1.543  -3.832  0.00  0.00     0.064 H 
ENDROOT
BRANCH   5  11
ATOM     11  N   LIG d   1       2.589  -0.307  -5.566  0.00  0.00    -0.285 N 
ATOM     12  C   LIG d   1       3.307  -0.012  -6.667  0.00  0.00     0.238 C 
ATOM     13  O   LIG d   1       4.519  -0.024  -6.623  0.00  0.00    -0.275 OA
ATOM     14  H   LIG d   1       1.622  -0.362  -5.616  0.00  0.00     0.155 HD
BRANCH  12  15
ATOM     15  C   LIG d   1       2.603   0.335  -7.954  0.00  0.00     0.224 C 
ATOM     16  H   LIG d   1       1.526   0.353  -7.786  0.00  0.00     0.057 H 
BRANCH  15  17
ATOM     17  C   LIG d   1       3.067   1.713  -8.432  0.00  0.00     0.409 C 
ATOM     18  F   LIG d   1       2.568   2.697  -7.572  0.00  0.00    -0.170 F 
ATOM     19  F   LIG d   1       4.466   1.759  -8.432  0.00  0.00    -0.170 F 
ATOM     20  F   LIG d   1       2.593   1.941  -9.727  0.00  0.00    -0.170 F 
ENDBRANCH  15  17
BRANCH  15  21
ATOM     21  C   LIG d   1       2.938  -0.713  -9.016  0.00  0.00     0.409 C 
ATOM     22  F   LIG d   1       3.009  -1.976  -8.418  0.00  0.00    -0.170 F 
ATOM     23  F   LIG d   1       1.940  -0.719  -9.997  0.00  0.00    -0.170 F 
ATOM     24  F   LIG d   1       4.169  -0.405  -9.605  0.00  0.00    -0.170 F 
ENDBRANCH  15  21
ENDBRANCH  12  15
ENDBRANCH   5  11
BRANCH   1  25
ATOM     25  C   LIG d   1       4.580   1.463  -1.433  0.00  0.00    -0.040 C 
ATOM     26  H   LIG d   1       3.758   1.664  -0.746  0.00  0.00     0.028 H 
ATOM     27  H   LIG d   1       5.476   1.216  -0.864  0.00  0.00     0.028 H 
ATOM     28  H   LIG d   1       4.767   2.346  -2.043  0.00  0.00     0.028 H 
ENDBRANCH   1  25
TORSDOF 5
ENDMDL
MODEL 5
REMARK VINA RESULT:      -6.5      3.245      5.370
REMARK  5 active torsions:
REMARK  status: ('A' for Active; 'I' for Inactive)
REMARK    1  A    between atoms: C_1  and  C_2 
REMARK    2  A    between atoms: C_6  and  N_8 
REMARK       I    between atoms: N_8  and  C_9 
REMARK    3  A    between atoms: C_9  and  C_11 
REMARK    4  A    between atoms: C_11  and  C_12 
REMARK    5  A    between atoms: C_11  and  C_16 
ROOT
ATOM      1  C   LIG d   1       8.247  -3.640  -3.757  0.00  0.00    -0.049 A 
ATOM      2  C   LIG d   1       7.929  -4.450  -4.831  0.00  0.00    -0.059 A 
ATOM      3  C   LIG d   1       6.779  -4.213  -5.563  0.00  0.00    -0.060 A 
ATOM      4  C   LIG d   1       5.948  -3.164  -5.225  0.00  0.00    -0.041 A 
ATOM      5  C   LIG d   1       6.268  -2.345  -4.150  0.00  0.00     0.034 A 
ATOM      6  C   LIG d   1       7.423  -2.585  -3.417  0.00  0.00    -0.038 A 
ATOM      7  H   LIG d   1       8.577  -5.273  -5.097  0.00  0.00     0.062 H 
ATOM      8  H   LIG d   1       6.531  -4.851  -6.398  0.00  0.00     0.062 H 
ATOM      9  H   LIG d   1       5.050  -2.980  -5.796  0.00  0.00     0.064 H 
ATOM     10  H   LIG d   1       7.675  -1.950  -2.581  0.00  0.00     0.064 H 
ENDROOT
BRANCH   5  11
ATOM     11  N   LIG d   1       5.428  -1.280  -3.805  0.00  0.00    -0.285 N 
ATOM     12  C   LIG d   1       4.232  -1.522  -3.234  0.00  0.00     0.238 C 
ATOM     13  O   LIG d   1       3.917  -2.658  -2.945  0.00  0.00    -0.275 OA
ATOM     14  H   LIG d   1       5.708  -0.367  -3.977  0.00  0.00     0.155 HD
BRANCH  12  15
ATOM     15  C   LIG d   1       3.285  -0.384  -2.957  0.00  0.00     0.224 C 
ATOM     16  H   LIG d   1       2.490  -0.725  -2.293  0.00  0.00     0.057 H 
BRANCH  15  17
ATOM     17  C   LIG d   1       4.048   0.763  -2.291  0.00  0.00     0.409 C 
ATOM     18  F   LIG d   1       3.153   1.781  -1.946  0.00  0.00    -0.170 F 
ATOM     19  F   LIG d   1       4.684   0.291  -1.137  0.00  0.00    -0.170 F 
ATOM     20  F   LIG d   1       5.005   1.264  -3.178  0.00  0.00    -0.170 F 
ENDBRANCH  15  17
BRANCH  15  21
ATOM     21  C   LIG d   1       2.676   0.104  -4.273  0.00  0.00     0.409 C 
ATOM     22  F   LIG d   1       3.403  -0.422  -5.346  0.00  0.00    -0.170 F 
ATOM     23  F   LIG d   1       1.347  -0.321  -4.358  0.00  0.00    -0.170 F 
ATOM     24  F   LIG d   1       2.722   1.502  -4.319  0.00  0.00    -0.170 F 
ENDBRANCH  15  21
ENDBRANCH  12  15
ENDBRANCH   5  11
BRANCH   1  25
ATOM     25  C   LIG d   1       9.498  -3.906  -2.959  0.00  0.00    -0.040 C 
ATOM     26  H   LIG d   1       9.897  -2.963  -2.585  0.00  0.00     0.028 H 
ATOM     27  H   LIG d   1       9.261  -4.558  -2.119  0.00  0.00     0.028 H 
ATOM     28  H   LIG d   1      10.239  -4.388  -3.595  0.00  0.00     0.028 H 
ENDBRANCH   1  25
TORSDOF 5
ENDMDL
MODEL 6
REMARK VINA RESULT:      -6.2      3.066      4.785
REMARK  5 active torsions:
REMARK  status: ('A' for Active; 'I' for Inactive)
REMARK    1  A    between atoms: C_1  and  C_2 
REMARK    2  A    between atoms: C_6  and  N_8 
REMARK       I    between atoms: N_8  and  C_9 
REMARK    3  A    between atoms: C_9  and  C_11 
REMARK    4  A    between atoms: C_11  and  C_12 
REMARK    5  A    between atoms: C_11  and  C_16 
ROOT
ATOM      1  C   LIG d   1       6.902  -4.403  -5.280  0.00  0.00    -0.049 A 
ATOM      2  C   LIG d   1       8.147  -4.300  -4.688  0.00  0.00    -0.059 A 
ATOM      3  C   LIG d   1       8.407  -3.279  -3.792  0.00  0.00    -0.060 A 
ATOM      4  C   LIG d   1       7.422  -2.361  -3.483  0.00  0.00    -0.041 A 
ATOM      5  C   LIG d   1       6.169  -2.466  -4.071  0.00  0.00     0.034 A 
ATOM      6  C   LIG d   1       5.910  -3.493  -4.970  0.00  0.00    -0.038 A 
ATOM      7  H   LIG d   1       8.920  -5.015  -4.929  0.00  0.00     0.062 H 
ATOM      8  H   LIG d   1       9.382  -3.198  -3.335  0.00  0.00     0.062 H 
ATOM      9  H   LIG d   1       7.626  -1.564  -2.784  0.00  0.00     0.064 H 
ATOM     10  H   LIG d   1       4.936  -3.577  -5.429  0.00  0.00     0.064 H 
ENDROOT
BRANCH   5  11
ATOM     11  N   LIG d   1       5.167  -1.539  -3.760  0.00  0.00    -0.285 N 
ATOM     12  C   LIG d   1       5.205  -0.302  -4.293  0.00  0.00     0.238 C 
ATOM     13  O   LIG d   1       6.060  -0.018  -5.106  0.00  0.00    -0.275 OA
ATOM     14  H   LIG d   1       4.447  -1.787  -3.160  0.00  0.00     0.155 HD
BRANCH  12  15
ATOM     15  C   LIG d   1       4.187   0.729  -3.879  0.00  0.00     0.224 C 
ATOM     16  H   LIG d   1       4.510   1.714  -4.213  0.00  0.00     0.057 H 
BRANCH  15  17
ATOM     17  C   LIG d   1       2.835   0.393  -4.514  0.00  0.00     0.409 C 
ATOM     18  F   LIG d   1       3.043  -0.255  -5.736  0.00  0.00    -0.170 F 
ATOM     19  F   LIG d   1       2.114  -0.447  -3.657  0.00  0.00    -0.170 F 
ATOM     20  F   LIG d   1       2.115   1.572  -4.728  0.00  0.00    -0.170 F 
ENDBRANCH  15  17
BRANCH  15  21
ATOM     21  C   LIG d   1       4.050   0.725  -2.355  0.00  0.00     0.409 C 
ATOM     22  F   LIG d   1       3.122   1.698  -1.968  0.00  0.00    -0.170 F 
ATOM     23  F   LIG d   1       3.610  -0.533  -1.930  0.00  0.00    -0.170 F 
ATOM     24  F   LIG d   1       5.291   1.006  -1.774  0.00  0.00    -0.170 F 
ENDBRANCH  15  21
ENDBRANCH  12  15
ENDBRANCH   5  11
BRANCH   1  25
ATOM     25  C   LIG d   1       6.624  -5.514  -6.260  0.00  0.00    -0.040 C 
ATOM     26  H   LIG d   1       5.549  -5.670  -6.337  0.00  0.00     0.028 H 
ATOM     27  H   LIG d   1       7.023  -5.243  -7.238  0.00  0.00     0.028 H 
ATOM     28  H   LIG d   1       7.101  -6.430  -5.914  0.00  0.00     0.028 H 
ENDBRANCH   1  25
TORSDOF 5
ENDMDL
MODEL 7
REMARK VINA RESULT:      -6.1      3.910      4.958
REMARK  5 active torsions:
REMARK  status: ('A' for Active; 'I' for Inactive)
REMARK    1  A    between atoms: C_1  and  C_2 
REMARK    2  A    between atoms: C_6  and  N_8 
REMARK       I    between atoms: N_8  and  C_9 
REMARK    3  A    between atoms: C_9  and  C_11 
REMARK    4  A    between atoms: C_11  and  C_12 
REMARK    5  A    between atoms: C_11  and  C_16 
ROOT
ATOM      1  C   LIG d   1       9.372   2.465  -5.525  0.00  0.00    -0.049 A 
ATOM      2  C   LIG d   1      10.381   1.521  -5.578  0.00  0.00    -0.059 A 
ATOM      3  C   LIG d   1      10.090   0.182  -5.385  0.00  0.00    -0.060 A 
ATOM      4  C   LIG d   1       8.790  -0.216  -5.143  0.00  0.00    -0.041 A 
ATOM      5  C   LIG d   1       7.774   0.729  -5.096  0.00  0.00     0.034 A 
ATOM      6  C   LIG d   1       8.069   2.072  -5.290  0.00  0.00    -0.038 A 
ATOM      7  H   LIG d   1      11.399   1.829  -5.765  0.00  0.00     0.062 H 
ATOM      8  H   LIG d   1      10.882  -0.552  -5.422  0.00  0.00     0.062 H 
ATOM      9  H   LIG d   1       8.564  -1.261  -4.992  0.00  0.00     0.064 H 
ATOM     10  H   LIG d   1       7.280   2.810  -5.254  0.00  0.00     0.064 H 
ENDROOT
BRANCH   5  11
ATOM     11  N   LIG d   1       6.455   0.329  -4.852  0.00  0.00    -0.285 N 
ATOM     12  C   LIG d   1       5.956   0.380  -3.602  0.00  0.00     0.238 C 
ATOM     13  O   LIG d   1       6.621   0.848  -2.701  0.00  0.00    -0.275 OA
ATOM     14  H   LIG d   1       5.901   0.016  -5.584  0.00  0.00     0.155 HD
BRANCH  12  15
ATOM     15  C   LIG d   1       4.572  -0.147  -3.321  0.00  0.00     0.224 C 
ATOM     16  H   LIG d   1       4.054  -0.330  -4.263  0.00  0.00     0.057 H 
BRANCH  15  17
ATOM     17  C   LIG d   1       4.675  -1.455  -2.533  0.00  0.00     0.409 C 
ATOM     18  F   LIG d   1       4.634  -1.178  -1.163  0.00  0.00    -0.170 F 
ATOM     19  F   LIG d   1       3.602  -2.288  -2.872  0.00  0.00    -0.170 F 
ATOM     20  F   LIG d   1       5.878  -2.093  -2.845  0.00  0.00    -0.170 F 
ENDBRANCH  15  17
BRANCH  15  21
ATOM     21  C   LIG d   1       3.792   0.883  -2.502  0.00  0.00     0.409 C 
ATOM     22  F   LIG d   1       4.438   1.092  -1.279  0.00  0.00    -0.170 F 
ATOM     23  F   LIG d   1       3.728   2.089  -3.207  0.00  0.00    -0.170 F 
ATOM     24  F   LIG d   1       2.496   0.410  -2.269  0.00  0.00    -0.170 F 
ENDBRANCH  15  21
ENDBRANCH  12  15
ENDBRANCH   5  11
BRANCH   1  25
ATOM     25  C   LIG d   1       9.694   3.923  -5.730  0.00  0.00    -0.040 C 
ATOM     26  H   LIG d   1      10.604   4.173  -5.185  0.00  0.00     0.028 H 
ATOM     27  H   LIG d   1       9.842   4.116  -6.792  0.00  0.00     0.028 H 
ATOM     28  H   LIG d   1       8.870   4.532  -5.360  0.00  0.00     0.028 H 
ENDBRANCH   1  25
TORSDOF 5
ENDMDL
MODEL 8
REMARK VINA RESULT:      -6.1      3.548      4.580
REMARK  5 active torsions:
REMARK  status: ('A' for Active; 'I' for Inactive)
REMARK    1  A    between atoms: C_1  and  C_2 
REMARK    2  A    between atoms: C_6  and  N_8 
REMARK       I    between atoms: N_8  and  C_9 
REMARK    3  A    between atoms: C_9  and  C_11 
REMARK    4  A    between atoms: C_11  and  C_12 
REMARK    5  A    between atoms: C_11  and  C_16 
ROOT
ATOM      1  C   LIG d   1       9.419   0.670  -5.429  0.00  0.00    -0.049 A 
ATOM      2  C   LIG d   1       9.537   2.014  -5.129  0.00  0.00    -0.059 A 
ATOM      3  C   LIG d   1       8.594   2.632  -4.328  0.00  0.00    -0.060 A 
ATOM      4  C   LIG d   1       7.533   1.906  -3.821  0.00  0.00    -0.041 A 
ATOM      5  C   LIG d   1       7.416   0.554  -4.117  0.00  0.00     0.034 A 
ATOM      6  C   LIG d   1       8.364  -0.063  -4.921  0.00  0.00    -0.038 A 
ATOM      7  H   LIG d   1      10.364   2.585  -5.525  0.00  0.00     0.062 H 
ATOM      8  H   LIG d   1       8.686   3.683  -4.099  0.00  0.00     0.062 H 
ATOM      9  H   LIG d   1       6.797   2.389  -3.196  0.00  0.00     0.064 H 
ATOM     10  H   LIG d   1       8.276  -1.115  -5.153  0.00  0.00     0.064 H 
ENDROOT
BRANCH   5  11
ATOM     11  N   LIG d   1       6.343  -0.185  -3.604  0.00  0.00    -0.285 N 
ATOM     12  C   LIG d   1       5.232  -0.362  -4.345  0.00  0.00     0.238 C 
ATOM     13  O   LIG d   1       5.192   0.050  -5.486  0.00  0.00    -0.275 OA
ATOM     14  H   LIG d   1       6.400  -0.570  -2.716  0.00  0.00     0.155 HD
BRANCH  12  15
ATOM     15  C   LIG d   1       4.038  -1.068  -3.757  0.00  0.00     0.224 C 
ATOM     16  H   LIG d   1       3.706  -1.851  -4.439  0.00  0.00     0.057 H 
BRANCH  15  17
ATOM     17  C   LIG d   1       4.427  -1.693  -2.415  0.00  0.00     0.409 C 
ATOM     18  F   LIG d   1       5.715  -2.229  -2.506  0.00  0.00    -0.170 F 
ATOM     19  F   LIG d   1       4.401  -0.709  -1.419  0.00  0.00    -0.170 F 
ATOM     20  F   LIG d   1       3.521  -2.707  -2.092  0.00  0.00    -0.170 F 
ENDBRANCH  15  17
BRANCH  15  21
ATOM     21  C   LIG d   1       2.906  -0.063  -3.543  0.00  0.00     0.409 C 
ATOM     22  F   LIG d   1       2.258   0.176  -4.760  0.00  0.00    -0.170 F 
ATOM     23  F   LIG d   1       1.989  -0.581  -2.622  0.00  0.00    -0.170 F 
ATOM     24  F   LIG d   1       3.432   1.137  -3.052  0.00  0.00    -0.170 F 
ENDBRANCH  15  21
ENDBRANCH  12  15
ENDBRANCH   5  11
BRANCH   1  25
ATOM     25  C   LIG d   1      10.446   0.002  -6.309  0.00  0.00    -0.040 C 
ATOM     26  H   LIG d   1      11.443   0.324  -6.010  0.00  0.00     0.028 H 
ATOM     27  H   LIG d   1      10.366  -1.079  -6.202  0.00  0.00     0.028 H 
ATOM     28  H   LIG d   1      10.270   0.280  -7.347  0.00  0.00     0.028 H 
ENDBRANCH   1  25
TORSDOF 5
ENDMDL
MODEL 9
REMARK VINA RESULT:      -6.0      4.152      5.726
REMARK  5 active torsions:
REMARK  status: ('A' for Active; 'I' for Inactive)
REMARK    1  A    between atoms: C_1  and  C_2 
REMARK    2  A    between atoms: C_6  and  N_8 
REMARK       I    between atoms: N_8  and  C_9 
REMARK    3  A    between atoms: C_9  and  C_11 
REMARK    4  A    between atoms: C_11  and  C_12 
REMARK    5  A    between atoms: C_11  and  C_16 
ROOT
ATOM      1  C   LIG d   1       9.555   3.607  -3.898  0.00  0.00    -0.049 A 
ATOM      2  C   LIG d   1       9.564   3.836  -5.262  0.00  0.00    -0.059 A 
ATOM      3  C   LIG d   1       9.009   2.909  -6.125  0.00  0.00    -0.060 A 
ATOM      4  C   LIG d   1       8.439   1.754  -5.627  0.00  0.00    -0.041 A 
ATOM      5  C   LIG d   1       8.424   1.524  -4.258  0.00  0.00     0.034 A 
ATOM      6  C   LIG d   1       8.982   2.457  -3.393  0.00  0.00    -0.038 A 
ATOM      7  H   LIG d   1      10.010   4.738  -5.655  0.00  0.00     0.062 H 
ATOM      8  H   LIG d   1       9.021   3.089  -7.190  0.00  0.00     0.062 H 
ATOM      9  H   LIG d   1       8.006   1.030  -6.302  0.00  0.00     0.064 H 
ATOM     10  H   LIG d   1       8.971   2.281  -2.328  0.00  0.00     0.064 H 
ENDROOT
BRANCH   5  11
ATOM     11  N   LIG d   1       7.847   0.354  -3.749  0.00  0.00    -0.285 N 
ATOM     12  C   LIG d   1       6.523   0.308  -3.503  0.00  0.00     0.238 C 
ATOM     13  O   LIG d   1       5.818   1.251  -3.798  0.00  0.00    -0.275 OA
ATOM     14  H   LIG d   1       8.401  -0.422  -3.574  0.00  0.00     0.155 HD
BRANCH  12  15
ATOM     15  C   LIG d   1       5.918  -0.913  -2.860  0.00  0.00     0.224 C 
ATOM     16  H   LIG d   1       6.622  -1.331  -2.140  0.00  0.00     0.057 H 
BRANCH  15  17
ATOM     17  C   LIG d   1       4.625  -0.523  -2.141  0.00  0.00     0.409 C 
ATOM     18  F   LIG d   1       4.188  -1.593  -1.353  0.00  0.00    -0.170 F 
ATOM     19  F   LIG d   1       4.864   0.589  -1.325  0.00  0.00    -0.170 F 
ATOM     20  F   LIG d   1       3.644  -0.207  -3.085  0.00  0.00    -0.170 F 
ENDBRANCH  15  17
BRANCH  15  21
ATOM     21  C   LIG d   1       5.609  -1.955  -3.936  0.00  0.00     0.409 C 
ATOM     22  F   LIG d   1       6.777  -2.657  -4.255  0.00  0.00    -0.170 F 
ATOM     23  F   LIG d   1       4.645  -2.848  -3.458  0.00  0.00    -0.170 F 
ATOM     24  F   LIG d   1       5.123  -1.314  -5.081  0.00  0.00    -0.170 F 
ENDBRANCH  15  21
ENDBRANCH  12  15
ENDBRANCH   5  11
BRANCH   1  25
ATOM     25  C   LIG d   1      10.167   4.618  -2.962  0.00  0.00    -0.040 C 
ATOM     26  H   LIG d   1       9.738   4.497  -1.967  0.00  0.00     0.028 H 
ATOM     27  H   LIG d   1      11.245   4.462  -2.914  0.00  0.00     0.028 H 
ATOM     28  H   LIG d   1       9.961   5.623  -3.327  0.00  0.00     0.028 H 
ENDBRANCH   1  25
TORSDOF 5
ENDMDL
