MODEL 1
REMARK VINA RESULT:      -4.1      0.000      0.000
REMARK  3 active torsions:
REMARK  status: ('A' for Active; 'I' for Inactive)
REMARK    1  A    between atoms: C_1  and  C_2 
REMARK    2  A    between atoms: C_5  and  S_8 
REMARK    3  A    between atoms: S_8  and  C_9 
ROOT
ATOM      1  C   LIG d   1       5.444  -3.477  -6.073  0.00  0.00     0.088 C 
ATOM      2  C   LIG d   1       4.369  -4.475  -6.197  0.00  0.00     0.074 C 
ATOM      3  N   LIG d   1       3.539  -5.245  -6.294  0.00  0.00    -0.196 NA
ATOM      4  H   LIG d   1       6.201  -3.663  -6.834  0.00  0.00     0.054 H 
ATOM      5  H   LIG d   1       5.897  -3.553  -5.084  0.00  0.00     0.054 H 
ENDROOT
BRANCH   1   6
ATOM      6  S   LIG d   1       4.755  -1.814  -6.298  0.00  0.00    -0.071 SA
BRANCH   6   7
ATOM      7  C   LIG d   1       4.300  -1.317  -4.671  0.00  0.00     0.185 A 
ATOM      8  N   LIG d   1       4.799  -0.298  -4.003  0.00  0.00    -0.206 NA
ATOM      9  C   LIG d   1       4.221  -0.220  -2.805  0.00  0.00     0.149 A 
ATOM     10  N   LIG d   1       3.351  -1.186  -2.685  0.00  0.00    -0.157 NA
ATOM     11  N   LIG d   1       3.376  -1.913  -3.886  0.00  0.00    -0.254 N 
ATOM     12  H   LIG d   1       2.840  -2.690  -4.107  0.00  0.00     0.191 HD
BRANCH   9  13
ATOM     13  C   LIG d   1       4.527   0.815  -1.753  0.00  0.00    -0.003 C 
ATOM     14  H   LIG d   1       5.250   0.410  -1.044  0.00  0.00     0.031 H 
ATOM     15  H   LIG d   1       4.944   1.704  -2.228  0.00  0.00     0.031 H 
ATOM     16  H   LIG d   1       3.611   1.080  -1.226  0.00  0.00     0.031 H 
ENDBRANCH   9  13
ENDBRANCH   6   7
ENDBRANCH   1   6
TORSDOF 3
ENDMDL
MODEL 2
REMARK VINA RESULT:      -4.1      2.564      3.124
REMARK  3 active torsions:
REMARK  status: ('A' for Active; 'I' for Inactive)
REMARK    1  A    between atoms: C_1  and  C_2 
REMARK    2  A    between atoms: C_5  and  S_8 
REMARK    3  A    between atoms: S_8  and  C_9 
ROOT
ATOM      1  C   LIG d   1       4.689  -0.797  -7.224  0.00  0.00     0.088 C 
ATOM      2  C   LIG d   1       5.805   0.161  -7.270  0.00  0.00     0.074 C 
ATOM      3  N   LIG d   1       6.667   0.900  -7.304  0.00  0.00    -0.196 NA
ATOM      4  H   LIG d   1       4.908  -1.577  -6.496  0.00  0.00     0.054 H 
ATOM      5  H   LIG d   1       4.557  -1.247  -8.209  0.00  0.00     0.054 H 
ENDROOT
BRANCH   1   6
ATOM      6  S   LIG d   1       3.168   0.068  -6.745  0.00  0.00    -0.071 SA
BRANCH   6   7
ATOM      7  C   LIG d   1       3.188   0.021  -4.984  0.00  0.00     0.185 A 
ATOM      8  N   LIG d   1       4.031   0.661  -4.201  0.00  0.00    -0.206 NA
ATOM      9  C   LIG d   1       3.750   0.394  -2.925  0.00  0.00     0.149 A 
ATOM     10  N   LIG d   1       2.731  -0.421  -2.873  0.00  0.00    -0.157 NA
ATOM     11  N   LIG d   1       2.340  -0.676  -4.198  0.00  0.00    -0.254 N 
ATOM     12  H   LIG d   1       1.610  -1.244  -4.489  0.00  0.00     0.191 HD
BRANCH   9  13
ATOM     13  C   LIG d   1       4.493   0.940  -1.734  0.00  0.00    -0.003 C 
ATOM     14  H   LIG d   1       5.398   1.446  -2.071  0.00  0.00     0.031 H 
ATOM     15  H   LIG d   1       3.858   1.648  -1.202  0.00  0.00     0.031 H 
ATOM     16  H   LIG d   1       4.763   0.121  -1.067  0.00  0.00     0.031 H 
ENDBRANCH   9  13
ENDBRANCH   6   7
ENDBRANCH   1   6
TORSDOF 3
ENDMDL
MODEL 3
REMARK VINA RESULT:      -3.9      3.525      4.547
REMARK  3 active torsions:
REMARK  status: ('A' for Active; 'I' for Inactive)
REMARK    1  A    between atoms: C_1  and  C_2 
REMARK    2  A    between atoms: C_5  and  S_8 
REMARK    3  A    between atoms: S_8  and  C_9 
ROOT
ATOM      1  C   LIG d   1       2.821   1.769  -8.547  0.00  0.00     0.088 C 
ATOM      2  C   LIG d   1       4.175   2.075  -9.034  0.00  0.00     0.074 C 
ATOM      3  N   LIG d   1       5.221   2.312  -9.412  0.00  0.00    -0.196 NA
ATOM      4  H   LIG d   1       2.102   1.925  -9.350  0.00  0.00     0.054 H 
ATOM      5  H   LIG d   1       2.580   2.425  -7.710  0.00  0.00     0.054 H 
ENDROOT
BRANCH   1   6
ATOM      6  S   LIG d   1       2.752   0.040  -8.000  0.00  0.00    -0.071 SA
BRANCH   6   7
ATOM      7  C   LIG d   1       3.429   0.080  -6.373  0.00  0.00     0.185 A 
ATOM      8  N   LIG d   1       2.745   0.164  -5.251  0.00  0.00    -0.206 NA
ATOM      9  C   LIG d   1       3.583   0.169  -4.215  0.00  0.00     0.149 A 
ATOM     10  N   LIG d   1       4.810   0.095  -4.655  0.00  0.00    -0.157 NA
ATOM     11  N   LIG d   1       4.740   0.029  -6.056  0.00  0.00    -0.254 N 
ATOM     12  H   LIG d   1       5.486  -0.035  -6.672  0.00  0.00     0.191 HD
BRANCH   9  13
ATOM     13  C   LIG d   1       3.179   0.254  -2.765  0.00  0.00    -0.003 C 
ATOM     14  H   LIG d   1       2.430  -0.508  -2.551  0.00  0.00     0.031 H 
ATOM     15  H   LIG d   1       4.053   0.091  -2.134  0.00  0.00     0.031 H 
ATOM     16  H   LIG d   1       2.762   1.240  -2.561  0.00  0.00     0.031 H 
ENDBRANCH   9  13
ENDBRANCH   6   7
ENDBRANCH   1   6
TORSDOF 3
ENDMDL
MODEL 4
REMARK VINA RESULT:      -3.9     13.951     14.678
REMARK  3 active torsions:
REMARK  status: ('A' for Active; 'I' for Inactive)
REMARK    1  A    between atoms: C_1  and  C_2 
REMARK    2  A    between atoms: C_5  and  S_8 
REMARK    3  A    between atoms: S_8  and  C_9 
ROOT
ATOM      1  C   LIG d   1      -2.894   7.582 -14.429  0.00  0.00     0.088 C 
ATOM      2  C   LIG d   1      -1.473   7.817 -14.733  0.00  0.00     0.074 C 
ATOM      3  N   LIG d   1      -0.377   8.000 -14.968  0.00  0.00    -0.196 NA
ATOM      4  H   LIG d   1      -3.463   8.489 -14.627  0.00  0.00     0.054 H 
ATOM      5  H   LIG d   1      -3.000   7.308 -13.379  0.00  0.00     0.054 H 
ENDROOT
BRANCH   1   6
ATOM      6  S   LIG d   1      -3.520   6.235 -15.472  0.00  0.00    -0.071 SA
BRANCH   6   7
ATOM      7  C   LIG d   1      -3.735   4.893 -14.351  0.00  0.00     0.185 A 
ATOM      8  N   LIG d   1      -4.671   4.794 -13.430  0.00  0.00    -0.206 NA
ATOM      9  C   LIG d   1      -4.530   3.646 -12.769  0.00  0.00     0.149 A 
ATOM     10  N   LIG d   1      -3.504   2.997 -13.250  0.00  0.00    -0.157 NA
ATOM     11  N   LIG d   1      -2.971   3.782 -14.285  0.00  0.00    -0.254 N 
ATOM     12  H   LIG d   1      -2.204   3.570 -14.838  0.00  0.00     0.191 HD
BRANCH   9  13
ATOM     13  C   LIG d   1      -5.411   3.174 -11.641  0.00  0.00    -0.003 C 
ATOM     14  H   LIG d   1      -4.940   3.412 -10.687  0.00  0.00     0.031 H 
ATOM     15  H   LIG d   1      -6.379   3.673 -11.702  0.00  0.00     0.031 H 
ATOM     16  H   LIG d   1      -5.553   2.096 -11.716  0.00  0.00     0.031 H 
ENDBRANCH   9  13
ENDBRANCH   6   7
ENDBRANCH   1   6
TORSDOF 3
ENDMDL
MODEL 5
REMARK VINA RESULT:      -3.9      3.000      4.866
REMARK  3 active torsions:
REMARK  status: ('A' for Active; 'I' for Inactive)
REMARK    1  A    between atoms: C_1  and  C_2 
REMARK    2  A    between atoms: C_5  and  S_8 
REMARK    3  A    between atoms: S_8  and  C_9 
ROOT
ATOM      1  C   LIG d   1       4.851  -0.555  -2.414  0.00  0.00     0.088 C 
ATOM      2  C   LIG d   1       5.570   0.665  -2.817  0.00  0.00     0.074 C 
ATOM      3  N   LIG d   1       6.124   1.607  -3.126  0.00  0.00    -0.196 NA
ATOM      4  H   LIG d   1       4.876  -0.650  -1.330  0.00  0.00     0.054 H 
ATOM      5  H   LIG d   1       5.330  -1.424  -2.866  0.00  0.00     0.054 H 
ENDROOT
BRANCH   1   6
ATOM      6  S   LIG d   1       3.128  -0.455  -2.974  0.00  0.00    -0.071 SA
BRANCH   6   7
ATOM      7  C   LIG d   1       3.259  -0.054  -4.685  0.00  0.00     0.185 A 
ATOM      8  N   LIG d   1       3.874  -0.768  -5.604  0.00  0.00    -0.206 NA
ATOM      9  C   LIG d   1       3.770  -0.162  -6.787  0.00  0.00     0.149 A 
ATOM     10  N   LIG d   1       3.095   0.946  -6.643  0.00  0.00    -0.157 NA
ATOM     11  N   LIG d   1       2.744   1.040  -5.286  0.00  0.00    -0.254 N 
ATOM     12  H   LIG d   1       2.237   1.751  -4.866  0.00  0.00     0.191 HD
BRANCH   9  13
ATOM     13  C   LIG d   1       4.346  -0.672  -8.082  0.00  0.00    -0.003 C 
ATOM     14  H   LIG d   1       4.263   0.101  -8.846  0.00  0.00     0.031 H 
ATOM     15  H   LIG d   1       5.396  -0.928  -7.938  0.00  0.00     0.031 H 
ATOM     16  H   LIG d   1       3.797  -1.558  -8.401  0.00  0.00     0.031 H 
ENDBRANCH   9  13
ENDBRANCH   6   7
ENDBRANCH   1   6
TORSDOF 3
ENDMDL
MODEL 6
REMARK VINA RESULT:      -3.6      2.448      2.779
REMARK  3 active torsions:
REMARK  status: ('A' for Active; 'I' for Inactive)
REMARK    1  A    between atoms: C_1  and  C_2 
REMARK    2  A    between atoms: C_5  and  S_8 
REMARK    3  A    between atoms: S_8  and  C_9 
ROOT
ATOM      1  C   LIG d   1       7.323  -2.125  -4.366  0.00  0.00     0.088 C 
ATOM      2  C   LIG d   1       8.227  -3.164  -3.846  0.00  0.00     0.074 C 
ATOM      3  N   LIG d   1       8.926  -3.966  -3.445  0.00  0.00    -0.196 NA
ATOM      4  H   LIG d   1       7.732  -1.716  -5.289  0.00  0.00     0.054 H 
ATOM      5  H   LIG d   1       7.222  -1.329  -3.628  0.00  0.00     0.054 H 
ENDROOT
BRANCH   1   6
ATOM      6  S   LIG d   1       5.694  -2.853  -4.697  0.00  0.00    -0.071 SA
BRANCH   6   7
ATOM      7  C   LIG d   1       4.564  -1.722  -3.958  0.00  0.00     0.185 A 
ATOM      8  N   LIG d   1       4.872  -0.568  -3.403  0.00  0.00    -0.206 NA
ATOM      9  C   LIG d   1       3.767   0.021  -2.948  0.00  0.00     0.149 A 
ATOM     10  N   LIG d   1       2.739  -0.745  -3.198  0.00  0.00    -0.157 NA
ATOM     11  N   LIG d   1       3.226  -1.884  -3.860  0.00  0.00    -0.254 N 
ATOM     12  H   LIG d   1       2.707  -2.637  -4.179  0.00  0.00     0.191 HD
BRANCH   9  13
ATOM     13  C   LIG d   1       3.712   1.356  -2.250  0.00  0.00    -0.003 C 
ATOM     14  H   LIG d   1       4.725   1.688  -2.023  0.00  0.00     0.031 H 
ATOM     15  H   LIG d   1       3.227   2.086  -2.899  0.00  0.00     0.031 H 
ATOM     16  H   LIG d   1       3.145   1.259  -1.324  0.00  0.00     0.031 H 
ENDBRANCH   9  13
ENDBRANCH   6   7
ENDBRANCH   1   6
TORSDOF 3
ENDMDL
MODEL 7
REMARK VINA RESULT:      -3.6     11.672     12.448
REMARK  3 active torsions:
REMARK  status: ('A' for Active; 'I' for Inactive)
REMARK    1  A    between atoms: C_1  and  C_2 
REMARK    2  A    between atoms: C_5  and  S_8 
REMARK    3  A    between atoms: S_8  and  C_9 
ROOT
ATOM      1  C   LIG d   1      11.713   5.925  -0.440  0.00  0.00     0.088 C 
ATOM      2  C   LIG d   1      11.254   5.832   0.956  0.00  0.00     0.074 C 
ATOM      3  N   LIG d   1      10.900   5.760   2.033  0.00  0.00    -0.196 NA
ATOM      4  H   LIG d   1      12.189   4.989  -0.728  0.00  0.00     0.054 H 
ATOM      5  H   LIG d   1      12.429   6.741  -0.533  0.00  0.00     0.054 H 
ENDROOT
BRANCH   1   6
ATOM      6  S   LIG d   1      10.292   6.240  -1.523  0.00  0.00    -0.071 SA
BRANCH   6   7
ATOM      7  C   LIG d   1       9.743   7.846  -1.050  0.00  0.00     0.185 A 
ATOM      8  N   LIG d   1      10.483   8.790  -0.509  0.00  0.00    -0.206 NA
ATOM      9  C   LIG d   1       9.738   9.872  -0.284  0.00  0.00     0.149 A 
ATOM     10  N   LIG d   1       8.513   9.636  -0.671  0.00  0.00    -0.157 NA
ATOM     11  N   LIG d   1       8.488   8.327  -1.180  0.00  0.00    -0.254 N 
ATOM     12  H   LIG d   1       7.721   7.862  -1.547  0.00  0.00     0.191 HD
BRANCH   9  13
ATOM     13  C   LIG d   1      10.228  11.160   0.326  0.00  0.00    -0.003 C 
ATOM     14  H   LIG d   1      10.349  11.029   1.401  0.00  0.00     0.031 H 
ATOM     15  H   LIG d   1      11.188  11.429  -0.117  0.00  0.00     0.031 H 
ATOM     16  H   LIG d   1       9.504  11.952   0.135  0.00  0.00     0.031 H 
ENDBRANCH   9  13
ENDBRANCH   6   7
ENDBRANCH   1   6
TORSDOF 3
ENDMDL
MODEL 8
REMARK VINA RESULT:      -3.6     11.939     13.223
REMARK  3 active torsions:
REMARK  status: ('A' for Active; 'I' for Inactive)
REMARK    1  A    between atoms: C_1  and  C_2 
REMARK    2  A    between atoms: C_5  and  S_8 
REMARK    3  A    between atoms: S_8  and  C_9 
ROOT
ATOM      1  C   LIG d   1       8.835  11.849  -3.810  0.00  0.00     0.088 C 
ATOM      2  C   LIG d   1       9.211  10.802  -4.774  0.00  0.00     0.074 C 
ATOM      3  N   LIG d   1       9.501   9.993  -5.518  0.00  0.00    -0.196 NA
ATOM      4  H   LIG d   1       7.788  11.730  -3.536  0.00  0.00     0.054 H 
ATOM      5  H   LIG d   1       8.984  12.829  -4.263  0.00  0.00     0.054 H 
ENDROOT
BRANCH   1   6
ATOM      6  S   LIG d   1       9.870  11.704  -2.327  0.00  0.00    -0.071 SA
BRANCH   6   7
ATOM      7  C   LIG d   1       9.477  10.110  -1.687  0.00  0.00     0.185 A 
ATOM      8  N   LIG d   1      10.235   9.036  -1.760  0.00  0.00    -0.206 NA
ATOM      9  C   LIG d   1       9.621   8.012  -1.169  0.00  0.00     0.149 A 
ATOM     10  N   LIG d   1       8.463   8.410  -0.716  0.00  0.00    -0.157 NA
ATOM     11  N   LIG d   1       8.345   9.773  -1.032  0.00  0.00    -0.254 N 
ATOM     12  H   LIG d   1       7.597  10.355  -0.826  0.00  0.00     0.191 HD
BRANCH   9  13
ATOM     13  C   LIG d   1      10.172   6.614  -1.050  0.00  0.00    -0.003 C 
ATOM     14  H   LIG d   1       9.689   5.969  -1.784  0.00  0.00     0.031 H 
ATOM     15  H   LIG d   1      11.247   6.630  -1.232  0.00  0.00     0.031 H 
ATOM     16  H   LIG d   1       9.979   6.231  -0.048  0.00  0.00     0.031 H 
ENDBRANCH   9  13
ENDBRANCH   6   7
ENDBRANCH   1   6
TORSDOF 3
ENDMDL
MODEL 9
REMARK VINA RESULT:      -3.5      1.925      2.557
REMARK  3 active torsions:
REMARK  status: ('A' for Active; 'I' for Inactive)
REMARK    1  A    between atoms: C_1  and  C_2 
REMARK    2  A    between atoms: C_5  and  S_8 
REMARK    3  A    between atoms: S_8  and  C_9 
ROOT
ATOM      1  C   LIG d   1       6.858  -1.882  -5.904  0.00  0.00     0.088 C 
ATOM      2  C   LIG d   1       6.406  -0.652  -6.574  0.00  0.00     0.074 C 
ATOM      3  N   LIG d   1       6.057   0.298  -7.090  0.00  0.00    -0.196 NA
ATOM      4  H   LIG d   1       7.453  -1.622  -5.029  0.00  0.00     0.054 H 
ATOM      5  H   LIG d   1       7.465  -2.469  -6.594  0.00  0.00     0.054 H 
ENDROOT
BRANCH   1   6
ATOM      6  S   LIG d   1       5.416  -2.855  -5.388  0.00  0.00    -0.071 SA
BRANCH   6   7
ATOM      7  C   LIG d   1       4.577  -1.803  -4.251  0.00  0.00     0.185 A 
ATOM      8  N   LIG d   1       5.140  -0.934  -3.439  0.00  0.00    -0.206 NA
ATOM      9  C   LIG d   1       4.200  -0.314  -2.725  0.00  0.00     0.149 A 
ATOM     10  N   LIG d   1       3.028  -0.779  -3.063  0.00  0.00    -0.157 NA
ATOM     11  N   LIG d   1       3.241  -1.745  -4.059  0.00  0.00    -0.254 N 
ATOM     12  H   LIG d   1       2.565  -2.269  -4.515  0.00  0.00     0.191 HD
BRANCH   9  13
ATOM     13  C   LIG d   1       4.452   0.750  -1.687  0.00  0.00    -0.003 C 
ATOM     14  H   LIG d   1       3.519   1.267  -1.463  0.00  0.00     0.031 H 
ATOM     15  H   LIG d   1       4.837   0.287  -0.778  0.00  0.00     0.031 H 
ATOM     16  H   LIG d   1       5.181   1.464  -2.068  0.00  0.00     0.031 H 
ENDBRANCH   9  13
ENDBRANCH   6   7
ENDBRANCH   1   6
TORSDOF 3
ENDMDL
MODEL 10
REMARK VINA RESULT:      -3.5      3.282      4.187
REMARK  3 active torsions:
REMARK  status: ('A' for Active; 'I' for Inactive)
REMARK    1  A    between atoms: C_1  and  C_2 
REMARK    2  A    between atoms: C_5  and  S_8 
REMARK    3  A    between atoms: S_8  and  C_9 
ROOT
ATOM      1  C   LIG d   1       5.206  -2.671  -5.398  0.00  0.00     0.088 C 
ATOM      2  C   LIG d   1       4.569  -2.669  -4.071  0.00  0.00     0.074 C 
ATOM      3  N   LIG d   1       4.076  -2.666  -3.048  0.00  0.00    -0.196 NA
ATOM      4  H   LIG d   1       4.491  -3.018  -6.143  0.00  0.00     0.054 H 
ATOM      5  H   LIG d   1       6.069  -3.337  -5.385  0.00  0.00     0.054 H 
ENDROOT
BRANCH   1   6
ATOM      6  S   LIG d   1       5.745  -0.990  -5.814  0.00  0.00    -0.071 SA
BRANCH   6   7
ATOM      7  C   LIG d   1       4.446  -0.363  -6.825  0.00  0.00     0.185 A 
ATOM      8  N   LIG d   1       4.468   0.764  -7.506  0.00  0.00    -0.206 NA
ATOM      9  C   LIG d   1       3.315   0.917  -8.157  0.00  0.00     0.149 A 
ATOM     10  N   LIG d   1       2.539  -0.101  -7.900  0.00  0.00    -0.157 NA
ATOM     11  N   LIG d   1       3.251  -0.953  -7.041  0.00  0.00    -0.254 N 
ATOM     12  H   LIG d   1       2.943  -1.796  -6.672  0.00  0.00     0.191 HD
BRANCH   9  13
ATOM     13  C   LIG d   1       2.962   2.084  -9.044  0.00  0.00    -0.003 C 
ATOM     14  H   LIG d   1       2.809   1.731 -10.064  0.00  0.00     0.031 H 
ATOM     15  H   LIG d   1       2.046   2.551  -8.681  0.00  0.00     0.031 H 
ATOM     16  H   LIG d   1       3.773   2.811  -9.028  0.00  0.00     0.031 H 
ENDBRANCH   9  13
ENDBRANCH   6   7
ENDBRANCH   1   6
TORSDOF 3
ENDMDL
