MODEL 1
REMARK VINA RESULT:      -3.8      0.000      0.000
REMARK  4 active torsions:
REMARK  status: ('A' for Active; 'I' for Inactive)
REMARK    1  A    between atoms: C_1  and  C_2 
REMARK    2  A    between atoms: C_2  and  C_3 
REMARK    3  A    between atoms: C_2  and  C_4 
REMARK    4  A    between atoms: C_2  and  C_5 
ROOT
ATOM      1  C   LIG d   1       4.135  -0.336  -2.668  0.00  0.00    -0.009 C 
ENDROOT
BRANCH   1   2
ATOM      2  C   LIG d   1       4.434   0.837  -1.733  0.00  0.00    -0.058 C 
ATOM      3  H   LIG d   1       3.501   1.337  -1.469  0.00  0.00     0.024 H 
ATOM      4  H   LIG d   1       4.916   0.467  -0.828  0.00  0.00     0.024 H 
ATOM      5  H   LIG d   1       5.095   1.543  -2.235  0.00  0.00     0.024 H 
ENDBRANCH   1   2
BRANCH   1   6
ATOM      6  C   LIG d   1       2.659  -0.305  -3.072  0.00  0.00    -0.058 C 
ATOM      7  H   LIG d   1       2.287  -1.324  -3.168  0.00  0.00     0.024 H 
ATOM      8  H   LIG d   1       2.085   0.221  -2.309  0.00  0.00     0.024 H 
ATOM      9  H   LIG d   1       2.555   0.212  -4.027  0.00  0.00     0.024 H 
ENDBRANCH   1   6
BRANCH   1  10
ATOM     10  C   LIG d   1       4.438  -1.652  -1.948  0.00  0.00    -0.058 C 
ATOM     11  H   LIG d   1       3.506  -2.175  -1.739  0.00  0.00     0.024 H 
ATOM     12  H   LIG d   1       5.070  -2.275  -2.580  0.00  0.00     0.024 H 
ATOM     13  H   LIG d   1       4.955  -1.443  -1.012  0.00  0.00     0.024 H 
ENDBRANCH   1  10
BRANCH   1  14
ATOM     14  C   LIG d   1       5.008  -0.226  -3.920  0.00  0.00     0.087 A 
ATOM     15  H   LIG d   1       6.043   0.071  -3.751  0.00  0.00     0.062 H 
ATOM     16  O   LIG d   1       4.382   0.199  -5.132  0.00  0.00    -0.371 OA
ATOM     17  C   LIG d   1       4.722  -1.188  -5.076  0.00  0.00     0.075 A 
ATOM     18  H   LIG d   1       5.568  -1.528  -5.674  0.00  0.00     0.059 H 
ATOM     19  H   LIG d   1       3.912  -1.905  -4.951  0.00  0.00     0.059 H 
ENDBRANCH   1  14
TORSDOF 4
ENDMDL
MODEL 2
REMARK VINA RESULT:      -3.8      0.034      1.629
REMARK  4 active torsions:
REMARK  status: ('A' for Active; 'I' for Inactive)
REMARK    1  A    between atoms: C_1  and  C_2 
REMARK    2  A    between atoms: C_2  and  C_3 
REMARK    3  A    between atoms: C_2  and  C_4 
REMARK    4  A    between atoms: C_2  and  C_5 
ROOT
ATOM      1  C   LIG d   1       4.114  -0.350  -2.682  0.00  0.00    -0.009 C 
ENDROOT
BRANCH   1   2
ATOM      2  C   LIG d   1       4.431  -1.653  -1.946  0.00  0.00    -0.058 C 
ATOM      3  H   LIG d   1       5.493  -1.681  -1.698  0.00  0.00     0.024 H 
ATOM      4  H   LIG d   1       3.843  -1.705  -1.029  0.00  0.00     0.024 H 
ATOM      5  H   LIG d   1       4.185  -2.500  -2.585  0.00  0.00     0.024 H 
ENDBRANCH   1   2
BRANCH   1   6
ATOM      6  C   LIG d   1       4.400   0.839  -1.760  0.00  0.00    -0.058 C 
ATOM      7  H   LIG d   1       3.469   1.364  -1.546  0.00  0.00     0.024 H 
ATOM      8  H   LIG d   1       4.837   0.480  -0.829  0.00  0.00     0.024 H 
ATOM      9  H   LIG d   1       5.096   1.520  -2.251  0.00  0.00     0.024 H 
ENDBRANCH   1   6
BRANCH   1  10
ATOM     10  C   LIG d   1       2.639  -0.338  -3.085  0.00  0.00    -0.058 C 
ATOM     11  H   LIG d   1       2.366   0.656  -3.440  0.00  0.00     0.024 H 
ATOM     12  H   LIG d   1       2.473  -1.064  -3.881  0.00  0.00     0.024 H 
ATOM     13  H   LIG d   1       2.024  -0.597  -2.224  0.00  0.00     0.024 H 
ENDBRANCH   1  10
BRANCH   1  14
ATOM     14  C   LIG d   1       4.987  -0.245  -3.934  0.00  0.00     0.087 A 
ATOM     15  H   LIG d   1       6.028   0.030  -3.764  0.00  0.00     0.062 H 
ATOM     16  O   LIG d   1       4.368   0.205  -5.141  0.00  0.00    -0.371 OA
ATOM     17  C   LIG d   1       4.680  -1.189  -5.099  0.00  0.00     0.075 A 
ATOM     18  H   LIG d   1       5.517  -1.540  -5.701  0.00  0.00     0.059 H 
ATOM     19  H   LIG d   1       3.855  -1.891  -4.980  0.00  0.00     0.059 H 
ENDBRANCH   1  14
TORSDOF 4
ENDMDL
MODEL 3
REMARK VINA RESULT:      -3.8      0.138      1.676
REMARK  4 active torsions:
REMARK  status: ('A' for Active; 'I' for Inactive)
REMARK    1  A    between atoms: C_1  and  C_2 
REMARK    2  A    between atoms: C_2  and  C_3 
REMARK    3  A    between atoms: C_2  and  C_4 
REMARK    4  A    between atoms: C_2  and  C_5 
ROOT
ATOM      1  C   LIG d   1       4.045  -0.368  -2.724  0.00  0.00    -0.009 C 
ENDROOT
BRANCH   1   2
ATOM      2  C   LIG d   1       2.571  -0.449  -3.127  0.00  0.00    -0.058 C 
ATOM      3  H   LIG d   1       1.950  -0.464  -2.231  0.00  0.00     0.024 H 
ATOM      4  H   LIG d   1       2.312   0.419  -3.734  0.00  0.00     0.024 H 
ATOM      5  H   LIG d   1       2.401  -1.359  -3.702  0.00  0.00     0.024 H 
ENDBRANCH   1   2
BRANCH   1   6
ATOM      6  C   LIG d   1       4.430  -1.628  -1.945  0.00  0.00    -0.058 C 
ATOM      7  H   LIG d   1       3.680  -2.401  -2.110  0.00  0.00     0.024 H 
ATOM      8  H   LIG d   1       5.401  -1.984  -2.287  0.00  0.00     0.024 H 
ATOM      9  H   LIG d   1       4.482  -1.395  -0.881  0.00  0.00     0.024 H 
ENDBRANCH   1   6
BRANCH   1  10
ATOM     10  C   LIG d   1       4.265   0.863  -1.844  0.00  0.00    -0.058 C 
ATOM     11  H   LIG d   1       3.888   1.748  -2.355  0.00  0.00     0.024 H 
ATOM     12  H   LIG d   1       3.735   0.736  -0.900  0.00  0.00     0.024 H 
ATOM     13  H   LIG d   1       5.331   0.984  -1.648  0.00  0.00     0.024 H 
ENDBRANCH   1  10
BRANCH   1  14
ATOM     14  C   LIG d   1       4.912  -0.261  -3.980  0.00  0.00     0.087 A 
ATOM     15  H   LIG d   1       5.956   0.005  -3.813  0.00  0.00     0.062 H 
ATOM     16  O   LIG d   1       4.290   0.204  -5.180  0.00  0.00    -0.371 OA
ATOM     17  C   LIG d   1       4.592  -1.193  -5.150  0.00  0.00     0.075 A 
ATOM     18  H   LIG d   1       5.424  -1.546  -5.760  0.00  0.00     0.059 H 
ATOM     19  H   LIG d   1       3.762  -1.889  -5.032  0.00  0.00     0.059 H 
ENDBRANCH   1  14
TORSDOF 4
ENDMDL
MODEL 4
REMARK VINA RESULT:      -3.8      1.143      1.915
REMARK  4 active torsions:
REMARK  status: ('A' for Active; 'I' for Inactive)
REMARK    1  A    between atoms: C_1  and  C_2 
REMARK    2  A    between atoms: C_2  and  C_3 
REMARK    3  A    between atoms: C_2  and  C_4 
REMARK    4  A    between atoms: C_2  and  C_5 
ROOT
ATOM      1  C   LIG d   1       4.624  -0.821  -2.838  0.00  0.00    -0.009 C 
ENDROOT
BRANCH   1   2
ATOM      2  C   LIG d   1       6.088  -1.220  -3.040  0.00  0.00    -0.058 C 
ATOM      3  H   LIG d   1       6.735  -0.452  -2.616  0.00  0.00     0.024 H 
ATOM      4  H   LIG d   1       6.277  -2.171  -2.542  0.00  0.00     0.024 H 
ATOM      5  H   LIG d   1       6.292  -1.320  -4.106  0.00  0.00     0.024 H 
ENDBRANCH   1   2
BRANCH   1   6
ATOM      6  C   LIG d   1       4.537   0.274  -1.771  0.00  0.00    -0.058 C 
ATOM      7  H   LIG d   1       5.329   0.129  -1.036  0.00  0.00     0.024 H 
ATOM      8  H   LIG d   1       4.653   1.250  -2.242  0.00  0.00     0.024 H 
ATOM      9  H   LIG d   1       3.568   0.221  -1.275  0.00  0.00     0.024 H 
ENDBRANCH   1   6
BRANCH   1  10
ATOM     10  C   LIG d   1       3.822  -2.041  -2.382  0.00  0.00    -0.058 C 
ATOM     11  H   LIG d   1       2.870  -2.069  -2.913  0.00  0.00     0.024 H 
ATOM     12  H   LIG d   1       4.384  -2.948  -2.599  0.00  0.00     0.024 H 
ATOM     13  H   LIG d   1       3.637  -1.975  -1.310  0.00  0.00     0.024 H 
ENDBRANCH   1  10
BRANCH   1  14
ATOM     14  C   LIG d   1       4.052  -0.295  -4.155  0.00  0.00     0.087 A 
ATOM     15  H   LIG d   1       4.515  -0.685  -5.062  0.00  0.00     0.062 H 
ATOM     16  O   LIG d   1       3.566   1.048  -4.181  0.00  0.00    -0.371 OA
ATOM     17  C   LIG d   1       2.558   0.035  -4.203  0.00  0.00     0.075 A 
ATOM     18  H   LIG d   1       2.030  -0.136  -5.141  0.00  0.00     0.059 H 
ATOM     19  H   LIG d   1       1.975  -0.121  -3.296  0.00  0.00     0.059 H 
ENDBRANCH   1  14
TORSDOF 4
ENDMDL
MODEL 5
REMARK VINA RESULT:      -3.6      1.544      2.563
REMARK  4 active torsions:
REMARK  status: ('A' for Active; 'I' for Inactive)
REMARK    1  A    between atoms: C_1  and  C_2 
REMARK    2  A    between atoms: C_2  and  C_3 
REMARK    3  A    between atoms: C_2  and  C_4 
REMARK    4  A    between atoms: C_2  and  C_5 
ROOT
ATOM      1  C   LIG d   1       3.846  -0.966  -2.947  0.00  0.00    -0.009 C 
ENDROOT
BRANCH   1   2
ATOM      2  C   LIG d   1       2.429  -0.591  -3.388  0.00  0.00    -0.058 C 
ATOM      3  H   LIG d   1       2.374   0.485  -3.555  0.00  0.00     0.024 H 
ATOM      4  H   LIG d   1       2.186  -1.115  -4.313  0.00  0.00     0.024 H 
ATOM      5  H   LIG d   1       1.720  -0.876  -2.612  0.00  0.00     0.024 H 
ENDBRANCH   1   2
BRANCH   1   6
ATOM      6  C   LIG d   1       4.759  -1.040  -4.173  0.00  0.00    -0.058 C 
ATOM      7  H   LIG d   1       4.452  -1.873  -4.805  0.00  0.00     0.024 H 
ATOM      8  H   LIG d   1       4.686  -0.111  -4.737  0.00  0.00     0.024 H 
ATOM      9  H   LIG d   1       5.789  -1.190  -3.850  0.00  0.00     0.024 H 
ENDBRANCH   1   6
BRANCH   1  10
ATOM     10  C   LIG d   1       3.819  -2.326  -2.249  0.00  0.00    -0.058 C 
ATOM     11  H   LIG d   1       4.008  -2.192  -1.184  0.00  0.00     0.024 H 
ATOM     12  H   LIG d   1       2.842  -2.788  -2.388  0.00  0.00     0.024 H 
ATOM     13  H   LIG d   1       4.589  -2.969  -2.675  0.00  0.00     0.024 H 
ENDBRANCH   1  10
BRANCH   1  14
ATOM     14  C   LIG d   1       4.376   0.094  -1.980  0.00  0.00     0.087 A 
ATOM     15  H   LIG d   1       4.850  -0.285  -1.075  0.00  0.00     0.062 H 
ATOM     16  O   LIG d   1       3.663   1.330  -1.890  0.00  0.00    -0.371 OA
ATOM     17  C   LIG d   1       4.916   1.397  -2.575  0.00  0.00     0.075 A 
ATOM     18  H   LIG d   1       5.748   1.881  -2.064  0.00  0.00     0.059 H 
ATOM     19  H   LIG d   1       4.897   1.506  -3.659  0.00  0.00     0.059 H 
ENDBRANCH   1  14
TORSDOF 4
ENDMDL
MODEL 6
REMARK VINA RESULT:      -3.1      1.595      2.559
REMARK  4 active torsions:
REMARK  status: ('A' for Active; 'I' for Inactive)
REMARK    1  A    between atoms: C_1  and  C_2 
REMARK    2  A    between atoms: C_2  and  C_3 
REMARK    3  A    between atoms: C_2  and  C_4 
REMARK    4  A    between atoms: C_2  and  C_5 
ROOT
ATOM      1  C   LIG d   1       4.914  -1.123  -3.189  0.00  0.00    -0.009 C 
ENDROOT
BRANCH   1   2
ATOM      2  C   LIG d   1       6.167  -1.955  -3.470  0.00  0.00    -0.058 C 
ATOM      3  H   LIG d   1       6.992  -1.292  -3.734  0.00  0.00     0.024 H 
ATOM      4  H   LIG d   1       6.432  -2.526  -2.578  0.00  0.00     0.024 H 
ATOM      5  H   LIG d   1       5.972  -2.639  -4.295  0.00  0.00     0.024 H 
ENDBRANCH   1   2
BRANCH   1   6
ATOM      6  C   LIG d   1       4.003  -1.883  -2.222  0.00  0.00    -0.058 C 
ATOM      7  H   LIG d   1       3.568  -1.185  -1.507  0.00  0.00     0.024 H 
ATOM      8  H   LIG d   1       3.208  -2.374  -2.781  0.00  0.00     0.024 H 
ATOM      9  H   LIG d   1       4.587  -2.633  -1.686  0.00  0.00     0.024 H 
ENDBRANCH   1   6
BRANCH   1  10
ATOM     10  C   LIG d   1       4.167  -0.869  -4.499  0.00  0.00    -0.058 C 
ATOM     11  H   LIG d   1       3.974  -1.818  -4.998  0.00  0.00     0.024 H 
ATOM     12  H   LIG d   1       3.220  -0.372  -4.287  0.00  0.00     0.024 H 
ATOM     13  H   LIG d   1       4.773  -0.235  -5.146  0.00  0.00     0.024 H 
ENDBRANCH   1  10
BRANCH   1  14
ATOM     14  C   LIG d   1       5.319   0.213  -2.564  0.00  0.00     0.087 A 
ATOM     15  H   LIG d   1       5.318   0.246  -1.474  0.00  0.00     0.062 H 
ATOM     16  O   LIG d   1       4.972   1.408  -3.266  0.00  0.00    -0.371 OA
ATOM     17  C   LIG d   1       6.357   1.061  -3.301  0.00  0.00     0.075 A 
ATOM     18  H   LIG d   1       7.046   1.656  -2.701  0.00  0.00     0.059 H 
ATOM     19  H   LIG d   1       6.759   0.671  -4.237  0.00  0.00     0.059 H 
ENDBRANCH   1  14
TORSDOF 4
ENDMDL
MODEL 7
REMARK VINA RESULT:      -2.6     16.234     17.189
REMARK  4 active torsions:
REMARK  status: ('A' for Active; 'I' for Inactive)
REMARK    1  A    between atoms: C_1  and  C_2 
REMARK    2  A    between atoms: C_2  and  C_3 
REMARK    3  A    between atoms: C_2  and  C_4 
REMARK    4  A    between atoms: C_2  and  C_5 
ROOT
ATOM      1  C   LIG d   1      -5.512  11.342  -9.906  0.00  0.00    -0.009 C 
ENDROOT
BRANCH   1   2
ATOM      2  C   LIG d   1      -4.719  12.630 -10.138  0.00  0.00    -0.058 C 
ATOM      3  H   LIG d   1      -4.142  12.540 -11.059  0.00  0.00     0.024 H 
ATOM      4  H   LIG d   1      -5.408  13.471 -10.222  0.00  0.00     0.024 H 
ATOM      5  H   LIG d   1      -4.043  12.796  -9.300  0.00  0.00     0.024 H 
ENDBRANCH   1   2
BRANCH   1   6
ATOM      6  C   LIG d   1      -4.715  10.411  -8.990  0.00  0.00    -0.058 C 
ATOM      7  H   LIG d   1      -4.962   9.375  -9.222  0.00  0.00     0.024 H 
ATOM      8  H   LIG d   1      -3.649  10.573  -9.144  0.00  0.00     0.024 H 
ATOM      9  H   LIG d   1      -4.969  10.620  -7.950  0.00  0.00     0.024 H 
ENDBRANCH   1   6
BRANCH   1  10
ATOM     10  C   LIG d   1      -5.761  10.648 -11.247  0.00  0.00    -0.058 C 
ATOM     11  H   LIG d   1      -6.806  10.348 -11.313  0.00  0.00     0.024 H 
ATOM     12  H   LIG d   1      -5.529  11.335 -12.061  0.00  0.00     0.024 H 
ATOM     13  H   LIG d   1      -5.125   9.767 -11.323  0.00  0.00     0.024 H 
ENDBRANCH   1  10
BRANCH   1  14
ATOM     14  C   LIG d   1      -6.852  11.680  -9.250  0.00  0.00     0.087 A 
ATOM     15  H   LIG d   1      -6.800  12.324  -8.372  0.00  0.00     0.062 H 
ATOM     16  O   LIG d   1      -7.880  10.688  -9.288  0.00  0.00    -0.371 OA
ATOM     17  C   LIG d   1      -8.079  11.805 -10.156  0.00  0.00     0.075 A 
ATOM     18  H   LIG d   1      -8.841  12.534  -9.879  0.00  0.00     0.059 H 
ATOM     19  H   LIG d   1      -7.939  11.650 -11.225  0.00  0.00     0.059 H 
ENDBRANCH   1  14
TORSDOF 4
ENDMDL
MODEL 8
REMARK VINA RESULT:      -2.6      4.636      6.223
REMARK  4 active torsions:
REMARK  status: ('A' for Active; 'I' for Inactive)
REMARK    1  A    between atoms: C_1  and  C_2 
REMARK    2  A    between atoms: C_2  and  C_3 
REMARK    3  A    between atoms: C_2  and  C_4 
REMARK    4  A    between atoms: C_2  and  C_5 
ROOT
ATOM      1  C   LIG d   1       3.275   0.892  -9.355  0.00  0.00    -0.009 C 
ENDROOT
BRANCH   1   2
ATOM      2  C   LIG d   1       3.900   1.334 -10.680  0.00  0.00    -0.058 C 
ATOM      3  H   LIG d   1       4.444   0.499 -11.121  0.00  0.00     0.024 H 
ATOM      4  H   LIG d   1       3.112   1.655 -11.363  0.00  0.00     0.024 H 
ATOM      5  H   LIG d   1       4.585   2.161 -10.501  0.00  0.00     0.024 H 
ENDBRANCH   1   2
BRANCH   1   6
ATOM      6  C   LIG d   1       2.068  -0.006  -9.634  0.00  0.00    -0.058 C 
ATOM      7  H   LIG d   1       2.153  -0.428 -10.636  0.00  0.00     0.024 H 
ATOM      8  H   LIG d   1       2.037  -0.812  -8.902  0.00  0.00     0.024 H 
ATOM      9  H   LIG d   1       1.153   0.584  -9.566  0.00  0.00     0.024 H 
ENDBRANCH   1   6
BRANCH   1  10
ATOM     10  C   LIG d   1       2.823   2.124  -8.568  0.00  0.00    -0.058 C 
ATOM     11  H   LIG d   1       2.468   1.817  -7.585  0.00  0.00     0.024 H 
ATOM     12  H   LIG d   1       3.662   2.810  -8.453  0.00  0.00     0.024 H 
ATOM     13  H   LIG d   1       2.017   2.623  -9.106  0.00  0.00     0.024 H 
ENDBRANCH   1  10
BRANCH   1  14
ATOM     14  C   LIG d   1       4.309   0.116  -8.538  0.00  0.00     0.087 A 
ATOM     15  H   LIG d   1       5.351   0.389  -8.709  0.00  0.00     0.062 H 
ATOM     16  O   LIG d   1       4.022  -1.249  -8.225  0.00  0.00    -0.371 OA
ATOM     17  C   LIG d   1       3.914  -0.336  -7.130  0.00  0.00     0.075 A 
ATOM     18  H   LIG d   1       4.692  -0.363  -6.368  0.00  0.00     0.059 H 
ATOM     19  H   LIG d   1       2.914  -0.082  -6.778  0.00  0.00     0.059 H 
ENDBRANCH   1  14
TORSDOF 4
ENDMDL
MODEL 9
REMARK VINA RESULT:      -2.6     16.160     17.050
REMARK  4 active torsions:
REMARK  status: ('A' for Active; 'I' for Inactive)
REMARK    1  A    between atoms: C_1  and  C_2 
REMARK    2  A    between atoms: C_2  and  C_3 
REMARK    3  A    between atoms: C_2  and  C_4 
REMARK    4  A    between atoms: C_2  and  C_5 
ROOT
ATOM      1  C   LIG d   1      -5.853  11.067  -9.952  0.00  0.00    -0.009 C 
ENDROOT
BRANCH   1   2
ATOM      2  C   LIG d   1      -4.809  10.386  -9.065  0.00  0.00    -0.058 C 
ATOM      3  H   LIG d   1      -3.816  10.546  -9.486  0.00  0.00     0.024 H 
ATOM      4  H   LIG d   1      -4.851  10.812  -8.062  0.00  0.00     0.024 H 
ATOM      5  H   LIG d   1      -5.016   9.318  -9.016  0.00  0.00     0.024 H 
ENDBRANCH   1   2
BRANCH   1   6
ATOM      6  C   LIG d   1      -7.256  10.729  -9.441  0.00  0.00    -0.058 C 
ATOM      7  H   LIG d   1      -7.961  10.752 -10.271  0.00  0.00     0.024 H 
ATOM      8  H   LIG d   1      -7.251   9.734  -8.997  0.00  0.00     0.024 H 
ATOM      9  H   LIG d   1      -7.555  11.461  -8.690  0.00  0.00     0.024 H 
ENDBRANCH   1   6
BRANCH   1  10
ATOM     10  C   LIG d   1      -5.702  10.570 -11.391  0.00  0.00    -0.058 C 
ATOM     11  H   LIG d   1      -4.729  10.869 -11.779  0.00  0.00     0.024 H 
ATOM     12  H   LIG d   1      -5.782   9.484 -11.411  0.00  0.00     0.024 H 
ATOM     13  H   LIG d   1      -6.488  11.003 -12.010  0.00  0.00     0.024 H 
ENDBRANCH   1  10
BRANCH   1  14
ATOM     14  C   LIG d   1      -5.648  12.582  -9.911  0.00  0.00     0.087 A 
ATOM     15  H   LIG d   1      -6.332  13.136  -9.267  0.00  0.00     0.062 H 
ATOM     16  O   LIG d   1      -5.189  13.224 -11.103  0.00  0.00    -0.371 OA
ATOM     17  C   LIG d   1      -4.220  13.113 -10.058  0.00  0.00     0.075 A 
ATOM     18  H   LIG d   1      -3.957  14.019  -9.511  0.00  0.00     0.059 H 
ATOM     19  H   LIG d   1      -3.419  12.386 -10.183  0.00  0.00     0.059 H 
ENDBRANCH   1  14
TORSDOF 4
ENDMDL
