MODEL 1
REMARK VINA RESULT:      -6.1      0.000      0.000
REMARK  10 active torsions:
REMARK  status: ('A' for Active; 'I' for Inactive)
REMARK    1  A    between atoms: C_1  and  C_2 
REMARK    2  A    between atoms: C_7  and  C_29 
REMARK    3  A    between atoms: C_20  and  C_22 
REMARK    4  A    between atoms: C_22  and  N_55 
REMARK    5  A    between atoms: C_23  and  C_24 
REMARK    6  A    between atoms: C_23  and  N_55 
REMARK    7  A    between atoms: C_24  and  O_25 
REMARK    8  A    between atoms: C_24  and  O_27 
REMARK    9  A    between atoms: O_25  and  C_26 
REMARK   10  A    between atoms: O_27  and  C_28 
ROOT
ATOM      1  C   LIG d   1       3.447  -0.803  -3.397  0.00  0.00    -0.012 C 
ATOM      2  H   LIG d   1       2.504  -0.982  -3.915  0.00  0.00     0.033 H 
ATOM      3  C   LIG d   1       3.284   0.370  -2.422  0.00  0.00    -0.048 C 
ATOM      4  C   LIG d   1       4.629   0.690  -1.771  0.00  0.00    -0.052 C 
ATOM      5  C   LIG d   1       5.640   1.124  -2.835  0.00  0.00    -0.045 C 
ATOM      6  C   LIG d   1       5.877  -0.034  -3.805  0.00  0.00     0.003 C 
ATOM      7  C   LIG d   1       4.530  -0.445  -4.413  0.00  0.00     0.104 A 
ATOM      8  C   LIG d   1       4.536  -1.106  -5.777  0.00  0.00     0.096 A 
ATOM      9  H   LIG d   1       3.739  -1.823  -5.976  0.00  0.00     0.063 H 
ATOM     10  O   LIG d   1       4.114   0.247  -5.594  0.00  0.00    -0.363 OA
ATOM     11  C   LIG d   1       5.828  -1.359  -6.530  0.00  0.00     0.043 C 
ATOM     12  H   LIG d   1       5.738  -1.018  -7.561  0.00  0.00     0.037 H 
ATOM     13  C   LIG d   1       7.065  -0.752  -5.877  0.00  0.00     0.110 C 
ATOM     14  H   LIG d   1       7.721  -0.398  -6.671  0.00  0.00     0.074 H 
ATOM     15  C   LIG d   1       6.776   0.417  -4.958  0.00  0.00    -0.007 C 
ATOM     16  O   LIG d   1       7.771  -1.818  -5.195  0.00  0.00    -0.461 OA
ATOM     17  C   LIG d   1       7.104  -2.979  -5.299  0.00  0.00     0.316 C 
ATOM     18  O   LIG d   1       7.247  -3.942  -4.584  0.00  0.00    -0.250 OA
ATOM     19  C   LIG d   1       6.139  -2.878  -6.466  0.00  0.00     0.105 C 
ATOM     20  H   LIG d   1       5.232  -3.449  -6.268  0.00  0.00     0.047 H 
ATOM     21  H   LIG d   1       2.562   0.103  -1.650  0.00  0.00     0.027 H 
ATOM     22  H   LIG d   1       2.926   1.244  -2.965  0.00  0.00     0.027 H 
ATOM     23  H   LIG d   1       5.003  -0.196  -1.258  0.00  0.00     0.027 H 
ATOM     24  H   LIG d   1       4.497   1.495  -1.047  0.00  0.00     0.027 H 
ATOM     25  H   LIG d   1       6.580   1.396  -2.354  0.00  0.00     0.027 H 
ATOM     26  H   LIG d   1       5.248   1.982  -3.381  0.00  0.00     0.027 H 
ATOM     27  H   LIG d   1       7.714   0.801  -4.555  0.00  0.00     0.031 H 
ATOM     28  H   LIG d   1       6.275   1.204  -5.520  0.00  0.00     0.031 H 
ENDROOT
BRANCH  19  29
ATOM     29  C   LIG d   1       6.806  -3.349  -7.761  0.00  0.00    -0.020 C 
ATOM     30  H   LIG d   1       6.790  -2.541  -8.492  0.00  0.00     0.082 H 
ATOM     31  H   LIG d   1       7.838  -3.632  -7.555  0.00  0.00     0.082 H 
BRANCH  29  32
ATOM     32  N   LIG d   1       6.068  -4.512  -8.289  0.00  0.00     0.231 N 
ATOM     33  H   LIG d   1       6.340  -5.352  -7.766  0.00  0.00     0.202 HD
ATOM     34  H   LIG d   1       6.298  -4.637  -9.281  0.00  0.00     0.202 HD
BRANCH  32  35
ATOM     35  C   LIG d   1       4.614  -4.302  -8.148  0.00  0.00     0.019 C 
ATOM     36  H   LIG d   1       4.425  -3.536  -7.395  0.00  0.00     0.086 H 
ATOM     37  H   LIG d   1       4.196  -3.984  -9.103  0.00  0.00     0.086 H 
BRANCH  35  38
ATOM     38  C   LIG d   1       3.958  -5.615  -7.716  0.00  0.00     0.199 C 
ATOM     39  H   LIG d   1       4.673  -6.431  -7.828  0.00  0.00     0.097 H 
BRANCH  38  40
ATOM     40  O   LIG d   1       3.555  -5.519  -6.348  0.00  0.00    -0.350 OA
BRANCH  40  41
ATOM     41  C   LIG d   1       4.521  -6.018  -5.421  0.00  0.00     0.040 C 
ATOM     42  H   LIG d   1       4.029  -6.663  -4.694  0.00  0.00     0.052 H 
ATOM     43  H   LIG d   1       5.279  -6.588  -5.958  0.00  0.00     0.052 H 
ATOM     44  H   LIG d   1       4.994  -5.183  -4.905  0.00  0.00     0.052 H 
ENDBRANCH  40  41
ENDBRANCH  38  40
BRANCH  38  45
ATOM     45  O   LIG d   1       2.814  -5.868  -8.533  0.00  0.00    -0.350 OA
BRANCH  45  46
ATOM     46  C   LIG d   1       2.745  -5.051  -9.705  0.00  0.00     0.040 C 
ATOM     47  H   LIG d   1       3.713  -5.051 -10.205  0.00  0.00     0.052 H 
ATOM     48  H   LIG d   1       1.987  -5.449 -10.380  0.00  0.00     0.052 H 
ATOM     49  H   LIG d   1       2.481  -4.032  -9.422  0.00  0.00     0.052 H 
ENDBRANCH  45  46
ENDBRANCH  38  45
ENDBRANCH  35  38
ENDBRANCH  32  35
ENDBRANCH  29  32
ENDBRANCH  19  29
BRANCH   1  50
ATOM     50  C   LIG d   1       3.856  -2.059  -2.625  0.00  0.00    -0.060 C 
ATOM     51  H   LIG d   1       3.173  -2.210  -1.789  0.00  0.00     0.023 H 
ATOM     52  H   LIG d   1       3.814  -2.923  -3.289  0.00  0.00     0.023 H 
ATOM     53  H   LIG d   1       4.871  -1.939  -2.248  0.00  0.00     0.023 H 
ENDBRANCH   1  50
BRANCH   6  54
ATOM     54  C   LIG d   1       6.518  -1.212  -3.068  0.00  0.00    -0.057 C 
ATOM     55  H   LIG d   1       7.260  -1.683  -3.714  0.00  0.00     0.024 H 
ATOM     56  H   LIG d   1       7.002  -0.853  -2.161  0.00  0.00     0.024 H 
ATOM     57  H   LIG d   1       5.749  -1.939  -2.807  0.00  0.00     0.024 H 
ENDBRANCH   6  54
TORSDOF 10
ENDMDL
MODEL 2
REMARK VINA RESULT:      -6.1      1.680      2.393
REMARK  10 active torsions:
REMARK  status: ('A' for Active; 'I' for Inactive)
REMARK    1  A    between atoms: C_1  and  C_2 
REMARK    2  A    between atoms: C_7  and  C_29 
REMARK    3  A    between atoms: C_20  and  C_22 
REMARK    4  A    between atoms: C_22  and  N_55 
REMARK    5  A    between atoms: C_23  and  C_24 
REMARK    6  A    between atoms: C_23  and  N_55 
REMARK    7  A    between atoms: C_24  and  O_25 
REMARK    8  A    between atoms: C_24  and  O_27 
REMARK    9  A    between atoms: O_25  and  C_26 
REMARK   10  A    between atoms: O_27  and  C_28 
ROOT
ATOM      1  C   LIG d   1       3.162   0.281  -3.978  0.00  0.00    -0.012 C 
ATOM      2  H   LIG d   1       2.482   0.664  -4.740  0.00  0.00     0.033 H 
ATOM      3  C   LIG d   1       3.521   1.404  -2.998  0.00  0.00    -0.048 C 
ATOM      4  C   LIG d   1       4.555   0.898  -1.990  0.00  0.00    -0.052 C 
ATOM      5  C   LIG d   1       5.843   0.500  -2.712  0.00  0.00    -0.045 C 
ATOM      6  C   LIG d   1       5.547  -0.657  -3.668  0.00  0.00     0.003 C 
ATOM      7  C   LIG d   1       4.446  -0.216  -4.641  0.00  0.00     0.104 A 
ATOM      8  C   LIG d   1       4.386  -0.885  -5.999  0.00  0.00     0.096 A 
ATOM      9  H   LIG d   1       3.399  -0.977  -6.456  0.00  0.00     0.063 H 
ATOM     10  O   LIG d   1       4.866   0.451  -5.835  0.00  0.00    -0.363 OA
ATOM     11  C   LIG d   1       5.380  -1.960  -6.399  0.00  0.00     0.043 C 
ATOM     12  H   LIG d   1       5.785  -1.751  -7.389  0.00  0.00     0.037 H 
ATOM     13  C   LIG d   1       6.509  -2.175  -5.398  0.00  0.00     0.110 C 
ATOM     14  H   LIG d   1       7.417  -2.388  -5.961  0.00  0.00     0.074 H 
ATOM     15  C   LIG d   1       6.786  -0.983  -4.504  0.00  0.00    -0.007 C 
ATOM     16  O   LIG d   1       6.199  -3.367  -4.634  0.00  0.00    -0.461 OA
ATOM     17  C   LIG d   1       5.011  -3.875  -4.997  0.00  0.00     0.316 C 
ATOM     18  O   LIG d   1       4.339  -4.637  -4.344  0.00  0.00    -0.250 OA
ATOM     19  C   LIG d   1       4.652  -3.331  -6.368  0.00  0.00     0.105 C 
ATOM     20  H   LIG d   1       3.574  -3.197  -6.461  0.00  0.00     0.047 H 
ATOM     21  H   LIG d   1       2.624   1.724  -2.467  0.00  0.00     0.027 H 
ATOM     22  H   LIG d   1       3.935   2.248  -3.549  0.00  0.00     0.027 H 
ATOM     23  H   LIG d   1       4.152   0.032  -1.464  0.00  0.00     0.027 H 
ATOM     24  H   LIG d   1       4.772   1.687  -1.270  0.00  0.00     0.027 H 
ATOM     25  H   LIG d   1       6.588   0.186  -1.981  0.00  0.00     0.027 H 
ATOM     26  H   LIG d   1       6.223   1.351  -3.278  0.00  0.00     0.027 H 
ATOM     27  H   LIG d   1       7.619  -1.216  -3.839  0.00  0.00     0.031 H 
ATOM     28  H   LIG d   1       7.044  -0.122  -5.118  0.00  0.00     0.031 H 
ENDROOT
BRANCH  19  29
ATOM     29  C   LIG d   1       5.183  -4.250  -7.471  0.00  0.00    -0.020 C 
ATOM     30  H   LIG d   1       4.344  -4.712  -7.992  0.00  0.00     0.082 H 
ATOM     31  H   LIG d   1       5.772  -3.666  -8.178  0.00  0.00     0.082 H 
BRANCH  29  32
ATOM     32  N   LIG d   1       6.028  -5.295  -6.863  0.00  0.00     0.231 N 
ATOM     33  H   LIG d   1       5.876  -5.306  -5.848  0.00  0.00     0.202 HD
ATOM     34  H   LIG d   1       7.015  -5.089  -7.059  0.00  0.00     0.202 HD
BRANCH  32  35
ATOM     35  C   LIG d   1       5.686  -6.618  -7.420  0.00  0.00     0.019 C 
ATOM     36  H   LIG d   1       5.252  -6.497  -8.413  0.00  0.00     0.086 H 
ATOM     37  H   LIG d   1       6.585  -7.230  -7.488  0.00  0.00     0.086 H 
BRANCH  35  38
ATOM     38  C   LIG d   1       4.672  -7.301  -6.500  0.00  0.00     0.199 C 
ATOM     39  H   LIG d   1       3.995  -6.552  -6.087  0.00  0.00     0.097 H 
BRANCH  38  40
ATOM     40  O   LIG d   1       3.922  -8.262  -7.247  0.00  0.00    -0.350 OA
BRANCH  40  41
ATOM     41  C   LIG d   1       3.903  -8.017  -8.654  0.00  0.00     0.040 C 
ATOM     42  H   LIG d   1       4.805  -7.479  -8.942  0.00  0.00     0.052 H 
ATOM     43  H   LIG d   1       3.861  -8.967  -9.188  0.00  0.00     0.052 H 
ATOM     44  H   LIG d   1       3.027  -7.419  -8.907  0.00  0.00     0.052 H 
ENDBRANCH  40  41
ENDBRANCH  38  40
BRANCH  38  45
ATOM     45  O   LIG d   1       5.361  -7.958  -5.435  0.00  0.00    -0.350 OA
BRANCH  45  46
ATOM     46  C   LIG d   1       4.734  -9.164  -4.993  0.00  0.00     0.040 C 
ATOM     47  H   LIG d   1       3.714  -9.205  -5.376  0.00  0.00     0.052 H 
ATOM     48  H   LIG d   1       5.295 -10.022  -5.363  0.00  0.00     0.052 H 
ATOM     49  H   LIG d   1       4.715  -9.185  -3.903  0.00  0.00     0.052 H 
ENDBRANCH  45  46
ENDBRANCH  38  45
ENDBRANCH  35  38
ENDBRANCH  32  35
ENDBRANCH  29  32
ENDBRANCH  19  29
BRANCH   1  50
ATOM     50  C   LIG d   1       2.492  -0.867  -3.221  0.00  0.00    -0.060 C 
ATOM     51  H   LIG d   1       3.255  -1.551  -2.849  0.00  0.00     0.023 H 
ATOM     52  H   LIG d   1       1.923  -0.465  -2.382  0.00  0.00     0.023 H 
ATOM     53  H   LIG d   1       1.820  -1.402  -3.893  0.00  0.00     0.023 H 
ENDBRANCH   1  50
BRANCH   6  54
ATOM     54  C   LIG d   1       5.107  -1.891  -2.877  0.00  0.00    -0.057 C 
ATOM     55  H   LIG d   1       5.661  -1.938  -1.940  0.00  0.00     0.024 H 
ATOM     56  H   LIG d   1       4.040  -1.825  -2.667  0.00  0.00     0.024 H 
ATOM     57  H   LIG d   1       5.307  -2.788  -3.464  0.00  0.00     0.024 H 
ENDBRANCH   6  54
TORSDOF 10
ENDMDL
MODEL 3
REMARK VINA RESULT:      -5.9      1.976      2.795
REMARK  10 active torsions:
REMARK  status: ('A' for Active; 'I' for Inactive)
REMARK    1  A    between atoms: C_1  and  C_2 
REMARK    2  A    between atoms: C_7  and  C_29 
REMARK    3  A    between atoms: C_20  and  C_22 
REMARK    4  A    between atoms: C_22  and  N_55 
REMARK    5  A    between atoms: C_23  and  C_24 
REMARK    6  A    between atoms: C_23  and  N_55 
REMARK    7  A    between atoms: C_24  and  O_25 
REMARK    8  A    between atoms: C_24  and  O_27 
REMARK    9  A    between atoms: O_25  and  C_26 
REMARK   10  A    between atoms: O_27  and  C_28 
ROOT
ATOM      1  C   LIG d   1       3.146   0.255  -3.842  0.00  0.00    -0.012 C 
ATOM      2  H   LIG d   1       2.423   0.661  -4.550  0.00  0.00     0.033 H 
ATOM      3  C   LIG d   1       3.555   1.345  -2.844  0.00  0.00    -0.048 C 
ATOM      4  C   LIG d   1       4.645   0.810  -1.914  0.00  0.00    -0.052 C 
ATOM      5  C   LIG d   1       5.893   0.445  -2.720  0.00  0.00    -0.045 C 
ATOM      6  C   LIG d   1       5.548  -0.679  -3.698  0.00  0.00     0.003 C 
ATOM      7  C   LIG d   1       4.392  -0.211  -4.592  0.00  0.00     0.104 A 
ATOM      8  C   LIG d   1       4.259  -0.832  -5.968  0.00  0.00     0.096 A 
ATOM      9  H   LIG d   1       3.249  -0.914  -6.372  0.00  0.00     0.063 H 
ATOM     10  O   LIG d   1       4.742   0.500  -5.784  0.00  0.00    -0.363 OA
ATOM     11  C   LIG d   1       5.233  -1.886  -6.461  0.00  0.00     0.043 C 
ATOM     12  H   LIG d   1       5.582  -1.640  -7.463  0.00  0.00     0.037 H 
ATOM     13  C   LIG d   1       6.417  -2.129  -5.532  0.00  0.00     0.110 C 
ATOM     14  H   LIG d   1       7.293  -2.318  -6.151  0.00  0.00     0.074 H 
ATOM     15  C   LIG d   1       6.740  -0.969  -4.613  0.00  0.00    -0.007 C 
ATOM     16  O   LIG d   1       6.155  -3.350  -4.795  0.00  0.00    -0.461 OA
ATOM     17  C   LIG d   1       4.950  -3.851  -5.109  0.00  0.00     0.316 C 
ATOM     18  O   LIG d   1       4.319  -4.640  -4.446  0.00  0.00    -0.250 OA
ATOM     19  C   LIG d   1       4.514  -3.262  -6.438  0.00  0.00     0.105 C 
ATOM     20  H   LIG d   1       3.432  -3.131  -6.465  0.00  0.00     0.047 H 
ATOM     21  H   LIG d   1       2.688   1.641  -2.253  0.00  0.00     0.027 H 
ATOM     22  H   LIG d   1       3.934   2.210  -3.387  0.00  0.00     0.027 H 
ATOM     23  H   LIG d   1       4.276  -0.076  -1.397  0.00  0.00     0.027 H 
ATOM     24  H   LIG d   1       4.899   1.574  -1.179  0.00  0.00     0.027 H 
ATOM     25  H   LIG d   1       6.679   0.110  -2.043  0.00  0.00     0.027 H 
ATOM     26  H   LIG d   1       6.236   1.318  -3.276  0.00  0.00     0.027 H 
ATOM     27  H   LIG d   1       7.609  -1.219  -4.005  0.00  0.00     0.031 H 
ATOM     28  H   LIG d   1       6.959  -0.085  -5.210  0.00  0.00     0.031 H 
ENDROOT
BRANCH  19  29
ATOM     29  C   LIG d   1       4.986  -4.138  -7.600  0.00  0.00    -0.020 C 
ATOM     30  H   LIG d   1       6.072  -4.223  -7.572  0.00  0.00     0.082 H 
ATOM     31  H   LIG d   1       4.542  -5.130  -7.509  0.00  0.00     0.082 H 
BRANCH  29  32
ATOM     32  N   LIG d   1       4.567  -3.521  -8.871  0.00  0.00     0.231 N 
ATOM     33  H   LIG d   1       5.123  -3.915  -9.639  0.00  0.00     0.202 HD
ATOM     34  H   LIG d   1       4.722  -2.507  -8.824  0.00  0.00     0.202 HD
BRANCH  32  35
ATOM     35  C   LIG d   1       3.137  -3.784  -9.123  0.00  0.00     0.019 C 
ATOM     36  H   LIG d   1       3.034  -4.637  -9.794  0.00  0.00     0.086 H 
ATOM     37  H   LIG d   1       2.634  -4.000  -8.180  0.00  0.00     0.086 H 
BRANCH  35  38
ATOM     38  C   LIG d   1       2.505  -2.548  -9.767  0.00  0.00     0.199 C 
ATOM     39  H   LIG d   1       3.113  -2.231 -10.615  0.00  0.00     0.097 H 
BRANCH  38  40
ATOM     40  O   LIG d   1       1.187  -2.866 -10.216  0.00  0.00    -0.350 OA
BRANCH  40  41
ATOM     41  C   LIG d   1       1.062  -2.953 -11.637  0.00  0.00     0.040 C 
ATOM     42  H   LIG d   1       1.432  -2.035 -12.091  0.00  0.00     0.052 H 
ATOM     43  H   LIG d   1       1.645  -3.799 -12.002  0.00  0.00     0.052 H 
ATOM     44  H   LIG d   1       0.014  -3.093 -11.902  0.00  0.00     0.052 H 
ENDBRANCH  40  41
ENDBRANCH  38  40
BRANCH  38  45
ATOM     45  O   LIG d   1       2.440  -1.492  -8.807  0.00  0.00    -0.350 OA
BRANCH  45  46
ATOM     46  C   LIG d   1       2.251  -0.197  -9.380  0.00  0.00     0.040 C 
ATOM     47  H   LIG d   1       1.187   0.037  -9.408  0.00  0.00     0.052 H 
ATOM     48  H   LIG d   1       2.771   0.547  -8.776  0.00  0.00     0.052 H 
ATOM     49  H   LIG d   1       2.652  -0.186 -10.394  0.00  0.00     0.052 H 
ENDBRANCH  45  46
ENDBRANCH  38  45
ENDBRANCH  35  38
ENDBRANCH  32  35
ENDBRANCH  29  32
ENDBRANCH  19  29
BRANCH   1  50
ATOM     50  C   LIG d   1       2.523  -0.923  -3.090  0.00  0.00    -0.060 C 
ATOM     51  H   LIG d   1       2.262  -1.709  -3.798  0.00  0.00     0.023 H 
ATOM     52  H   LIG d   1       3.240  -1.310  -2.364  0.00  0.00     0.023 H 
ATOM     53  H   LIG d   1       1.625  -0.588  -2.570  0.00  0.00     0.023 H 
ENDBRANCH   1  50
BRANCH   6  54
ATOM     54  C   LIG d   1       5.157  -1.943  -2.929  0.00  0.00    -0.057 C 
ATOM     55  H   LIG d   1       5.135  -1.725  -1.861  0.00  0.00     0.024 H 
ATOM     56  H   LIG d   1       4.172  -2.275  -3.253  0.00  0.00     0.024 H 
ATOM     57  H   LIG d   1       5.888  -2.727  -3.124  0.00  0.00     0.024 H 
ENDBRANCH   6  54
TORSDOF 10
ENDMDL
MODEL 4
REMARK VINA RESULT:      -5.6      1.354      1.968
REMARK  10 active torsions:
REMARK  status: ('A' for Active; 'I' for Inactive)
REMARK    1  A    between atoms: C_1  and  C_2 
REMARK    2  A    between atoms: C_7  and  C_29 
REMARK    3  A    between atoms: C_20  and  C_22 
REMARK    4  A    between atoms: C_22  and  N_55 
REMARK    5  A    between atoms: C_23  and  C_24 
REMARK    6  A    between atoms: C_23  and  N_55 
REMARK    7  A    between atoms: C_24  and  O_25 
REMARK    8  A    between atoms: C_24  and  O_27 
REMARK    9  A    between atoms: O_25  and  C_26 
REMARK   10  A    between atoms: O_27  and  C_28 
ROOT
ATOM      1  C   LIG d   1       3.348  -0.683  -3.308  0.00  0.00    -0.012 C 
ATOM      2  H   LIG d   1       2.366  -0.801  -3.768  0.00  0.00     0.033 H 
ATOM      3  C   LIG d   1       3.327   0.516  -2.353  0.00  0.00    -0.048 C 
ATOM      4  C   LIG d   1       4.727   0.749  -1.785  0.00  0.00    -0.052 C 
ATOM      5  C   LIG d   1       5.703   1.087  -2.913  0.00  0.00    -0.045 C 
ATOM      6  C   LIG d   1       5.800  -0.103  -3.869  0.00  0.00     0.003 C 
ATOM      7  C   LIG d   1       4.394  -0.425  -4.391  0.00  0.00     0.104 A 
ATOM      8  C   LIG d   1       4.273  -1.109  -5.737  0.00  0.00     0.096 A 
ATOM      9  H   LIG d   1       3.416  -1.769  -5.876  0.00  0.00     0.063 H 
ATOM     10  O   LIG d   1       3.963   0.275  -5.562  0.00  0.00    -0.363 OA
ATOM     11  C   LIG d   1       5.499  -1.470  -6.557  0.00  0.00     0.043 C 
ATOM     12  H   LIG d   1       5.374  -1.143  -7.588  0.00  0.00     0.037 H 
ATOM     13  C   LIG d   1       6.812  -0.945  -5.987  0.00  0.00     0.110 C 
ATOM     14  H   LIG d   1       7.445  -0.654  -6.825  0.00  0.00     0.074 H 
ATOM     15  C   LIG d   1       6.662   0.259  -5.080  0.00  0.00    -0.007 C 
ATOM     16  O   LIG d   1       7.476  -2.048  -5.322  0.00  0.00    -0.461 OA
ATOM     17  C   LIG d   1       6.722  -3.158  -5.362  0.00  0.00     0.316 C 
ATOM     18  O   LIG d   1       6.835  -4.115  -4.635  0.00  0.00    -0.250 OA
ATOM     19  C   LIG d   1       5.701  -3.007  -6.476  0.00  0.00     0.105 C 
ATOM     20  H   LIG d   1       4.768  -3.506  -6.214  0.00  0.00     0.047 H 
ATOM     21  H   LIG d   1       2.633   0.318  -1.536  0.00  0.00     0.027 H 
ATOM     22  H   LIG d   1       3.003   1.405  -2.893  0.00  0.00     0.027 H 
ATOM     23  H   LIG d   1       5.064  -0.154  -1.274  0.00  0.00     0.027 H 
ATOM     24  H   LIG d   1       4.696   1.573  -1.073  0.00  0.00     0.027 H 
ATOM     25  H   LIG d   1       6.687   1.297  -2.492  0.00  0.00     0.027 H 
ATOM     26  H   LIG d   1       5.344   1.962  -3.456  0.00  0.00     0.027 H 
ATOM     27  H   LIG d   1       7.646   0.580  -4.739  0.00  0.00     0.031 H 
ATOM     28  H   LIG d   1       6.187   1.071  -5.630  0.00  0.00     0.031 H 
ENDROOT
BRANCH  19  29
ATOM     29  C   LIG d   1       6.256  -3.550  -7.795  0.00  0.00    -0.020 C 
ATOM     30  H   LIG d   1       5.540  -4.247  -8.230  0.00  0.00     0.082 H 
ATOM     31  H   LIG d   1       6.424  -2.723  -8.485  0.00  0.00     0.082 H 
BRANCH  29  32
ATOM     32  N   LIG d   1       7.530  -4.245  -7.533  0.00  0.00     0.231 N 
ATOM     33  H   LIG d   1       7.678  -4.312  -6.519  0.00  0.00     0.202 HD
ATOM     34  H   LIG d   1       8.300  -3.714  -7.956  0.00  0.00     0.202 HD
BRANCH  32  35
ATOM     35  C   LIG d   1       7.500  -5.603  -8.110  0.00  0.00     0.019 C 
ATOM     36  H   LIG d   1       7.682  -5.550  -9.183  0.00  0.00     0.086 H 
ATOM     37  H   LIG d   1       8.269  -6.217  -7.640  0.00  0.00     0.086 H 
BRANCH  35  38
ATOM     38  C   LIG d   1       6.125  -6.225  -7.856  0.00  0.00     0.199 C 
ATOM     39  H   LIG d   1       5.371  -5.438  -7.828  0.00  0.00     0.097 H 
BRANCH  38  40
ATOM     40  O   LIG d   1       5.816  -7.144  -8.905  0.00  0.00    -0.350 OA
BRANCH  40  41
ATOM     41  C   LIG d   1       5.736  -6.543 -10.199  0.00  0.00     0.040 C 
ATOM     42  H   LIG d   1       4.724  -6.176 -10.367  0.00  0.00     0.052 H 
ATOM     43  H   LIG d   1       6.438  -5.712 -10.258  0.00  0.00     0.052 H 
ATOM     44  H   LIG d   1       5.984  -7.284 -10.959  0.00  0.00     0.052 H 
ENDBRANCH  40  41
ENDBRANCH  38  40
BRANCH  38  45
ATOM     45  O   LIG d   1       6.139  -6.916  -6.605  0.00  0.00    -0.350 OA
BRANCH  45  46
ATOM     46  C   LIG d   1       4.920  -6.804  -5.866  0.00  0.00     0.040 C 
ATOM     47  H   LIG d   1       4.728  -7.738  -5.338  0.00  0.00     0.052 H 
ATOM     48  H   LIG d   1       5.006  -5.990  -5.146  0.00  0.00     0.052 H 
ATOM     49  H   LIG d   1       4.097  -6.597  -6.551  0.00  0.00     0.052 H 
ENDBRANCH  45  46
ENDBRANCH  38  45
ENDBRANCH  35  38
ENDBRANCH  32  35
ENDBRANCH  29  32
ENDBRANCH  19  29
BRANCH   1  50
ATOM     50  C   LIG d   1       3.708  -1.951  -2.532  0.00  0.00    -0.060 C 
ATOM     51  H   LIG d   1       3.768  -2.794  -3.221  0.00  0.00     0.023 H 
ATOM     52  H   LIG d   1       4.672  -1.815  -2.040  0.00  0.00     0.023 H 
ATOM     53  H   LIG d   1       2.942  -2.148  -1.782  0.00  0.00     0.023 H 
ENDBRANCH   1  50
BRANCH   6  54
ATOM     54  C   LIG d   1       6.395  -1.312  -3.143  0.00  0.00    -0.057 C 
ATOM     55  H   LIG d   1       6.479  -1.091  -2.079  0.00  0.00     0.024 H 
ATOM     56  H   LIG d   1       5.748  -2.176  -3.286  0.00  0.00     0.024 H 
ATOM     57  H   LIG d   1       7.384  -1.527  -3.548  0.00  0.00     0.024 H 
ENDBRANCH   6  54
TORSDOF 10
ENDMDL
MODEL 5
REMARK VINA RESULT:      -5.6      2.079      3.650
REMARK  10 active torsions:
REMARK  status: ('A' for Active; 'I' for Inactive)
REMARK    1  A    between atoms: C_1  and  C_2 
REMARK    2  A    between atoms: C_7  and  C_29 
REMARK    3  A    between atoms: C_20  and  C_22 
REMARK    4  A    between atoms: C_22  and  N_55 
REMARK    5  A    between atoms: C_23  and  C_24 
REMARK    6  A    between atoms: C_23  and  N_55 
REMARK    7  A    between atoms: C_24  and  O_25 
REMARK    8  A    between atoms: C_24  and  O_27 
REMARK    9  A    between atoms: O_25  and  C_26 
REMARK   10  A    between atoms: O_27  and  C_28 
ROOT
ATOM      1  C   LIG d   1       3.403  -0.735  -3.381  0.00  0.00    -0.012 C 
ATOM      2  H   LIG d   1       2.444  -0.884  -3.878  0.00  0.00     0.033 H 
ATOM      3  C   LIG d   1       3.305   0.458  -2.422  0.00  0.00    -0.048 C 
ATOM      4  C   LIG d   1       4.676   0.735  -1.802  0.00  0.00    -0.052 C 
ATOM      5  C   LIG d   1       5.680   1.113  -2.892  0.00  0.00    -0.045 C 
ATOM      6  C   LIG d   1       5.853  -0.068  -3.848  0.00  0.00     0.003 C 
ATOM      7  C   LIG d   1       4.479  -0.435  -4.424  0.00  0.00     0.104 A 
ATOM      8  C   LIG d   1       4.431  -1.115  -5.777  0.00  0.00     0.096 A 
ATOM      9  H   LIG d   1       3.603  -1.803  -5.949  0.00  0.00     0.063 H 
ATOM     10  O   LIG d   1       4.067   0.256  -5.607  0.00  0.00    -0.363 OA
ATOM     11  C   LIG d   1       5.698  -1.429  -6.551  0.00  0.00     0.043 C 
ATOM     12  H   LIG d   1       5.600  -1.100  -7.586  0.00  0.00     0.037 H 
ATOM     13  C   LIG d   1       6.970  -0.862  -5.931  0.00  0.00     0.110 C 
ATOM     14  H   LIG d   1       7.624  -0.546  -6.744  0.00  0.00     0.074 H 
ATOM     15  C   LIG d   1       6.746   0.331  -5.025  0.00  0.00    -0.007 C 
ATOM     16  O   LIG d   1       7.647  -1.946  -5.247  0.00  0.00    -0.461 OA
ATOM     17  C   LIG d   1       6.933  -3.081  -5.320  0.00  0.00     0.316 C 
ATOM     18  O   LIG d   1       7.053  -4.038  -4.593  0.00  0.00    -0.250 OA
ATOM     19  C   LIG d   1       5.950  -2.959  -6.470  0.00  0.00     0.105 C 
ATOM     20  H   LIG d   1       5.026  -3.491  -6.245  0.00  0.00     0.047 H 
ATOM     21  H   LIG d   1       2.589   0.231  -1.632  0.00  0.00     0.027 H 
ATOM     22  H   LIG d   1       2.971   1.338  -2.970  0.00  0.00     0.027 H 
ATOM     23  H   LIG d   1       5.024  -0.159  -1.283  0.00  0.00     0.027 H 
ATOM     24  H   LIG d   1       4.590   1.554  -1.088  0.00  0.00     0.027 H 
ATOM     25  H   LIG d   1       6.640   1.354  -2.434  0.00  0.00     0.027 H 
ATOM     26  H   LIG d   1       5.311   1.978  -3.443  0.00  0.00     0.027 H 
ATOM     27  H   LIG d   1       7.705   0.683  -4.647  0.00  0.00     0.031 H 
ATOM     28  H   LIG d   1       6.264   1.128  -5.589  0.00  0.00     0.031 H 
ENDROOT
BRANCH  19  29
ATOM     29  C   LIG d   1       6.572  -3.475  -7.770  0.00  0.00    -0.020 C 
ATOM     30  H   LIG d   1       5.880  -4.166  -8.253  0.00  0.00     0.082 H 
ATOM     31  H   LIG d   1       6.770  -2.635  -8.436  0.00  0.00     0.082 H 
BRANCH  29  32
ATOM     32  N   LIG d   1       7.834  -4.171  -7.459  0.00  0.00     0.231 N 
ATOM     33  H   LIG d   1       7.681  -5.185  -7.501  0.00  0.00     0.202 HD
ATOM     34  H   LIG d   1       8.141  -3.911  -6.514  0.00  0.00     0.202 HD
BRANCH  32  35
ATOM     35  C   LIG d   1       8.878  -3.796  -8.431  0.00  0.00     0.019 C 
ATOM     36  H   LIG d   1       9.144  -4.663  -9.036  0.00  0.00     0.086 H 
ATOM     37  H   LIG d   1       8.508  -3.002  -9.079  0.00  0.00     0.086 H 
BRANCH  35  38
ATOM     38  C   LIG d   1      10.114  -3.304  -7.675  0.00  0.00     0.199 C 
ATOM     39  H   LIG d   1      11.010  -3.545  -8.247  0.00  0.00     0.097 H 
BRANCH  38  40
ATOM     40  O   LIG d   1      10.030  -1.888  -7.496  0.00  0.00    -0.350 OA
BRANCH  40  41
ATOM     41  C   LIG d   1       9.567  -1.183  -8.649  0.00  0.00     0.040 C 
ATOM     42  H   LIG d   1       8.512  -1.403  -8.810  0.00  0.00     0.052 H 
ATOM     43  H   LIG d   1       9.696  -0.111  -8.496  0.00  0.00     0.052 H 
ATOM     44  H   LIG d   1      10.141  -1.496  -9.521  0.00  0.00     0.052 H 
ENDBRANCH  40  41
ENDBRANCH  38  40
BRANCH  38  45
ATOM     45  O   LIG d   1      10.177  -3.942  -6.399  0.00  0.00    -0.350 OA
BRANCH  45  46
ATOM     46  C   LIG d   1      10.951  -3.231  -5.430  0.00  0.00     0.040 C 
ATOM     47  H   LIG d   1      10.974  -2.172  -5.689  0.00  0.00     0.052 H 
ATOM     48  H   LIG d   1      10.501  -3.353  -4.445  0.00  0.00     0.052 H 
ATOM     49  H   LIG d   1      11.968  -3.625  -5.417  0.00  0.00     0.052 H 
ENDBRANCH  45  46
ENDBRANCH  38  45
ENDBRANCH  35  38
ENDBRANCH  32  35
ENDBRANCH  29  32
ENDBRANCH  19  29
BRANCH   1  50
ATOM     50  C   LIG d   1       3.778  -1.994  -2.598  0.00  0.00    -0.060 C 
ATOM     51  H   LIG d   1       4.849  -2.173  -2.689  0.00  0.00     0.023 H 
ATOM     52  H   LIG d   1       3.520  -1.859  -1.547  0.00  0.00     0.023 H 
ATOM     53  H   LIG d   1       3.232  -2.848  -2.999  0.00  0.00     0.023 H 
ENDBRANCH   1  50
BRANCH   6  54
ATOM     54  C   LIG d   1       6.462  -1.259  -3.106  0.00  0.00    -0.057 C 
ATOM     55  H   LIG d   1       5.702  -1.724  -2.478  0.00  0.00     0.024 H 
ATOM     56  H   LIG d   1       6.832  -1.986  -3.829  0.00  0.00     0.024 H 
ATOM     57  H   LIG d   1       7.287  -0.915  -2.483  0.00  0.00     0.024 H 
ENDBRANCH   6  54
TORSDOF 10
ENDMDL
MODEL 6
REMARK VINA RESULT:      -5.5      2.008      3.120
REMARK  10 active torsions:
REMARK  status: ('A' for Active; 'I' for Inactive)
REMARK    1  A    between atoms: C_1  and  C_2 
REMARK    2  A    between atoms: C_7  and  C_29 
REMARK    3  A    between atoms: C_20  and  C_22 
REMARK    4  A    between atoms: C_22  and  N_55 
REMARK    5  A    between atoms: C_23  and  C_24 
REMARK    6  A    between atoms: C_23  and  N_55 
REMARK    7  A    between atoms: C_24  and  O_25 
REMARK    8  A    between atoms: C_24  and  O_27 
REMARK    9  A    between atoms: O_25  and  C_26 
REMARK   10  A    between atoms: O_27  and  C_28 
ROOT
ATOM      1  C   LIG d   1       3.147   0.298  -4.017  0.00  0.00    -0.012 C 
ATOM      2  H   LIG d   1       2.489   0.677  -4.801  0.00  0.00     0.033 H 
ATOM      3  C   LIG d   1       3.491   1.430  -3.042  0.00  0.00    -0.048 C 
ATOM      4  C   LIG d   1       4.494   0.930  -2.003  0.00  0.00    -0.052 C 
ATOM      5  C   LIG d   1       5.797   0.512  -2.687  0.00  0.00    -0.045 C 
ATOM      6  C   LIG d   1       5.516  -0.654  -3.635  0.00  0.00     0.003 C 
ATOM      7  C   LIG d   1       4.443  -0.218  -4.641  0.00  0.00     0.104 A 
ATOM      8  C   LIG d   1       4.411  -0.903  -5.992  0.00  0.00     0.096 A 
ATOM      9  H   LIG d   1       3.436  -0.994  -6.472  0.00  0.00     0.063 H 
ATOM     10  O   LIG d   1       4.898   0.431  -5.833  0.00  0.00    -0.363 OA
ATOM     11  C   LIG d   1       5.407  -1.991  -6.353  0.00  0.00     0.043 C 
ATOM     12  H   LIG d   1       5.839  -1.798  -7.335  0.00  0.00     0.037 H 
ATOM     13  C   LIG d   1       6.509  -2.202  -5.321  0.00  0.00     0.110 C 
ATOM     14  H   LIG d   1       7.429  -2.430  -5.858  0.00  0.00     0.074 H 
ATOM     15  C   LIG d   1       6.773  -1.001  -4.435  0.00  0.00    -0.007 C 
ATOM     16  O   LIG d   1       6.170  -3.382  -4.550  0.00  0.00    -0.461 OA
ATOM     17  C   LIG d   1       4.987  -3.885  -4.937  0.00  0.00     0.316 C 
ATOM     18  O   LIG d   1       4.293  -4.633  -4.291  0.00  0.00    -0.250 OA
ATOM     19  C   LIG d   1       4.668  -3.356  -6.323  0.00  0.00     0.105 C 
ATOM     20  H   LIG d   1       3.594  -3.215  -6.445  0.00  0.00     0.047 H 
ATOM     21  H   LIG d   1       2.583   1.764  -2.539  0.00  0.00     0.027 H 
ATOM     22  H   LIG d   1       3.925   2.264  -3.593  0.00  0.00     0.027 H 
ATOM     23  H   LIG d   1       4.072   0.073  -1.476  0.00  0.00     0.027 H 
ATOM     24  H   LIG d   1       4.700   1.725  -1.287  0.00  0.00     0.027 H 
ATOM     25  H   LIG d   1       6.521   0.202  -1.933  0.00  0.00     0.027 H 
ATOM     26  H   LIG d   1       6.198   1.353  -3.253  0.00  0.00     0.027 H 
ATOM     27  H   LIG d   1       7.587  -1.232  -3.747  0.00  0.00     0.031 H 
ATOM     28  H   LIG d   1       7.053  -0.150  -5.054  0.00  0.00     0.031 H 
ENDROOT
BRANCH  19  29
ATOM     29  C   LIG d   1       5.219  -4.293  -7.400  0.00  0.00    -0.020 C 
ATOM     30  H   LIG d   1       4.436  -4.509  -8.128  0.00  0.00     0.082 H 
ATOM     31  H   LIG d   1       6.059  -3.814  -7.903  0.00  0.00     0.082 H 
BRANCH  29  32
ATOM     32  N   LIG d   1       5.667  -5.546  -6.766  0.00  0.00     0.231 N 
ATOM     33  H   LIG d   1       5.095  -6.326  -7.112  0.00  0.00     0.202 HD
ATOM     34  H   LIG d   1       5.560  -5.469  -5.748  0.00  0.00     0.202 HD
BRANCH  32  35
ATOM     35  C   LIG d   1       7.084  -5.805  -7.088  0.00  0.00     0.019 C 
ATOM     36  H   LIG d   1       7.151  -6.593  -7.838  0.00  0.00     0.086 H 
ATOM     37  H   LIG d   1       7.543  -4.895  -7.475  0.00  0.00     0.086 H 
BRANCH  35  38
ATOM     38  C   LIG d   1       7.814  -6.245  -5.818  0.00  0.00     0.199 C 
ATOM     39  H   LIG d   1       7.090  -6.398  -5.017  0.00  0.00     0.097 H 
BRANCH  38  40
ATOM     40  O   LIG d   1       8.511  -7.468  -6.068  0.00  0.00    -0.350 OA
BRANCH  40  41
ATOM     41  C   LIG d   1       8.172  -8.086  -7.311  0.00  0.00     0.040 C 
ATOM     42  H   LIG d   1       8.323  -7.376  -8.124  0.00  0.00     0.052 H 
ATOM     43  H   LIG d   1       8.806  -8.958  -7.468  0.00  0.00     0.052 H 
ATOM     44  H   LIG d   1       7.127  -8.396  -7.289  0.00  0.00     0.052 H 
ENDBRANCH  40  41
ENDBRANCH  38  40
BRANCH  38  45
ATOM     45  O   LIG d   1       8.748  -5.236  -5.431  0.00  0.00    -0.350 OA
BRANCH  45  46
ATOM     46  C   LIG d   1       9.166  -5.323  -4.067  0.00  0.00     0.040 C 
ATOM     47  H   LIG d   1       9.940  -4.581  -3.875  0.00  0.00     0.052 H 
ATOM     48  H   LIG d   1       8.313  -5.136  -3.413  0.00  0.00     0.052 H 
ATOM     49  H   LIG d   1       9.561  -6.320  -3.871  0.00  0.00     0.052 H 
ENDBRANCH  45  46
ENDBRANCH  38  45
ENDBRANCH  35  38
ENDBRANCH  32  35
ENDBRANCH  29  32
ENDBRANCH  19  29
BRANCH   1  50
ATOM     50  C   LIG d   1       2.449  -0.835  -3.263  0.00  0.00    -0.060 C 
ATOM     51  H   LIG d   1       1.462  -1.005  -3.695  0.00  0.00     0.023 H 
ATOM     52  H   LIG d   1       3.043  -1.746  -3.344  0.00  0.00     0.023 H 
ATOM     53  H   LIG d   1       2.344  -0.562  -2.213  0.00  0.00     0.023 H 
ENDBRANCH   1  50
BRANCH   6  54
ATOM     54  C   LIG d   1       5.046  -1.875  -2.841  0.00  0.00    -0.057 C 
ATOM     55  H   LIG d   1       5.555  -2.765  -3.208  0.00  0.00     0.024 H 
ATOM     56  H   LIG d   1       5.277  -1.732  -1.786  0.00  0.00     0.024 H 
ATOM     57  H   LIG d   1       3.970  -1.995  -2.963  0.00  0.00     0.024 H 
ENDBRANCH   6  54
TORSDOF 10
ENDMDL
MODEL 7
REMARK VINA RESULT:      -5.5      2.311      3.445
REMARK  10 active torsions:
REMARK  status: ('A' for Active; 'I' for Inactive)
REMARK    1  A    between atoms: C_1  and  C_2 
REMARK    2  A    between atoms: C_7  and  C_29 
REMARK    3  A    between atoms: C_20  and  C_22 
REMARK    4  A    between atoms: C_22  and  N_55 
REMARK    5  A    between atoms: C_23  and  C_24 
REMARK    6  A    between atoms: C_23  and  N_55 
REMARK    7  A    between atoms: C_24  and  O_25 
REMARK    8  A    between atoms: C_24  and  O_27 
REMARK    9  A    between atoms: O_25  and  C_26 
REMARK   10  A    between atoms: O_27  and  C_28 
ROOT
ATOM      1  C   LIG d   1       3.279  -0.586  -3.372  0.00  0.00    -0.012 C 
ATOM      2  H   LIG d   1       2.295  -0.632  -3.839  0.00  0.00     0.033 H 
ATOM      3  C   LIG d   1       3.304   0.540  -2.332  0.00  0.00    -0.048 C 
ATOM      4  C   LIG d   1       4.711   0.675  -1.750  0.00  0.00    -0.052 C 
ATOM      5  C   LIG d   1       5.702   1.056  -2.852  0.00  0.00    -0.045 C 
ATOM      6  C   LIG d   1       5.753  -0.065  -3.891  0.00  0.00     0.003 C 
ATOM      7  C   LIG d   1       4.337  -0.292  -4.435  0.00  0.00     0.104 A 
ATOM      8  C   LIG d   1       4.192  -0.871  -5.827  0.00  0.00     0.096 A 
ATOM      9  H   LIG d   1       3.310  -1.485  -6.012  0.00  0.00     0.063 H 
ATOM     10  O   LIG d   1       3.936   0.507  -5.551  0.00  0.00    -0.363 OA
ATOM     11  C   LIG d   1       5.404  -1.221  -6.671  0.00  0.00     0.043 C 
ATOM     12  H   LIG d   1       5.295  -0.814  -7.676  0.00  0.00     0.037 H 
ATOM     13  C   LIG d   1       6.735  -0.790  -6.066  0.00  0.00     0.110 C 
ATOM     14  H   LIG d   1       7.382  -0.465  -6.881  0.00  0.00     0.074 H 
ATOM     15  C   LIG d   1       6.632   0.350  -5.073  0.00  0.00    -0.007 C 
ATOM     16  O   LIG d   1       7.354  -1.964  -5.483  0.00  0.00    -0.461 OA
ATOM     17  C   LIG d   1       6.557  -3.037  -5.603  0.00  0.00     0.316 C 
ATOM     18  O   LIG d   1       6.631  -4.049  -4.947  0.00  0.00    -0.250 OA
ATOM     19  C   LIG d   1       5.545  -2.766  -6.702  0.00  0.00     0.105 C 
ATOM     20  H   LIG d   1       4.593  -3.245  -6.476  0.00  0.00     0.047 H 
ATOM     21  H   LIG d   1       2.601   0.311  -1.531  0.00  0.00     0.027 H 
ATOM     22  H   LIG d   1       3.017   1.478  -2.807  0.00  0.00     0.027 H 
ATOM     23  H   LIG d   1       5.011  -0.275  -1.306  0.00  0.00     0.027 H 
ATOM     24  H   LIG d   1       4.711   1.447  -0.980  0.00  0.00     0.027 H 
ATOM     25  H   LIG d   1       6.693   1.195  -2.418  0.00  0.00     0.027 H 
ATOM     26  H   LIG d   1       5.379   1.981  -3.329  0.00  0.00     0.027 H 
ATOM     27  H   LIG d   1       7.627   0.606  -4.711  0.00  0.00     0.031 H 
ATOM     28  H   LIG d   1       6.191   1.217  -5.563  0.00  0.00     0.031 H 
ENDROOT
BRANCH  19  29
ATOM     29  C   LIG d   1       6.081  -3.233  -8.057  0.00  0.00    -0.020 C 
ATOM     30  H   LIG d   1       7.169  -3.162  -8.061  0.00  0.00     0.082 H 
ATOM     31  H   LIG d   1       5.784  -4.268  -8.228  0.00  0.00     0.082 H 
BRANCH  29  32
ATOM     32  N   LIG d   1       5.524  -2.375  -9.119  0.00  0.00     0.231 N 
ATOM     33  H   LIG d   1       5.188  -1.497  -8.705  0.00  0.00     0.202 HD
ATOM     34  H   LIG d   1       4.740  -2.860  -9.571  0.00  0.00     0.202 HD
BRANCH  32  35
ATOM     35  C   LIG d   1       6.557  -2.072 -10.128  0.00  0.00     0.019 C 
ATOM     36  H   LIG d   1       7.540  -2.077  -9.659  0.00  0.00     0.086 H 
ATOM     37  H   LIG d   1       6.527  -2.823 -10.918  0.00  0.00     0.086 H 
BRANCH  35  38
ATOM     38  C   LIG d   1       6.283  -0.691 -10.727  0.00  0.00     0.199 C 
ATOM     39  H   LIG d   1       7.099  -0.418 -11.397  0.00  0.00     0.097 H 
BRANCH  38  40
ATOM     40  O   LIG d   1       5.056  -0.723 -11.459  0.00  0.00    -0.350 OA
BRANCH  40  41
ATOM     41  C   LIG d   1       4.268   0.461 -11.325  0.00  0.00     0.040 C 
ATOM     42  H   LIG d   1       4.560   1.181 -12.089  0.00  0.00     0.052 H 
ATOM     43  H   LIG d   1       3.214   0.212 -11.445  0.00  0.00     0.052 H 
ATOM     44  H   LIG d   1       4.429   0.895 -10.338  0.00  0.00     0.052 H 
ENDBRANCH  40  41
ENDBRANCH  38  40
BRANCH  38  45
ATOM     45  O   LIG d   1       6.186   0.272  -9.676  0.00  0.00    -0.350 OA
BRANCH  45  46
ATOM     46  C   LIG d   1       7.417   0.935  -9.380  0.00  0.00     0.040 C 
ATOM     47  H   LIG d   1       8.177   0.195  -9.130  0.00  0.00     0.052 H 
ATOM     48  H   LIG d   1       7.740   1.508 -10.249  0.00  0.00     0.052 H 
ATOM     49  H   LIG d   1       7.273   1.608  -8.534  0.00  0.00     0.052 H 
ENDBRANCH  45  46
ENDBRANCH  38  45
ENDBRANCH  35  38
ENDBRANCH  32  35
ENDBRANCH  29  32
ENDBRANCH  19  29
BRANCH   1  50
ATOM     50  C   LIG d   1       3.587  -1.921  -2.690  0.00  0.00    -0.060 C 
ATOM     51  H   LIG d   1       4.062  -1.735  -1.727  0.00  0.00     0.023 H 
ATOM     52  H   LIG d   1       2.660  -2.474  -2.538  0.00  0.00     0.023 H 
ATOM     53  H   LIG d   1       4.259  -2.504  -3.320  0.00  0.00     0.023 H 
ENDBRANCH   1  50
BRANCH   6  54
ATOM     54  C   LIG d   1       6.299  -1.346  -3.255  0.00  0.00    -0.057 C 
ATOM     55  H   LIG d   1       5.525  -1.803  -2.639  0.00  0.00     0.024 H 
ATOM     56  H   LIG d   1       6.599  -2.041  -4.039  0.00  0.00     0.024 H 
ATOM     57  H   LIG d   1       7.162  -1.104  -2.635  0.00  0.00     0.024 H 
ENDBRANCH   6  54
TORSDOF 10
ENDMDL
MODEL 8
REMARK VINA RESULT:      -5.4      1.610      2.498
REMARK  10 active torsions:
REMARK  status: ('A' for Active; 'I' for Inactive)
REMARK    1  A    between atoms: C_1  and  C_2 
REMARK    2  A    between atoms: C_7  and  C_29 
REMARK    3  A    between atoms: C_20  and  C_22 
REMARK    4  A    between atoms: C_22  and  N_55 
REMARK    5  A    between atoms: C_23  and  C_24 
REMARK    6  A    between atoms: C_23  and  N_55 
REMARK    7  A    between atoms: C_24  and  O_25 
REMARK    8  A    between atoms: C_24  and  O_27 
REMARK    9  A    between atoms: O_25  and  C_26 
REMARK   10  A    between atoms: O_27  and  C_28 
ROOT
ATOM      1  C   LIG d   1       3.046   0.152  -3.548  0.00  0.00    -0.012 C 
ATOM      2  H   LIG d   1       2.174   0.501  -4.102  0.00  0.00     0.033 H 
ATOM      3  C   LIG d   1       3.534   1.260  -2.606  0.00  0.00    -0.048 C 
ATOM      4  C   LIG d   1       4.817   0.813  -1.904  0.00  0.00    -0.052 C 
ATOM      5  C   LIG d   1       5.924   0.575  -2.933  0.00  0.00    -0.045 C 
ATOM      6  C   LIG d   1       5.507  -0.561  -3.868  0.00  0.00     0.003 C 
ATOM      7  C   LIG d   1       4.172  -0.187  -4.524  0.00  0.00     0.104 A 
ATOM      8  C   LIG d   1       3.845  -0.797  -5.872  0.00  0.00     0.096 A 
ATOM      9  H   LIG d   1       2.790  -0.965  -6.090  0.00  0.00     0.063 H 
ATOM     10  O   LIG d   1       4.236   0.571  -5.736  0.00  0.00    -0.363 OA
ATOM     11  C   LIG d   1       4.802  -1.750  -6.565  0.00  0.00     0.043 C 
ATOM     12  H   LIG d   1       4.940  -1.458  -7.606  0.00  0.00     0.037 H 
ATOM     13  C   LIG d   1       6.152  -1.898  -5.871  0.00  0.00     0.110 C 
ATOM     14  H   LIG d   1       6.914  -1.997  -6.644  0.00  0.00     0.074 H 
ATOM     15  C   LIG d   1       6.533  -0.727  -4.990  0.00  0.00    -0.007 C 
ATOM     16  O   LIG d   1       6.135  -3.148  -5.138  0.00  0.00    -0.461 OA
ATOM     17  C   LIG d   1       4.942  -3.753  -5.246  0.00  0.00     0.316 C 
ATOM     18  O   LIG d   1       4.512  -4.605  -4.506  0.00  0.00    -0.250 OA
ATOM     19  C   LIG d   1       4.221  -3.186  -6.456  0.00  0.00     0.105 C 
ATOM     20  H   LIG d   1       3.145  -3.154  -6.285  0.00  0.00     0.047 H 
ATOM     21  H   LIG d   1       2.766   1.466  -1.860  0.00  0.00     0.027 H 
ATOM     22  H   LIG d   1       3.731   2.164  -3.181  0.00  0.00     0.027 H 
ATOM     23  H   LIG d   1       4.627  -0.111  -1.358  0.00  0.00     0.027 H 
ATOM     24  H   LIG d   1       5.133   1.586  -1.204  0.00  0.00     0.027 H 
ATOM     25  H   LIG d   1       6.847   0.303  -2.418  0.00  0.00     0.027 H 
ATOM     26  H   LIG d   1       6.084   1.484  -3.513  0.00  0.00     0.027 H 
ATOM     27  H   LIG d   1       7.517  -0.906  -4.556  0.00  0.00     0.031 H 
ATOM     28  H   LIG d   1       6.563   0.182  -5.589  0.00  0.00     0.031 H 
ENDROOT
BRANCH  19  29
ATOM     29  C   LIG d   1       4.549  -3.998  -7.711  0.00  0.00    -0.020 C 
ATOM     30  H   LIG d   1       5.190  -3.409  -8.367  0.00  0.00     0.082 H 
ATOM     31  H   LIG d   1       5.065  -4.915  -7.425  0.00  0.00     0.082 H 
BRANCH  29  32
ATOM     32  N   LIG d   1       3.295  -4.332  -8.411  0.00  0.00     0.231 N 
ATOM     33  H   LIG d   1       3.027  -3.550  -9.020  0.00  0.00     0.202 HD
ATOM     34  H   LIG d   1       2.553  -4.495  -7.719  0.00  0.00     0.202 HD
BRANCH  32  35
ATOM     35  C   LIG d   1       3.473  -5.546  -9.230  0.00  0.00     0.019 C 
ATOM     36  H   LIG d   1       4.259  -5.379  -9.967  0.00  0.00     0.086 H 
ATOM     37  H   LIG d   1       3.748  -6.383  -8.588  0.00  0.00     0.086 H 
BRANCH  35  38
ATOM     38  C   LIG d   1       2.159  -5.864  -9.948  0.00  0.00     0.199 C 
ATOM     39  H   LIG d   1       1.390  -5.161  -9.624  0.00  0.00     0.097 H 
BRANCH  38  40
ATOM     40  O   LIG d   1       2.347  -5.746 -11.360  0.00  0.00    -0.350 OA
BRANCH  40  41
ATOM     41  C   LIG d   1       1.165  -5.382 -12.075  0.00  0.00     0.040 C 
ATOM     42  H   LIG d   1       0.998  -6.090 -12.886  0.00  0.00     0.052 H 
ATOM     43  H   LIG d   1       0.311  -5.398 -11.398  0.00  0.00     0.052 H 
ATOM     44  H   LIG d   1       1.284  -4.380 -12.486  0.00  0.00     0.052 H 
ENDBRANCH  40  41
ENDBRANCH  38  40
BRANCH  38  45
ATOM     45  O   LIG d   1       1.753  -7.196  -9.630  0.00  0.00    -0.350 OA
BRANCH  45  46
ATOM     46  C   LIG d   1       2.784  -8.172  -9.793  0.00  0.00     0.040 C 
ATOM     47  H   LIG d   1       3.692  -7.828  -9.300  0.00  0.00     0.052 H 
ATOM     48  H   LIG d   1       2.464  -9.115  -9.348  0.00  0.00     0.052 H 
ATOM     49  H   LIG d   1       2.980  -8.321 -10.855  0.00  0.00     0.052 H 
ENDBRANCH  45  46
ENDBRANCH  38  45
ENDBRANCH  35  38
ENDBRANCH  32  35
ENDBRANCH  29  32
ENDBRANCH  19  29
BRANCH   1  50
ATOM     50  C   LIG d   1       2.676  -1.089  -2.733  0.00  0.00    -0.060 C 
ATOM     51  H   LIG d   1       1.592  -1.197  -2.710  0.00  0.00     0.023 H 
ATOM     52  H   LIG d   1       3.120  -1.972  -3.194  0.00  0.00     0.023 H 
ATOM     53  H   LIG d   1       3.053  -0.981  -1.716  0.00  0.00     0.023 H 
ENDBRANCH   1  50
BRANCH   6  54
ATOM     54  C   LIG d   1       5.374  -1.866  -3.080  0.00  0.00    -0.057 C 
ATOM     55  H   LIG d   1       5.189  -2.689  -3.770  0.00  0.00     0.024 H 
ATOM     56  H   LIG d   1       6.295  -2.053  -2.529  0.00  0.00     0.024 H 
ATOM     57  H   LIG d   1       4.542  -1.785  -2.381  0.00  0.00     0.024 H 
ENDBRANCH   6  54
TORSDOF 10
ENDMDL
MODEL 9
REMARK VINA RESULT:      -5.3      2.868      4.334
REMARK  10 active torsions:
REMARK  status: ('A' for Active; 'I' for Inactive)
REMARK    1  A    between atoms: C_1  and  C_2 
REMARK    2  A    between atoms: C_7  and  C_29 
REMARK    3  A    between atoms: C_20  and  C_22 
REMARK    4  A    between atoms: C_22  and  N_55 
REMARK    5  A    between atoms: C_23  and  C_24 
REMARK    6  A    between atoms: C_23  and  N_55 
REMARK    7  A    between atoms: C_24  and  O_25 
REMARK    8  A    between atoms: C_24  and  O_27 
REMARK    9  A    between atoms: O_25  and  C_26 
REMARK   10  A    between atoms: O_27  and  C_28 
ROOT
ATOM      1  C   LIG d   1       4.993   1.076  -3.145  0.00  0.00    -0.012 C 
ATOM      2  H   LIG d   1       5.518   2.031  -3.180  0.00  0.00     0.033 H 
ATOM      3  C   LIG d   1       4.739   0.682  -1.685  0.00  0.00    -0.048 C 
ATOM      4  C   LIG d   1       4.096  -0.704  -1.629  0.00  0.00    -0.052 C 
ATOM      5  C   LIG d   1       5.045  -1.749  -2.219  0.00  0.00    -0.045 C 
ATOM      6  C   LIG d   1       5.290  -1.429  -3.695  0.00  0.00     0.003 C 
ATOM      7  C   LIG d   1       5.853  -0.005  -3.799  0.00  0.00     0.104 A 
ATOM      8  C   LIG d   1       6.714   0.335  -4.998  0.00  0.00     0.096 A 
ATOM      9  H   LIG d   1       6.682   1.369  -5.345  0.00  0.00     0.063 H 
ATOM     10  O   LIG d   1       7.273   0.139  -3.698  0.00  0.00    -0.363 OA
ATOM     11  C   LIG d   1       7.020  -0.693  -6.072  0.00  0.00     0.043 C 
ATOM     12  H   LIG d   1       8.087  -0.703  -6.293  0.00  0.00     0.037 H 
ATOM     13  C   LIG d   1       6.531  -2.100  -5.751  0.00  0.00     0.110 C 
ATOM     14  H   LIG d   1       7.271  -2.804  -6.131  0.00  0.00     0.074 H 
ATOM     15  C   LIG d   1       6.344  -2.376  -4.273  0.00  0.00    -0.007 C 
ATOM     16  O   LIG d   1       5.313  -2.326  -6.505  0.00  0.00    -0.461 OA
ATOM     17  C   LIG d   1       4.966  -1.229  -7.197  0.00  0.00     0.316 C 
ATOM     18  O   LIG d   1       3.867  -0.989  -7.636  0.00  0.00    -0.250 OA
ATOM     19  C   LIG d   1       6.188  -0.339  -7.334  0.00  0.00     0.105 C 
ATOM     20  H   LIG d   1       5.903   0.713  -7.325  0.00  0.00     0.047 H 
ATOM     21  H   LIG d   1       4.071   1.410  -1.224  0.00  0.00     0.027 H 
ATOM     22  H   LIG d   1       5.684   0.666  -1.144  0.00  0.00     0.027 H 
ATOM     23  H   LIG d   1       3.168  -0.696  -2.200  0.00  0.00     0.027 H 
ATOM     24  H   LIG d   1       3.877  -0.959  -0.592  0.00  0.00     0.027 H 
ATOM     25  H   LIG d   1       4.597  -2.739  -2.131  0.00  0.00     0.027 H 
ATOM     26  H   LIG d   1       5.993  -1.727  -1.680  0.00  0.00     0.027 H 
ATOM     27  H   LIG d   1       6.017  -3.407  -4.136  0.00  0.00     0.031 H 
ATOM     28  H   LIG d   1       7.289  -2.224  -3.755  0.00  0.00     0.031 H 
ENDROOT
BRANCH  19  29
ATOM     29  C   LIG d   1       6.965  -0.680  -8.607  0.00  0.00    -0.020 C 
ATOM     30  H   LIG d   1       7.735   0.073  -8.775  0.00  0.00     0.082 H 
ATOM     31  H   LIG d   1       7.433  -1.659  -8.496  0.00  0.00     0.082 H 
BRANCH  29  32
ATOM     32  N   LIG d   1       6.034  -0.702  -9.750  0.00  0.00     0.231 N 
ATOM     33  H   LIG d   1       5.151  -1.138  -9.460  0.00  0.00     0.202 HD
ATOM     34  H   LIG d   1       6.448  -1.248 -10.515  0.00  0.00     0.202 HD
BRANCH  32  35
ATOM     35  C   LIG d   1       5.767   0.671 -10.220  0.00  0.00     0.019 C 
ATOM     36  H   LIG d   1       5.694   1.343  -9.365  0.00  0.00     0.086 H 
ATOM     37  H   LIG d   1       6.577   0.998 -10.872  0.00  0.00     0.086 H 
BRANCH  35  38
ATOM     38  C   LIG d   1       4.448   0.687 -10.996  0.00  0.00     0.199 C 
ATOM     39  H   LIG d   1       4.648   0.909 -12.045  0.00  0.00     0.097 H 
BRANCH  38  40
ATOM     40  O   LIG d   1       3.817  -0.591 -10.891  0.00  0.00    -0.350 OA
BRANCH  40  41
ATOM     41  C   LIG d   1       2.390  -0.537 -10.912  0.00  0.00     0.040 C 
ATOM     42  H   LIG d   1       2.053   0.379 -10.428  0.00  0.00     0.052 H 
ATOM     43  H   LIG d   1       2.041  -0.552 -11.944  0.00  0.00     0.052 H 
ATOM     44  H   LIG d   1       1.986  -1.399 -10.380  0.00  0.00     0.052 H 
ENDBRANCH  40  41
ENDBRANCH  38  40
BRANCH  38  45
ATOM     45  O   LIG d   1       3.588   1.690 -10.452  0.00  0.00    -0.350 OA
BRANCH  45  46
ATOM     46  C   LIG d   1       4.162   2.422  -9.367  0.00  0.00     0.040 C 
ATOM     47  H   LIG d   1       4.645   3.321  -9.749  0.00  0.00     0.052 H 
ATOM     48  H   LIG d   1       3.379   2.702  -8.662  0.00  0.00     0.052 H 
ATOM     49  H   LIG d   1       4.901   1.800  -8.859  0.00  0.00     0.052 H 
ENDBRANCH  45  46
ENDBRANCH  38  45
ENDBRANCH  35  38
ENDBRANCH  32  35
ENDBRANCH  29  32
ENDBRANCH  19  29
BRANCH   1  50
ATOM     50  C   LIG d   1       3.659   1.195  -3.885  0.00  0.00    -0.060 C 
ATOM     51  H   LIG d   1       2.847   1.256  -3.161  0.00  0.00     0.023 H 
ATOM     52  H   LIG d   1       3.665   2.094  -4.502  0.00  0.00     0.023 H 
ATOM     53  H   LIG d   1       3.516   0.320  -4.519  0.00  0.00     0.023 H 
ENDBRANCH   1  50
BRANCH   6  54
ATOM     54  C   LIG d   1       3.984  -1.552  -4.482  0.00  0.00    -0.057 C 
ATOM     55  H   LIG d   1       4.203  -1.870  -5.501  0.00  0.00     0.024 H 
ATOM     56  H   LIG d   1       3.339  -2.286  -4.002  0.00  0.00     0.024 H 
ATOM     57  H   LIG d   1       3.481  -0.585  -4.504  0.00  0.00     0.024 H 
ENDBRANCH   6  54
TORSDOF 10
ENDMDL
MODEL 10
REMARK VINA RESULT:      -5.3      3.854      7.343
REMARK  10 active torsions:
REMARK  status: ('A' for Active; 'I' for Inactive)
REMARK    1  A    between atoms: C_1  and  C_2 
REMARK    2  A    between atoms: C_7  and  C_29 
REMARK    3  A    between atoms: C_20  and  C_22 
REMARK    4  A    between atoms: C_22  and  N_55 
REMARK    5  A    between atoms: C_23  and  C_24 
REMARK    6  A    between atoms: C_23  and  N_55 
REMARK    7  A    between atoms: C_24  and  O_25 
REMARK    8  A    between atoms: C_24  and  O_27 
REMARK    9  A    between atoms: O_25  and  C_26 
REMARK   10  A    between atoms: O_27  and  C_28 
ROOT
ATOM      1  C   LIG d   1       3.662  -1.352 -11.788  0.00  0.00    -0.012 C 
ATOM      2  H   LIG d   1       4.349  -1.178 -12.618  0.00  0.00     0.033 H 
ATOM      3  C   LIG d   1       2.241  -1.548 -12.330  0.00  0.00    -0.048 C 
ATOM      4  C   LIG d   1       1.260  -1.688 -11.165  0.00  0.00    -0.052 C 
ATOM      5  C   LIG d   1       1.251  -0.409 -10.326  0.00  0.00    -0.045 C 
ATOM      6  C   LIG d   1       2.639  -0.197  -9.719  0.00  0.00     0.003 C 
ATOM      7  C   LIG d   1       3.666  -0.141 -10.857  0.00  0.00     0.104 A 
ATOM      8  C   LIG d   1       4.951   0.627 -10.620  0.00  0.00     0.096 A 
ATOM      9  H   LIG d   1       5.838   0.271 -11.146  0.00  0.00     0.063 H 
ATOM     10  O   LIG d   1       3.907   1.139 -11.450  0.00  0.00    -0.363 OA
ATOM     11  C   LIG d   1       5.226   1.325  -9.301  0.00  0.00     0.043 C 
ATOM     12  H   LIG d   1       5.568   2.345  -9.477  0.00  0.00     0.037 H 
ATOM     13  C   LIG d   1       4.050   1.320  -8.331  0.00  0.00     0.110 C 
ATOM     14  H   LIG d   1       4.047   2.275  -7.806  0.00  0.00     0.074 H 
ATOM     15  C   LIG d   1       2.697   1.147  -8.989  0.00  0.00    -0.007 C 
ATOM     16  O   LIG d   1       4.306   0.297  -7.336  0.00  0.00    -0.461 OA
ATOM     17  C   LIG d   1       5.448  -0.356  -7.600  0.00  0.00     0.316 C 
ATOM     18  O   LIG d   1       5.756  -1.442  -7.172  0.00  0.00    -0.250 OA
ATOM     19  C   LIG d   1       6.290   0.502  -8.527  0.00  0.00     0.105 C 
ATOM     20  H   LIG d   1       6.867  -0.121  -9.211  0.00  0.00     0.047 H 
ATOM     21  H   LIG d   1       2.207  -2.448 -12.943  0.00  0.00     0.027 H 
ATOM     22  H   LIG d   1       1.962  -0.686 -12.936  0.00  0.00     0.027 H 
ATOM     23  H   LIG d   1       1.560  -2.529 -10.540  0.00  0.00     0.027 H 
ATOM     24  H   LIG d   1       0.259  -1.872 -11.557  0.00  0.00     0.027 H 
ATOM     25  H   LIG d   1       0.515  -0.502  -9.528  0.00  0.00     0.027 H 
ATOM     26  H   LIG d   1       0.997   0.441 -10.960  0.00  0.00     0.027 H 
ATOM     27  H   LIG d   1       1.917   1.178  -8.228  0.00  0.00     0.031 H 
ATOM     28  H   LIG d   1       2.537   1.953  -9.704  0.00  0.00     0.031 H 
ENDROOT
BRANCH  19  29
ATOM     29  C   LIG d   1       7.210   1.424  -7.724  0.00  0.00    -0.020 C 
ATOM     30  H   LIG d   1       8.243   1.267  -8.036  0.00  0.00     0.082 H 
ATOM     31  H   LIG d   1       6.931   2.462  -7.906  0.00  0.00     0.082 H 
BRANCH  29  32
ATOM     32  N   LIG d   1       7.071   1.116  -6.289  0.00  0.00     0.231 N 
ATOM     33  H   LIG d   1       7.020   0.098  -6.164  0.00  0.00     0.202 HD
ATOM     34  H   LIG d   1       6.211   1.546  -5.931  0.00  0.00     0.202 HD
BRANCH  32  35
ATOM     35  C   LIG d   1       8.228   1.640  -5.538  0.00  0.00     0.019 C 
ATOM     36  H   LIG d   1       9.121   1.071  -5.795  0.00  0.00     0.086 H 
ATOM     37  H   LIG d   1       8.381   2.690  -5.789  0.00  0.00     0.086 H 
BRANCH  35  38
ATOM     38  C   LIG d   1       7.953   1.508  -4.039  0.00  0.00     0.199 C 
ATOM     39  H   LIG d   1       8.261   0.519  -3.699  0.00  0.00     0.097 H 
BRANCH  38  40
ATOM     40  O   LIG d   1       8.689   2.507  -3.329  0.00  0.00    -0.350 OA
BRANCH  40  41
ATOM     41  C   LIG d   1       9.331   3.465  -4.173  0.00  0.00     0.040 C 
ATOM     42  H   LIG d   1       8.596   4.188  -4.527  0.00  0.00     0.052 H 
ATOM     43  H   LIG d   1      10.108   3.982  -3.610  0.00  0.00     0.052 H 
ATOM     44  H   LIG d   1       9.779   2.955  -5.026  0.00  0.00     0.052 H 
ENDBRANCH  40  41
ENDBRANCH  38  40
BRANCH  38  45
ATOM     45  O   LIG d   1       6.556   1.682  -3.793  0.00  0.00    -0.350 OA
BRANCH  45  46
ATOM     46  C   LIG d   1       5.976   0.657  -2.984  0.00  0.00     0.040 C 
ATOM     47  H   LIG d   1       6.128   0.894  -1.932  0.00  0.00     0.052 H 
ATOM     48  H   LIG d   1       4.907   0.592  -3.191  0.00  0.00     0.052 H 
ATOM     49  H   LIG d   1       6.448  -0.299  -3.215  0.00  0.00     0.052 H 
ENDBRANCH  45  46
ENDBRANCH  38  45
ENDBRANCH  35  38
ENDBRANCH  32  35
ENDBRANCH  29  32
ENDBRANCH  19  29
BRANCH   1  50
ATOM     50  C   LIG d   1       4.094  -2.600 -11.017  0.00  0.00    -0.060 C 
ATOM     51  H   LIG d   1       3.727  -3.489 -11.529  0.00  0.00     0.023 H 
ATOM     52  H   LIG d   1       5.183  -2.636 -10.963  0.00  0.00     0.023 H 
ATOM     53  H   LIG d   1       3.681  -2.565 -10.009  0.00  0.00     0.023 H 
ENDBRANCH   1  50
BRANCH   6  54
ATOM     54  C   LIG d   1       2.968  -1.335  -8.751  0.00  0.00    -0.057 C 
ATOM     55  H   LIG d   1       3.403  -0.923  -7.840  0.00  0.00     0.024 H 
ATOM     56  H   LIG d   1       2.055  -1.877  -8.505  0.00  0.00     0.024 H 
ATOM     57  H   LIG d   1       3.680  -2.015  -9.218  0.00  0.00     0.024 H 
ENDBRANCH   6  54
TORSDOF 10
ENDMDL
