MODEL 1
REMARK VINA RESULT:      -5.6      0.000      0.000
REMARK  5 active torsions:
REMARK  status: ('A' for Active; 'I' for Inactive)
REMARK    1  A    between atoms: C_1  and  O_2 
REMARK    2  A    between atoms: O_2  and  C_3 
REMARK    3  A    between atoms: C_6  and  C_9 
REMARK    4  A    between atoms: C_10  and  C_11 
REMARK       I    between atoms: C_11  and  N_13 
REMARK    5  A    between atoms: N_13  and  C_14 
ROOT
ATOM      1  C   LIG d   1       3.014  -0.213  -8.491  0.00  0.00    -0.050 C 
ATOM      2  C   LIG d   1       3.765  -1.006  -7.696  0.00  0.00     0.001 C 
ATOM      3  H   LIG d   1       2.678   0.749  -8.131  0.00  0.00     0.062 H 
ATOM      4  H   LIG d   1       4.101  -1.967  -8.056  0.00  0.00     0.067 H 
ENDROOT
BRANCH   1   5
ATOM      5  C   LIG d   1       2.656  -0.658  -9.845  0.00  0.00    -0.025 A 
ATOM      6  C   LIG d   1       3.658  -0.936 -10.782  0.00  0.00    -0.051 A 
ATOM      7  C   LIG d   1       3.317  -1.353 -12.048  0.00  0.00    -0.019 A 
ATOM      8  H   LIG d   1       4.697  -0.823 -10.511  0.00  0.00     0.062 H 
ATOM      9  C   LIG d   1       1.980  -1.499 -12.398  0.00  0.00     0.120 A 
ATOM     10  H   LIG d   1       4.091  -1.567 -12.772  0.00  0.00     0.065 H 
ATOM     11  C   LIG d   1       0.981  -1.225 -11.472  0.00  0.00    -0.019 A 
ATOM     12  C   LIG d   1       1.310  -0.813 -10.201  0.00  0.00    -0.051 A 
ATOM     13  H   LIG d   1      -0.057  -1.341 -11.748  0.00  0.00     0.065 H 
ATOM     14  H   LIG d   1       0.533  -0.605  -9.481  0.00  0.00     0.062 H 
BRANCH   9  15
ATOM     15  O   LIG d   1       1.649  -1.911 -13.649  0.00  0.00    -0.495 OA
BRANCH  15  16
ATOM     16  C   LIG d   1       0.312  -2.374 -13.847  0.00  0.00     0.079 C 
ATOM     17  H   LIG d   1      -0.297  -1.565 -14.249  0.00  0.00     0.066 H 
ATOM     18  H   LIG d   1       0.317  -3.209 -14.548  0.00  0.00     0.066 H 
ATOM     19  H   LIG d   1      -0.104  -2.703 -12.894  0.00  0.00     0.066 H 
ENDBRANCH  15  16
ENDBRANCH   9  15
ENDBRANCH   1   5
BRANCH   2  20
ATOM     20  C   LIG d   1       4.121  -0.563  -6.350  0.00  0.00     0.241 C 
ATOM     21  O   LIG d   1       5.130   0.095  -6.173  0.00  0.00    -0.271 OA
ATOM     22  N   LIG d   1       3.335  -0.884  -5.304  0.00  0.00    -0.282 N 
ATOM     23  H   LIG d   1       2.573  -1.472  -5.432  0.00  0.00     0.155 HD
BRANCH  22  24
ATOM     24  C   LIG d   1       3.614  -0.371  -4.038  0.00  0.00     0.036 A 
ATOM     25  C   LIG d   1       3.310   0.952  -3.719  0.00  0.00    -0.022 A 
ATOM     26  C   LIG d   1       3.609   1.422  -2.457  0.00  0.00     0.029 A 
ATOM     27  H   LIG d   1       2.852   1.600  -4.451  0.00  0.00     0.065 H 
ATOM     28  N   LIG d   1       4.168   0.636  -1.557  0.00  0.00    -0.263 NA
ATOM     29  H   LIG d   1       3.381   2.447  -2.203  0.00  0.00     0.083 H 
ATOM     30  C   LIG d   1       4.466  -0.623  -1.818  0.00  0.00     0.029 A 
ATOM     31  C   LIG d   1       4.199  -1.169  -3.057  0.00  0.00    -0.022 A 
ATOM     32  H   LIG d   1       4.924  -1.232  -1.053  0.00  0.00     0.083 H 
ATOM     33  H   LIG d   1       4.446  -2.200  -3.264  0.00  0.00     0.065 H 
ENDBRANCH  22  24
ENDBRANCH   2  20
TORSDOF 5
ENDMDL
MODEL 2
REMARK VINA RESULT:      -5.3      5.974      8.871
REMARK  5 active torsions:
REMARK  status: ('A' for Active; 'I' for Inactive)
REMARK    1  A    between atoms: C_1  and  O_2 
REMARK    2  A    between atoms: O_2  and  C_3 
REMARK    3  A    between atoms: C_6  and  C_9 
REMARK    4  A    between atoms: C_10  and  C_11 
REMARK       I    between atoms: C_11  and  N_13 
REMARK    5  A    between atoms: N_13  and  C_14 
ROOT
ATOM      1  C   LIG d   1       4.765  -3.379  -4.326  0.00  0.00    -0.050 C 
ATOM      2  C   LIG d   1       5.345  -4.167  -5.256  0.00  0.00     0.001 C 
ATOM      3  H   LIG d   1       3.918  -3.742  -3.763  0.00  0.00     0.062 H 
ATOM      4  H   LIG d   1       6.192  -3.804  -5.819  0.00  0.00     0.067 H 
ENDROOT
BRANCH   1   5
ATOM      5  C   LIG d   1       5.286  -2.026  -4.081  0.00  0.00    -0.025 A 
ATOM      6  C   LIG d   1       6.052  -1.380  -5.059  0.00  0.00    -0.051 A 
ATOM      7  C   LIG d   1       6.538  -0.115  -4.825  0.00  0.00    -0.019 A 
ATOM      8  H   LIG d   1       6.262  -1.876  -5.996  0.00  0.00     0.062 H 
ATOM      9  C   LIG d   1       6.269   0.524  -3.620  0.00  0.00     0.120 A 
ATOM     10  H   LIG d   1       7.130   0.384  -5.579  0.00  0.00     0.065 H 
ATOM     11  C   LIG d   1       5.509  -0.112  -2.646  0.00  0.00    -0.019 A 
ATOM     12  C   LIG d   1       5.014  -1.376  -2.872  0.00  0.00    -0.051 A 
ATOM     13  H   LIG d   1       5.302   0.388  -1.711  0.00  0.00     0.065 H 
ATOM     14  H   LIG d   1       4.419  -1.867  -2.116  0.00  0.00     0.062 H 
BRANCH   9  15
ATOM     15  O   LIG d   1       6.750   1.773  -3.394  0.00  0.00    -0.495 OA
BRANCH  15  16
ATOM     16  C   LIG d   1       8.069   2.056  -3.865  0.00  0.00     0.079 C 
ATOM     17  H   LIG d   1       8.014   2.716  -4.729  0.00  0.00     0.066 H 
ATOM     18  H   LIG d   1       8.641   2.540  -3.072  0.00  0.00     0.066 H 
ATOM     19  H   LIG d   1       8.560   1.125  -4.149  0.00  0.00     0.066 H 
ENDBRANCH  15  16
ENDBRANCH   9  15
ENDBRANCH   1   5
BRANCH   2  20
ATOM     20  C   LIG d   1       4.828  -5.512  -5.501  0.00  0.00     0.241 C 
ATOM     21  O   LIG d   1       3.632  -5.685  -5.656  0.00  0.00    -0.271 OA
ATOM     22  N   LIG d   1       5.672  -6.560  -5.554  0.00  0.00    -0.282 N 
ATOM     23  H   LIG d   1       6.614  -6.435  -5.356  0.00  0.00     0.155 HD
BRANCH  22  24
ATOM     24  C   LIG d   1       5.194  -7.824  -5.896  0.00  0.00     0.036 A 
ATOM     25  C   LIG d   1       4.982  -8.173  -7.229  0.00  0.00    -0.022 A 
ATOM     26  C   LIG d   1       4.502  -9.432  -7.524  0.00  0.00     0.029 A 
ATOM     27  H   LIG d   1       5.187  -7.465  -8.019  0.00  0.00     0.065 H 
ATOM     28  N   LIG d   1       4.249 -10.302  -6.565  0.00  0.00    -0.263 NA
ATOM     29  H   LIG d   1       4.330  -9.709  -8.555  0.00  0.00     0.083 H 
ATOM     30  C   LIG d   1       4.442 -10.012  -5.292  0.00  0.00     0.029 A 
ATOM     31  C   LIG d   1       4.920  -8.775  -4.913  0.00  0.00    -0.022 A 
ATOM     32  H   LIG d   1       4.223 -10.753  -4.538  0.00  0.00     0.083 H 
ATOM     33  H   LIG d   1       5.076  -8.544  -3.870  0.00  0.00     0.065 H 
ENDBRANCH  22  24
ENDBRANCH   2  20
TORSDOF 5
ENDMDL
MODEL 3
REMARK VINA RESULT:      -5.2      1.603      1.932
REMARK  5 active torsions:
REMARK  status: ('A' for Active; 'I' for Inactive)
REMARK    1  A    between atoms: C_1  and  O_2 
REMARK    2  A    between atoms: O_2  and  C_3 
REMARK    3  A    between atoms: C_6  and  C_9 
REMARK    4  A    between atoms: C_10  and  C_11 
REMARK       I    between atoms: C_11  and  N_13 
REMARK    5  A    between atoms: N_13  and  C_14 
ROOT
ATOM      1  C   LIG d   1       2.481  -1.490  -8.962  0.00  0.00    -0.050 C 
ATOM      2  C   LIG d   1       2.240  -0.258  -8.464  0.00  0.00     0.001 C 
ATOM      3  H   LIG d   1       3.197  -2.138  -8.478  0.00  0.00     0.062 H 
ATOM      4  H   LIG d   1       1.524   0.389  -8.948  0.00  0.00     0.067 H 
ENDROOT
BRANCH   1   5
ATOM      5  C   LIG d   1       1.769  -1.948 -10.163  0.00  0.00    -0.025 A 
ATOM      6  C   LIG d   1       1.464  -3.306 -10.325  0.00  0.00    -0.051 A 
ATOM      7  C   LIG d   1       0.798  -3.730 -11.451  0.00  0.00    -0.019 A 
ATOM      8  H   LIG d   1       1.753  -4.018  -9.566  0.00  0.00     0.062 H 
ATOM      9  C   LIG d   1       0.426  -2.814 -12.428  0.00  0.00     0.120 A 
ATOM     10  H   LIG d   1       0.563  -4.777 -11.576  0.00  0.00     0.065 H 
ATOM     11  C   LIG d   1       0.726  -1.466 -12.273  0.00  0.00    -0.019 A 
ATOM     12  C   LIG d   1       1.387  -1.030 -11.148  0.00  0.00    -0.051 A 
ATOM     13  H   LIG d   1       0.434  -0.758 -13.035  0.00  0.00     0.065 H 
ATOM     14  H   LIG d   1       1.615   0.019 -11.027  0.00  0.00     0.062 H 
BRANCH   9  15
ATOM     15  O   LIG d   1      -0.232  -3.238 -13.538  0.00  0.00    -0.495 OA
BRANCH  15  16
ATOM     16  C   LIG d   1      -1.658  -3.163 -13.514  0.00  0.00     0.079 C 
ATOM     17  H   LIG d   1      -1.967  -2.268 -12.976  0.00  0.00     0.066 H 
ATOM     18  H   LIG d   1      -2.037  -3.123 -14.536  0.00  0.00     0.066 H 
ATOM     19  H   LIG d   1      -2.060  -4.045 -13.013  0.00  0.00     0.066 H 
ENDBRANCH  15  16
ENDBRANCH   9  15
ENDBRANCH   1   5
BRANCH   2  20
ATOM     20  C   LIG d   1       2.948   0.198  -7.270  0.00  0.00     0.241 C 
ATOM     21  O   LIG d   1       3.333   1.351  -7.194  0.00  0.00    -0.271 OA
ATOM     22  N   LIG d   1       3.175  -0.655  -6.252  0.00  0.00    -0.282 N 
ATOM     23  H   LIG d   1       2.936  -1.592  -6.342  0.00  0.00     0.155 HD
BRANCH  22  24
ATOM     24  C   LIG d   1       3.751  -0.194  -5.070  0.00  0.00     0.036 A 
ATOM     25  C   LIG d   1       2.972   0.404  -4.080  0.00  0.00    -0.022 A 
ATOM     26  C   LIG d   1       3.582   0.853  -2.927  0.00  0.00     0.029 A 
ATOM     27  H   LIG d   1       1.907   0.518  -4.216  0.00  0.00     0.065 H 
ATOM     28  N   LIG d   1       4.883   0.718  -2.753  0.00  0.00    -0.263 NA
ATOM     29  H   LIG d   1       2.987   1.322  -2.157  0.00  0.00     0.083 H 
ATOM     30  C   LIG d   1       5.654   0.153  -3.663  0.00  0.00     0.029 A 
ATOM     31  C   LIG d   1       5.121  -0.323  -4.844  0.00  0.00    -0.022 A 
ATOM     32  H   LIG d   1       6.714   0.062  -3.482  0.00  0.00     0.083 H 
ATOM     33  H   LIG d   1       5.757  -0.784  -5.585  0.00  0.00     0.065 H 
ENDBRANCH  22  24
ENDBRANCH   2  20
TORSDOF 5
ENDMDL
MODEL 4
REMARK VINA RESULT:      -5.2      4.831      8.068
REMARK  5 active torsions:
REMARK  status: ('A' for Active; 'I' for Inactive)
REMARK    1  A    between atoms: C_1  and  O_2 
REMARK    2  A    between atoms: O_2  and  C_3 
REMARK    3  A    between atoms: C_6  and  C_9 
REMARK    4  A    between atoms: C_10  and  C_11 
REMARK       I    between atoms: C_11  and  N_13 
REMARK    5  A    between atoms: N_13  and  C_14 
ROOT
ATOM      1  C   LIG d   1       1.176  -1.796 -10.725  0.00  0.00    -0.050 C 
ATOM      2  C   LIG d   1       1.519  -3.070 -10.438  0.00  0.00     0.001 C 
ATOM      3  H   LIG d   1       0.198  -1.577 -11.128  0.00  0.00     0.062 H 
ATOM      4  H   LIG d   1       2.496  -3.288 -10.035  0.00  0.00     0.067 H 
ENDROOT
BRANCH   1   5
ATOM      5  C   LIG d   1       2.134  -0.706 -10.488  0.00  0.00    -0.025 A 
ATOM      6  C   LIG d   1       2.091   0.020  -9.292  0.00  0.00    -0.051 A 
ATOM      7  C   LIG d   1       2.989   1.039  -9.075  0.00  0.00    -0.019 A 
ATOM      8  H   LIG d   1       1.352  -0.219  -8.541  0.00  0.00     0.062 H 
ATOM      9  C   LIG d   1       3.941   1.348 -10.041  0.00  0.00     0.120 A 
ATOM     10  H   LIG d   1       2.956   1.601  -8.152  0.00  0.00     0.065 H 
ATOM     11  C   LIG d   1       3.988   0.630 -11.230  0.00  0.00    -0.019 A 
ATOM     12  C   LIG d   1       3.098  -0.395 -11.455  0.00  0.00    -0.051 A 
ATOM     13  H   LIG d   1       4.729   0.873 -11.977  0.00  0.00     0.065 H 
ATOM     14  H   LIG d   1       3.139  -0.955 -12.377  0.00  0.00     0.062 H 
BRANCH   9  15
ATOM     15  O   LIG d   1       4.826   2.354  -9.822  0.00  0.00    -0.495 OA
BRANCH  15  16
ATOM     16  C   LIG d   1       5.971   2.048  -9.025  0.00  0.00     0.079 C 
ATOM     17  H   LIG d   1       6.686   1.479  -9.619  0.00  0.00     0.066 H 
ATOM     18  H   LIG d   1       6.436   2.975  -8.686  0.00  0.00     0.066 H 
ATOM     19  H   LIG d   1       5.666   1.458  -8.161  0.00  0.00     0.066 H 
ENDBRANCH  15  16
ENDBRANCH   9  15
ENDBRANCH   1   5
BRANCH   2  20
ATOM     20  C   LIG d   1       0.567  -4.153 -10.673  0.00  0.00     0.241 C 
ATOM     21  O   LIG d   1       0.895  -5.118 -11.342  0.00  0.00    -0.271 OA
ATOM     22  N   LIG d   1      -0.674  -4.086 -10.152  0.00  0.00    -0.282 N 
ATOM     23  H   LIG d   1      -0.961  -3.286  -9.684  0.00  0.00     0.155 HD
BRANCH  22  24
ATOM     24  C   LIG d   1      -1.544  -5.167 -10.283  0.00  0.00     0.036 A 
ATOM     25  C   LIG d   1      -1.590  -6.171  -9.316  0.00  0.00    -0.022 A 
ATOM     26  C   LIG d   1      -2.462  -7.227  -9.487  0.00  0.00     0.029 A 
ATOM     27  H   LIG d   1      -0.949  -6.125  -8.448  0.00  0.00     0.065 H 
ATOM     28  N   LIG d   1      -3.248  -7.290 -10.544  0.00  0.00    -0.263 NA
ATOM     29  H   LIG d   1      -2.500  -8.011  -8.745  0.00  0.00     0.083 H 
ATOM     30  C   LIG d   1      -3.240  -6.358 -11.478  0.00  0.00     0.029 A 
ATOM     31  C   LIG d   1      -2.397  -5.270 -11.381  0.00  0.00    -0.022 A 
ATOM     32  H   LIG d   1      -3.899  -6.448 -12.328  0.00  0.00     0.083 H 
ATOM     33  H   LIG d   1      -2.394  -4.510 -12.149  0.00  0.00     0.065 H 
ENDBRANCH  22  24
ENDBRANCH   2  20
TORSDOF 5
ENDMDL
MODEL 5
REMARK VINA RESULT:      -5.2      5.449      6.339
REMARK  5 active torsions:
REMARK  status: ('A' for Active; 'I' for Inactive)
REMARK    1  A    between atoms: C_1  and  O_2 
REMARK    2  A    between atoms: O_2  and  C_3 
REMARK    3  A    between atoms: C_6  and  C_9 
REMARK    4  A    between atoms: C_10  and  C_11 
REMARK       I    between atoms: C_11  and  N_13 
REMARK    5  A    between atoms: N_13  and  C_14 
ROOT
ATOM      1  C   LIG d   1       4.521  -5.291  -5.246  0.00  0.00    -0.050 C 
ATOM      2  C   LIG d   1       5.212  -4.206  -5.658  0.00  0.00     0.001 C 
ATOM      3  H   LIG d   1       3.909  -5.235  -4.357  0.00  0.00     0.062 H 
ATOM      4  H   LIG d   1       5.823  -4.262  -6.547  0.00  0.00     0.067 H 
ENDROOT
BRANCH   1   5
ATOM      5  C   LIG d   1       4.602  -6.546  -6.006  0.00  0.00    -0.025 A 
ATOM      6  C   LIG d   1       4.987  -7.731  -5.366  0.00  0.00    -0.051 A 
ATOM      7  C   LIG d   1       5.062  -8.904  -6.082  0.00  0.00    -0.019 A 
ATOM      8  H   LIG d   1       5.224  -7.724  -4.313  0.00  0.00     0.062 H 
ATOM      9  C   LIG d   1       4.755  -8.914  -7.438  0.00  0.00     0.120 A 
ATOM     10  H   LIG d   1       5.358  -9.819  -5.589  0.00  0.00     0.065 H 
ATOM     11  C   LIG d   1       4.373  -7.741  -8.078  0.00  0.00    -0.019 A 
ATOM     12  C   LIG d   1       4.290  -6.564  -7.370  0.00  0.00    -0.051 A 
ATOM     13  H   LIG d   1       4.136  -7.755  -9.131  0.00  0.00     0.065 H 
ATOM     14  H   LIG d   1       3.988  -5.654  -7.867  0.00  0.00     0.062 H 
BRANCH   9  15
ATOM     15  O   LIG d   1       4.830 -10.074  -8.140  0.00  0.00    -0.495 OA
BRANCH  15  16
ATOM     16  C   LIG d   1       5.114 -11.263  -7.400  0.00  0.00     0.079 C 
ATOM     17  H   LIG d   1       5.559 -12.006  -8.061  0.00  0.00     0.066 H 
ATOM     18  H   LIG d   1       5.809 -11.031  -6.592  0.00  0.00     0.066 H 
ATOM     19  H   LIG d   1       4.189 -11.659  -6.979  0.00  0.00     0.066 H 
ENDBRANCH  15  16
ENDBRANCH   9  15
ENDBRANCH   1   5
BRANCH   2  20
ATOM     20  C   LIG d   1       5.132  -2.958  -4.903  0.00  0.00     0.241 C 
ATOM     21  O   LIG d   1       6.016  -2.127  -5.006  0.00  0.00    -0.271 OA
ATOM     22  N   LIG d   1       4.080  -2.726  -4.093  0.00  0.00    -0.282 N 
ATOM     23  H   LIG d   1       3.414  -3.418  -3.952  0.00  0.00     0.155 HD
BRANCH  22  24
ATOM     24  C   LIG d   1       3.948  -1.492  -3.459  0.00  0.00     0.036 A 
ATOM     25  C   LIG d   1       3.216  -0.460  -4.045  0.00  0.00    -0.022 A 
ATOM     26  C   LIG d   1       3.114   0.748  -3.386  0.00  0.00     0.029 A 
ATOM     27  H   LIG d   1       2.738  -0.604  -5.002  0.00  0.00     0.065 H 
ATOM     28  N   LIG d   1       3.695   0.931  -2.216  0.00  0.00    -0.263 NA
ATOM     29  H   LIG d   1       2.553   1.554  -3.836  0.00  0.00     0.083 H 
ATOM     30  C   LIG d   1       4.392  -0.021  -1.625  0.00  0.00     0.029 A 
ATOM     31  C   LIG d   1       4.540  -1.258  -2.218  0.00  0.00    -0.022 A 
ATOM     32  H   LIG d   1       4.851   0.170  -0.667  0.00  0.00     0.083 H 
ATOM     33  H   LIG d   1       5.112  -2.034  -1.730  0.00  0.00     0.065 H 
ENDBRANCH  22  24
ENDBRANCH   2  20
TORSDOF 5
ENDMDL
MODEL 6
REMARK VINA RESULT:      -5.1      6.001      9.721
REMARK  5 active torsions:
REMARK  status: ('A' for Active; 'I' for Inactive)
REMARK    1  A    between atoms: C_1  and  O_2 
REMARK    2  A    between atoms: O_2  and  C_3 
REMARK    3  A    between atoms: C_6  and  C_9 
REMARK    4  A    between atoms: C_10  and  C_11 
REMARK       I    between atoms: C_11  and  N_13 
REMARK    5  A    between atoms: N_13  and  C_14 
ROOT
ATOM      1  C   LIG d   1       9.014   2.512  -3.485  0.00  0.00    -0.050 C 
ATOM      2  C   LIG d   1       7.839   2.285  -4.111  0.00  0.00     0.001 C 
ATOM      3  H   LIG d   1       9.467   1.734  -2.888  0.00  0.00     0.062 H 
ATOM      4  H   LIG d   1       7.386   3.062  -4.708  0.00  0.00     0.067 H 
ENDROOT
BRANCH   1   5
ATOM      5  C   LIG d   1       9.675   3.818  -3.617  0.00  0.00    -0.025 A 
ATOM      6  C   LIG d   1       9.411   4.631  -4.726  0.00  0.00    -0.051 A 
ATOM      7  C   LIG d   1      10.034   5.852  -4.846  0.00  0.00    -0.019 A 
ATOM      8  H   LIG d   1       8.720   4.298  -5.487  0.00  0.00     0.062 H 
ATOM      9  C   LIG d   1      10.923   6.280  -3.867  0.00  0.00     0.120 A 
ATOM     10  H   LIG d   1       9.830   6.479  -5.702  0.00  0.00     0.065 H 
ATOM     11  C   LIG d   1      11.189   5.478  -2.764  0.00  0.00    -0.019 A 
ATOM     12  C   LIG d   1      10.568   4.257  -2.632  0.00  0.00    -0.051 A 
ATOM     13  H   LIG d   1      11.880   5.815  -2.006  0.00  0.00     0.065 H 
ATOM     14  H   LIG d   1      10.772   3.636  -1.772  0.00  0.00     0.062 H 
BRANCH   9  15
ATOM     15  O   LIG d   1      11.533   7.487  -3.989  0.00  0.00    -0.495 OA
BRANCH  15  16
ATOM     16  C   LIG d   1      11.222   8.475  -3.005  0.00  0.00     0.079 C 
ATOM     17  H   LIG d   1      10.986   7.986  -2.060  0.00  0.00     0.066 H 
ATOM     18  H   LIG d   1      12.079   9.134  -2.868  0.00  0.00     0.066 H 
ATOM     19  H   LIG d   1      10.363   9.059  -3.337  0.00  0.00     0.066 H 
ENDBRANCH  15  16
ENDBRANCH   9  15
ENDBRANCH   1   5
BRANCH   2  20
ATOM     20  C   LIG d   1       7.180   0.987  -3.980  0.00  0.00     0.241 C 
ATOM     21  O   LIG d   1       7.844  -0.034  -3.964  0.00  0.00    -0.271 OA
ATOM     22  N   LIG d   1       5.838   0.919  -3.876  0.00  0.00    -0.282 N 
ATOM     23  H   LIG d   1       5.303   1.724  -3.964  0.00  0.00     0.155 HD
BRANCH  22  24
ATOM     24  C   LIG d   1       5.218  -0.307  -3.641  0.00  0.00     0.036 A 
ATOM     25  C   LIG d   1       4.727  -0.630  -2.376  0.00  0.00    -0.022 A 
ATOM     26  C   LIG d   1       4.126  -1.857  -2.184  0.00  0.00     0.029 A 
ATOM     27  H   LIG d   1       4.820   0.069  -1.558  0.00  0.00     0.065 H 
ATOM     28  N   LIG d   1       4.008  -2.716  -3.178  0.00  0.00    -0.263 NA
ATOM     29  H   LIG d   1       3.747  -2.117  -1.206  0.00  0.00     0.083 H 
ATOM     30  C   LIG d   1       4.454  -2.446  -4.391  0.00  0.00     0.029 A 
ATOM     31  C   LIG d   1       5.068  -1.241  -4.665  0.00  0.00    -0.022 A 
ATOM     32  H   LIG d   1       4.338  -3.176  -5.177  0.00  0.00     0.083 H 
ATOM     33  H   LIG d   1       5.432  -1.026  -5.659  0.00  0.00     0.065 H 
ENDBRANCH  22  24
ENDBRANCH   2  20
TORSDOF 5
ENDMDL
MODEL 7
REMARK VINA RESULT:      -5.0     10.179     11.331
REMARK  5 active torsions:
REMARK  status: ('A' for Active; 'I' for Inactive)
REMARK    1  A    between atoms: C_1  and  O_2 
REMARK    2  A    between atoms: O_2  and  C_3 
REMARK    3  A    between atoms: C_6  and  C_9 
REMARK    4  A    between atoms: C_10  and  C_11 
REMARK       I    between atoms: C_11  and  N_13 
REMARK    5  A    between atoms: N_13  and  C_14 
ROOT
ATOM      1  C   LIG d   1       9.728   7.690  -4.580  0.00  0.00    -0.050 C 
ATOM      2  C   LIG d   1       9.640   6.671  -3.699  0.00  0.00     0.001 C 
ATOM      3  H   LIG d   1       9.903   8.696  -4.228  0.00  0.00     0.062 H 
ATOM      4  H   LIG d   1       9.464   5.665  -4.052  0.00  0.00     0.067 H 
ENDROOT
BRANCH   1   5
ATOM      5  C   LIG d   1       9.585   7.430  -6.020  0.00  0.00    -0.025 A 
ATOM      6  C   LIG d   1       9.175   8.455  -6.882  0.00  0.00    -0.051 A 
ATOM      7  C   LIG d   1       9.042   8.207  -8.229  0.00  0.00    -0.019 A 
ATOM      8  H   LIG d   1       8.963   9.438  -6.489  0.00  0.00     0.062 H 
ATOM      9  C   LIG d   1       9.314   6.941  -8.735  0.00  0.00     0.120 A 
ATOM     10  H   LIG d   1       8.725   8.997  -8.894  0.00  0.00     0.065 H 
ATOM     11  C   LIG d   1       9.721   5.920  -7.884  0.00  0.00    -0.019 A 
ATOM     12  C   LIG d   1       9.863   6.159  -6.537  0.00  0.00    -0.051 A 
ATOM     13  H   LIG d   1       9.932   4.938  -8.283  0.00  0.00     0.065 H 
ATOM     14  H   LIG d   1      10.184   5.366  -5.877  0.00  0.00     0.062 H 
BRANCH   9  15
ATOM     15  O   LIG d   1       9.182   6.702 -10.065  0.00  0.00    -0.495 OA
BRANCH  15  16
ATOM     16  C   LIG d   1      10.217   7.192 -10.919  0.00  0.00     0.079 C 
ATOM     17  H   LIG d   1      11.122   7.356 -10.335  0.00  0.00     0.066 H 
ATOM     18  H   LIG d   1      10.417   6.461 -11.703  0.00  0.00     0.066 H 
ATOM     19  H   LIG d   1       9.900   8.132 -11.371  0.00  0.00     0.066 H 
ENDBRANCH  15  16
ENDBRANCH   9  15
ENDBRANCH   1   5
BRANCH   2  20
ATOM     20  C   LIG d   1       9.782   6.928  -2.268  0.00  0.00     0.241 C 
ATOM     21  O   LIG d   1       8.800   7.184  -1.594  0.00  0.00    -0.271 OA
ATOM     22  N   LIG d   1      10.999   6.884  -1.692  0.00  0.00    -0.282 N 
ATOM     23  H   LIG d   1      11.791   6.756  -2.239  0.00  0.00     0.155 HD
BRANCH  22  24
ATOM     24  C   LIG d   1      11.123   7.020  -0.310  0.00  0.00     0.036 A 
ATOM     25  C   LIG d   1      10.966   5.922   0.535  0.00  0.00    -0.022 A 
ATOM     26  C   LIG d   1      11.089   6.101   1.897  0.00  0.00     0.029 A 
ATOM     27  H   LIG d   1      10.746   4.946   0.128  0.00  0.00     0.065 H 
ATOM     28  N   LIG d   1      11.358   7.290   2.401  0.00  0.00    -0.263 NA
ATOM     29  H   LIG d   1      10.965   5.256   2.559  0.00  0.00     0.083 H 
ATOM     30  C   LIG d   1      11.519   8.353   1.636  0.00  0.00     0.029 A 
ATOM     31  C   LIG d   1      11.412   8.258   0.263  0.00  0.00    -0.022 A 
ATOM     32  H   LIG d   1      11.738   9.308   2.089  0.00  0.00     0.083 H 
ATOM     33  H   LIG d   1      11.544   9.132  -0.358  0.00  0.00     0.065 H 
ENDBRANCH  22  24
ENDBRANCH   2  20
TORSDOF 5
ENDMDL
MODEL 8
REMARK VINA RESULT:      -4.7      6.034      9.324
REMARK  5 active torsions:
REMARK  status: ('A' for Active; 'I' for Inactive)
REMARK    1  A    between atoms: C_1  and  O_2 
REMARK    2  A    between atoms: O_2  and  C_3 
REMARK    3  A    between atoms: C_6  and  C_9 
REMARK    4  A    between atoms: C_10  and  C_11 
REMARK       I    between atoms: C_11  and  N_13 
REMARK    5  A    between atoms: N_13  and  C_14 
ROOT
ATOM      1  C   LIG d   1       5.463  -4.088  -4.935  0.00  0.00    -0.050 C 
ATOM      2  C   LIG d   1       4.373  -4.819  -5.252  0.00  0.00     0.001 C 
ATOM      3  H   LIG d   1       6.439  -4.394  -5.284  0.00  0.00     0.062 H 
ATOM      4  H   LIG d   1       3.398  -4.514  -4.903  0.00  0.00     0.067 H 
ENDROOT
BRANCH   1   5
ATOM      5  C   LIG d   1       5.322  -2.878  -4.113  0.00  0.00    -0.025 A 
ATOM      6  C   LIG d   1       4.179  -2.692  -3.326  0.00  0.00    -0.051 A 
ATOM      7  C   LIG d   1       4.051  -1.556  -2.559  0.00  0.00    -0.019 A 
ATOM      8  H   LIG d   1       3.399  -3.438  -3.322  0.00  0.00     0.062 H 
ATOM      9  C   LIG d   1       5.055  -0.595  -2.564  0.00  0.00     0.120 A 
ATOM     10  H   LIG d   1       3.169  -1.412  -1.952  0.00  0.00     0.065 H 
ATOM     11  C   LIG d   1       6.192  -0.774  -3.343  0.00  0.00    -0.019 A 
ATOM     12  C   LIG d   1       6.332  -1.908  -4.109  0.00  0.00    -0.051 A 
ATOM     13  H   LIG d   1       6.969  -0.024  -3.343  0.00  0.00     0.065 H 
ATOM     14  H   LIG d   1       7.218  -2.049  -4.711  0.00  0.00     0.062 H 
BRANCH   9  15
ATOM     15  O   LIG d   1       4.925   0.523  -1.805  0.00  0.00    -0.495 OA
BRANCH  15  16
ATOM     16  C   LIG d   1       3.860   1.415  -2.140  0.00  0.00     0.079 C 
ATOM     17  H   LIG d   1       3.973   1.744  -3.173  0.00  0.00     0.066 H 
ATOM     18  H   LIG d   1       2.905   0.900  -2.025  0.00  0.00     0.066 H 
ATOM     19  H   LIG d   1       3.889   2.280  -1.477  0.00  0.00     0.066 H 
ENDBRANCH  15  16
ENDBRANCH   9  15
ENDBRANCH   1   5
BRANCH   2  20
ATOM     20  C   LIG d   1       4.513  -6.023  -6.069  0.00  0.00     0.241 C 
ATOM     21  O   LIG d   1       3.893  -6.127  -7.112  0.00  0.00    -0.271 OA
ATOM     22  N   LIG d   1       5.327  -7.019  -5.668  0.00  0.00    -0.282 N 
ATOM     23  H   LIG d   1       5.762  -6.971  -4.801  0.00  0.00     0.155 HD
BRANCH  22  24
ATOM     24  C   LIG d   1       5.546  -8.118  -6.497  0.00  0.00     0.036 A 
ATOM     25  C   LIG d   1       4.763  -9.266  -6.385  0.00  0.00    -0.022 A 
ATOM     26  C   LIG d   1       5.016 -10.334  -7.221  0.00  0.00     0.029 A 
ATOM     27  H   LIG d   1       3.973  -9.320  -5.651  0.00  0.00     0.065 H 
ATOM     28  N   LIG d   1       5.979 -10.275  -8.121  0.00  0.00    -0.263 NA
ATOM     29  H   LIG d   1       4.418 -11.230  -7.138  0.00  0.00     0.083 H 
ATOM     30  C   LIG d   1       6.738  -9.205  -8.262  0.00  0.00     0.029 A 
ATOM     31  C   LIG d   1       6.549  -8.095  -7.465  0.00  0.00    -0.022 A 
ATOM     32  H   LIG d   1       7.516  -9.198  -9.011  0.00  0.00     0.083 H 
ATOM     33  H   LIG d   1       7.174  -7.222  -7.585  0.00  0.00     0.065 H 
ENDBRANCH  22  24
ENDBRANCH   2  20
TORSDOF 5
ENDMDL
MODEL 9
REMARK VINA RESULT:      -4.7      9.814     12.298
REMARK  5 active torsions:
REMARK  status: ('A' for Active; 'I' for Inactive)
REMARK    1  A    between atoms: C_1  and  O_2 
REMARK    2  A    between atoms: O_2  and  C_3 
REMARK    3  A    between atoms: C_6  and  C_9 
REMARK    4  A    between atoms: C_10  and  C_11 
REMARK       I    between atoms: C_11  and  N_13 
REMARK    5  A    between atoms: N_13  and  C_14 
ROOT
ATOM      1  C   LIG d   1      10.033  -6.545  -1.276  0.00  0.00    -0.050 C 
ATOM      2  C   LIG d   1      11.166  -7.275  -1.345  0.00  0.00     0.001 C 
ATOM      3  H   LIG d   1       9.449  -6.538  -0.368  0.00  0.00     0.062 H 
ATOM      4  H   LIG d   1      11.750  -7.281  -2.253  0.00  0.00     0.067 H 
ENDROOT
BRANCH   1   5
ATOM      5  C   LIG d   1       9.594  -5.759  -2.439  0.00  0.00    -0.025 A 
ATOM      6  C   LIG d   1       9.143  -6.407  -3.595  0.00  0.00    -0.051 A 
ATOM      7  C   LIG d   1       8.734  -5.667  -4.681  0.00  0.00    -0.019 A 
ATOM      8  H   LIG d   1       9.118  -7.486  -3.635  0.00  0.00     0.062 H 
ATOM      9  C   LIG d   1       8.766  -4.278  -4.631  0.00  0.00     0.120 A 
ATOM     10  H   LIG d   1       8.386  -6.167  -5.574  0.00  0.00     0.065 H 
ATOM     11  C   LIG d   1       9.212  -3.630  -3.485  0.00  0.00    -0.019 A 
ATOM     12  C   LIG d   1       9.618  -4.360  -2.392  0.00  0.00    -0.051 A 
ATOM     13  H   LIG d   1       9.234  -2.551  -3.451  0.00  0.00     0.065 H 
ATOM     14  H   LIG d   1       9.960  -3.855  -1.501  0.00  0.00     0.062 H 
BRANCH   9  15
ATOM     15  O   LIG d   1       8.360  -3.553  -5.704  0.00  0.00    -0.495 OA
BRANCH  15  16
ATOM     16  C   LIG d   1       8.286  -2.136  -5.539  0.00  0.00     0.079 C 
ATOM     17  H   LIG d   1       8.161  -1.663  -6.513  0.00  0.00     0.066 H 
ATOM     18  H   LIG d   1       7.435  -1.889  -4.903  0.00  0.00     0.066 H 
ATOM     19  H   LIG d   1       9.204  -1.776  -5.074  0.00  0.00     0.066 H 
ENDBRANCH  15  16
ENDBRANCH   9  15
ENDBRANCH   1   5
BRANCH   2  20
ATOM     20  C   LIG d   1      11.603  -8.056  -0.190  0.00  0.00     0.241 C 
ATOM     21  O   LIG d   1      12.409  -8.959  -0.335  0.00  0.00    -0.271 OA
ATOM     22  N   LIG d   1      11.115  -7.780   1.035  0.00  0.00    -0.282 N 
ATOM     23  H   LIG d   1      10.418  -7.113   1.141  0.00  0.00     0.155 HD
BRANCH  22  24
ATOM     24  C   LIG d   1      11.613  -8.450   2.152  0.00  0.00     0.036 A 
ATOM     25  C   LIG d   1      12.660  -7.915   2.901  0.00  0.00    -0.022 A 
ATOM     26  C   LIG d   1      13.127  -8.613   3.995  0.00  0.00     0.029 A 
ATOM     27  H   LIG d   1      13.101  -6.968   2.625  0.00  0.00     0.065 H 
ATOM     28  N   LIG d   1      12.592  -9.769   4.338  0.00  0.00    -0.263 NA
ATOM     29  H   LIG d   1      13.941  -8.208   4.578  0.00  0.00     0.083 H 
ATOM     30  C   LIG d   1      11.597 -10.307   3.659  0.00  0.00     0.029 A 
ATOM     31  C   LIG d   1      11.072  -9.672   2.552  0.00  0.00    -0.022 A 
ATOM     32  H   LIG d   1      11.188 -11.256   3.973  0.00  0.00     0.083 H 
ATOM     33  H   LIG d   1      10.258 -10.117   2.000  0.00  0.00     0.065 H 
ENDBRANCH  22  24
ENDBRANCH   2  20
TORSDOF 5
ENDMDL
