MODEL 1
REMARK VINA RESULT:      -6.0      0.000      0.000
REMARK  3 active torsions:
REMARK  status: ('A' for Active; 'I' for Inactive)
REMARK    1  A    between atoms: C_4  and  C_7 
REMARK    2  A    between atoms: C_7  and  C_8 
REMARK    3  A    between atoms: C_9  and  O_14 
ROOT
ATOM      1  C   LIG d   1       4.229  -2.608  -3.084  0.00  0.00     0.018 C 
ATOM      2  H   LIG d   1       4.498  -3.032  -2.117  0.00  0.00     0.038 H 
ATOM      3  H   LIG d   1       3.312  -3.076  -3.443  0.00  0.00     0.038 H 
ENDROOT
BRANCH   1   4
ATOM      4  C   LIG d   1       4.012  -1.124  -2.941  0.00  0.00    -0.042 A 
ATOM      5  C   LIG d   1       4.532  -0.451  -1.852  0.00  0.00    -0.058 A 
ATOM      6  C   LIG d   1       4.338   0.911  -1.723  0.00  0.00    -0.061 A 
ATOM      7  H   LIG d   1       5.094  -0.989  -1.103  0.00  0.00     0.062 H 
ATOM      8  C   LIG d   1       3.619   1.600  -2.682  0.00  0.00    -0.062 A 
ATOM      9  H   LIG d   1       4.748   1.438  -0.874  0.00  0.00     0.062 H 
ATOM     10  C   LIG d   1       3.094   0.926  -3.769  0.00  0.00    -0.061 A 
ATOM     11  H   LIG d   1       3.466   2.664  -2.581  0.00  0.00     0.062 H 
ATOM     12  C   LIG d   1       3.289  -0.436  -3.898  0.00  0.00    -0.058 A 
ATOM     13  H   LIG d   1       2.532   1.464  -4.518  0.00  0.00     0.062 H 
ATOM     14  H   LIG d   1       2.879  -0.962  -4.747  0.00  0.00     0.062 H 
ENDBRANCH   1   4
BRANCH   1  15
ATOM     15  C   LIG d   1       5.340  -2.861  -4.071  0.00  0.00     0.087 A 
ATOM     16  N   LIG d   1       6.565  -2.460  -3.790  0.00  0.00    -0.256 NA
ATOM     17  C   LIG d   1       7.569  -2.664  -4.620  0.00  0.00     0.028 A 
ATOM     18  C   LIG d   1       7.371  -3.302  -5.831  0.00  0.00    -0.040 A 
ATOM     19  H   LIG d   1       8.558  -2.324  -4.352  0.00  0.00     0.083 H 
ATOM     20  C   LIG d   1       6.099  -3.735  -6.167  0.00  0.00    -0.017 A 
ATOM     21  H   LIG d   1       8.199  -3.460  -6.506  0.00  0.00     0.063 H 
ATOM     22  C   LIG d   1       5.064  -3.508  -5.266  0.00  0.00     0.138 A 
ATOM     23  H   LIG d   1       5.915  -4.235  -7.107  0.00  0.00     0.066 H 
BRANCH  22  24
ATOM     24  O   LIG d   1       3.799  -3.915  -5.553  0.00  0.00    -0.505 OA
ATOM     25  H   LIG d   1       3.111  -3.416  -5.091  0.00  0.00     0.292 HD
ENDBRANCH  22  24
ENDBRANCH   1  15
TORSDOF 3
ENDMDL
MODEL 2
REMARK VINA RESULT:      -5.8      3.111      5.009
REMARK  3 active torsions:
REMARK  status: ('A' for Active; 'I' for Inactive)
REMARK    1  A    between atoms: C_4  and  C_7 
REMARK    2  A    between atoms: C_7  and  C_8 
REMARK    3  A    between atoms: C_9  and  O_14 
ROOT
ATOM      1  C   LIG d   1       2.291   0.113  -5.339  0.00  0.00     0.018 C 
ATOM      2  H   LIG d   1       1.475   0.835  -5.351  0.00  0.00     0.038 H 
ATOM      3  H   LIG d   1       1.883  -0.897  -5.374  0.00  0.00     0.038 H 
ENDROOT
BRANCH   1   4
ATOM      4  C   LIG d   1       3.179   0.337  -6.537  0.00  0.00    -0.042 A 
ATOM      5  C   LIG d   1       2.795   1.224  -7.525  0.00  0.00    -0.058 A 
ATOM      6  C   LIG d   1       3.612   1.434  -8.620  0.00  0.00    -0.061 A 
ATOM      7  H   LIG d   1       1.859   1.756  -7.440  0.00  0.00     0.062 H 
ATOM      8  C   LIG d   1       4.809   0.752  -8.730  0.00  0.00    -0.062 A 
ATOM      9  H   LIG d   1       3.314   2.130  -9.391  0.00  0.00     0.062 H 
ATOM     10  C   LIG d   1       5.191  -0.138  -7.744  0.00  0.00    -0.061 A 
ATOM     11  H   LIG d   1       5.447   0.916  -9.586  0.00  0.00     0.062 H 
ATOM     12  C   LIG d   1       4.374  -0.348  -6.648  0.00  0.00    -0.058 A 
ATOM     13  H   LIG d   1       6.126  -0.671  -7.829  0.00  0.00     0.062 H 
ATOM     14  H   LIG d   1       4.672  -1.043  -5.878  0.00  0.00     0.062 H 
ENDBRANCH   1   4
BRANCH   1  15
ATOM     15  C   LIG d   1       3.097   0.286  -4.077  0.00  0.00     0.087 A 
ATOM     16  N   LIG d   1       3.409   1.498  -3.663  0.00  0.00    -0.256 NA
ATOM     17  C   LIG d   1       4.108   1.697  -2.563  0.00  0.00     0.028 A 
ATOM     18  C   LIG d   1       4.551   0.632  -1.801  0.00  0.00    -0.040 A 
ATOM     19  H   LIG d   1       4.340   2.706  -2.255  0.00  0.00     0.083 H 
ATOM     20  C   LIG d   1       4.250  -0.659  -2.203  0.00  0.00    -0.017 A 
ATOM     21  H   LIG d   1       5.127   0.806  -0.903  0.00  0.00     0.063 H 
ATOM     22  C   LIG d   1       3.507  -0.833  -3.366  0.00  0.00     0.138 A 
ATOM     23  H   LIG d   1       4.584  -1.510  -1.628  0.00  0.00     0.066 H 
BRANCH  22  24
ATOM     24  O   LIG d   1       3.187  -2.081  -3.799  0.00  0.00    -0.505 OA
ATOM     25  H   LIG d   1       3.831  -2.759  -3.555  0.00  0.00     0.292 HD
ENDBRANCH  22  24
ENDBRANCH   1  15
TORSDOF 3
ENDMDL
MODEL 3
REMARK VINA RESULT:      -5.7      3.183      5.014
REMARK  3 active torsions:
REMARK  status: ('A' for Active; 'I' for Inactive)
REMARK    1  A    between atoms: C_4  and  C_7 
REMARK    2  A    between atoms: C_7  and  C_8 
REMARK    3  A    between atoms: C_9  and  O_14 
ROOT
ATOM      1  C   LIG d   1       2.182   0.270  -4.961  0.00  0.00     0.018 C 
ATOM      2  H   LIG d   1       1.802   1.276  -4.788  0.00  0.00     0.038 H 
ATOM      3  H   LIG d   1       1.345  -0.418  -5.087  0.00  0.00     0.038 H 
ENDROOT
BRANCH   1   4
ATOM      4  C   LIG d   1       3.032   0.259  -6.206  0.00  0.00    -0.042 A 
ATOM      5  C   LIG d   1       2.734   1.111  -7.253  0.00  0.00    -0.058 A 
ATOM      6  C   LIG d   1       3.518   1.106  -8.392  0.00  0.00    -0.061 A 
ATOM      7  H   LIG d   1       1.893   1.784  -7.180  0.00  0.00     0.062 H 
ATOM      8  C   LIG d   1       4.594   0.245  -8.486  0.00  0.00    -0.062 A 
ATOM      9  H   LIG d   1       3.288   1.774  -9.209  0.00  0.00     0.062 H 
ATOM     10  C   LIG d   1       4.889  -0.610  -7.440  0.00  0.00    -0.061 A 
ATOM     11  H   LIG d   1       5.206   0.239  -9.376  0.00  0.00     0.062 H 
ATOM     12  C   LIG d   1       4.106  -0.605  -6.301  0.00  0.00    -0.058 A 
ATOM     13  H   LIG d   1       5.731  -1.284  -7.514  0.00  0.00     0.062 H 
ATOM     14  H   LIG d   1       4.336  -1.273  -5.485  0.00  0.00     0.062 H 
ENDBRANCH   1   4
BRANCH   1  15
ATOM     15  C   LIG d   1       3.013  -0.164  -3.781  0.00  0.00     0.087 A 
ATOM     16  N   LIG d   1       3.079  -1.442  -3.463  0.00  0.00    -0.256 NA
ATOM     17  C   LIG d   1       3.797  -1.867  -2.442  0.00  0.00     0.028 A 
ATOM     18  C   LIG d   1       4.506  -0.980  -1.654  0.00  0.00    -0.040 A 
ATOM     19  H   LIG d   1       3.828  -2.923  -2.217  0.00  0.00     0.083 H 
ATOM     20  C   LIG d   1       4.461   0.373  -1.950  0.00  0.00    -0.017 A 
ATOM     21  H   LIG d   1       5.088  -1.338  -0.818  0.00  0.00     0.063 H 
ATOM     22  C   LIG d   1       3.697   0.787  -3.037  0.00  0.00     0.138 A 
ATOM     23  H   LIG d   1       5.004   1.090  -1.351  0.00  0.00     0.066 H 
BRANCH  22  24
ATOM     24  O   LIG d   1       3.622   2.104  -3.366  0.00  0.00    -0.505 OA
ATOM     25  H   LIG d   1       2.722   2.420  -3.519  0.00  0.00     0.292 HD
ENDBRANCH  22  24
ENDBRANCH   1  15
TORSDOF 3
ENDMDL
MODEL 4
REMARK VINA RESULT:      -5.7      3.590      5.097
REMARK  3 active torsions:
REMARK  status: ('A' for Active; 'I' for Inactive)
REMARK    1  A    between atoms: C_4  and  C_7 
REMARK    2  A    between atoms: C_7  and  C_8 
REMARK    3  A    between atoms: C_9  and  O_14 
ROOT
ATOM      1  C   LIG d   1       3.980  -0.797  -6.356  0.00  0.00     0.018 C 
ATOM      2  H   LIG d   1       3.020  -1.310  -6.403  0.00  0.00     0.038 H 
ATOM      3  H   LIG d   1       4.782  -1.505  -6.565  0.00  0.00     0.038 H 
ENDROOT
BRANCH   1   4
ATOM      4  C   LIG d   1       4.009   0.311  -7.378  0.00  0.00    -0.042 A 
ATOM      5  C   LIG d   1       2.874   1.063  -7.613  0.00  0.00    -0.058 A 
ATOM      6  C   LIG d   1       2.902   2.083  -8.546  0.00  0.00    -0.061 A 
ATOM      7  H   LIG d   1       1.966   0.858  -7.065  0.00  0.00     0.062 H 
ATOM      8  C   LIG d   1       4.063   2.345  -9.248  0.00  0.00    -0.062 A 
ATOM      9  H   LIG d   1       2.016   2.674  -8.728  0.00  0.00     0.062 H 
ATOM     10  C   LIG d   1       5.197   1.589  -9.016  0.00  0.00    -0.061 A 
ATOM     11  H   LIG d   1       4.085   3.141  -9.978  0.00  0.00     0.062 H 
ATOM     12  C   LIG d   1       5.169   0.570  -8.082  0.00  0.00    -0.058 A 
ATOM     13  H   LIG d   1       6.105   1.794  -9.564  0.00  0.00     0.062 H 
ATOM     14  H   LIG d   1       6.055  -0.020  -7.901  0.00  0.00     0.062 H 
ENDBRANCH   1   4
BRANCH   1  15
ATOM     15  C   LIG d   1       4.172  -0.215  -4.978  0.00  0.00     0.087 A 
ATOM     16  N   LIG d   1       5.380   0.132  -4.579  0.00  0.00    -0.256 NA
ATOM     17  C   LIG d   1       5.595   0.649  -3.385  0.00  0.00     0.028 A 
ATOM     18  C   LIG d   1       4.553   0.839  -2.496  0.00  0.00    -0.040 A 
ATOM     19  H   LIG d   1       6.598   0.924  -3.097  0.00  0.00     0.083 H 
ATOM     20  C   LIG d   1       3.268   0.484  -2.874  0.00  0.00    -0.017 A 
ATOM     21  H   LIG d   1       4.740   1.260  -1.519  0.00  0.00     0.063 H 
ATOM     22  C   LIG d   1       3.077  -0.054  -4.142  0.00  0.00     0.138 A 
ATOM     23  H   LIG d   1       2.435   0.620  -2.199  0.00  0.00     0.066 H 
BRANCH  22  24
ATOM     24  O   LIG d   1       1.834  -0.418  -4.556  0.00  0.00    -0.505 OA
ATOM     25  H   LIG d   1       1.130   0.166  -4.245  0.00  0.00     0.292 HD
ENDBRANCH  22  24
ENDBRANCH   1  15
TORSDOF 3
ENDMDL
MODEL 5
REMARK VINA RESULT:      -5.7      2.776      3.426
REMARK  3 active torsions:
REMARK  status: ('A' for Active; 'I' for Inactive)
REMARK    1  A    between atoms: C_4  and  C_7 
REMARK    2  A    between atoms: C_7  and  C_8 
REMARK    3  A    between atoms: C_9  and  O_14 
ROOT
ATOM      1  C   LIG d   1       2.815   0.285  -5.372  0.00  0.00     0.018 C 
ATOM      2  H   LIG d   1       1.906  -0.289  -5.547  0.00  0.00     0.038 H 
ATOM      3  H   LIG d   1       2.584   1.350  -5.399  0.00  0.00     0.038 H 
ENDROOT
BRANCH   1   4
ATOM      4  C   LIG d   1       3.385  -0.071  -4.023  0.00  0.00    -0.042 A 
ATOM      5  C   LIG d   1       3.469  -1.396  -3.637  0.00  0.00    -0.058 A 
ATOM      6  C   LIG d   1       3.997  -1.723  -2.402  0.00  0.00    -0.061 A 
ATOM      7  H   LIG d   1       3.128  -2.176  -4.302  0.00  0.00     0.062 H 
ATOM      8  C   LIG d   1       4.433  -0.726  -1.551  0.00  0.00    -0.062 A 
ATOM      9  H   LIG d   1       4.067  -2.759  -2.101  0.00  0.00     0.062 H 
ATOM     10  C   LIG d   1       4.344   0.599  -1.935  0.00  0.00    -0.061 A 
ATOM     11  H   LIG d   1       4.845  -0.981  -0.585  0.00  0.00     0.062 H 
ATOM     12  C   LIG d   1       3.817   0.927  -3.170  0.00  0.00    -0.058 A 
ATOM     13  H   LIG d   1       4.685   1.379  -1.270  0.00  0.00     0.062 H 
ATOM     14  H   LIG d   1       3.747   1.961  -3.471  0.00  0.00     0.062 H 
ENDBRANCH   1   4
BRANCH   1  15
ATOM     15  C   LIG d   1       3.825  -0.036  -6.445  0.00  0.00     0.087 A 
ATOM     16  N   LIG d   1       5.113   0.058  -6.177  0.00  0.00    -0.256 NA
ATOM     17  C   LIG d   1       6.032  -0.217  -7.082  0.00  0.00     0.028 A 
ATOM     18  C   LIG d   1       5.675  -0.609  -8.359  0.00  0.00    -0.040 A 
ATOM     19  H   LIG d   1       7.076  -0.132  -6.823  0.00  0.00     0.083 H 
ATOM     20  C   LIG d   1       4.333  -0.715  -8.684  0.00  0.00    -0.017 A 
ATOM     21  H   LIG d   1       6.435  -0.828  -9.095  0.00  0.00     0.063 H 
ATOM     22  C   LIG d   1       3.390  -0.422  -7.704  0.00  0.00     0.138 A 
ATOM     23  H   LIG d   1       4.025  -1.018  -9.675  0.00  0.00     0.066 H 
BRANCH  22  24
ATOM     24  O   LIG d   1       2.061  -0.513  -7.976  0.00  0.00    -0.505 OA
ATOM     25  H   LIG d   1       1.838  -0.351  -8.903  0.00  0.00     0.292 HD
ENDBRANCH  22  24
ENDBRANCH   1  15
TORSDOF 3
ENDMDL
MODEL 6
REMARK VINA RESULT:      -5.4      3.530      4.409
REMARK  3 active torsions:
REMARK  status: ('A' for Active; 'I' for Inactive)
REMARK    1  A    between atoms: C_4  and  C_7 
REMARK    2  A    between atoms: C_7  and  C_8 
REMARK    3  A    between atoms: C_9  and  O_14 
ROOT
ATOM      1  C   LIG d   1       4.887  -0.355  -6.307  0.00  0.00     0.018 C 
ATOM      2  H   LIG d   1       4.970   0.731  -6.271  0.00  0.00     0.038 H 
ATOM      3  H   LIG d   1       5.869  -0.789  -6.495  0.00  0.00     0.038 H 
ENDROOT
BRANCH   1   4
ATOM      4  C   LIG d   1       4.357  -0.864  -4.991  0.00  0.00    -0.042 A 
ATOM      5  C   LIG d   1       4.921  -1.980  -4.403  0.00  0.00    -0.058 A 
ATOM      6  C   LIG d   1       4.439  -2.442  -3.193  0.00  0.00    -0.061 A 
ATOM      7  H   LIG d   1       5.743  -2.488  -4.886  0.00  0.00     0.062 H 
ATOM      8  C   LIG d   1       3.387  -1.792  -2.575  0.00  0.00    -0.062 A 
ATOM      9  H   LIG d   1       4.882  -3.312  -2.731  0.00  0.00     0.062 H 
ATOM     10  C   LIG d   1       2.819  -0.679  -3.166  0.00  0.00    -0.061 A 
ATOM     11  H   LIG d   1       3.009  -2.154  -1.630  0.00  0.00     0.062 H 
ATOM     12  C   LIG d   1       3.302  -0.216  -4.375  0.00  0.00    -0.058 A 
ATOM     13  H   LIG d   1       1.997  -0.171  -2.683  0.00  0.00     0.062 H 
ATOM     14  H   LIG d   1       2.859   0.654  -4.837  0.00  0.00     0.062 H 
ENDBRANCH   1   4
BRANCH   1  15
ATOM     15  C   LIG d   1       3.945  -0.750  -7.416  0.00  0.00     0.087 A 
ATOM     16  N   LIG d   1       3.958  -1.987  -7.873  0.00  0.00    -0.256 NA
ATOM     17  C   LIG d   1       3.149  -2.379  -8.838  0.00  0.00     0.028 A 
ATOM     18  C   LIG d   1       2.256  -1.497  -9.417  0.00  0.00    -0.040 A 
ATOM     19  H   LIG d   1       3.187  -3.401  -9.182  0.00  0.00     0.083 H 
ATOM     20  C   LIG d   1       2.212  -0.186  -8.969  0.00  0.00    -0.017 A 
ATOM     21  H   LIG d   1       1.600  -1.826 -10.209  0.00  0.00     0.063 H 
ATOM     22  C   LIG d   1       3.077   0.192  -7.947  0.00  0.00     0.138 A 
ATOM     23  H   LIG d   1       1.525   0.525  -9.404  0.00  0.00     0.066 H 
BRANCH  22  24
ATOM     24  O   LIG d   1       3.070   1.467  -7.475  0.00  0.00    -0.505 OA
ATOM     25  H   LIG d   1       3.874   1.713  -6.997  0.00  0.00     0.292 HD
ENDBRANCH  22  24
ENDBRANCH   1  15
TORSDOF 3
ENDMDL
MODEL 7
REMARK VINA RESULT:      -5.3      2.918      3.811
REMARK  3 active torsions:
REMARK  status: ('A' for Active; 'I' for Inactive)
REMARK    1  A    between atoms: C_4  and  C_7 
REMARK    2  A    between atoms: C_7  and  C_8 
REMARK    3  A    between atoms: C_9  and  O_14 
ROOT
ATOM      1  C   LIG d   1       5.736  -1.029  -5.798  0.00  0.00     0.018 C 
ATOM      2  H   LIG d   1       6.467  -0.227  -5.902  0.00  0.00     0.038 H 
ATOM      3  H   LIG d   1       6.209  -1.984  -6.024  0.00  0.00     0.038 H 
ENDROOT
BRANCH   1   4
ATOM      4  C   LIG d   1       5.209  -1.050  -4.387  0.00  0.00    -0.042 A 
ATOM      5  C   LIG d   1       4.476  -2.133  -3.939  0.00  0.00    -0.058 A 
ATOM      6  C   LIG d   1       3.997  -2.155  -2.642  0.00  0.00    -0.061 A 
ATOM      7  H   LIG d   1       4.280  -2.964  -4.600  0.00  0.00     0.062 H 
ATOM      8  C   LIG d   1       4.247  -1.092  -1.796  0.00  0.00    -0.062 A 
ATOM      9  H   LIG d   1       3.428  -3.003  -2.290  0.00  0.00     0.062 H 
ATOM     10  C   LIG d   1       4.976  -0.007  -2.245  0.00  0.00    -0.061 A 
ATOM     11  H   LIG d   1       3.872  -1.108  -0.782  0.00  0.00     0.062 H 
ATOM     12  C   LIG d   1       5.455   0.015  -3.541  0.00  0.00    -0.058 A 
ATOM     13  H   LIG d   1       5.171   0.825  -1.583  0.00  0.00     0.062 H 
ATOM     14  H   LIG d   1       6.024   0.863  -3.892  0.00  0.00     0.062 H 
ENDBRANCH   1   4
BRANCH   1  15
ATOM     15  C   LIG d   1       4.595  -0.796  -6.757  0.00  0.00     0.087 A 
ATOM     16  N   LIG d   1       3.949   0.353  -6.735  0.00  0.00    -0.256 NA
ATOM     17  C   LIG d   1       2.949   0.602  -7.557  0.00  0.00     0.028 A 
ATOM     18  C   LIG d   1       2.531  -0.344  -8.475  0.00  0.00    -0.040 A 
ATOM     19  H   LIG d   1       2.448   1.558  -7.511  0.00  0.00     0.083 H 
ATOM     20  C   LIG d   1       3.180  -1.567  -8.528  0.00  0.00    -0.017 A 
ATOM     21  H   LIG d   1       1.708  -0.131  -9.141  0.00  0.00     0.063 H 
ATOM     22  C   LIG d   1       4.234  -1.795  -7.649  0.00  0.00     0.138 A 
ATOM     23  H   LIG d   1       2.874  -2.326  -9.233  0.00  0.00     0.066 H 
BRANCH  22  24
ATOM     24  O   LIG d   1       4.900  -2.980  -7.664  0.00  0.00    -0.505 OA
ATOM     25  H   LIG d   1       5.742  -2.963  -7.190  0.00  0.00     0.292 HD
ENDBRANCH  22  24
ENDBRANCH   1  15
TORSDOF 3
ENDMDL
MODEL 8
REMARK VINA RESULT:      -5.3      1.606      2.332
REMARK  3 active torsions:
REMARK  status: ('A' for Active; 'I' for Inactive)
REMARK    1  A    between atoms: C_4  and  C_7 
REMARK    2  A    between atoms: C_7  and  C_8 
REMARK    3  A    between atoms: C_9  and  O_14 
ROOT
ATOM      1  C   LIG d   1       4.466  -2.525  -5.712  0.00  0.00     0.018 C 
ATOM      2  H   LIG d   1       3.425  -2.726  -5.964  0.00  0.00     0.038 H 
ATOM      3  H   LIG d   1       4.909  -1.889  -6.479  0.00  0.00     0.038 H 
ENDROOT
BRANCH   1   4
ATOM      4  C   LIG d   1       4.535  -1.825  -4.379  0.00  0.00    -0.042 A 
ATOM      5  C   LIG d   1       5.070  -0.554  -4.292  0.00  0.00    -0.058 A 
ATOM      6  C   LIG d   1       5.128   0.090  -3.070  0.00  0.00    -0.061 A 
ATOM      7  H   LIG d   1       5.438  -0.061  -5.180  0.00  0.00     0.062 H 
ATOM      8  C   LIG d   1       4.656  -0.541  -1.934  0.00  0.00    -0.062 A 
ATOM      9  H   LIG d   1       5.542   1.086  -3.003  0.00  0.00     0.062 H 
ATOM     10  C   LIG d   1       4.126  -1.814  -2.020  0.00  0.00    -0.061 A 
ATOM     11  H   LIG d   1       4.702  -0.038  -0.979  0.00  0.00     0.062 H 
ATOM     12  C   LIG d   1       4.067  -2.458  -3.242  0.00  0.00    -0.058 A 
ATOM     13  H   LIG d   1       3.757  -2.307  -1.132  0.00  0.00     0.062 H 
ATOM     14  H   LIG d   1       3.653  -3.452  -3.309  0.00  0.00     0.062 H 
ENDBRANCH   1   4
BRANCH   1  15
ATOM     15  C   LIG d   1       5.225  -3.825  -5.637  0.00  0.00     0.087 A 
ATOM     16  N   LIG d   1       6.518  -3.811  -5.377  0.00  0.00    -0.256 NA
ATOM     17  C   LIG d   1       7.221  -4.924  -5.297  0.00  0.00     0.028 A 
ATOM     18  C   LIG d   1       6.626  -6.156  -5.496  0.00  0.00    -0.040 A 
ATOM     19  H   LIG d   1       8.277  -4.871  -5.077  0.00  0.00     0.083 H 
ATOM     20  C   LIG d   1       5.271  -6.215  -5.778  0.00  0.00    -0.017 A 
ATOM     21  H   LIG d   1       7.212  -7.061  -5.433  0.00  0.00     0.063 H 
ATOM     22  C   LIG d   1       4.558  -5.022  -5.849  0.00  0.00     0.138 A 
ATOM     23  H   LIG d   1       4.779  -7.163  -5.939  0.00  0.00     0.066 H 
BRANCH  22  24
ATOM     24  O   LIG d   1       3.226  -5.030  -6.123  0.00  0.00    -0.505 OA
ATOM     25  H   LIG d   1       3.008  -5.370  -7.001  0.00  0.00     0.292 HD
ENDBRANCH  22  24
ENDBRANCH   1  15
TORSDOF 3
ENDMDL
MODEL 9
REMARK VINA RESULT:      -5.2      3.213      3.877
REMARK  3 active torsions:
REMARK  status: ('A' for Active; 'I' for Inactive)
REMARK    1  A    between atoms: C_4  and  C_7 
REMARK    2  A    between atoms: C_7  and  C_8 
REMARK    3  A    between atoms: C_9  and  O_14 
ROOT
ATOM      1  C   LIG d   1       7.524   0.992  -3.867  0.00  0.00     0.018 C 
ATOM      2  H   LIG d   1       7.428   2.077  -3.896  0.00  0.00     0.038 H 
ATOM      3  H   LIG d   1       8.417   0.721  -3.304  0.00  0.00     0.038 H 
ENDROOT
BRANCH   1   4
ATOM      4  C   LIG d   1       6.310   0.397  -3.200  0.00  0.00    -0.042 A 
ATOM      5  C   LIG d   1       5.368   1.223  -2.618  0.00  0.00    -0.058 A 
ATOM      6  C   LIG d   1       4.251   0.678  -2.011  0.00  0.00    -0.061 A 
ATOM      7  H   LIG d   1       5.500   2.295  -2.640  0.00  0.00     0.062 H 
ATOM      8  C   LIG d   1       4.082  -0.693  -1.982  0.00  0.00    -0.062 A 
ATOM      9  H   LIG d   1       3.512   1.323  -1.559  0.00  0.00     0.062 H 
ATOM     10  C   LIG d   1       5.027  -1.520  -2.560  0.00  0.00    -0.061 A 
ATOM     11  H   LIG d   1       3.210  -1.120  -1.507  0.00  0.00     0.062 H 
ATOM     12  C   LIG d   1       6.143  -0.974  -3.167  0.00  0.00    -0.058 A 
ATOM     13  H   LIG d   1       4.895  -2.591  -2.537  0.00  0.00     0.062 H 
ATOM     14  H   LIG d   1       6.882  -1.619  -3.619  0.00  0.00     0.062 H 
ENDBRANCH   1   4
BRANCH   1  15
ATOM     15  C   LIG d   1       7.636   0.460  -5.273  0.00  0.00     0.087 A 
ATOM     16  N   LIG d   1       6.719   0.778  -6.166  0.00  0.00    -0.256 NA
ATOM     17  C   LIG d   1       6.779   0.340  -7.408  0.00  0.00     0.028 A 
ATOM     18  C   LIG d   1       7.809  -0.485  -7.821  0.00  0.00    -0.040 A 
ATOM     19  H   LIG d   1       6.011   0.626  -8.111  0.00  0.00     0.083 H 
ATOM     20  C   LIG d   1       8.791  -0.848  -6.913  0.00  0.00    -0.017 A 
ATOM     21  H   LIG d   1       7.847  -0.842  -8.840  0.00  0.00     0.063 H 
ATOM     22  C   LIG d   1       8.700  -0.363  -5.612  0.00  0.00     0.138 A 
ATOM     23  H   LIG d   1       9.607  -1.491  -7.208  0.00  0.00     0.066 H 
BRANCH  22  24
ATOM     24  O   LIG d   1       9.639  -0.692  -4.687  0.00  0.00    -0.505 OA
ATOM     25  H   LIG d   1       9.383  -1.425  -4.110  0.00  0.00     0.292 HD
ENDBRANCH  22  24
ENDBRANCH   1  15
TORSDOF 3
ENDMDL
MODEL 10
REMARK VINA RESULT:      -5.0      1.800      4.967
REMARK  3 active torsions:
REMARK  status: ('A' for Active; 'I' for Inactive)
REMARK    1  A    between atoms: C_4  and  C_7 
REMARK    2  A    between atoms: C_7  and  C_8 
REMARK    3  A    between atoms: C_9  and  O_14 
ROOT
ATOM      1  C   LIG d   1       4.321  -0.714  -5.863  0.00  0.00     0.018 C 
ATOM      2  H   LIG d   1       4.743  -0.020  -6.590  0.00  0.00     0.038 H 
ATOM      3  H   LIG d   1       3.281  -0.919  -6.117  0.00  0.00     0.038 H 
ENDROOT
BRANCH   1   4
ATOM      4  C   LIG d   1       5.105  -2.001  -5.881  0.00  0.00    -0.042 A 
ATOM      5  C   LIG d   1       4.714  -3.060  -5.084  0.00  0.00    -0.058 A 
ATOM      6  C   LIG d   1       5.430  -4.242  -5.105  0.00  0.00    -0.061 A 
ATOM      7  H   LIG d   1       3.846  -2.966  -4.448  0.00  0.00     0.062 H 
ATOM      8  C   LIG d   1       6.541  -4.363  -5.918  0.00  0.00    -0.062 A 
ATOM      9  H   LIG d   1       5.122  -5.072  -4.485  0.00  0.00     0.062 H 
ATOM     10  C   LIG d   1       6.935  -3.302  -6.711  0.00  0.00    -0.061 A 
ATOM     11  H   LIG d   1       7.101  -5.286  -5.934  0.00  0.00     0.062 H 
ATOM     12  C   LIG d   1       6.219  -2.120  -6.691  0.00  0.00    -0.058 A 
ATOM     13  H   LIG d   1       7.803  -3.396  -7.347  0.00  0.00     0.062 H 
ATOM     14  H   LIG d   1       6.527  -1.291  -7.311  0.00  0.00     0.062 H 
ENDBRANCH   1   4
BRANCH   1  15
ATOM     15  C   LIG d   1       4.390  -0.102  -4.486  0.00  0.00     0.087 A 
ATOM     16  N   LIG d   1       5.529   0.402  -4.054  0.00  0.00    -0.256 NA
ATOM     17  C   LIG d   1       5.635   0.951  -2.859  0.00  0.00     0.028 A 
ATOM     18  C   LIG d   1       4.549   1.009  -2.005  0.00  0.00    -0.040 A 
ATOM     19  H   LIG d   1       6.584   1.358  -2.543  0.00  0.00     0.083 H 
ATOM     20  C   LIG d   1       3.335   0.485  -2.419  0.00  0.00    -0.017 A 
ATOM     21  H   LIG d   1       4.647   1.457  -1.028  0.00  0.00     0.063 H 
ATOM     22  C   LIG d   1       3.257  -0.082  -3.687  0.00  0.00     0.138 A 
ATOM     23  H   LIG d   1       2.470   0.515  -1.773  0.00  0.00     0.066 H 
BRANCH  22  24
ATOM     24  O   LIG d   1       2.087  -0.609  -4.136  0.00  0.00    -0.505 OA
ATOM     25  H   LIG d   1       1.375  -0.599  -3.482  0.00  0.00     0.292 HD
ENDBRANCH  22  24
ENDBRANCH   1  15
TORSDOF 3
ENDMDL
