MODEL 1
REMARK VINA RESULT:      -7.1      0.000      0.000
REMARK  8 active torsions:
REMARK  status: ('A' for Active; 'I' for Inactive)
REMARK    1  A    between atoms: C_1  and  C_2 
REMARK    2  A    between atoms: C_6  and  O_29 
REMARK    3  A    between atoms: C_12  and  C_13 
REMARK    4  A    between atoms: C_13  and  C_14 
REMARK       I    between atoms: C_14  and  N_16 
REMARK    5  A    between atoms: N_16  and  CA_17 
REMARK    6  A    between atoms: CA_17  and  C_19 
REMARK    7  A    between atoms: CA_17  and  C_27 
REMARK    8  A    between atoms: C_19  and  C_20 
ROOT
ATOM      1  C   LIG d   1       4.328  -0.016  -7.246  0.00  0.00     0.056 C 
ATOM      2  H   LIG d   1       5.151  -0.725  -7.155  0.00  0.00     0.041 H 
ATOM      3  H   LIG d   1       4.727   0.980  -7.438  0.00  0.00     0.041 H 
ENDROOT
BRANCH   1   4
ATOM      4  C   LIG d   1       3.432  -0.428  -8.386  0.00  0.00     0.049 A 
ATOM      5  C   LIG d   1       3.279  -1.743  -8.689  0.00  0.00    -0.029 A 
ATOM      6  C   LIG d   1       2.399  -2.096  -9.806  0.00  0.00     0.022 A 
ATOM      7  C   LIG d   1       1.752  -1.069 -10.515  0.00  0.00     0.143 A 
ATOM      8  C   LIG d   1       2.199  -3.433 -10.169  0.00  0.00    -0.029 A 
ATOM      9  C   LIG d   1       0.916  -1.394 -11.574  0.00  0.00     0.024 A 
ATOM     10  O   LIG d   1       1.948   0.220 -10.161  0.00  0.00    -0.422 OA
ATOM     11  C   LIG d   1       0.729  -2.721 -11.921  0.00  0.00     0.139 A 
ATOM     12  H   LIG d   1       0.414  -0.613 -12.127  0.00  0.00     0.069 H 
ATOM     13  C   LIG d   1       1.373  -3.736 -11.213  0.00  0.00     0.083 A 
ATOM     14 CL   LIG d   1       1.124  -5.394 -11.664  0.00  0.00    -0.080 Cl
ATOM     15  C   LIG d   1       2.748   0.550  -9.135  0.00  0.00     0.341 A 
ATOM     16  O   LIG d   1       2.890   1.726  -8.849  0.00  0.00    -0.245 OA
ATOM     17  H   LIG d   1       2.695  -4.224  -9.625  0.00  0.00     0.064 H 
BRANCH   5  18
ATOM     18  C   LIG d   1       3.994  -2.808  -7.899  0.00  0.00    -0.038 C 
ATOM     19  H   LIG d   1       4.069  -2.498  -6.857  0.00  0.00     0.028 H 
ATOM     20  H   LIG d   1       3.434  -3.743  -7.960  0.00  0.00     0.028 H 
ATOM     21  H   LIG d   1       4.993  -2.955  -8.308  0.00  0.00     0.028 H 
ENDBRANCH   5  18
BRANCH  11  22
ATOM     22  O   LIG d   1      -0.090  -3.037 -12.957  0.00  0.00    -0.505 OA
ATOM     23  H   LIG d   1       0.379  -3.250 -13.776  0.00  0.00     0.292 HD
ENDBRANCH  11  22
ENDBRANCH   1   4
BRANCH   1  24
ATOM     24  C   LIG d   1       3.535  -0.000  -5.964  0.00  0.00     0.218 C 
ATOM     25  O   LIG d   1       2.328   0.108  -6.000  0.00  0.00    -0.275 OA
ATOM     26  N   LIG d   1       4.167  -0.107  -4.779  0.00  0.00    -0.307 N 
ATOM     27  H   LIG d   1       5.132  -0.194  -4.751  0.00  0.00     0.149 HD
BRANCH  26  28
ATOM     28  CA  LIG d   1       3.397  -0.092  -3.534  0.00  0.00     0.067 C 
ATOM     29  HA  LIG d   1       2.332  -0.125  -3.765  0.00  0.00     0.056 H 
BRANCH  28  30
ATOM     30  C   LIG d   1       3.773  -1.308  -2.686  0.00  0.00    -0.004 C 
ATOM     31  H   LIG d   1       4.048  -0.981  -1.683  0.00  0.00     0.034 H 
ATOM     32  H   LIG d   1       2.922  -1.987  -2.625  0.00  0.00     0.034 H 
BRANCH  30  33
ATOM     33  C   LIG d   1       4.940  -2.021  -3.319  0.00  0.00    -0.045 A 
ATOM     34  C   LIG d   1       6.232  -1.617  -3.038  0.00  0.00    -0.057 A 
ATOM     35  C   LIG d   1       7.303  -2.270  -3.618  0.00  0.00    -0.043 A 
ATOM     36  H   LIG d   1       6.404  -0.791  -2.364  0.00  0.00     0.062 H 
ATOM     37  C   LIG d   1       7.081  -3.328  -4.483  0.00  0.00     0.041 A 
ATOM     38  H   LIG d   1       8.311  -1.954  -3.398  0.00  0.00     0.063 H 
ATOM     39  C   LIG d   1       5.788  -3.731  -4.764  0.00  0.00    -0.043 A 
ATOM     40 CL   LIG d   1       8.426  -4.147  -5.214  0.00  0.00    -0.084 Cl
ATOM     41  C   LIG d   1       4.719  -3.081  -4.179  0.00  0.00    -0.057 A 
ATOM     42  H   LIG d   1       5.615  -4.557  -5.439  0.00  0.00     0.063 H 
ATOM     43  H   LIG d   1       3.709  -3.399  -4.395  0.00  0.00     0.062 H 
ENDBRANCH  30  33
ENDBRANCH  28  30
BRANCH  28  44
ATOM     44  C   LIG d   1       3.704   1.169  -2.767  0.00  0.00     0.062 C 
ATOM     45  O   LIG d   1       4.046   1.104  -1.610  0.00  0.00    -0.548 OA
ATOM     46  OXT LIG d   1       3.598   2.364  -3.370  0.00  0.00    -0.548 OA
ENDBRANCH  28  44
ENDBRANCH  26  28
ENDBRANCH   1  24
TORSDOF 8
ENDMDL
MODEL 2
REMARK VINA RESULT:      -7.1      1.381      2.171
REMARK  8 active torsions:
REMARK  status: ('A' for Active; 'I' for Inactive)
REMARK    1  A    between atoms: C_1  and  C_2 
REMARK    2  A    between atoms: C_6  and  O_29 
REMARK    3  A    between atoms: C_12  and  C_13 
REMARK    4  A    between atoms: C_13  and  C_14 
REMARK       I    between atoms: C_14  and  N_16 
REMARK    5  A    between atoms: N_16  and  CA_17 
REMARK    6  A    between atoms: CA_17  and  C_19 
REMARK    7  A    between atoms: CA_17  and  C_27 
REMARK    8  A    between atoms: C_19  and  C_20 
ROOT
ATOM      1  C   LIG d   1       4.169  -0.034  -7.329  0.00  0.00     0.056 C 
ATOM      2  H   LIG d   1       5.185  -0.378  -7.134  0.00  0.00     0.041 H 
ATOM      3  H   LIG d   1       4.202   0.963  -7.769  0.00  0.00     0.041 H 
ENDROOT
BRANCH   1   4
ATOM      4  C   LIG d   1       3.492  -0.983  -8.284  0.00  0.00     0.049 A 
ATOM      5  C   LIG d   1       2.645  -0.505  -9.233  0.00  0.00    -0.029 A 
ATOM      6  C   LIG d   1       2.010  -1.464 -10.138  0.00  0.00     0.022 A 
ATOM      7  C   LIG d   1       2.298  -2.834  -9.994  0.00  0.00     0.143 A 
ATOM      8  C   LIG d   1       1.128  -1.036 -11.138  0.00  0.00    -0.029 A 
ATOM      9  C   LIG d   1       1.701  -3.750 -10.848  0.00  0.00     0.024 A 
ATOM     10  O   LIG d   1       3.151  -3.242  -9.029  0.00  0.00    -0.422 OA
ATOM     11  C   LIG d   1       0.831  -3.310 -11.830  0.00  0.00     0.139 A 
ATOM     12  H   LIG d   1       1.915  -4.804 -10.745  0.00  0.00     0.069 H 
ATOM     13  C   LIG d   1       0.549  -1.951 -11.970  0.00  0.00     0.083 A 
ATOM     14 CL   LIG d   1      -0.546  -1.420 -13.208  0.00  0.00    -0.080 Cl
ATOM     15  C   LIG d   1       3.741  -2.368  -8.200  0.00  0.00     0.341 A 
ATOM     16  O   LIG d   1       4.507  -2.783  -7.347  0.00  0.00    -0.245 OA
ATOM     17  H   LIG d   1       0.905   0.015 -11.250  0.00  0.00     0.064 H 
BRANCH   5  18
ATOM     18  C   LIG d   1       2.368   0.971  -9.349  0.00  0.00    -0.038 C 
ATOM     19  H   LIG d   1       1.501   1.129  -9.989  0.00  0.00     0.028 H 
ATOM     20  H   LIG d   1       2.167   1.382  -8.359  0.00  0.00     0.028 H 
ATOM     21  H   LIG d   1       3.235   1.471  -9.781  0.00  0.00     0.028 H 
ENDBRANCH   5  18
BRANCH  11  22
ATOM     22  O   LIG d   1       0.248  -4.208 -12.664  0.00  0.00    -0.505 OA
ATOM     23  H   LIG d   1       0.089  -3.869 -13.557  0.00  0.00     0.292 HD
ENDBRANCH  11  22
ENDBRANCH   1   4
BRANCH   1  24
ATOM     24  C   LIG d   1       3.398   0.013  -6.036  0.00  0.00     0.218 C 
ATOM     25  O   LIG d   1       2.199   0.193  -6.051  0.00  0.00    -0.275 OA
ATOM     26  N   LIG d   1       4.040  -0.147  -4.861  0.00  0.00    -0.307 N 
ATOM     27  H   LIG d   1       4.999  -0.291  -4.849  0.00  0.00     0.149 HD
BRANCH  26  28
ATOM     28  CA  LIG d   1       3.290  -0.101  -3.604  0.00  0.00     0.067 C 
ATOM     29  HA  LIG d   1       2.222  -0.102  -3.818  0.00  0.00     0.056 H 
BRANCH  28  30
ATOM     30  C   LIG d   1       3.642  -1.324  -2.756  0.00  0.00    -0.004 C 
ATOM     31  H   LIG d   1       3.823  -1.013  -1.727  0.00  0.00     0.034 H 
ATOM     32  H   LIG d   1       2.815  -2.034  -2.781  0.00  0.00     0.034 H 
BRANCH  30  33
ATOM     33  C   LIG d   1       4.882  -1.979  -3.307  0.00  0.00    -0.045 A 
ATOM     34  C   LIG d   1       4.773  -3.091  -4.120  0.00  0.00    -0.057 A 
ATOM     35  C   LIG d   1       5.910  -3.693  -4.626  0.00  0.00    -0.043 A 
ATOM     36  H   LIG d   1       3.799  -3.491  -4.360  0.00  0.00     0.062 H 
ATOM     37  C   LIG d   1       7.158  -3.181  -4.317  0.00  0.00     0.041 A 
ATOM     38  H   LIG d   1       5.824  -4.562  -5.261  0.00  0.00     0.063 H 
ATOM     39  C   LIG d   1       7.267  -2.068  -3.503  0.00  0.00    -0.043 A 
ATOM     40 CL   LIG d   1       8.587  -3.937  -4.952  0.00  0.00    -0.084 Cl
ATOM     41  C   LIG d   1       6.129  -1.465  -3.003  0.00  0.00    -0.057 A 
ATOM     42  H   LIG d   1       8.241  -1.668  -3.262  0.00  0.00     0.063 H 
ATOM     43  H   LIG d   1       6.214  -0.593  -2.370  0.00  0.00     0.062 H 
ENDBRANCH  30  33
ENDBRANCH  28  30
BRANCH  28  44
ATOM     44  C   LIG d   1       3.649   1.154  -2.850  0.00  0.00     0.062 C 
ATOM     45  O   LIG d   1       3.966   1.088  -1.685  0.00  0.00    -0.548 OA
ATOM     46  OXT LIG d   1       3.617   2.343  -3.471  0.00  0.00    -0.548 OA
ENDBRANCH  28  44
ENDBRANCH  26  28
ENDBRANCH   1  24
TORSDOF 8
ENDMDL
MODEL 3
REMARK VINA RESULT:      -7.0      6.204      9.458
REMARK  8 active torsions:
REMARK  status: ('A' for Active; 'I' for Inactive)
REMARK    1  A    between atoms: C_1  and  C_2 
REMARK    2  A    between atoms: C_6  and  O_29 
REMARK    3  A    between atoms: C_12  and  C_13 
REMARK    4  A    between atoms: C_13  and  C_14 
REMARK       I    between atoms: C_14  and  N_16 
REMARK    5  A    between atoms: N_16  and  CA_17 
REMARK    6  A    between atoms: CA_17  and  C_19 
REMARK    7  A    between atoms: CA_17  and  C_27 
REMARK    8  A    between atoms: C_19  and  C_20 
ROOT
ATOM      1  C   LIG d   1       5.466  -7.689  -6.051  0.00  0.00     0.056 C 
ATOM      2  H   LIG d   1       6.082  -7.653  -6.950  0.00  0.00     0.041 H 
ATOM      3  H   LIG d   1       4.562  -8.264  -6.254  0.00  0.00     0.041 H 
ENDROOT
BRANCH   1   4
ATOM      4  C   LIG d   1       6.241  -8.346  -4.938  0.00  0.00     0.049 A 
ATOM      5  C   LIG d   1       5.642  -9.278  -4.150  0.00  0.00    -0.029 A 
ATOM      6  C   LIG d   1       6.434  -9.890  -3.081  0.00  0.00     0.022 A 
ATOM      7  C   LIG d   1       7.773  -9.493  -2.911  0.00  0.00     0.143 A 
ATOM      8  C   LIG d   1       5.876 -10.856  -2.236  0.00  0.00    -0.029 A 
ATOM      9  C   LIG d   1       8.531 -10.068  -1.901  0.00  0.00     0.024 A 
ATOM     10  O   LIG d   1       8.307  -8.561  -3.730  0.00  0.00    -0.422 OA
ATOM     11  C   LIG d   1       7.964 -11.021  -1.073  0.00  0.00     0.139 A 
ATOM     12  H   LIG d   1       9.560  -9.770  -1.761  0.00  0.00     0.069 H 
ATOM     13  C   LIG d   1       6.637 -11.412  -1.246  0.00  0.00     0.083 A 
ATOM     14 CL   LIG d   1       5.945 -12.610  -0.197  0.00  0.00    -0.080 Cl
ATOM     15  C   LIG d   1       7.589  -8.001  -4.716  0.00  0.00     0.341 A 
ATOM     16  O   LIG d   1       8.114  -7.167  -5.433  0.00  0.00    -0.245 OA
ATOM     17  H   LIG d   1       4.848 -11.162  -2.365  0.00  0.00     0.064 H 
BRANCH   5  18
ATOM     18  C   LIG d   1       4.205  -9.671  -4.372  0.00  0.00    -0.038 C 
ATOM     19  H   LIG d   1       3.625  -8.788  -4.642  0.00  0.00     0.028 H 
ATOM     20  H   LIG d   1       4.149 -10.402  -5.180  0.00  0.00     0.028 H 
ATOM     21  H   LIG d   1       3.802 -10.106  -3.459  0.00  0.00     0.028 H 
ENDBRANCH   5  18
BRANCH  11  22
ATOM     22  O   LIG d   1       8.708 -11.582  -0.085  0.00  0.00    -0.505 OA
ATOM     23  H   LIG d   1       8.249 -12.279   0.404  0.00  0.00     0.292 HD
ENDBRANCH  11  22
ENDBRANCH   1   4
BRANCH   1  24
ATOM     24  C   LIG d   1       5.090  -6.288  -5.643  0.00  0.00     0.218 C 
ATOM     25  O   LIG d   1       4.094  -6.098  -4.978  0.00  0.00    -0.275 OA
ATOM     26  N   LIG d   1       5.860  -5.247  -6.016  0.00  0.00    -0.307 N 
ATOM     27  H   LIG d   1       6.656  -5.400  -6.548  0.00  0.00     0.149 HD
BRANCH  26  28
ATOM     28  CA  LIG d   1       5.494  -3.886  -5.619  0.00  0.00     0.067 C 
ATOM     29  HA  LIG d   1       4.488  -3.888  -5.199  0.00  0.00     0.056 H 
BRANCH  28  30
ATOM     30  C   LIG d   1       6.484  -3.377  -4.570  0.00  0.00    -0.004 C 
ATOM     31  H   LIG d   1       6.695  -4.171  -3.854  0.00  0.00     0.034 H 
ATOM     32  H   LIG d   1       7.410  -3.075  -5.060  0.00  0.00     0.034 H 
BRANCH  30  33
ATOM     33  C   LIG d   1       5.889  -2.195  -3.849  0.00  0.00    -0.045 A 
ATOM     34  C   LIG d   1       4.662  -2.312  -3.225  0.00  0.00    -0.057 A 
ATOM     35  C   LIG d   1       4.115  -1.229  -2.563  0.00  0.00    -0.043 A 
ATOM     36  H   LIG d   1       4.129  -3.252  -3.254  0.00  0.00     0.062 H 
ATOM     37  C   LIG d   1       4.798  -0.026  -2.527  0.00  0.00     0.041 A 
ATOM     38  H   LIG d   1       3.156  -1.322  -2.076  0.00  0.00     0.063 H 
ATOM     39  C   LIG d   1       6.026   0.092  -3.152  0.00  0.00    -0.043 A 
ATOM     40 CL   LIG d   1       4.111   1.337  -1.697  0.00  0.00    -0.084 Cl
ATOM     41  C   LIG d   1       6.574  -0.994  -3.808  0.00  0.00    -0.057 A 
ATOM     42  H   LIG d   1       6.559   1.031  -3.124  0.00  0.00     0.063 H 
ATOM     43  H   LIG d   1       7.535  -0.904  -4.292  0.00  0.00     0.062 H 
ENDBRANCH  30  33
ENDBRANCH  28  30
BRANCH  28  44
ATOM     44  C   LIG d   1       5.532  -2.983  -6.826  0.00  0.00     0.062 C 
ATOM     45  O   LIG d   1       4.554  -2.342  -7.130  0.00  0.00    -0.548 OA
ATOM     46  OXT LIG d   1       6.651  -2.890  -7.560  0.00  0.00    -0.548 OA
ENDBRANCH  28  44
ENDBRANCH  26  28
ENDBRANCH   1  24
TORSDOF 8
ENDMDL
MODEL 4
REMARK VINA RESULT:      -7.0      5.964      9.520
REMARK  8 active torsions:
REMARK  status: ('A' for Active; 'I' for Inactive)
REMARK    1  A    between atoms: C_1  and  C_2 
REMARK    2  A    between atoms: C_6  and  O_29 
REMARK    3  A    between atoms: C_12  and  C_13 
REMARK    4  A    between atoms: C_13  and  C_14 
REMARK       I    between atoms: C_14  and  N_16 
REMARK    5  A    between atoms: N_16  and  CA_17 
REMARK    6  A    between atoms: CA_17  and  C_19 
REMARK    7  A    between atoms: CA_17  and  C_27 
REMARK    8  A    between atoms: C_19  and  C_20 
ROOT
ATOM      1  C   LIG d   1       5.357  -7.751  -6.101  0.00  0.00     0.056 C 
ATOM      2  H   LIG d   1       6.155  -7.723  -6.844  0.00  0.00     0.041 H 
ATOM      3  H   LIG d   1       4.475  -8.224  -6.534  0.00  0.00     0.041 H 
ENDROOT
BRANCH   1   4
ATOM      4  C   LIG d   1       5.814  -8.542  -4.903  0.00  0.00     0.049 A 
ATOM      5  C   LIG d   1       7.091  -8.421  -4.454  0.00  0.00    -0.029 A 
ATOM      6  C   LIG d   1       7.490  -9.209  -3.287  0.00  0.00     0.022 A 
ATOM      7  C   LIG d   1       6.544 -10.054  -2.678  0.00  0.00     0.143 A 
ATOM      8  C   LIG d   1       8.791  -9.130  -2.775  0.00  0.00    -0.029 A 
ATOM      9  C   LIG d   1       6.914 -10.804  -1.571  0.00  0.00     0.024 A 
ATOM     10  O   LIG d   1       5.291 -10.127  -3.174  0.00  0.00    -0.422 OA
ATOM     11  C   LIG d   1       8.204 -10.715  -1.077  0.00  0.00     0.139 A 
ATOM     12  H   LIG d   1       6.197 -11.457  -1.096  0.00  0.00     0.069 H 
ATOM     13  C   LIG d   1       9.138  -9.875  -1.684  0.00  0.00     0.083 A 
ATOM     14 CL   LIG d   1      10.751  -9.777  -1.050  0.00  0.00    -0.080 Cl
ATOM     15  C   LIG d   1       4.916  -9.404  -4.240  0.00  0.00     0.341 A 
ATOM     16  O   LIG d   1       3.773  -9.498  -4.650  0.00  0.00    -0.245 OA
ATOM     17  H   LIG d   1       9.519  -8.481  -3.241  0.00  0.00     0.064 H 
BRANCH   5  18
ATOM     18  C   LIG d   1       8.068  -7.502  -5.140  0.00  0.00    -0.038 C 
ATOM     19  H   LIG d   1       8.815  -8.094  -5.667  0.00  0.00     0.028 H 
ATOM     20  H   LIG d   1       7.534  -6.872  -5.853  0.00  0.00     0.028 H 
ATOM     21  H   LIG d   1       8.559  -6.874  -4.397  0.00  0.00     0.028 H 
ENDBRANCH   5  18
BRANCH  11  22
ATOM     22  O   LIG d   1       8.563 -11.450   0.006  0.00  0.00    -0.505 OA
ATOM     23  H   LIG d   1       9.464 -11.279   0.315  0.00  0.00     0.292 HD
ENDBRANCH  11  22
ENDBRANCH   1   4
BRANCH   1  24
ATOM     24  C   LIG d   1       5.016  -6.346  -5.677  0.00  0.00     0.218 C 
ATOM     25  O   LIG d   1       4.038  -6.141  -4.991  0.00  0.00    -0.275 OA
ATOM     26  N   LIG d   1       5.799  -5.318  -6.058  0.00  0.00    -0.307 N 
ATOM     27  H   LIG d   1       6.582  -5.482  -6.607  0.00  0.00     0.149 HD
BRANCH  26  28
ATOM     28  CA  LIG d   1       5.468  -3.952  -5.645  0.00  0.00     0.067 C 
ATOM     29  HA  LIG d   1       4.502  -3.949  -5.141  0.00  0.00     0.056 H 
BRANCH  28  30
ATOM     30  C   LIG d   1       6.544  -3.433  -4.690  0.00  0.00    -0.004 C 
ATOM     31  H   LIG d   1       6.839  -4.229  -4.007  0.00  0.00     0.034 H 
ATOM     32  H   LIG d   1       7.413  -3.108  -5.264  0.00  0.00     0.034 H 
BRANCH  30  33
ATOM     33  C   LIG d   1       5.999  -2.271  -3.902  0.00  0.00    -0.045 A 
ATOM     34  C   LIG d   1       4.804  -2.398  -3.220  0.00  0.00    -0.057 A 
ATOM     35  C   LIG d   1       4.302  -1.333  -2.497  0.00  0.00    -0.043 A 
ATOM     36  H   LIG d   1       4.261  -3.332  -3.252  0.00  0.00     0.062 H 
ATOM     37  C   LIG d   1       4.997  -0.136  -2.458  0.00  0.00     0.041 A 
ATOM     38  H   LIG d   1       3.368  -1.433  -1.964  0.00  0.00     0.063 H 
ATOM     39  C   LIG d   1       6.193  -0.008  -3.141  0.00  0.00    -0.043 A 
ATOM     40 CL   LIG d   1       4.367   1.204  -1.550  0.00  0.00    -0.084 Cl
ATOM     41  C   LIG d   1       6.696  -1.077  -3.859  0.00  0.00    -0.057 A 
ATOM     42  H   LIG d   1       6.736   0.925  -3.110  0.00  0.00     0.063 H 
ATOM     43  H   LIG d   1       7.632  -0.979  -4.389  0.00  0.00     0.062 H 
ENDBRANCH  30  33
ENDBRANCH  28  30
BRANCH  28  44
ATOM     44  C   LIG d   1       5.402  -3.062  -6.860  0.00  0.00     0.062 C 
ATOM     45  O   LIG d   1       6.421  -2.667  -7.375  0.00  0.00    -0.548 OA
ATOM     46  OXT LIG d   1       4.212  -2.708  -7.369  0.00  0.00    -0.548 OA
ENDBRANCH  28  44
ENDBRANCH  26  28
ENDBRANCH   1  24
TORSDOF 8
ENDMDL
MODEL 5
REMARK VINA RESULT:      -6.9      4.382      8.215
REMARK  8 active torsions:
REMARK  status: ('A' for Active; 'I' for Inactive)
REMARK    1  A    between atoms: C_1  and  C_2 
REMARK    2  A    between atoms: C_6  and  O_29 
REMARK    3  A    between atoms: C_12  and  C_13 
REMARK    4  A    between atoms: C_13  and  C_14 
REMARK       I    between atoms: C_14  and  N_16 
REMARK    5  A    between atoms: N_16  and  CA_17 
REMARK    6  A    between atoms: CA_17  and  C_19 
REMARK    7  A    between atoms: CA_17  and  C_27 
REMARK    8  A    between atoms: C_19  and  C_20 
ROOT
ATOM      1  C   LIG d   1       5.933  -1.927  -3.364  0.00  0.00     0.056 C 
ATOM      2  H   LIG d   1       6.349  -2.847  -2.953  0.00  0.00     0.041 H 
ATOM      3  H   LIG d   1       5.430  -1.370  -2.573  0.00  0.00     0.041 H 
ENDROOT
BRANCH   1   4
ATOM      4  C   LIG d   1       7.044  -1.087  -3.941  0.00  0.00     0.049 A 
ATOM      5  C   LIG d   1       7.016   0.265  -3.806  0.00  0.00    -0.029 A 
ATOM      6  C   LIG d   1       8.116   1.039  -4.383  0.00  0.00     0.022 A 
ATOM      7  C   LIG d   1       9.153   0.361  -5.049  0.00  0.00     0.143 A 
ATOM      8  C   LIG d   1       8.146   2.435  -4.278  0.00  0.00    -0.029 A 
ATOM      9  C   LIG d   1      10.200   1.087  -5.598  0.00  0.00     0.024 A 
ATOM     10  O   LIG d   1       9.120  -0.986  -5.146  0.00  0.00    -0.422 OA
ATOM     11  C   LIG d   1      10.214   2.466  -5.486  0.00  0.00     0.139 A 
ATOM     12  H   LIG d   1      11.001   0.576  -6.112  0.00  0.00     0.069 H 
ATOM     13  C   LIG d   1       9.184   3.134  -4.824  0.00  0.00     0.083 A 
ATOM     14 CL   LIG d   1       9.221   4.865  -4.695  0.00  0.00    -0.080 Cl
ATOM     15  C   LIG d   1       8.118  -1.702  -4.615  0.00  0.00     0.341 A 
ATOM     16  O   LIG d   1       8.133  -2.916  -4.724  0.00  0.00    -0.245 OA
ATOM     17  H   LIG d   1       7.351   2.958  -3.767  0.00  0.00     0.064 H 
BRANCH   5  18
ATOM     18  C   LIG d   1       5.883   0.947  -3.083  0.00  0.00    -0.038 C 
ATOM     19  H   LIG d   1       4.997   0.950  -3.718  0.00  0.00     0.028 H 
ATOM     20  H   LIG d   1       5.665   0.407  -2.160  0.00  0.00     0.028 H 
ATOM     21  H   LIG d   1       6.167   1.971  -2.847  0.00  0.00     0.028 H 
ENDBRANCH   5  18
BRANCH  11  22
ATOM     22  O   LIG d   1      11.240   3.175  -6.024  0.00  0.00    -0.505 OA
ATOM     23  H   LIG d   1      10.998   4.072  -6.295  0.00  0.00     0.292 HD
ENDBRANCH  11  22
ENDBRANCH   1   4
BRANCH   1  24
ATOM     24  C   LIG d   1       4.943  -2.264  -4.449  0.00  0.00     0.218 C 
ATOM     25  O   LIG d   1       3.927  -1.613  -4.565  0.00  0.00    -0.275 OA
ATOM     26  N   LIG d   1       5.187  -3.289  -5.290  0.00  0.00    -0.307 N 
ATOM     27  H   LIG d   1       5.999  -3.809  -5.196  0.00  0.00     0.149 HD
BRANCH  26  28
ATOM     28  CA  LIG d   1       4.224  -3.616  -6.344  0.00  0.00     0.067 C 
ATOM     29  HA  LIG d   1       3.306  -3.051  -6.186  0.00  0.00     0.056 H 
BRANCH  28  30
ATOM     30  C   LIG d   1       4.818  -3.256  -7.706  0.00  0.00    -0.004 C 
ATOM     31  H   LIG d   1       5.896  -3.410  -7.685  0.00  0.00     0.034 H 
ATOM     32  H   LIG d   1       4.376  -3.890  -8.475  0.00  0.00     0.034 H 
BRANCH  30  33
ATOM     33  C   LIG d   1       4.523  -1.811  -8.017  0.00  0.00    -0.045 A 
ATOM     34  C   LIG d   1       3.244  -1.427  -8.374  0.00  0.00    -0.057 A 
ATOM     35  C   LIG d   1       2.973  -0.103  -8.659  0.00  0.00    -0.043 A 
ATOM     36  H   LIG d   1       2.456  -2.164  -8.430  0.00  0.00     0.062 H 
ATOM     37  C   LIG d   1       3.984   0.840  -8.588  0.00  0.00     0.041 A 
ATOM     38  H   LIG d   1       1.973   0.196  -8.938  0.00  0.00     0.063 H 
ATOM     39  C   LIG d   1       5.264   0.456  -8.231  0.00  0.00    -0.043 A 
ATOM     40 CL   LIG d   1       3.643   2.505  -8.947  0.00  0.00    -0.084 Cl
ATOM     41  C   LIG d   1       5.532  -0.868  -7.941  0.00  0.00    -0.057 A 
ATOM     42  H   LIG d   1       6.053   1.192  -8.175  0.00  0.00     0.063 H 
ATOM     43  H   LIG d   1       6.531  -1.167  -7.658  0.00  0.00     0.062 H 
ENDBRANCH  30  33
ENDBRANCH  28  30
BRANCH  28  44
ATOM     44  C   LIG d   1       3.918  -5.092  -6.304  0.00  0.00     0.062 C 
ATOM     45  O   LIG d   1       4.022  -5.702  -5.266  0.00  0.00    -0.548 OA
ATOM     46  OXT LIG d   1       3.529  -5.727  -7.420  0.00  0.00    -0.548 OA
ENDBRANCH  28  44
ENDBRANCH  26  28
ENDBRANCH   1  24
TORSDOF 8
ENDMDL
MODEL 6
REMARK VINA RESULT:      -6.8      3.030      4.730
REMARK  8 active torsions:
REMARK  status: ('A' for Active; 'I' for Inactive)
REMARK    1  A    between atoms: C_1  and  C_2 
REMARK    2  A    between atoms: C_6  and  O_29 
REMARK    3  A    between atoms: C_12  and  C_13 
REMARK    4  A    between atoms: C_13  and  C_14 
REMARK       I    between atoms: C_14  and  N_16 
REMARK    5  A    between atoms: N_16  and  CA_17 
REMARK    6  A    between atoms: CA_17  and  C_19 
REMARK    7  A    between atoms: CA_17  and  C_27 
REMARK    8  A    between atoms: C_19  and  C_20 
ROOT
ATOM      1  C   LIG d   1       5.076  -1.520  -5.892  0.00  0.00     0.056 C 
ATOM      2  H   LIG d   1       4.696  -1.038  -4.991  0.00  0.00     0.041 H 
ATOM      3  H   LIG d   1       5.224  -2.583  -5.701  0.00  0.00     0.041 H 
ENDROOT
BRANCH   1   4
ATOM      4  C   LIG d   1       4.082  -1.344  -7.012  0.00  0.00     0.049 A 
ATOM      5  C   LIG d   1       3.967  -2.297  -7.975  0.00  0.00    -0.029 A 
ATOM      6  C   LIG d   1       2.988  -2.083  -9.043  0.00  0.00     0.022 A 
ATOM      7  C   LIG d   1       2.210  -0.911  -9.032  0.00  0.00     0.143 A 
ATOM      8  C   LIG d   1       2.821  -3.026 -10.064  0.00  0.00    -0.029 A 
ATOM      9  C   LIG d   1       1.281  -0.701 -10.040  0.00  0.00     0.024 A 
ATOM     10  O   LIG d   1       2.375  -0.005  -8.044  0.00  0.00    -0.422 OA
ATOM     11  C   LIG d   1       1.127  -1.643 -11.043  0.00  0.00     0.139 A 
ATOM     12  H   LIG d   1       0.678   0.196 -10.042  0.00  0.00     0.069 H 
ATOM     13  C   LIG d   1       1.900  -2.804 -11.048  0.00  0.00     0.083 A 
ATOM     14 CL   LIG d   1       1.693  -3.973 -12.315  0.00  0.00    -0.080 Cl
ATOM     15  C   LIG d   1       3.266  -0.196  -7.059  0.00  0.00     0.341 A 
ATOM     16  O   LIG d   1       3.376   0.647  -6.186  0.00  0.00    -0.245 OA
ATOM     17  H   LIG d   1       3.417  -3.927 -10.074  0.00  0.00     0.064 H 
BRANCH   5  18
ATOM     18  C   LIG d   1       4.822  -3.536  -7.943  0.00  0.00    -0.038 C 
ATOM     19  H   LIG d   1       4.296  -4.353  -8.436  0.00  0.00     0.028 H 
ATOM     20  H   LIG d   1       5.761  -3.343  -8.464  0.00  0.00     0.028 H 
ATOM     21  H   LIG d   1       5.030  -3.808  -6.909  0.00  0.00     0.028 H 
ENDBRANCH   5  18
BRANCH  11  22
ATOM     22  O   LIG d   1       0.217  -1.435 -12.028  0.00  0.00    -0.505 OA
ATOM     23  H   LIG d   1       0.065  -2.207 -12.591  0.00  0.00     0.292 HD
ENDBRANCH  11  22
ENDBRANCH   1   4
BRANCH   1  24
ATOM     24  C   LIG d   1       6.389  -0.891  -6.283  0.00  0.00     0.218 C 
ATOM     25  O   LIG d   1       7.355  -1.591  -6.496  0.00  0.00    -0.275 OA
ATOM     26  N   LIG d   1       6.488   0.448  -6.395  0.00  0.00    -0.307 N 
ATOM     27  H   LIG d   1       5.715   1.007  -6.224  0.00  0.00     0.149 HD
BRANCH  26  28
ATOM     28  CA  LIG d   1       7.764   1.059  -6.775  0.00  0.00     0.067 C 
ATOM     29  HA  LIG d   1       8.444   0.287  -7.134  0.00  0.00     0.056 H 
BRANCH  28  30
ATOM     30  C   LIG d   1       7.528   2.087  -7.882  0.00  0.00    -0.004 C 
ATOM     31  H   LIG d   1       7.016   2.956  -7.468  0.00  0.00     0.034 H 
ATOM     32  H   LIG d   1       8.486   2.396  -8.301  0.00  0.00     0.034 H 
BRANCH  30  33
ATOM     33  C   LIG d   1       6.680   1.474  -8.966  0.00  0.00    -0.045 A 
ATOM     34  C   LIG d   1       5.418   1.975  -9.224  0.00  0.00    -0.057 A 
ATOM     35  C   LIG d   1       4.640   1.413 -10.218  0.00  0.00    -0.043 A 
ATOM     36  H   LIG d   1       5.041   2.808  -8.649  0.00  0.00     0.062 H 
ATOM     37  C   LIG d   1       5.124   0.346 -10.954  0.00  0.00     0.041 A 
ATOM     38  H   LIG d   1       3.654   1.806 -10.419  0.00  0.00     0.063 H 
ATOM     39  C   LIG d   1       6.387  -0.157 -10.695  0.00  0.00    -0.043 A 
ATOM     40 CL   LIG d   1       4.145  -0.362 -12.202  0.00  0.00    -0.084 Cl
ATOM     41  C   LIG d   1       7.166   0.410  -9.705  0.00  0.00    -0.057 A 
ATOM     42  H   LIG d   1       6.765  -0.990 -11.270  0.00  0.00     0.063 H 
ATOM     43  H   LIG d   1       8.154   0.021  -9.506  0.00  0.00     0.062 H 
ENDBRANCH  30  33
ENDBRANCH  28  30
BRANCH  28  44
ATOM     44  C   LIG d   1       8.371   1.742  -5.576  0.00  0.00     0.062 C 
ATOM     45  O   LIG d   1       7.656   2.205  -4.719  0.00  0.00    -0.548 OA
ATOM     46  OXT LIG d   1       9.705   1.835  -5.460  0.00  0.00    -0.548 OA
ENDBRANCH  28  44
ENDBRANCH  26  28
ENDBRANCH   1  24
TORSDOF 8
ENDMDL
MODEL 7
REMARK VINA RESULT:      -6.8      3.813      7.993
REMARK  8 active torsions:
REMARK  status: ('A' for Active; 'I' for Inactive)
REMARK    1  A    between atoms: C_1  and  C_2 
REMARK    2  A    between atoms: C_6  and  O_29 
REMARK    3  A    between atoms: C_12  and  C_13 
REMARK    4  A    between atoms: C_13  and  C_14 
REMARK       I    between atoms: C_14  and  N_16 
REMARK    5  A    between atoms: N_16  and  CA_17 
REMARK    6  A    between atoms: CA_17  and  C_19 
REMARK    7  A    between atoms: CA_17  and  C_27 
REMARK    8  A    between atoms: C_19  and  C_20 
ROOT
ATOM      1  C   LIG d   1       5.718  -1.960  -3.226  0.00  0.00     0.056 C 
ATOM      2  H   LIG d   1       6.428  -2.775  -3.085  0.00  0.00     0.041 H 
ATOM      3  H   LIG d   1       5.137  -1.824  -2.313  0.00  0.00     0.041 H 
ENDROOT
BRANCH   1   4
ATOM      4  C   LIG d   1       6.467  -0.690  -3.538  0.00  0.00     0.049 A 
ATOM      5  C   LIG d   1       7.602  -0.735  -4.285  0.00  0.00    -0.029 A 
ATOM      6  C   LIG d   1       8.296   0.523  -4.562  0.00  0.00     0.022 A 
ATOM      7  C   LIG d   1       7.767   1.722  -4.050  0.00  0.00     0.143 A 
ATOM      8  C   LIG d   1       9.470   0.545  -5.325  0.00  0.00    -0.029 A 
ATOM      9  C   LIG d   1       8.418   2.920  -4.309  0.00  0.00     0.024 A 
ATOM     10  O   LIG d   1       6.634   1.697  -3.316  0.00  0.00    -0.422 OA
ATOM     11  C   LIG d   1       9.578   2.924  -5.064  0.00  0.00     0.139 A 
ATOM     12  H   LIG d   1       8.021   3.846  -3.920  0.00  0.00     0.069 H 
ATOM     13  C   LIG d   1      10.098   1.733  -5.570  0.00  0.00     0.083 A 
ATOM     14 CL   LIG d   1      11.554   1.759  -6.516  0.00  0.00    -0.080 Cl
ATOM     15  C   LIG d   1       5.990   0.547  -3.062  0.00  0.00     0.341 A 
ATOM     16  O   LIG d   1       4.968   0.574  -2.398  0.00  0.00    -0.245 OA
ATOM     17  H   LIG d   1       9.878  -0.374  -5.719  0.00  0.00     0.064 H 
BRANCH   5  18
ATOM     18  C   LIG d   1       8.130  -2.045  -4.811  0.00  0.00    -0.038 C 
ATOM     19  H   LIG d   1       7.454  -2.427  -5.575  0.00  0.00     0.028 H 
ATOM     20  H   LIG d   1       9.118  -1.888  -5.247  0.00  0.00     0.028 H 
ATOM     21  H   LIG d   1       8.202  -2.762  -3.995  0.00  0.00     0.028 H 
ENDBRANCH   5  18
BRANCH  11  22
ATOM     22  O   LIG d   1      10.213   4.097  -5.317  0.00  0.00    -0.505 OA
ATOM     23  H   LIG d   1      10.214   4.712  -4.569  0.00  0.00     0.292 HD
ENDBRANCH  11  22
ENDBRANCH   1   4
BRANCH   1  24
ATOM     24  C   LIG d   1       4.793  -2.291  -4.367  0.00  0.00     0.218 C 
ATOM     25  O   LIG d   1       3.757  -1.676  -4.506  0.00  0.00    -0.275 OA
ATOM     26  N   LIG d   1       5.115  -3.271  -5.235  0.00  0.00    -0.307 N 
ATOM     27  H   LIG d   1       5.944  -3.763  -5.123  0.00  0.00     0.149 HD
BRANCH  26  28
ATOM     28  CA  LIG d   1       4.216  -3.593  -6.345  0.00  0.00     0.067 C 
ATOM     29  HA  LIG d   1       3.286  -3.035  -6.232  0.00  0.00     0.056 H 
BRANCH  28  30
ATOM     30  C   LIG d   1       4.882  -3.213  -7.668  0.00  0.00    -0.004 C 
ATOM     31  H   LIG d   1       5.963  -3.320  -7.575  0.00  0.00     0.034 H 
ATOM     32  H   LIG d   1       4.519  -3.870  -8.459  0.00  0.00     0.034 H 
BRANCH  30  33
ATOM     33  C   LIG d   1       4.546  -1.784  -8.008  0.00  0.00    -0.045 A 
ATOM     34  C   LIG d   1       3.284  -1.462  -8.470  0.00  0.00    -0.057 A 
ATOM     35  C   LIG d   1       2.974  -0.152  -8.782  0.00  0.00    -0.043 A 
ATOM     36  H   LIG d   1       2.538  -2.235  -8.586  0.00  0.00     0.062 H 
ATOM     37  C   LIG d   1       3.931   0.838  -8.634  0.00  0.00     0.041 A 
ATOM     38  H   LIG d   1       1.988   0.099  -9.143  0.00  0.00     0.063 H 
ATOM     39  C   LIG d   1       5.194   0.515  -8.173  0.00  0.00    -0.043 A 
ATOM     40 CL   LIG d   1       3.543   2.484  -9.028  0.00  0.00    -0.084 Cl
ATOM     41  C   LIG d   1       5.500  -0.794  -7.856  0.00  0.00    -0.057 A 
ATOM     42  H   LIG d   1       5.940   1.287  -8.057  0.00  0.00     0.063 H 
ATOM     43  H   LIG d   1       6.485  -1.046  -7.491  0.00  0.00     0.062 H 
ENDBRANCH  30  33
ENDBRANCH  28  30
BRANCH  28  44
ATOM     44  C   LIG d   1       3.918  -5.071  -6.338  0.00  0.00     0.062 C 
ATOM     45  O   LIG d   1       4.016  -5.702  -5.312  0.00  0.00    -0.548 OA
ATOM     46  OXT LIG d   1       3.543  -5.685  -7.471  0.00  0.00    -0.548 OA
ENDBRANCH  28  44
ENDBRANCH  26  28
ENDBRANCH   1  24
TORSDOF 8
ENDMDL
MODEL 8
REMARK VINA RESULT:      -6.7      5.684      8.754
REMARK  8 active torsions:
REMARK  status: ('A' for Active; 'I' for Inactive)
REMARK    1  A    between atoms: C_1  and  C_2 
REMARK    2  A    between atoms: C_6  and  O_29 
REMARK    3  A    between atoms: C_12  and  C_13 
REMARK    4  A    between atoms: C_13  and  C_14 
REMARK       I    between atoms: C_14  and  N_16 
REMARK    5  A    between atoms: N_16  and  CA_17 
REMARK    6  A    between atoms: CA_17  and  C_19 
REMARK    7  A    between atoms: CA_17  and  C_27 
REMARK    8  A    between atoms: C_19  and  C_20 
ROOT
ATOM      1  C   LIG d   1       6.446  -6.927  -7.095  0.00  0.00     0.056 C 
ATOM      2  H   LIG d   1       7.518  -6.991  -7.285  0.00  0.00     0.041 H 
ATOM      3  H   LIG d   1       5.900  -7.232  -7.988  0.00  0.00     0.041 H 
ENDROOT
BRANCH   1   4
ATOM      4  C   LIG d   1       6.084  -7.836  -5.949  0.00  0.00     0.049 A 
ATOM      5  C   LIG d   1       7.022  -8.176  -5.027  0.00  0.00    -0.029 A 
ATOM      6  C   LIG d   1       6.624  -9.063  -3.932  0.00  0.00     0.022 A 
ATOM      7  C   LIG d   1       5.297  -9.524  -3.875  0.00  0.00     0.143 A 
ATOM      8  C   LIG d   1       7.544  -9.450  -2.949  0.00  0.00    -0.029 A 
ATOM      9  C   LIG d   1       4.911 -10.364  -2.840  0.00  0.00     0.024 A 
ATOM     10  O   LIG d   1       4.413  -9.147  -4.824  0.00  0.00    -0.422 OA
ATOM     11  C   LIG d   1       5.832 -10.739  -1.877  0.00  0.00     0.139 A 
ATOM     12  H   LIG d   1       3.894 -10.725  -2.787  0.00  0.00     0.069 H 
ATOM     13  C   LIG d   1       7.147 -10.277  -1.938  0.00  0.00     0.083 A 
ATOM     14 CL   LIG d   1       8.287 -10.759  -0.720  0.00  0.00    -0.080 Cl
ATOM     15  C   LIG d   1       4.769  -8.330  -5.827  0.00  0.00     0.341 A 
ATOM     16  O   LIG d   1       3.936  -8.013  -6.659  0.00  0.00    -0.245 OA
ATOM     17  H   LIG d   1       8.564  -9.097  -2.991  0.00  0.00     0.064 H 
BRANCH   5  18
ATOM     18  C   LIG d   1       8.432  -7.655  -5.130  0.00  0.00    -0.038 C 
ATOM     19  H   LIG d   1       8.574  -7.182  -6.101  0.00  0.00     0.028 H 
ATOM     20  H   LIG d   1       8.607  -6.923  -4.340  0.00  0.00     0.028 H 
ATOM     21  H   LIG d   1       9.134  -8.482  -5.022  0.00  0.00     0.028 H 
ENDBRANCH   5  18
BRANCH  11  22
ATOM     22  O   LIG d   1       5.452 -11.560  -0.866  0.00  0.00    -0.505 OA
ATOM     23  H   LIG d   1       4.644 -12.059  -1.047  0.00  0.00     0.292 HD
ENDBRANCH  11  22
ENDBRANCH   1   4
BRANCH   1  24
ATOM     24  C   LIG d   1       6.082  -5.507  -6.744  0.00  0.00     0.218 C 
ATOM     25  O   LIG d   1       5.037  -5.034  -7.138  0.00  0.00    -0.275 OA
ATOM     26  N   LIG d   1       6.917  -4.762  -5.993  0.00  0.00    -0.307 N 
ATOM     27  H   LIG d   1       7.753  -5.141  -5.678  0.00  0.00     0.149 HD
BRANCH  26  28
ATOM     28  CA  LIG d   1       6.564  -3.383  -5.652  0.00  0.00     0.067 C 
ATOM     29  HA  LIG d   1       5.482  -3.261  -5.707  0.00  0.00     0.056 H 
BRANCH  28  30
ATOM     30  C   LIG d   1       7.041  -3.070  -4.233  0.00  0.00    -0.004 C 
ATOM     31  H   LIG d   1       6.935  -3.957  -3.609  0.00  0.00     0.034 H 
ATOM     32  H   LIG d   1       8.088  -2.768  -4.260  0.00  0.00     0.034 H 
BRANCH  30  33
ATOM     33  C   LIG d   1       6.211  -1.951  -3.659  0.00  0.00    -0.045 A 
ATOM     34  C   LIG d   1       4.907  -2.188  -3.266  0.00  0.00    -0.057 A 
ATOM     35  C   LIG d   1       4.145  -1.163  -2.740  0.00  0.00    -0.043 A 
ATOM     36  H   LIG d   1       4.484  -3.177  -3.370  0.00  0.00     0.062 H 
ATOM     37  C   LIG d   1       4.688   0.104  -2.608  0.00  0.00     0.041 A 
ATOM     38  H   LIG d   1       3.127  -1.349  -2.433  0.00  0.00     0.063 H 
ATOM     39  C   LIG d   1       5.993   0.342  -3.002  0.00  0.00    -0.043 A 
ATOM     40 CL   LIG d   1       3.730   1.394  -1.948  0.00  0.00    -0.084 Cl
ATOM     41  C   LIG d   1       6.755  -0.686  -3.522  0.00  0.00    -0.057 A 
ATOM     42  H   LIG d   1       6.417   1.330  -2.898  0.00  0.00     0.063 H 
ATOM     43  H   LIG d   1       7.775  -0.502  -3.825  0.00  0.00     0.062 H 
ENDBRANCH  30  33
ENDBRANCH  28  30
BRANCH  28  44
ATOM     44  C   LIG d   1       7.225  -2.439  -6.624  0.00  0.00     0.062 C 
ATOM     45  O   LIG d   1       6.560  -1.861  -7.451  0.00  0.00    -0.548 OA
ATOM     46  OXT LIG d   1       8.551  -2.241  -6.571  0.00  0.00    -0.548 OA
ENDBRANCH  28  44
ENDBRANCH  26  28
ENDBRANCH   1  24
TORSDOF 8
ENDMDL
MODEL 9
REMARK VINA RESULT:      -6.7      2.949      4.704
REMARK  8 active torsions:
REMARK  status: ('A' for Active; 'I' for Inactive)
REMARK    1  A    between atoms: C_1  and  C_2 
REMARK    2  A    between atoms: C_6  and  O_29 
REMARK    3  A    between atoms: C_12  and  C_13 
REMARK    4  A    between atoms: C_13  and  C_14 
REMARK       I    between atoms: C_14  and  N_16 
REMARK    5  A    between atoms: N_16  and  CA_17 
REMARK    6  A    between atoms: CA_17  and  C_19 
REMARK    7  A    between atoms: CA_17  and  C_27 
REMARK    8  A    between atoms: C_19  and  C_20 
ROOT
ATOM      1  C   LIG d   1       5.920  -3.257  -6.476  0.00  0.00     0.056 C 
ATOM      2  H   LIG d   1       5.942  -3.954  -5.638  0.00  0.00     0.041 H 
ATOM      3  H   LIG d   1       6.916  -3.185  -6.914  0.00  0.00     0.041 H 
ENDROOT
BRANCH   1   4
ATOM      4  C   LIG d   1       4.949  -3.752  -7.516  0.00  0.00     0.049 A 
ATOM      5  C   LIG d   1       5.075  -3.354  -8.810  0.00  0.00    -0.029 A 
ATOM      6  C   LIG d   1       4.108  -3.861  -9.785  0.00  0.00     0.022 A 
ATOM      7  C   LIG d   1       3.093  -4.733  -9.351  0.00  0.00     0.143 A 
ATOM      8  C   LIG d   1       4.183  -3.489 -11.133  0.00  0.00    -0.029 A 
ATOM      9  C   LIG d   1       2.173  -5.218 -10.269  0.00  0.00     0.024 A 
ATOM     10  O   LIG d   1       3.025  -5.090  -8.050  0.00  0.00    -0.422 OA
ATOM     11  C   LIG d   1       2.261  -4.841 -11.598  0.00  0.00     0.139 A 
ATOM     12  H   LIG d   1       1.389  -5.888  -9.947  0.00  0.00     0.069 H 
ATOM     13  C   LIG d   1       3.269  -3.976 -12.023  0.00  0.00     0.083 A 
ATOM     14 CL   LIG d   1       3.362  -3.515 -13.694  0.00  0.00    -0.080 Cl
ATOM     15  C   LIG d   1       3.911  -4.634  -7.152  0.00  0.00     0.341 A 
ATOM     16  O   LIG d   1       3.813  -4.987  -5.989  0.00  0.00    -0.245 OA
ATOM     17  H   LIG d   1       4.962  -2.819 -11.468  0.00  0.00     0.064 H 
BRANCH   5  18
ATOM     18  C   LIG d   1       6.179  -2.418  -9.227  0.00  0.00    -0.038 C 
ATOM     19  H   LIG d   1       6.093  -1.485  -8.672  0.00  0.00     0.028 H 
ATOM     20  H   LIG d   1       7.145  -2.879  -9.013  0.00  0.00     0.028 H 
ATOM     21  H   LIG d   1       6.101  -2.217 -10.294  0.00  0.00     0.028 H 
ENDBRANCH   5  18
BRANCH  11  22
ATOM     22  O   LIG d   1       1.359  -5.317 -12.494  0.00  0.00    -0.505 OA
ATOM     23  H   LIG d   1       0.570  -5.703 -12.090  0.00  0.00     0.292 HD
ENDBRANCH  11  22
ENDBRANCH   1   4
BRANCH   1  24
ATOM     24  C   LIG d   1       5.486  -1.899  -5.989  0.00  0.00     0.218 C 
ATOM     25  O   LIG d   1       6.315  -1.046  -5.754  0.00  0.00    -0.275 OA
ATOM     26  N   LIG d   1       4.177  -1.632  -5.815  0.00  0.00    -0.307 N 
ATOM     27  H   LIG d   1       3.514  -2.314  -6.002  0.00  0.00     0.149 HD
BRANCH  26  28
ATOM     28  CA  LIG d   1       3.755  -0.312  -5.341  0.00  0.00     0.067 C 
ATOM     29  HA  LIG d   1       4.587   0.387  -5.424  0.00  0.00     0.056 H 
BRANCH  28  30
ATOM     30  C   LIG d   1       2.585   0.185  -6.192  0.00  0.00    -0.004 C 
ATOM     31  H   LIG d   1       1.726  -0.470  -6.048  0.00  0.00     0.034 H 
ATOM     32  H   LIG d   1       2.322   1.199  -5.891  0.00  0.00     0.034 H 
BRANCH  30  33
ATOM     33  C   LIG d   1       2.982   0.180  -7.645  0.00  0.00    -0.045 A 
ATOM     34  C   LIG d   1       2.213  -0.503  -8.569  0.00  0.00    -0.057 A 
ATOM     35  C   LIG d   1       2.576  -0.508  -9.903  0.00  0.00    -0.043 A 
ATOM     36  H   LIG d   1       1.327  -1.031  -8.249  0.00  0.00     0.062 H 
ATOM     37  C   LIG d   1       3.711   0.169 -10.312  0.00  0.00     0.041 A 
ATOM     38  H   LIG d   1       1.975  -1.042 -10.624  0.00  0.00     0.063 H 
ATOM     39  C   LIG d   1       4.481   0.851  -9.387  0.00  0.00    -0.043 A 
ATOM     40 CL   LIG d   1       4.169   0.161 -11.988  0.00  0.00    -0.084 Cl
ATOM     41  C   LIG d   1       4.113   0.861  -8.056  0.00  0.00    -0.057 A 
ATOM     42  H   LIG d   1       5.367   1.380  -9.707  0.00  0.00     0.063 H 
ATOM     43  H   LIG d   1       4.712   1.397  -7.334  0.00  0.00     0.062 H 
ENDBRANCH  30  33
ENDBRANCH  28  30
BRANCH  28  44
ATOM     44  C   LIG d   1       3.323  -0.409  -3.900  0.00  0.00     0.062 C 
ATOM     45  O   LIG d   1       3.196   0.595  -3.240  0.00  0.00    -0.548 OA
ATOM     46  OXT LIG d   1       3.078  -1.609  -3.352  0.00  0.00    -0.548 OA
ENDBRANCH  28  44
ENDBRANCH  26  28
ENDBRANCH   1  24
TORSDOF 8
ENDMDL
MODEL 10
REMARK VINA RESULT:      -6.6      5.865      8.984
REMARK  8 active torsions:
REMARK  status: ('A' for Active; 'I' for Inactive)
REMARK    1  A    between atoms: C_1  and  C_2 
REMARK    2  A    between atoms: C_6  and  O_29 
REMARK    3  A    between atoms: C_12  and  C_13 
REMARK    4  A    between atoms: C_13  and  C_14 
REMARK       I    between atoms: C_14  and  N_16 
REMARK    5  A    between atoms: N_16  and  CA_17 
REMARK    6  A    between atoms: CA_17  and  C_19 
REMARK    7  A    between atoms: CA_17  and  C_27 
REMARK    8  A    between atoms: C_19  and  C_20 
ROOT
ATOM      1  C   LIG d   1       9.648   1.487  -5.279  0.00  0.00     0.056 C 
ATOM      2  H   LIG d   1       9.947   1.371  -6.321  0.00  0.00     0.041 H 
ATOM      3  H   LIG d   1      10.351   0.953  -4.638  0.00  0.00     0.041 H 
ENDROOT
BRANCH   1   4
ATOM      4  C   LIG d   1       9.649   2.949  -4.916  0.00  0.00     0.049 A 
ATOM      5  C   LIG d   1       9.615   3.893  -5.893  0.00  0.00    -0.029 A 
ATOM      6  C   LIG d   1       9.617   5.301  -5.493  0.00  0.00     0.022 A 
ATOM      7  C   LIG d   1       9.653   5.622  -4.124  0.00  0.00     0.143 A 
ATOM      8  C   LIG d   1       9.584   6.322  -6.452  0.00  0.00    -0.029 A 
ATOM      9  C   LIG d   1       9.655   6.954  -3.736  0.00  0.00     0.024 A 
ATOM     10  O   LIG d   1       9.685   4.635  -3.203  0.00  0.00    -0.422 OA
ATOM     11  C   LIG d   1       9.622   7.951  -4.695  0.00  0.00     0.139 A 
ATOM     12  H   LIG d   1       9.683   7.212  -2.687  0.00  0.00     0.069 H 
ATOM     13  C   LIG d   1       9.586   7.628  -6.052  0.00  0.00     0.083 A 
ATOM     14 CL   LIG d   1       9.544   8.893  -7.240  0.00  0.00    -0.080 Cl
ATOM     15  C   LIG d   1       9.677   3.342  -3.563  0.00  0.00     0.341 A 
ATOM     16  O   LIG d   1       9.702   2.485  -2.697  0.00  0.00    -0.245 OA
ATOM     17  H   LIG d   1       9.556   6.078  -7.503  0.00  0.00     0.064 H 
BRANCH   5  18
ATOM     18  C   LIG d   1       9.577   3.500  -7.347  0.00  0.00    -0.038 C 
ATOM     19  H   LIG d   1       9.147   4.313  -7.932  0.00  0.00     0.028 H 
ATOM     20  H   LIG d   1      10.591   3.300  -7.696  0.00  0.00     0.028 H 
ATOM     21  H   LIG d   1       8.968   2.605  -7.466  0.00  0.00     0.028 H 
ENDBRANCH   5  18
BRANCH  11  22
ATOM     22  O   LIG d   1       9.624   9.254  -4.314  0.00  0.00    -0.505 OA
ATOM     23  H   LIG d   1      10.317   9.784  -4.730  0.00  0.00     0.292 HD
ENDBRANCH  11  22
ENDBRANCH   1   4
BRANCH   1  24
ATOM     24  C   LIG d   1       8.264   0.922  -5.087  0.00  0.00     0.218 C 
ATOM     25  O   LIG d   1       7.431   1.052  -5.958  0.00  0.00    -0.275 OA
ATOM     26  N   LIG d   1       7.953   0.271  -3.949  0.00  0.00    -0.307 N 
ATOM     27  H   LIG d   1       8.621   0.167  -3.253  0.00  0.00     0.149 HD
BRANCH  26  28
ATOM     28  CA  LIG d   1       6.609  -0.279  -3.763  0.00  0.00     0.067 C 
ATOM     29  HA  LIG d   1       6.126  -0.394  -4.733  0.00  0.00     0.056 H 
BRANCH  28  30
ATOM     30  C   LIG d   1       6.705  -1.641  -3.075  0.00  0.00    -0.004 C 
ATOM     31  H   LIG d   1       7.714  -1.783  -2.688  0.00  0.00     0.034 H 
ATOM     32  H   LIG d   1       5.992  -1.684  -2.251  0.00  0.00     0.034 H 
BRANCH  30  33
ATOM     33  C   LIG d   1       6.391  -2.729  -4.068  0.00  0.00    -0.045 A 
ATOM     34  C   LIG d   1       7.407  -3.518  -4.574  0.00  0.00    -0.057 A 
ATOM     35  C   LIG d   1       7.121  -4.517  -5.485  0.00  0.00    -0.043 A 
ATOM     36  H   LIG d   1       8.426  -3.354  -4.256  0.00  0.00     0.062 H 
ATOM     37  C   LIG d   1       5.814  -4.725  -5.893  0.00  0.00     0.041 A 
ATOM     38  H   LIG d   1       7.915  -5.132  -5.880  0.00  0.00     0.063 H 
ATOM     39  C   LIG d   1       4.797  -3.936  -5.387  0.00  0.00    -0.043 A 
ATOM     40 CL   LIG d   1       5.453  -5.979  -7.039  0.00  0.00    -0.084 Cl
ATOM     41  C   LIG d   1       5.085  -2.942  -4.472  0.00  0.00    -0.057 A 
ATOM     42  H   LIG d   1       3.778  -4.099  -5.705  0.00  0.00     0.063 H 
ATOM     43  H   LIG d   1       4.291  -2.328  -4.073  0.00  0.00     0.062 H 
ENDBRANCH  30  33
ENDBRANCH  28  30
BRANCH  28  44
ATOM     44  C   LIG d   1       5.796   0.660  -2.907  0.00  0.00     0.062 C 
ATOM     45  O   LIG d   1       5.896   1.855  -3.060  0.00  0.00    -0.548 OA
ATOM     46  OXT LIG d   1       4.962   0.169  -1.978  0.00  0.00    -0.548 OA
ENDBRANCH  28  44
ENDBRANCH  26  28
ENDBRANCH   1  24
TORSDOF 8
ENDMDL
