MODEL 1
REMARK VINA RESULT:      -7.0      0.000      0.000
REMARK  6 active torsions:
REMARK  status: ('A' for Active; 'I' for Inactive)
REMARK    1  A    between atoms: C_1  and  O_2 
REMARK    2  A    between atoms: O_2  and  C_3 
REMARK    3  A    between atoms: C_3  and  C_5 
REMARK    4  A    between atoms: C_21  and  C_31 
REMARK    5  A    between atoms: C_24  and  N_27 
REMARK    6  A    between atoms: N_27  and  C_28 
ROOT
ATOM      1  C   LIG d   1       6.848  -3.926  -5.250  0.00  0.00     0.113 C 
ATOM      2  H   LIG d   1       6.113  -4.122  -4.468  0.00  0.00     0.058 H 
ATOM      3  C   LIG d   1       6.982  -5.165  -6.146  0.00  0.00     0.001 C 
ATOM      4  C   LIG d   1       5.730  -5.283  -6.977  0.00  0.00    -0.016 A 
ATOM      5  C   LIG d   1       5.235  -6.414  -7.731  0.00  0.00     0.003 A 
ATOM      6  C   LIG d   1       5.723  -7.708  -7.934  0.00  0.00    -0.052 A 
ATOM      7  C   LIG d   1       4.973  -8.537  -8.731  0.00  0.00    -0.061 A 
ATOM      8  C   LIG d   1       3.786  -8.123  -9.312  0.00  0.00    -0.060 A 
ATOM      9  C   LIG d   1       3.279  -6.849  -9.129  0.00  0.00    -0.038 A 
ATOM     10  C   LIG d   1       4.019  -5.985  -8.324  0.00  0.00     0.047 A 
ATOM     11  N   LIG d   1       3.815  -4.689  -7.943  0.00  0.00    -0.356 N 
ATOM     12  H   LIG d   1       3.056  -4.144  -8.203  0.00  0.00     0.166 HD
ATOM     13  C   LIG d   1       4.840  -4.277  -7.135  0.00  0.00     0.038 A 
ATOM     14  C   LIG d   1       5.011  -2.924  -6.488  0.00  0.00     0.057 C 
ATOM     15  H   LIG d   1       4.353  -2.848  -5.623  0.00  0.00     0.053 H 
ATOM     16  N   LIG d   1       6.409  -2.783  -6.058  0.00  0.00    -0.274 N 
ATOM     17  C   LIG d   1       6.615  -1.510  -5.357  0.00  0.00     0.042 C 
ATOM     18  H   LIG d   1       7.648  -1.447  -5.013  0.00  0.00     0.051 H 
ATOM     19  C   LIG d   1       6.325  -0.352  -6.316  0.00  0.00     0.010 C 
ATOM     20  C   LIG d   1       4.883  -0.458  -6.822  0.00  0.00    -0.019 C 
ATOM     21  H   LIG d   1       4.196  -0.359  -5.981  0.00  0.00     0.085 H 
ATOM     22  C   LIG d   1       4.671  -1.820  -7.490  0.00  0.00     0.011 C 
ATOM     23  H   LIG d   1       7.848  -5.054  -6.799  0.00  0.00     0.033 H 
ATOM     24  H   LIG d   1       7.100  -6.055  -5.528  0.00  0.00     0.033 H 
ATOM     25  H   LIG d   1       6.648  -8.040  -7.485  0.00  0.00     0.062 H 
ATOM     26  H   LIG d   1       5.319  -9.545  -8.909  0.00  0.00     0.062 H 
ATOM     27  H   LIG d   1       3.238  -8.819  -9.931  0.00  0.00     0.062 H 
ATOM     28  H   LIG d   1       2.353  -6.538  -9.588  0.00  0.00     0.064 H 
ATOM     29  H   LIG d   1       6.458   0.594  -5.793  0.00  0.00     0.034 H 
ATOM     30  H   LIG d   1       7.011  -0.401  -7.161  0.00  0.00     0.034 H 
ATOM     31  H   LIG d   1       5.324  -1.901  -8.359  0.00  0.00     0.034 H 
ATOM     32  H   LIG d   1       3.631  -1.919  -7.804  0.00  0.00     0.034 H 
ENDROOT
BRANCH  17  33
ATOM     33  C   LIG d   1       5.686  -1.431  -4.173  0.00  0.00    -0.029 A 
ATOM     34  C   LIG d   1       5.604  -0.264  -3.437  0.00  0.00    -0.039 A 
ATOM     35  C   LIG d   1       4.746  -0.189  -2.354  0.00  0.00     0.041 A 
ATOM     36  H   LIG d   1       6.206   0.589  -3.709  0.00  0.00     0.064 H 
ATOM     37  C   LIG d   1       3.979  -1.286  -2.002  0.00  0.00    -0.043 A 
ATOM     38 CL   LIG d   1       4.637   1.277  -1.432  0.00  0.00    -0.084 Cl
ATOM     39  C   LIG d   1       4.066  -2.454  -2.736  0.00  0.00    -0.060 A 
ATOM     40  H   LIG d   1       3.311  -1.229  -1.155  0.00  0.00     0.063 H 
ATOM     41  C   LIG d   1       4.919  -2.526  -3.822  0.00  0.00    -0.057 A 
ATOM     42  H   LIG d   1       3.467  -3.310  -2.463  0.00  0.00     0.062 H 
ATOM     43  H   LIG d   1       4.986  -3.438  -4.396  0.00  0.00     0.062 H 
ENDBRANCH  17  33
BRANCH   1  44
ATOM     44  C   LIG d   1       8.180  -3.614  -4.620  0.00  0.00     0.325 C 
ATOM     45  O   LIG d   1       9.142  -3.396  -5.318  0.00  0.00    -0.249 OA
BRANCH  44  46
ATOM     46  O   LIG d   1       8.300  -3.579  -3.284  0.00  0.00    -0.467 OA
BRANCH  46  47
ATOM     47  C   LIG d   1       9.479  -4.157  -2.721  0.00  0.00     0.082 C 
ATOM     48  H   LIG d   1       9.691  -5.104  -3.217  0.00  0.00     0.066 H 
ATOM     49  H   LIG d   1      10.319  -3.477  -2.861  0.00  0.00     0.066 H 
ATOM     50  H   LIG d   1       9.325  -4.331  -1.656  0.00  0.00     0.066 H 
ENDBRANCH  46  47
ENDBRANCH  44  46
ENDBRANCH   1  44
BRANCH  20  51
ATOM     51  N   LIG d   1       4.626   0.612  -7.794  0.00  0.00     0.231 N 
ATOM     52  H   LIG d   1       5.076   1.461  -7.486  0.00  0.00     0.202 HD
ATOM     53  H   LIG d   1       4.994   0.344  -8.694  0.00  0.00     0.202 HD
BRANCH  51  54
ATOM     54  C   LIG d   1       3.179   0.837  -7.904  0.00  0.00    -0.022 A 
ATOM     55  C   LIG d   1       2.712   2.077  -8.670  0.00  0.00    -0.005 A 
ATOM     56  C   LIG d   1       2.544   0.687  -9.288  0.00  0.00    -0.005 A 
ATOM     57  H   LIG d   1       1.815   2.581  -8.313  0.00  0.00     0.032 H 
ATOM     58  H   LIG d   1       3.480   2.726  -9.092  0.00  0.00     0.032 H 
ATOM     59  H   LIG d   1       3.200   0.422 -10.117  0.00  0.00     0.032 H 
ATOM     60  H   LIG d   1       1.535   0.277  -9.336  0.00  0.00     0.032 H 
ATOM     61  H   LIG d   1       2.588   0.526  -7.043  0.00  0.00     0.085 H 
ENDBRANCH  51  54
ENDBRANCH  20  51
TORSDOF 6
ENDMDL
MODEL 2
REMARK VINA RESULT:      -6.9      3.456      7.415
REMARK  6 active torsions:
REMARK  status: ('A' for Active; 'I' for Inactive)
REMARK    1  A    between atoms: C_1  and  O_2 
REMARK    2  A    between atoms: O_2  and  C_3 
REMARK    3  A    between atoms: C_3  and  C_5 
REMARK    4  A    between atoms: C_21  and  C_31 
REMARK    5  A    between atoms: C_24  and  N_27 
REMARK    6  A    between atoms: N_27  and  C_28 
ROOT
ATOM      1  C   LIG d   1       5.171  -0.137  -8.186  0.00  0.00     0.113 C 
ATOM      2  H   LIG d   1       4.129   0.169  -8.280  0.00  0.00     0.058 H 
ATOM      3  C   LIG d   1       5.680   0.206  -6.780  0.00  0.00     0.001 C 
ATOM      4  C   LIG d   1       5.032  -0.741  -5.801  0.00  0.00    -0.016 A 
ATOM      5  C   LIG d   1       4.937  -0.645  -4.361  0.00  0.00     0.003 A 
ATOM      6  C   LIG d   1       5.387   0.306  -3.440  0.00  0.00    -0.052 A 
ATOM      7  C   LIG d   1       5.111   0.067  -2.116  0.00  0.00    -0.061 A 
ATOM      8  C   LIG d   1       4.420  -1.059  -1.700  0.00  0.00    -0.060 A 
ATOM      9  C   LIG d   1       3.963  -2.015  -2.589  0.00  0.00    -0.038 A 
ATOM     10  C   LIG d   1       4.227  -1.800  -3.940  0.00  0.00     0.047 A 
ATOM     11  N   LIG d   1       3.927  -2.524  -5.058  0.00  0.00    -0.356 N 
ATOM     12  H   LIG d   1       3.444  -3.365  -5.065  0.00  0.00     0.166 HD
ATOM     13  C   LIG d   1       4.410  -1.885  -6.168  0.00  0.00     0.038 A 
ATOM     14  C   LIG d   1       4.296  -2.330  -7.605  0.00  0.00     0.057 C 
ATOM     15  H   LIG d   1       3.291  -2.124  -7.972  0.00  0.00     0.053 H 
ATOM     16  N   LIG d   1       5.277  -1.584  -8.406  0.00  0.00    -0.274 N 
ATOM     17  C   LIG d   1       5.162  -1.928  -9.829  0.00  0.00     0.042 C 
ATOM     18  H   LIG d   1       5.870  -1.333 -10.405  0.00  0.00     0.051 H 
ATOM     19  C   LIG d   1       5.473  -3.415 -10.015  0.00  0.00     0.010 C 
ATOM     20  C   LIG d   1       4.496  -4.250  -9.181  0.00  0.00    -0.019 C 
ATOM     21  H   LIG d   1       3.480  -4.086  -9.542  0.00  0.00     0.085 H 
ATOM     22  C   LIG d   1       4.584  -3.828  -7.711  0.00  0.00     0.011 C 
ATOM     23  H   LIG d   1       6.764   0.088  -6.742  0.00  0.00     0.033 H 
ATOM     24  H   LIG d   1       5.412   1.232  -6.532  0.00  0.00     0.033 H 
ATOM     25  H   LIG d   1       5.927   1.186  -3.755  0.00  0.00     0.062 H 
ATOM     26  H   LIG d   1       5.443   0.781  -1.377  0.00  0.00     0.062 H 
ATOM     27  H   LIG d   1       4.232  -1.195  -0.645  0.00  0.00     0.062 H 
ATOM     28  H   LIG d   1       3.425  -2.888  -2.251  0.00  0.00     0.064 H 
ATOM     29  H   LIG d   1       5.368  -3.679 -11.067  0.00  0.00     0.034 H 
ATOM     30  H   LIG d   1       6.493  -3.617  -9.689  0.00  0.00     0.034 H 
ATOM     31  H   LIG d   1       5.586  -4.035  -7.336  0.00  0.00     0.034 H 
ATOM     32  H   LIG d   1       3.852  -4.383  -7.123  0.00  0.00     0.034 H 
ENDROOT
BRANCH  17  33
ATOM     33  C   LIG d   1       3.760  -1.641 -10.304  0.00  0.00    -0.029 A 
ATOM     34  C   LIG d   1       3.393  -1.957 -11.598  0.00  0.00    -0.039 A 
ATOM     35  C   LIG d   1       2.105  -1.700 -12.033  0.00  0.00     0.041 A 
ATOM     36  H   LIG d   1       4.109  -2.409 -12.268  0.00  0.00     0.064 H 
ATOM     37  C   LIG d   1       1.189  -1.116 -11.175  0.00  0.00    -0.043 A 
ATOM     38 CL   LIG d   1       1.638  -2.103 -13.656  0.00  0.00    -0.084 Cl
ATOM     39  C   LIG d   1       1.560  -0.796  -9.883  0.00  0.00    -0.060 A 
ATOM     40  H   LIG d   1       0.185  -0.912 -11.515  0.00  0.00     0.063 H 
ATOM     41  C   LIG d   1       2.846  -1.058  -9.447  0.00  0.00    -0.057 A 
ATOM     42  H   LIG d   1       0.846  -0.340  -9.213  0.00  0.00     0.062 H 
ATOM     43  H   LIG d   1       3.135  -0.809  -8.438  0.00  0.00     0.062 H 
ENDBRANCH  17  33
BRANCH   1  44
ATOM     44  C   LIG d   1       6.002   0.589  -9.212  0.00  0.00     0.325 C 
ATOM     45  O   LIG d   1       7.188   0.370  -9.294  0.00  0.00    -0.249 OA
BRANCH  44  46
ATOM     46  O   LIG d   1       5.426   1.478 -10.036  0.00  0.00    -0.467 OA
BRANCH  46  47
ATOM     47  C   LIG d   1       4.382   2.288  -9.490  0.00  0.00     0.082 C 
ATOM     48  H   LIG d   1       4.818   3.097  -8.905  0.00  0.00     0.066 H 
ATOM     49  H   LIG d   1       3.787   2.706 -10.302  0.00  0.00     0.066 H 
ATOM     50  H   LIG d   1       3.747   1.676  -8.850  0.00  0.00     0.066 H 
ENDBRANCH  46  47
ENDBRANCH  44  46
ENDBRANCH   1  44
BRANCH  20  51
ATOM     51  N   LIG d   1       4.838  -5.673  -9.306  0.00  0.00     0.231 N 
ATOM     52  H   LIG d   1       4.762  -5.953 -10.272  0.00  0.00     0.202 HD
ATOM     53  H   LIG d   1       5.783  -5.821  -8.985  0.00  0.00     0.202 HD
BRANCH  51  54
ATOM     54  C   LIG d   1       3.914  -6.472  -8.490  0.00  0.00    -0.022 A 
ATOM     55  C   LIG d   1       3.706  -7.936  -8.885  0.00  0.00    -0.005 A 
ATOM     56  C   LIG d   1       4.513  -7.587  -7.632  0.00  0.00    -0.005 A 
ATOM     57  H   LIG d   1       2.713  -8.359  -8.743  0.00  0.00     0.032 H 
ATOM     58  H   LIG d   1       4.257  -8.305  -9.751  0.00  0.00     0.032 H 
ATOM     59  H   LIG d   1       5.593  -7.729  -7.673  0.00  0.00     0.032 H 
ATOM     60  H   LIG d   1       4.048  -7.783  -6.665  0.00  0.00     0.032 H 
ATOM     61  H   LIG d   1       3.055  -5.933  -8.088  0.00  0.00     0.085 H 
ENDBRANCH  51  54
ENDBRANCH  20  51
TORSDOF 6
ENDMDL
MODEL 3
REMARK VINA RESULT:      -6.9      3.363      7.239
REMARK  6 active torsions:
REMARK  status: ('A' for Active; 'I' for Inactive)
REMARK    1  A    between atoms: C_1  and  O_2 
REMARK    2  A    between atoms: O_2  and  C_3 
REMARK    3  A    between atoms: C_3  and  C_5 
REMARK    4  A    between atoms: C_21  and  C_31 
REMARK    5  A    between atoms: C_24  and  N_27 
REMARK    6  A    between atoms: N_27  and  C_28 
ROOT
ATOM      1  C   LIG d   1       5.595  -0.705  -7.228  0.00  0.00     0.113 C 
ATOM      2  H   LIG d   1       4.900  -0.040  -6.713  0.00  0.00     0.058 H 
ATOM      3  C   LIG d   1       6.437   0.108  -8.221  0.00  0.00     0.001 C 
ATOM      4  C   LIG d   1       7.406   0.954  -7.435  0.00  0.00    -0.016 A 
ATOM      5  C   LIG d   1       8.184   2.094  -7.867  0.00  0.00     0.003 A 
ATOM      6  C   LIG d   1       8.295   2.762  -9.091  0.00  0.00    -0.052 A 
ATOM      7  C   LIG d   1       9.153   3.832  -9.139  0.00  0.00    -0.061 A 
ATOM      8  C   LIG d   1       9.880   4.243  -8.034  0.00  0.00    -0.060 A 
ATOM      9  C   LIG d   1       9.790   3.602  -6.811  0.00  0.00    -0.038 A 
ATOM     10  C   LIG d   1       8.926   2.511  -6.731  0.00  0.00     0.047 A 
ATOM     11  N   LIG d   1       8.605   1.672  -5.703  0.00  0.00    -0.356 N 
ATOM     12  H   LIG d   1       8.966   1.726  -4.805  0.00  0.00     0.166 HD
ATOM     13  C   LIG d   1       7.693   0.744  -6.130  0.00  0.00     0.038 A 
ATOM     14  C   LIG d   1       7.066  -0.364  -5.322  0.00  0.00     0.057 C 
ATOM     15  H   LIG d   1       6.286   0.048  -4.682  0.00  0.00     0.053 H 
ATOM     16  N   LIG d   1       6.478  -1.344  -6.246  0.00  0.00    -0.274 N 
ATOM     17  C   LIG d   1       5.790  -2.412  -5.510  0.00  0.00     0.042 C 
ATOM     18  H   LIG d   1       5.329  -3.103  -6.217  0.00  0.00     0.051 H 
ATOM     19  C   LIG d   1       6.806  -3.166  -4.648  0.00  0.00     0.010 C 
ATOM     20  C   LIG d   1       7.475  -2.190  -3.676  0.00  0.00    -0.019 C 
ATOM     21  H   LIG d   1       6.724  -1.778  -3.001  0.00  0.00     0.085 H 
ATOM     22  C   LIG d   1       8.128  -1.048  -4.460  0.00  0.00     0.011 C 
ATOM     23  H   LIG d   1       6.987  -0.569  -8.876  0.00  0.00     0.033 H 
ATOM     24  H   LIG d   1       5.787   0.748  -8.817  0.00  0.00     0.033 H 
ATOM     25  H   LIG d   1       7.732   2.448  -9.958  0.00  0.00     0.062 H 
ATOM     26  H   LIG d   1       9.263   4.372 -10.068  0.00  0.00     0.062 H 
ATOM     27  H   LIG d   1      10.540   5.092  -8.131  0.00  0.00     0.062 H 
ATOM     28  H   LIG d   1      10.362   3.933  -5.957  0.00  0.00     0.064 H 
ATOM     29  H   LIG d   1       6.295  -3.947  -4.084  0.00  0.00     0.034 H 
ATOM     30  H   LIG d   1       7.564  -3.616  -5.289  0.00  0.00     0.034 H 
ATOM     31  H   LIG d   1       8.912  -1.453  -5.101  0.00  0.00     0.034 H 
ATOM     32  H   LIG d   1       8.559  -0.324  -3.769  0.00  0.00     0.034 H 
ENDROOT
BRANCH  17  33
ATOM     33  C   LIG d   1       4.727  -1.810  -4.628  0.00  0.00    -0.029 A 
ATOM     34  C   LIG d   1       4.106  -0.633  -5.001  0.00  0.00    -0.039 A 
ATOM     35  C   LIG d   1       3.125  -0.084  -4.195  0.00  0.00     0.041 A 
ATOM     36  H   LIG d   1       4.382  -0.146  -5.924  0.00  0.00     0.064 H 
ATOM     37  C   LIG d   1       2.775  -0.706  -3.010  0.00  0.00    -0.043 A 
ATOM     38 CL   LIG d   1       2.338   1.390  -4.665  0.00  0.00    -0.084 Cl
ATOM     39  C   LIG d   1       3.401  -1.880  -2.635  0.00  0.00    -0.060 A 
ATOM     40  H   LIG d   1       2.012  -0.276  -2.378  0.00  0.00     0.063 H 
ATOM     41  C   LIG d   1       4.377  -2.432  -3.445  0.00  0.00    -0.057 A 
ATOM     42  H   LIG d   1       3.128  -2.367  -1.711  0.00  0.00     0.062 H 
ATOM     43  H   LIG d   1       4.865  -3.350  -3.152  0.00  0.00     0.062 H 
ENDBRANCH  17  33
BRANCH   1  44
ATOM     44  C   LIG d   1       4.821  -1.762  -7.972  0.00  0.00     0.325 C 
ATOM     45  O   LIG d   1       5.409  -2.613  -8.596  0.00  0.00    -0.249 OA
BRANCH  44  46
ATOM     46  O   LIG d   1       3.480  -1.759  -7.941  0.00  0.00    -0.467 OA
BRANCH  46  47
ATOM     47  C   LIG d   1       2.819  -0.619  -8.494  0.00  0.00     0.082 C 
ATOM     48  H   LIG d   1       1.775  -0.616  -8.180  0.00  0.00     0.066 H 
ATOM     49  H   LIG d   1       3.308   0.289  -8.142  0.00  0.00     0.066 H 
ATOM     50  H   LIG d   1       2.872  -0.662  -9.582  0.00  0.00     0.066 H 
ENDBRANCH  46  47
ENDBRANCH  44  46
ENDBRANCH   1  44
BRANCH  20  51
ATOM     51  N   LIG d   1       8.498  -2.899  -2.896  0.00  0.00     0.231 N 
ATOM     52  H   LIG d   1       9.123  -2.229  -2.474  0.00  0.00     0.202 HD
ATOM     53  H   LIG d   1       8.052  -3.446  -2.175  0.00  0.00     0.202 HD
BRANCH  51  54
ATOM     54  C   LIG d   1       9.260  -3.788  -3.783  0.00  0.00    -0.022 A 
ATOM     55  C   LIG d   1      10.728  -4.046  -3.434  0.00  0.00    -0.005 A 
ATOM     56  C   LIG d   1       9.686  -5.147  -3.224  0.00  0.00    -0.005 A 
ATOM     57  H   LIG d   1      11.428  -4.166  -4.260  0.00  0.00     0.032 H 
ATOM     58  H   LIG d   1      11.128  -3.555  -2.546  0.00  0.00     0.032 H 
ATOM     59  H   LIG d   1       9.402  -5.381  -2.198  0.00  0.00     0.032 H 
ATOM     60  H   LIG d   1       9.702  -5.992  -3.913  0.00  0.00     0.032 H 
ATOM     61  H   LIG d   1       8.996  -3.739  -4.839  0.00  0.00     0.085 H 
ENDBRANCH  51  54
ENDBRANCH  20  51
TORSDOF 6
ENDMDL
MODEL 4
REMARK VINA RESULT:      -6.7      2.195      3.028
REMARK  6 active torsions:
REMARK  status: ('A' for Active; 'I' for Inactive)
REMARK    1  A    between atoms: C_1  and  O_2 
REMARK    2  A    between atoms: O_2  and  C_3 
REMARK    3  A    between atoms: C_3  and  C_5 
REMARK    4  A    between atoms: C_21  and  C_31 
REMARK    5  A    between atoms: C_24  and  N_27 
REMARK    6  A    between atoms: N_27  and  C_28 
ROOT
ATOM      1  C   LIG d   1       6.677  -3.085  -5.547  0.00  0.00     0.113 C 
ATOM      2  H   LIG d   1       6.049  -2.947  -4.666  0.00  0.00     0.058 H 
ATOM      3  C   LIG d   1       7.389  -4.442  -5.460  0.00  0.00     0.001 C 
ATOM      4  C   LIG d   1       6.367  -5.526  -5.684  0.00  0.00    -0.016 A 
ATOM      5  C   LIG d   1       6.458  -6.942  -5.404  0.00  0.00     0.003 A 
ATOM      6  C   LIG d   1       7.468  -7.741  -4.859  0.00  0.00    -0.052 A 
ATOM      7  C   LIG d   1       7.202  -9.082  -4.736  0.00  0.00    -0.061 A 
ATOM      8  C   LIG d   1       5.993  -9.631  -5.128  0.00  0.00    -0.060 A 
ATOM      9  C   LIG d   1       4.975  -8.866  -5.670  0.00  0.00    -0.038 A 
ATOM     10  C   LIG d   1       5.216  -7.500  -5.807  0.00  0.00     0.047 A 
ATOM     11  N   LIG d   1       4.449  -6.479  -6.291  0.00  0.00    -0.356 N 
ATOM     12  H   LIG d   1       3.548  -6.574  -6.638  0.00  0.00     0.166 HD
ATOM     13  C   LIG d   1       5.142  -5.302  -6.213  0.00  0.00     0.038 A 
ATOM     14  C   LIG d   1       4.671  -3.931  -6.632  0.00  0.00     0.057 C 
ATOM     15  H   LIG d   1       3.990  -3.533  -5.879  0.00  0.00     0.053 H 
ATOM     16  N   LIG d   1       5.841  -3.049  -6.753  0.00  0.00    -0.274 N 
ATOM     17  C   LIG d   1       5.432  -1.680  -7.091  0.00  0.00     0.042 C 
ATOM     18  H   LIG d   1       6.312  -1.038  -7.135  0.00  0.00     0.051 H 
ATOM     19  C   LIG d   1       4.733  -1.683  -8.453  0.00  0.00     0.010 C 
ATOM     20  C   LIG d   1       3.514  -2.608  -8.399  0.00  0.00    -0.019 C 
ATOM     21  H   LIG d   1       2.799  -2.224  -7.672  0.00  0.00     0.085 H 
ATOM     22  C   LIG d   1       3.953  -4.015  -7.980  0.00  0.00     0.011 C 
ATOM     23  H   LIG d   1       8.163  -4.501  -6.227  0.00  0.00     0.033 H 
ATOM     24  H   LIG d   1       7.839  -4.557  -4.474  0.00  0.00     0.033 H 
ATOM     25  H   LIG d   1       8.415  -7.321  -4.551  0.00  0.00     0.062 H 
ATOM     26  H   LIG d   1       7.959  -9.729  -4.318  0.00  0.00     0.062 H 
ATOM     27  H   LIG d   1       5.839 -10.694  -5.008  0.00  0.00     0.062 H 
ATOM     28  H   LIG d   1       4.037  -9.306  -5.972  0.00  0.00     0.064 H 
ATOM     29  H   LIG d   1       4.411  -0.671  -8.698  0.00  0.00     0.034 H 
ATOM     30  H   LIG d   1       5.425  -2.039  -9.215  0.00  0.00     0.034 H 
ATOM     31  H   LIG d   1       4.632  -4.419  -8.730  0.00  0.00     0.034 H 
ATOM     32  H   LIG d   1       3.080  -4.662  -7.888  0.00  0.00     0.034 H 
ENDROOT
BRANCH  17  33
ATOM     33  C   LIG d   1       4.485  -1.164  -6.038  0.00  0.00    -0.029 A 
ATOM     34  C   LIG d   1       4.481  -1.729  -4.777  0.00  0.00    -0.039 A 
ATOM     35  C   LIG d   1       3.616  -1.251  -3.808  0.00  0.00     0.041 A 
ATOM     36  H   LIG d   1       5.156  -2.539  -4.546  0.00  0.00     0.064 H 
ATOM     37  C   LIG d   1       2.747  -0.216  -4.107  0.00  0.00    -0.043 A 
ATOM     38 CL   LIG d   1       3.615  -1.954  -2.221  0.00  0.00    -0.084 Cl
ATOM     39  C   LIG d   1       2.749   0.344  -5.370  0.00  0.00    -0.060 A 
ATOM     40  H   LIG d   1       2.070   0.155  -3.353  0.00  0.00     0.063 H 
ATOM     41  C   LIG d   1       3.618  -0.130  -6.336  0.00  0.00    -0.057 A 
ATOM     42  H   LIG d   1       2.071   1.152  -5.604  0.00  0.00     0.062 H 
ATOM     43  H   LIG d   1       3.619   0.308  -7.323  0.00  0.00     0.062 H 
ENDBRANCH  17  33
BRANCH   1  44
ATOM     44  C   LIG d   1       7.701  -1.982  -5.613  0.00  0.00     0.325 C 
ATOM     45  O   LIG d   1       8.429  -1.891  -6.573  0.00  0.00    -0.249 OA
BRANCH  44  46
ATOM     46  O   LIG d   1       7.804  -1.102  -4.606  0.00  0.00    -0.467 OA
BRANCH  46  47
ATOM     47  C   LIG d   1       7.771   0.285  -4.950  0.00  0.00     0.082 C 
ATOM     48  H   LIG d   1       8.045   0.882  -4.080  0.00  0.00     0.066 H 
ATOM     49  H   LIG d   1       8.476   0.476  -5.758  0.00  0.00     0.066 H 
ATOM     50  H   LIG d   1       6.766   0.554  -5.274  0.00  0.00     0.066 H 
ENDBRANCH  46  47
ENDBRANCH  44  46
ENDBRANCH   1  44
BRANCH  20  51
ATOM     51  N   LIG d   1       2.884  -2.665  -9.725  0.00  0.00     0.231 N 
ATOM     52  H   LIG d   1       3.470  -3.194 -10.353  0.00  0.00     0.202 HD
ATOM     53  H   LIG d   1       1.982  -3.112  -9.649  0.00  0.00     0.202 HD
BRANCH  51  54
ATOM     54  C   LIG d   1       2.713  -1.302 -10.245  0.00  0.00    -0.022 A 
ATOM     55  C   LIG d   1       1.573  -1.062 -11.238  0.00  0.00    -0.005 A 
ATOM     56  C   LIG d   1       1.466  -0.530  -9.807  0.00  0.00    -0.005 A 
ATOM     57  H   LIG d   1       1.743  -0.337 -12.033  0.00  0.00     0.032 H 
ATOM     58  H   LIG d   1       0.951  -1.917 -11.505  0.00  0.00     0.032 H 
ATOM     59  H   LIG d   1       0.773  -1.034  -9.134  0.00  0.00     0.032 H 
ATOM     60  H   LIG d   1       1.566   0.546  -9.662  0.00  0.00     0.032 H 
ATOM     61  H   LIG d   1       3.632  -0.734 -10.387  0.00  0.00     0.085 H 
ENDBRANCH  51  54
ENDBRANCH  20  51
TORSDOF 6
ENDMDL
MODEL 5
REMARK VINA RESULT:      -6.7      2.696      4.745
REMARK  6 active torsions:
REMARK  status: ('A' for Active; 'I' for Inactive)
REMARK    1  A    between atoms: C_1  and  O_2 
REMARK    2  A    between atoms: O_2  and  C_3 
REMARK    3  A    between atoms: C_3  and  C_5 
REMARK    4  A    between atoms: C_21  and  C_31 
REMARK    5  A    between atoms: C_24  and  N_27 
REMARK    6  A    between atoms: N_27  and  C_28 
ROOT
ATOM      1  C   LIG d   1       4.900  -3.077  -6.569  0.00  0.00     0.113 C 
ATOM      2  H   LIG d   1       3.959  -2.655  -6.215  0.00  0.00     0.058 H 
ATOM      3  C   LIG d   1       4.807  -3.339  -8.078  0.00  0.00     0.001 C 
ATOM      4  C   LIG d   1       4.824  -2.009  -8.788  0.00  0.00    -0.016 A 
ATOM      5  C   LIG d   1       4.458  -1.694 -10.151  0.00  0.00     0.003 A 
ATOM      6  C   LIG d   1       3.989  -2.473 -11.214  0.00  0.00    -0.052 A 
ATOM      7  C   LIG d   1       3.739  -1.824 -12.397  0.00  0.00    -0.061 A 
ATOM      8  C   LIG d   1       3.936  -0.461 -12.545  0.00  0.00    -0.060 A 
ATOM      9  C   LIG d   1       4.398   0.334 -11.511  0.00  0.00    -0.038 A 
ATOM     10  C   LIG d   1       4.661  -0.297 -10.297  0.00  0.00     0.047 A 
ATOM     11  N   LIG d   1       5.116   0.176  -9.100  0.00  0.00    -0.356 N 
ATOM     12  H   LIG d   1       5.339   1.101  -8.913  0.00  0.00     0.166 HD
ATOM     13  C   LIG d   1       5.209  -0.852  -8.201  0.00  0.00     0.038 A 
ATOM     14  C   LIG d   1       5.661  -0.776  -6.764  0.00  0.00     0.057 C 
ATOM     15  H   LIG d   1       4.859  -0.366  -6.150  0.00  0.00     0.053 H 
ATOM     16  N   LIG d   1       5.990  -2.132  -6.302  0.00  0.00    -0.274 N 
ATOM     17  C   LIG d   1       6.370  -2.126  -4.884  0.00  0.00     0.042 C 
ATOM     18  H   LIG d   1       6.570  -3.146  -4.556  0.00  0.00     0.051 H 
ATOM     19  C   LIG d   1       7.630  -1.274  -4.703  0.00  0.00     0.010 C 
ATOM     20  C   LIG d   1       7.358   0.151  -5.191  0.00  0.00    -0.019 C 
ATOM     21  H   LIG d   1       6.576   0.601  -4.580  0.00  0.00     0.085 H 
ATOM     22  C   LIG d   1       6.899   0.116  -6.652  0.00  0.00     0.011 C 
ATOM     23  H   LIG d   1       5.659  -3.938  -8.401  0.00  0.00     0.033 H 
ATOM     24  H   LIG d   1       3.880  -3.865  -8.303  0.00  0.00     0.033 H 
ATOM     25  H   LIG d   1       3.833  -3.537 -11.108  0.00  0.00     0.062 H 
ATOM     26  H   LIG d   1       3.375  -2.394 -13.239  0.00  0.00     0.062 H 
ATOM     27  H   LIG d   1       3.723  -0.004 -13.500  0.00  0.00     0.062 H 
ATOM     28  H   LIG d   1       4.548   1.396 -11.639  0.00  0.00     0.064 H 
ATOM     29  H   LIG d   1       7.903  -1.251  -3.648  0.00  0.00     0.034 H 
ATOM     30  H   LIG d   1       8.446  -1.707  -5.281  0.00  0.00     0.034 H 
ATOM     31  H   LIG d   1       7.698  -0.290  -7.272  0.00  0.00     0.034 H 
ATOM     32  H   LIG d   1       6.653   1.124  -6.987  0.00  0.00     0.034 H 
ENDROOT
BRANCH  17  33
ATOM     33  C   LIG d   1       5.246  -1.545  -4.065  0.00  0.00    -0.029 A 
ATOM     34  C   LIG d   1       4.134  -1.019  -4.695  0.00  0.00    -0.039 A 
ATOM     35  C   LIG d   1       3.099  -0.491  -3.944  0.00  0.00     0.041 A 
ATOM     36  H   LIG d   1       4.070  -1.025  -5.773  0.00  0.00     0.064 H 
ATOM     37  C   LIG d   1       3.184  -0.479  -2.562  0.00  0.00    -0.043 A 
ATOM     38 CL   LIG d   1       1.698   0.162  -4.732  0.00  0.00    -0.084 Cl
ATOM     39  C   LIG d   1       4.299  -1.000  -1.934  0.00  0.00    -0.060 A 
ATOM     40  H   LIG d   1       2.378  -0.065  -1.975  0.00  0.00     0.063 H 
ATOM     41  C   LIG d   1       5.330  -1.533  -2.686  0.00  0.00    -0.057 A 
ATOM     42  H   LIG d   1       4.366  -0.991  -0.857  0.00  0.00     0.062 H 
ATOM     43  H   LIG d   1       6.201  -1.940  -2.195  0.00  0.00     0.062 H 
ENDBRANCH  17  33
BRANCH   1  44
ATOM     44  C   LIG d   1       5.172  -4.373  -5.850  0.00  0.00     0.325 C 
ATOM     45  O   LIG d   1       4.391  -4.780  -5.022  0.00  0.00    -0.249 OA
BRANCH  44  46
ATOM     46  O   LIG d   1       6.280  -5.076  -6.128  0.00  0.00    -0.467 OA
BRANCH  46  47
ATOM     47  C   LIG d   1       6.246  -6.479  -5.857  0.00  0.00     0.082 C 
ATOM     48  H   LIG d   1       5.239  -6.765  -5.553  0.00  0.00     0.066 H 
ATOM     49  H   LIG d   1       6.524  -7.028  -6.756  0.00  0.00     0.066 H 
ATOM     50  H   LIG d   1       6.947  -6.711  -5.057  0.00  0.00     0.066 H 
ENDBRANCH  46  47
ENDBRANCH  44  46
ENDBRANCH   1  44
BRANCH  20  51
ATOM     51  N   LIG d   1       8.586   0.949  -5.082  0.00  0.00     0.231 N 
ATOM     52  H   LIG d   1       9.316   0.388  -4.667  0.00  0.00     0.202 HD
ATOM     53  H   LIG d   1       8.874   1.251  -6.000  0.00  0.00     0.202 HD
BRANCH  51  54
ATOM     54  C   LIG d   1       8.334   2.124  -4.237  0.00  0.00    -0.022 A 
ATOM     55  C   LIG d   1       9.501   2.663  -3.407  0.00  0.00    -0.005 A 
ATOM     56  C   LIG d   1       9.011   3.437  -4.633  0.00  0.00    -0.005 A 
ATOM     57  H   LIG d   1       9.273   3.077  -2.426  0.00  0.00     0.032 H 
ATOM     58  H   LIG d   1      10.457   2.145  -3.489  0.00  0.00     0.032 H 
ATOM     59  H   LIG d   1       9.645   3.429  -5.520  0.00  0.00     0.032 H 
ATOM     60  H   LIG d   1       8.460   4.361  -4.457  0.00  0.00     0.032 H 
ATOM     61  H   LIG d   1       7.337   2.184  -3.800  0.00  0.00     0.085 H 
ENDBRANCH  51  54
ENDBRANCH  20  51
TORSDOF 6
ENDMDL
MODEL 6
REMARK VINA RESULT:      -6.7      2.902      5.771
REMARK  6 active torsions:
REMARK  status: ('A' for Active; 'I' for Inactive)
REMARK    1  A    between atoms: C_1  and  O_2 
REMARK    2  A    between atoms: O_2  and  C_3 
REMARK    3  A    between atoms: C_3  and  C_5 
REMARK    4  A    between atoms: C_21  and  C_31 
REMARK    5  A    between atoms: C_24  and  N_27 
REMARK    6  A    between atoms: N_27  and  C_28 
ROOT
ATOM      1  C   LIG d   1       5.611  -4.362  -6.493  0.00  0.00     0.113 C 
ATOM      2  H   LIG d   1       6.237  -4.173  -7.366  0.00  0.00     0.058 H 
ATOM      3  C   LIG d   1       6.255  -5.453  -5.627  0.00  0.00     0.001 C 
ATOM      4  C   LIG d   1       7.475  -4.867  -4.962  0.00  0.00    -0.016 A 
ATOM      5  C   LIG d   1       8.576  -5.542  -4.312  0.00  0.00     0.003 A 
ATOM      6  C   LIG d   1       8.867  -6.892  -4.092  0.00  0.00    -0.052 A 
ATOM      7  C   LIG d   1      10.031  -7.176  -3.421  0.00  0.00    -0.061 A 
ATOM      8  C   LIG d   1      10.886  -6.180  -2.978  0.00  0.00    -0.060 A 
ATOM      9  C   LIG d   1      10.624  -4.837  -3.183  0.00  0.00    -0.038 A 
ATOM     10  C   LIG d   1       9.450  -4.518  -3.861  0.00  0.00     0.047 A 
ATOM     11  N   LIG d   1       8.898  -3.323  -4.223  0.00  0.00    -0.356 N 
ATOM     12  H   LIG d   1       9.284  -2.452  -4.041  0.00  0.00     0.166 HD
ATOM     13  C   LIG d   1       7.718  -3.538  -4.883  0.00  0.00     0.038 A 
ATOM     14  C   LIG d   1       6.787  -2.501  -5.460  0.00  0.00     0.057 C 
ATOM     15  H   LIG d   1       7.196  -2.125  -6.398  0.00  0.00     0.053 H 
ATOM     16  N   LIG d   1       5.481  -3.128  -5.709  0.00  0.00    -0.274 N 
ATOM     17  C   LIG d   1       4.555  -2.178  -6.338  0.00  0.00     0.042 C 
ATOM     18  H   LIG d   1       3.609  -2.678  -6.549  0.00  0.00     0.051 H 
ATOM     19  C   LIG d   1       4.312  -1.004  -5.386  0.00  0.00     0.010 C 
ATOM     20  C   LIG d   1       5.645  -0.321  -5.066  0.00  0.00    -0.019 C 
ATOM     21  H   LIG d   1       6.070   0.090  -5.982  0.00  0.00     0.085 H 
ATOM     22  C   LIG d   1       6.619  -1.344  -4.474  0.00  0.00     0.011 C 
ATOM     23  H   LIG d   1       5.547  -5.786  -4.868  0.00  0.00     0.033 H 
ATOM     24  H   LIG d   1       6.546  -6.295  -6.254  0.00  0.00     0.033 H 
ATOM     25  H   LIG d   1       8.206  -7.675  -4.432  0.00  0.00     0.062 H 
ATOM     26  H   LIG d   1      10.288  -8.208  -3.234  0.00  0.00     0.062 H 
ATOM     27  H   LIG d   1      11.788  -6.462  -2.456  0.00  0.00     0.062 H 
ATOM     28  H   LIG d   1      11.300  -4.071  -2.833  0.00  0.00     0.064 H 
ATOM     29  H   LIG d   1       3.640  -0.287  -5.858  0.00  0.00     0.034 H 
ATOM     30  H   LIG d   1       3.862  -1.372  -4.464  0.00  0.00     0.034 H 
ATOM     31  H   LIG d   1       6.217  -1.722  -3.534  0.00  0.00     0.034 H 
ATOM     32  H   LIG d   1       7.586  -0.873  -4.295  0.00  0.00     0.034 H 
ENDROOT
BRANCH  17  33
ATOM     33  C   LIG d   1       5.153  -1.670  -7.625  0.00  0.00    -0.029 A 
ATOM     34  C   LIG d   1       4.486  -0.711  -8.364  0.00  0.00    -0.039 A 
ATOM     35  C   LIG d   1       5.037  -0.239  -9.542  0.00  0.00     0.041 A 
ATOM     36  H   LIG d   1       3.538  -0.327  -8.019  0.00  0.00     0.064 H 
ATOM     37  C   LIG d   1       6.250  -0.736  -9.985  0.00  0.00    -0.043 A 
ATOM     38 CL   LIG d   1       4.205   0.970 -10.468  0.00  0.00    -0.084 Cl
ATOM     39  C   LIG d   1       6.914  -1.699  -9.248  0.00  0.00    -0.060 A 
ATOM     40  H   LIG d   1       6.680  -0.371 -10.906  0.00  0.00     0.063 H 
ATOM     41  C   LIG d   1       6.364  -2.166  -8.067  0.00  0.00    -0.057 A 
ATOM     42  H   LIG d   1       7.860  -2.087  -9.593  0.00  0.00     0.062 H 
ATOM     43  H   LIG d   1       6.883  -2.917  -7.491  0.00  0.00     0.062 H 
ENDBRANCH  17  33
BRANCH   1  44
ATOM     44  C   LIG d   1       4.246  -4.817  -6.942  0.00  0.00     0.325 C 
ATOM     45  O   LIG d   1       3.446  -5.216  -6.130  0.00  0.00    -0.249 OA
BRANCH  44  46
ATOM     46  O   LIG d   1       3.920  -4.778  -8.243  0.00  0.00    -0.467 OA
BRANCH  46  47
ATOM     47  C   LIG d   1       4.859  -5.337  -9.165  0.00  0.00     0.082 C 
ATOM     48  H   LIG d   1       5.551  -5.988  -8.630  0.00  0.00     0.066 H 
ATOM     49  H   LIG d   1       4.326  -5.915  -9.919  0.00  0.00     0.066 H 
ATOM     50  H   LIG d   1       5.414  -4.534  -9.648  0.00  0.00     0.066 H 
ENDBRANCH  46  47
ENDBRANCH  44  46
ENDBRANCH   1  44
BRANCH  20  51
ATOM     51  N   LIG d   1       5.421   0.761  -4.099  0.00  0.00     0.231 N 
ATOM     52  H   LIG d   1       6.288   0.978  -3.631  0.00  0.00     0.202 HD
ATOM     53  H   LIG d   1       5.086   1.580  -4.583  0.00  0.00     0.202 HD
BRANCH  51  54
ATOM     54  C   LIG d   1       4.422   0.335  -3.110  0.00  0.00    -0.022 A 
ATOM     55  C   LIG d   1       4.634   0.771  -1.658  0.00  0.00    -0.005 A 
ATOM     56  C   LIG d   1       3.529   1.416  -2.497  0.00  0.00    -0.005 A 
ATOM     57  H   LIG d   1       4.332   0.077  -0.875  0.00  0.00     0.032 H 
ATOM     58  H   LIG d   1       5.516   1.374  -1.438  0.00  0.00     0.032 H 
ATOM     59  H   LIG d   1       3.683   2.443  -2.828  0.00  0.00     0.032 H 
ATOM     60  H   LIG d   1       2.499   1.145  -2.265  0.00  0.00     0.032 H 
ATOM     61  H   LIG d   1       3.980  -0.646  -3.280  0.00  0.00     0.085 H 
ENDBRANCH  51  54
ENDBRANCH  20  51
TORSDOF 6
ENDMDL
MODEL 7
REMARK VINA RESULT:      -6.7      3.209      6.988
REMARK  6 active torsions:
REMARK  status: ('A' for Active; 'I' for Inactive)
REMARK    1  A    between atoms: C_1  and  O_2 
REMARK    2  A    between atoms: O_2  and  C_3 
REMARK    3  A    between atoms: C_3  and  C_5 
REMARK    4  A    between atoms: C_21  and  C_31 
REMARK    5  A    between atoms: C_24  and  N_27 
REMARK    6  A    between atoms: N_27  and  C_28 
ROOT
ATOM      1  C   LIG d   1       8.010  -3.338  -4.963  0.00  0.00     0.113 C 
ATOM      2  H   LIG d   1       7.953  -2.795  -5.907  0.00  0.00     0.058 H 
ATOM      3  C   LIG d   1       7.542  -2.427  -3.820  0.00  0.00     0.001 C 
ATOM      4  C   LIG d   1       6.049  -2.252  -3.940  0.00  0.00    -0.016 A 
ATOM      5  C   LIG d   1       5.190  -1.269  -3.317  0.00  0.00     0.003 A 
ATOM      6  C   LIG d   1       5.439  -0.207  -2.442  0.00  0.00    -0.052 A 
ATOM      7  C   LIG d   1       4.355   0.537  -2.044  0.00  0.00    -0.061 A 
ATOM      8  C   LIG d   1       3.071   0.259  -2.482  0.00  0.00    -0.060 A 
ATOM      9  C   LIG d   1       2.796  -0.784  -3.348  0.00  0.00    -0.038 A 
ATOM     10  C   LIG d   1       3.876  -1.557  -3.769  0.00  0.00     0.047 A 
ATOM     11  N   LIG d   1       3.959  -2.636  -4.602  0.00  0.00    -0.356 N 
ATOM     12  H   LIG d   1       3.209  -3.051  -5.056  0.00  0.00     0.166 HD
ATOM     13  C   LIG d   1       5.262  -3.046  -4.701  0.00  0.00     0.038 A 
ATOM     14  C   LIG d   1       5.803  -4.194  -5.517  0.00  0.00     0.057 C 
ATOM     15  H   LIG d   1       5.857  -3.902  -6.566  0.00  0.00     0.053 H 
ATOM     16  N   LIG d   1       7.149  -4.524  -5.028  0.00  0.00    -0.274 N 
ATOM     17  C   LIG d   1       7.753  -5.591  -5.835  0.00  0.00     0.042 C 
ATOM     18  H   LIG d   1       8.764  -5.789  -5.478  0.00  0.00     0.051 H 
ATOM     19  C   LIG d   1       6.907  -6.861  -5.706  0.00  0.00     0.010 C 
ATOM     20  C   LIG d   1       5.479  -6.574  -6.179  0.00  0.00    -0.019 C 
ATOM     21  H   LIG d   1       5.494  -6.305  -7.235  0.00  0.00     0.085 H 
ATOM     22  C   LIG d   1       4.892  -5.414  -5.370  0.00  0.00     0.011 C 
ATOM     23  H   LIG d   1       7.782  -2.886  -2.861  0.00  0.00     0.033 H 
ATOM     24  H   LIG d   1       8.034  -1.457  -3.898  0.00  0.00     0.033 H 
ATOM     25  H   LIG d   1       6.436   0.016  -2.094  0.00  0.00     0.062 H 
ATOM     26  H   LIG d   1       4.510   1.365  -1.369  0.00  0.00     0.062 H 
ATOM     27  H   LIG d   1       2.257   0.878  -2.135  0.00  0.00     0.062 H 
ATOM     28  H   LIG d   1       1.790  -0.990  -3.682  0.00  0.00     0.064 H 
ATOM     29  H   LIG d   1       7.341  -7.650  -6.320  0.00  0.00     0.034 H 
ATOM     30  H   LIG d   1       6.887  -7.180  -4.664  0.00  0.00     0.034 H 
ATOM     31  H   LIG d   1       4.833  -5.700  -4.320  0.00  0.00     0.034 H 
ATOM     32  H   LIG d   1       3.895  -5.172  -5.740  0.00  0.00     0.034 H 
ENDROOT
BRANCH  17  33
ATOM     33  C   LIG d   1       7.803  -5.163  -7.279  0.00  0.00    -0.029 A 
ATOM     34  C   LIG d   1       7.404  -3.888  -7.634  0.00  0.00    -0.039 A 
ATOM     35  C   LIG d   1       7.456  -3.492  -8.959  0.00  0.00     0.041 A 
ATOM     36  H   LIG d   1       7.057  -3.200  -6.878  0.00  0.00     0.064 H 
ATOM     37  C   LIG d   1       7.896  -4.376  -9.928  0.00  0.00    -0.043 A 
ATOM     38 CL   LIG d   1       6.962  -1.890  -9.407  0.00  0.00    -0.084 Cl
ATOM     39  C   LIG d   1       8.290  -5.652  -9.572  0.00  0.00    -0.060 A 
ATOM     40  H   LIG d   1       7.934  -4.069 -10.963  0.00  0.00     0.063 H 
ATOM     41  C   LIG d   1       8.243  -6.045  -8.247  0.00  0.00    -0.057 A 
ATOM     42  H   LIG d   1       8.634  -6.343 -10.327  0.00  0.00     0.062 H 
ATOM     43  H   LIG d   1       8.551  -7.042  -7.969  0.00  0.00     0.062 H 
ENDBRANCH  17  33
BRANCH   1  44
ATOM     44  C   LIG d   1       9.434  -3.764  -4.715  0.00  0.00     0.325 C 
ATOM     45  O   LIG d   1      10.293  -3.501  -5.523  0.00  0.00    -0.249 OA
BRANCH  44  46
ATOM     46  O   LIG d   1       9.749  -4.436  -3.597  0.00  0.00    -0.467 OA
BRANCH  46  47
ATOM     47  C   LIG d   1      11.071  -4.261  -3.084  0.00  0.00     0.082 C 
ATOM     48  H   LIG d   1      11.224  -3.214  -2.821  0.00  0.00     0.066 H 
ATOM     49  H   LIG d   1      11.201  -4.881  -2.197  0.00  0.00     0.066 H 
ATOM     50  H   LIG d   1      11.796  -4.555  -3.842  0.00  0.00     0.066 H 
ENDBRANCH  46  47
ENDBRANCH  44  46
ENDBRANCH   1  44
BRANCH  20  51
ATOM     51  N   LIG d   1       4.651  -7.773  -5.990  0.00  0.00     0.231 N 
ATOM     52  H   LIG d   1       3.742  -7.502  -5.646  0.00  0.00     0.202 HD
ATOM     53  H   LIG d   1       4.548  -8.252  -6.872  0.00  0.00     0.202 HD
BRANCH  51  54
ATOM     54  C   LIG d   1       5.297  -8.667  -5.020  0.00  0.00    -0.022 A 
ATOM     55  C   LIG d   1       4.390  -9.556  -4.166  0.00  0.00    -0.005 A 
ATOM     56  C   LIG d   1       5.226 -10.171  -5.290  0.00  0.00    -0.005 A 
ATOM     57  H   LIG d   1       4.701  -9.754  -3.141  0.00  0.00     0.032 H 
ATOM     58  H   LIG d   1       3.314  -9.476  -4.324  0.00  0.00     0.032 H 
ATOM     59  H   LIG d   1       4.700 -10.497  -6.187  0.00  0.00     0.032 H 
ATOM     60  H   LIG d   1       6.088 -10.775  -5.003  0.00  0.00     0.032 H 
ATOM     61  H   LIG d   1       6.204  -8.281  -4.556  0.00  0.00     0.085 H 
ENDBRANCH  51  54
ENDBRANCH  20  51
TORSDOF 6
ENDMDL
MODEL 8
REMARK VINA RESULT:      -6.7      3.456      6.967
REMARK  6 active torsions:
REMARK  status: ('A' for Active; 'I' for Inactive)
REMARK    1  A    between atoms: C_1  and  O_2 
REMARK    2  A    between atoms: O_2  and  C_3 
REMARK    3  A    between atoms: C_3  and  C_5 
REMARK    4  A    between atoms: C_21  and  C_31 
REMARK    5  A    between atoms: C_24  and  N_27 
REMARK    6  A    between atoms: N_27  and  C_28 
ROOT
ATOM      1  C   LIG d   1       6.138  -0.136  -3.768  0.00  0.00     0.113 C 
ATOM      2  H   LIG d   1       6.854  -0.955  -3.691  0.00  0.00     0.058 H 
ATOM      3  C   LIG d   1       6.826   1.183  -3.392  0.00  0.00     0.001 C 
ATOM      4  C   LIG d   1       7.778   1.551  -4.502  0.00  0.00    -0.016 A 
ATOM      5  C   LIG d   1       8.863   2.507  -4.497  0.00  0.00     0.003 A 
ATOM      6  C   LIG d   1       9.369   3.366  -3.517  0.00  0.00    -0.052 A 
ATOM      7  C   LIG d   1      10.435   4.155  -3.873  0.00  0.00    -0.061 A 
ATOM      8  C   LIG d   1      10.993   4.111  -5.140  0.00  0.00    -0.060 A 
ATOM      9  C   LIG d   1      10.513   3.271  -6.129  0.00  0.00    -0.038 A 
ATOM     10  C   LIG d   1       9.431   2.458  -5.797  0.00  0.00     0.047 A 
ATOM     11  N   LIG d   1       8.726   1.534  -6.515  0.00  0.00    -0.356 N 
ATOM     12  H   LIG d   1       8.898   1.295  -7.439  0.00  0.00     0.166 HD
ATOM     13  C   LIG d   1       7.740   0.994  -5.734  0.00  0.00     0.038 A 
ATOM     14  C   LIG d   1       6.737  -0.063  -6.124  0.00  0.00     0.057 C 
ATOM     15  H   LIG d   1       7.218  -1.041  -6.123  0.00  0.00     0.053 H 
ATOM     16  N   LIG d   1       5.640  -0.052  -5.146  0.00  0.00    -0.274 N 
ATOM     17  C   LIG d   1       4.666  -1.111  -5.438  0.00  0.00     0.042 C 
ATOM     18  H   LIG d   1       3.886  -1.108  -4.677  0.00  0.00     0.051 H 
ATOM     19  C   LIG d   1       4.041  -0.858  -6.813  0.00  0.00     0.010 C 
ATOM     20  C   LIG d   1       5.142  -0.832  -7.878  0.00  0.00    -0.019 C 
ATOM     21  H   LIG d   1       5.627  -1.807  -7.921  0.00  0.00     0.085 H 
ATOM     22  C   LIG d   1       6.181   0.234  -7.518  0.00  0.00     0.011 C 
ATOM     23  H   LIG d   1       6.078   1.968  -3.274  0.00  0.00     0.033 H 
ATOM     24  H   LIG d   1       7.377   1.057  -2.460  0.00  0.00     0.033 H 
ATOM     25  H   LIG d   1       8.940   3.408  -2.527  0.00  0.00     0.062 H 
ATOM     26  H   LIG d   1      10.853   4.830  -3.141  0.00  0.00     0.062 H 
ATOM     27  H   LIG d   1      11.831   4.755  -5.364  0.00  0.00     0.062 H 
ATOM     28  H   LIG d   1      10.957   3.246  -7.113  0.00  0.00     0.064 H 
ATOM     29  H   LIG d   1       3.333  -1.653  -7.042  0.00  0.00     0.034 H 
ATOM     30  H   LIG d   1       3.522   0.101  -6.805  0.00  0.00     0.034 H 
ATOM     31  H   LIG d   1       5.707   1.215  -7.521  0.00  0.00     0.034 H 
ATOM     32  H   LIG d   1       6.994   0.218  -8.245  0.00  0.00     0.034 H 
ENDROOT
BRANCH  17  33
ATOM     33  C   LIG d   1       5.363  -2.448  -5.439  0.00  0.00    -0.029 A 
ATOM     34  C   LIG d   1       4.667  -3.588  -5.794  0.00  0.00    -0.039 A 
ATOM     35  C   LIG d   1       5.308  -4.815  -5.801  0.00  0.00     0.041 A 
ATOM     36  H   LIG d   1       3.626  -3.521  -6.071  0.00  0.00     0.064 H 
ATOM     37  C   LIG d   1       6.641  -4.900  -5.441  0.00  0.00    -0.043 A 
ATOM     38 CL   LIG d   1       4.438  -6.247  -6.253  0.00  0.00    -0.084 Cl
ATOM     39  C   LIG d   1       7.334  -3.760  -5.081  0.00  0.00    -0.060 A 
ATOM     40  H   LIG d   1       7.141  -5.857  -5.443  0.00  0.00     0.063 H 
ATOM     41  C   LIG d   1       6.695  -2.534  -5.080  0.00  0.00    -0.057 A 
ATOM     42  H   LIG d   1       8.375  -3.826  -4.801  0.00  0.00     0.062 H 
ATOM     43  H   LIG d   1       7.236  -1.643  -4.800  0.00  0.00     0.062 H 
ENDBRANCH  17  33
BRANCH   1  44
ATOM     44  C   LIG d   1       4.984  -0.387  -2.832  0.00  0.00     0.325 C 
ATOM     45  O   LIG d   1       4.114   0.443  -2.710  0.00  0.00    -0.249 OA
BRANCH  44  46
ATOM     46  O   LIG d   1       4.923  -1.531  -2.133  0.00  0.00    -0.467 OA
BRANCH  46  47
ATOM     47  C   LIG d   1       3.709  -2.280  -2.219  0.00  0.00     0.082 C 
ATOM     48  H   LIG d   1       2.920  -1.648  -2.628  0.00  0.00     0.066 H 
ATOM     49  H   LIG d   1       3.859  -3.141  -2.870  0.00  0.00     0.066 H 
ATOM     50  H   LIG d   1       3.423  -2.621  -1.225  0.00  0.00     0.066 H 
ENDBRANCH  46  47
ENDBRANCH  44  46
ENDBRANCH   1  44
BRANCH  20  51
ATOM     51  N   LIG d   1       4.551  -0.520  -9.185  0.00  0.00     0.231 N 
ATOM     52  H   LIG d   1       5.091  -0.964  -9.913  0.00  0.00     0.202 HD
ATOM     53  H   LIG d   1       3.602  -0.862  -9.215  0.00  0.00     0.202 HD
BRANCH  51  54
ATOM     54  C   LIG d   1       4.554   0.934  -9.390  0.00  0.00    -0.022 A 
ATOM     55  C   LIG d   1       3.934   1.468 -10.684  0.00  0.00    -0.005 A 
ATOM     56  C   LIG d   1       3.206   1.657  -9.351  0.00  0.00    -0.005 A 
ATOM     57  H   LIG d   1       4.392   2.346 -11.136  0.00  0.00     0.032 H 
ATOM     58  H   LIG d   1       3.523   0.738 -11.383  0.00  0.00     0.032 H 
ATOM     59  H   LIG d   1       2.316   1.052  -9.174  0.00  0.00     0.032 H 
ATOM     60  H   LIG d   1       3.186   2.661  -8.927  0.00  0.00     0.032 H 
ATOM     61  H   LIG d   1       5.420   1.463  -8.992  0.00  0.00     0.085 H 
ENDBRANCH  51  54
ENDBRANCH  20  51
TORSDOF 6
ENDMDL
MODEL 9
REMARK VINA RESULT:      -6.5      3.151      6.359
REMARK  6 active torsions:
REMARK  status: ('A' for Active; 'I' for Inactive)
REMARK    1  A    between atoms: C_1  and  O_2 
REMARK    2  A    between atoms: O_2  and  C_3 
REMARK    3  A    between atoms: C_3  and  C_5 
REMARK    4  A    between atoms: C_21  and  C_31 
REMARK    5  A    between atoms: C_24  and  N_27 
REMARK    6  A    between atoms: N_27  and  C_28 
ROOT
ATOM      1  C   LIG d   1       5.333  -3.504  -6.657  0.00  0.00     0.113 C 
ATOM      2  H   LIG d   1       6.254  -2.981  -6.919  0.00  0.00     0.058 H 
ATOM      3  C   LIG d   1       5.021  -3.278  -5.172  0.00  0.00     0.001 C 
ATOM      4  C   LIG d   1       4.578  -1.848  -4.996  0.00  0.00    -0.016 A 
ATOM      5  C   LIG d   1       4.471  -1.064  -3.785  0.00  0.00     0.003 A 
ATOM      6  C   LIG d   1       4.730  -1.352  -2.441  0.00  0.00    -0.052 A 
ATOM      7  C   LIG d   1       4.511  -0.342  -1.537  0.00  0.00    -0.061 A 
ATOM      8  C   LIG d   1       4.057   0.908  -1.925  0.00  0.00    -0.060 A 
ATOM      9  C   LIG d   1       3.794   1.220  -3.247  0.00  0.00    -0.038 A 
ATOM     10  C   LIG d   1       4.006   0.215  -4.188  0.00  0.00     0.047 A 
ATOM     11  N   LIG d   1       3.851   0.183  -5.544  0.00  0.00    -0.356 N 
ATOM     12  H   LIG d   1       3.544   0.925  -6.089  0.00  0.00     0.166 HD
ATOM     13  C   LIG d   1       4.197  -1.052  -6.022  0.00  0.00     0.038 A 
ATOM     14  C   LIG d   1       4.180  -1.518  -7.457  0.00  0.00     0.057 C 
ATOM     15  H   LIG d   1       5.048  -1.118  -7.980  0.00  0.00     0.053 H 
ATOM     16  N   LIG d   1       4.229  -2.987  -7.473  0.00  0.00    -0.274 N 
ATOM     17  C   LIG d   1       4.286  -3.494  -8.850  0.00  0.00     0.042 C 
ATOM     18  H   LIG d   1       4.362  -4.582  -8.834  0.00  0.00     0.051 H 
ATOM     19  C   LIG d   1       3.012  -3.082  -9.593  0.00  0.00     0.010 C 
ATOM     20  C   LIG d   1       2.890  -1.555  -9.589  0.00  0.00    -0.019 C 
ATOM     21  H   LIG d   1       3.732  -1.123 -10.129  0.00  0.00     0.085 H 
ATOM     22  C   LIG d   1       2.900  -1.042  -8.146  0.00  0.00     0.011 C 
ATOM     23  H   LIG d   1       4.223  -3.951  -4.857  0.00  0.00     0.033 H 
ATOM     24  H   LIG d   1       5.915  -3.463  -4.576  0.00  0.00     0.033 H 
ATOM     25  H   LIG d   1       5.083  -2.323  -2.129  0.00  0.00     0.062 H 
ATOM     26  H   LIG d   1       4.700  -0.528  -0.490  0.00  0.00     0.062 H 
ATOM     27  H   LIG d   1       3.902   1.664  -1.169  0.00  0.00     0.062 H 
ATOM     28  H   LIG d   1       3.440   2.199  -3.536  0.00  0.00     0.064 H 
ATOM     29  H   LIG d   1       3.061  -3.439 -10.621  0.00  0.00     0.034 H 
ATOM     30  H   LIG d   1       2.145  -3.517  -9.097  0.00  0.00     0.034 H 
ATOM     31  H   LIG d   1       2.033  -1.436  -7.617  0.00  0.00     0.034 H 
ATOM     32  H   LIG d   1       2.867   0.048  -8.140  0.00  0.00     0.034 H 
ENDROOT
BRANCH  17  33
ATOM     33  C   LIG d   1       5.489  -2.915  -9.549  0.00  0.00    -0.029 A 
ATOM     34  C   LIG d   1       6.408  -2.169  -8.837  0.00  0.00    -0.039 A 
ATOM     35  C   LIG d   1       7.516  -1.642  -9.477  0.00  0.00     0.041 A 
ATOM     36  H   LIG d   1       6.265  -2.002  -7.780  0.00  0.00     0.064 H 
ATOM     37  C   LIG d   1       7.696  -1.853 -10.833  0.00  0.00    -0.043 A 
ATOM     38 CL   LIG d   1       8.676  -0.711  -8.583  0.00  0.00    -0.084 Cl
ATOM     39  C   LIG d   1       6.773  -2.595 -11.545  0.00  0.00    -0.060 A 
ATOM     40  H   LIG d   1       8.559  -1.440 -11.334  0.00  0.00     0.063 H 
ATOM     41  C   LIG d   1       5.669  -3.126 -10.903  0.00  0.00    -0.057 A 
ATOM     42  H   LIG d   1       6.913  -2.760 -12.603  0.00  0.00     0.062 H 
ATOM     43  H   LIG d   1       4.948  -3.706 -11.460  0.00  0.00     0.062 H 
ENDBRANCH  17  33
BRANCH   1  44
ATOM     44  C   LIG d   1       5.502  -4.979  -6.917  0.00  0.00     0.325 C 
ATOM     45  O   LIG d   1       6.540  -5.397  -7.373  0.00  0.00    -0.249 OA
BRANCH  44  46
ATOM     46  O   LIG d   1       4.500  -5.828  -6.642  0.00  0.00    -0.467 OA
BRANCH  46  47
ATOM     47  C   LIG d   1       4.806  -6.945  -5.804  0.00  0.00     0.082 C 
ATOM     48  H   LIG d   1       5.564  -6.656  -5.076  0.00  0.00     0.066 H 
ATOM     49  H   LIG d   1       3.904  -7.264  -5.282  0.00  0.00     0.066 H 
ATOM     50  H   LIG d   1       5.183  -7.764  -6.415  0.00  0.00     0.066 H 
ENDBRANCH  46  47
ENDBRANCH  44  46
ENDBRANCH   1  44
BRANCH  20  51
ATOM     51  N   LIG d   1       1.634  -1.163 -10.241  0.00  0.00     0.231 N 
ATOM     52  H   LIG d   1       0.884  -1.187  -9.567  0.00  0.00     0.202 HD
ATOM     53  H   LIG d   1       1.725  -0.229 -10.611  0.00  0.00     0.202 HD
BRANCH  51  54
ATOM     54  C   LIG d   1       1.339  -2.096 -11.337  0.00  0.00    -0.022 A 
ATOM     55  C   LIG d   1       0.379  -1.621 -12.430  0.00  0.00    -0.005 A 
ATOM     56  C   LIG d   1       1.875  -1.746 -12.726  0.00  0.00    -0.005 A 
ATOM     57  H   LIG d   1      -0.286  -2.362 -12.873  0.00  0.00     0.032 H 
ATOM     58  H   LIG d   1      -0.033  -0.616 -12.336  0.00  0.00     0.032 H 
ATOM     59  H   LIG d   1       2.447  -0.824 -12.828  0.00  0.00     0.032 H 
ATOM     60  H   LIG d   1       2.194  -2.571 -13.364  0.00  0.00     0.032 H 
ATOM     61  H   LIG d   1       1.305  -3.150 -11.061  0.00  0.00     0.085 H 
ENDBRANCH  51  54
ENDBRANCH  20  51
TORSDOF 6
ENDMDL
MODEL 10
REMARK VINA RESULT:      -6.4      3.561      5.999
REMARK  6 active torsions:
REMARK  status: ('A' for Active; 'I' for Inactive)
REMARK    1  A    between atoms: C_1  and  O_2 
REMARK    2  A    between atoms: O_2  and  C_3 
REMARK    3  A    between atoms: C_3  and  C_5 
REMARK    4  A    between atoms: C_21  and  C_31 
REMARK    5  A    between atoms: C_24  and  N_27 
REMARK    6  A    between atoms: N_27  and  C_28 
ROOT
ATOM      1  C   LIG d   1       3.849   0.039  -5.909  0.00  0.00     0.113 C 
ATOM      2  H   LIG d   1       4.414   0.905  -6.253  0.00  0.00     0.058 H 
ATOM      3  C   LIG d   1       2.711  -0.254  -6.896  0.00  0.00     0.001 C 
ATOM      4  C   LIG d   1       3.315  -0.811  -8.159  0.00  0.00    -0.016 A 
ATOM      5  C   LIG d   1       2.724  -0.954  -9.472  0.00  0.00     0.003 A 
ATOM      6  C   LIG d   1       1.462  -0.639  -9.985  0.00  0.00    -0.052 A 
ATOM      7  C   LIG d   1       1.244  -0.919 -11.311  0.00  0.00    -0.061 A 
ATOM      8  C   LIG d   1       2.219  -1.486 -12.114  0.00  0.00    -0.060 A 
ATOM      9  C   LIG d   1       3.477  -1.807 -11.634  0.00  0.00    -0.038 A 
ATOM     10  C   LIG d   1       3.728  -1.534 -10.291  0.00  0.00     0.047 A 
ATOM     11  N   LIG d   1       4.833  -1.719  -9.510  0.00  0.00    -0.356 N 
ATOM     12  H   LIG d   1       5.672  -2.101  -9.812  0.00  0.00     0.166 HD
ATOM     13  C   LIG d   1       4.581  -1.283  -8.238  0.00  0.00     0.038 A 
ATOM     14  C   LIG d   1       5.523  -1.297  -7.060  0.00  0.00     0.057 C 
ATOM     15  H   LIG d   1       6.237  -0.479  -7.155  0.00  0.00     0.053 H 
ATOM     16  N   LIG d   1       4.739  -1.125  -5.829  0.00  0.00    -0.274 N 
ATOM     17  C   LIG d   1       5.616  -1.060  -4.653  0.00  0.00     0.042 C 
ATOM     18  H   LIG d   1       5.014  -0.892  -3.759  0.00  0.00     0.051 H 
ATOM     19  C   LIG d   1       6.377  -2.381  -4.517  0.00  0.00     0.010 C 
ATOM     20  C   LIG d   1       7.198  -2.631  -5.785  0.00  0.00    -0.019 C 
ATOM     21  H   LIG d   1       7.942  -1.842  -5.896  0.00  0.00     0.085 H 
ATOM     22  C   LIG d   1       6.274  -2.628  -7.006  0.00  0.00     0.011 C 
ATOM     23  H   LIG d   1       2.027  -0.985  -6.462  0.00  0.00     0.033 H 
ATOM     24  H   LIG d   1       2.172   0.666  -7.120  0.00  0.00     0.033 H 
ATOM     25  H   LIG d   1       0.695  -0.198  -9.366  0.00  0.00     0.062 H 
ATOM     26  H   LIG d   1       0.280  -0.688 -11.742  0.00  0.00     0.062 H 
ATOM     27  H   LIG d   1       1.991  -1.684 -13.151  0.00  0.00     0.062 H 
ATOM     28  H   LIG d   1       4.229  -2.248 -12.270  0.00  0.00     0.064 H 
ATOM     29  H   LIG d   1       7.043  -2.329  -3.657  0.00  0.00     0.034 H 
ATOM     30  H   LIG d   1       5.667  -3.196  -4.378  0.00  0.00     0.034 H 
ATOM     31  H   LIG d   1       5.558  -3.446  -6.919  0.00  0.00     0.034 H 
ATOM     32  H   LIG d   1       6.862  -2.753  -7.916  0.00  0.00     0.034 H 
ENDROOT
BRANCH  17  33
ATOM     33  C   LIG d   1       6.596   0.073  -4.819  0.00  0.00    -0.029 A 
ATOM     34  C   LIG d   1       7.063   0.401  -6.078  0.00  0.00    -0.039 A 
ATOM     35  C   LIG d   1       7.959   1.445  -6.232  0.00  0.00     0.041 A 
ATOM     36  H   LIG d   1       6.725  -0.152  -6.941  0.00  0.00     0.064 H 
ATOM     37  C   LIG d   1       8.395   2.150  -5.125  0.00  0.00    -0.043 A 
ATOM     38 CL   LIG d   1       8.541   1.865  -7.813  0.00  0.00    -0.084 Cl
ATOM     39  C   LIG d   1       7.932   1.817  -3.866  0.00  0.00    -0.060 A 
ATOM     40  H   LIG d   1       9.096   2.963  -5.244  0.00  0.00     0.063 H 
ATOM     41  C   LIG d   1       7.032   0.778  -3.714  0.00  0.00    -0.057 A 
ATOM     42  H   LIG d   1       8.271   2.367  -3.002  0.00  0.00     0.062 H 
ATOM     43  H   LIG d   1       6.670   0.518  -2.731  0.00  0.00     0.062 H 
ENDBRANCH  17  33
BRANCH   1  44
ATOM     44  C   LIG d   1       3.272   0.324  -4.546  0.00  0.00     0.325 C 
ATOM     45  O   LIG d   1       3.522   1.367  -3.991  0.00  0.00    -0.249 OA
BRANCH  44  46
ATOM     46  O   LIG d   1       2.480  -0.580  -3.949  0.00  0.00    -0.467 OA
BRANCH  46  47
ATOM     47  C   LIG d   1       2.882  -1.046  -2.660  0.00  0.00     0.082 C 
ATOM     48  H   LIG d   1       2.914  -2.136  -2.661  0.00  0.00     0.066 H 
ATOM     49  H   LIG d   1       3.872  -0.654  -2.425  0.00  0.00     0.066 H 
ATOM     50  H   LIG d   1       2.169  -0.703  -1.911  0.00  0.00     0.066 H 
ENDBRANCH  46  47
ENDBRANCH  44  46
ENDBRANCH   1  44
BRANCH  20  51
ATOM     51  N   LIG d   1       7.873  -3.931  -5.683  0.00  0.00     0.231 N 
ATOM     52  H   LIG d   1       7.253  -4.658  -6.007  0.00  0.00     0.202 HD
ATOM     53  H   LIG d   1       8.708  -3.922  -6.249  0.00  0.00     0.202 HD
BRANCH  51  54
ATOM     54  C   LIG d   1       8.236  -4.186  -4.282  0.00  0.00    -0.022 A 
ATOM     55  C   LIG d   1       9.125  -5.398  -3.991  0.00  0.00    -0.005 A 
ATOM     56  C   LIG d   1       9.698  -3.983  -3.883  0.00  0.00    -0.005 A 
ATOM     57  H   LIG d   1       8.947  -5.941  -3.064  0.00  0.00     0.032 H 
ATOM     58  H   LIG d   1       9.440  -6.005  -4.840  0.00  0.00     0.032 H 
ATOM     59  H   LIG d   1      10.392  -3.661  -4.659  0.00  0.00     0.032 H 
ATOM     60  H   LIG d   1       9.898  -3.597  -2.883  0.00  0.00     0.032 H 
ATOM     61  H   LIG d   1       7.473  -3.934  -3.545  0.00  0.00     0.085 H 
ENDBRANCH  51  54
ENDBRANCH  20  51
TORSDOF 6
ENDMDL
