MODEL 1
REMARK VINA RESULT:      -6.3      0.000      0.000
REMARK  11 active torsions:
REMARK  status: ('A' for Active; 'I' for Inactive)
REMARK    1  A    between atoms: C_1  and  C_2 
REMARK    2  A    between atoms: C_2  and  C_3 
REMARK    3  A    between atoms: C_2  and  O_4 
REMARK    4  A    between atoms: O_4  and  C_5 
REMARK    5  A    between atoms: C_5  and  C_6 
REMARK    6  A    between atoms: C_6  and  C_7 
REMARK    7  A    between atoms: C_7  and  N_8 
REMARK       I    between atoms: N_8  and  C_9 
REMARK    8  A    between atoms: C_9  and  C_11 
REMARK    9  A    between atoms: C_11  and  C_12 
REMARK   10  A    between atoms: C_12  and  C_13 
REMARK   11  A    between atoms: C_15  and  O_26 
ROOT
ATOM      1  C   LIG d   1       6.771  -0.575  -6.746  0.00  0.00     0.026 C 
ATOM      2  H   LIG d   1       6.636  -1.390  -7.458  0.00  0.00     0.036 H 
ATOM      3  H   LIG d   1       7.775  -0.623  -6.326  0.00  0.00     0.036 H 
ENDROOT
BRANCH   1   4
ATOM      4  C   LIG d   1       6.583   0.744  -7.451  0.00  0.00     0.213 C 
ATOM      5  N   LIG d   1       5.605   0.883  -8.368  0.00  0.00    -0.315 N 
ATOM      6  H   LIG d   1       5.022   0.135  -8.574  0.00  0.00     0.149 HD
ATOM      7  O   LIG d   1       7.311   1.678  -7.194  0.00  0.00    -0.276 OA
BRANCH   5   8
ATOM      8  C   LIG d   1       5.422   2.165  -9.055  0.00  0.00     0.014 C 
ATOM      9  H   LIG d   1       6.002   2.168  -9.978  0.00  0.00     0.046 H 
ATOM     10  H   LIG d   1       5.762   2.975  -8.409  0.00  0.00     0.046 H 
BRANCH   8  11
ATOM     11  C   LIG d   1       3.941   2.361  -9.382  0.00  0.00    -0.014 C 
ATOM     12  H   LIG d   1       3.831   3.184 -10.090  0.00  0.00     0.030 H 
ATOM     13  H   LIG d   1       3.394   2.594  -8.468  0.00  0.00     0.030 H 
BRANCH  11  14
ATOM     14  C   LIG d   1       3.380   1.080 -10.000  0.00  0.00     0.049 C 
ATOM     15  H   LIG d   1       4.203   0.441 -10.322  0.00  0.00     0.056 H 
ATOM     16  H   LIG d   1       2.758   1.332 -10.860  0.00  0.00     0.056 H 
BRANCH  14  17
ATOM     17  O   LIG d   1       2.592   0.388  -9.030  0.00  0.00    -0.377 OA
BRANCH  17  18
ATOM     18  C   LIG d   1       2.159  -0.908  -9.449  0.00  0.00     0.053 C 
ATOM     19  H   LIG d   1       1.546  -1.356  -8.667  0.00  0.00     0.059 H 
BRANCH  18  20
ATOM     20  C   LIG d   1       1.336  -0.781 -10.732  0.00  0.00    -0.039 C 
ATOM     21  H   LIG d   1       0.996  -1.769 -11.044  0.00  0.00     0.025 H 
ATOM     22  H   LIG d   1       0.474  -0.140 -10.550  0.00  0.00     0.025 H 
ATOM     23  H   LIG d   1       1.954  -0.346 -11.518  0.00  0.00     0.025 H 
ENDBRANCH  18  20
BRANCH  18  24
ATOM     24  C   LIG d   1       3.380  -1.793  -9.710  0.00  0.00    -0.039 C 
ATOM     25  H   LIG d   1       4.130  -1.614  -8.940  0.00  0.00     0.025 H 
ATOM     26  H   LIG d   1       3.080  -2.841  -9.690  0.00  0.00     0.025 H 
ATOM     27  H   LIG d   1       3.799  -1.555 -10.688  0.00  0.00     0.025 H 
ENDBRANCH  18  24
ENDBRANCH  17  18
ENDBRANCH  14  17
ENDBRANCH  11  14
ENDBRANCH   8  11
ENDBRANCH   5   8
ENDBRANCH   1   4
BRANCH   1  28
ATOM     28  C   LIG d   1       5.740  -0.703  -5.622  0.00  0.00    -0.018 C 
ATOM     29  H   LIG d   1       6.197  -1.195  -4.764  0.00  0.00     0.029 H 
ATOM     30  H   LIG d   1       5.393   0.288  -5.332  0.00  0.00     0.029 H 
BRANCH  28  31
ATOM     31  C   LIG d   1       4.552  -1.535  -6.113  0.00  0.00     0.100 C 
ATOM     32  H   LIG d   1       4.800  -1.997  -7.069  0.00  0.00     0.060 H 
ATOM     33  N   LIG d   1       3.381  -0.672  -6.272  0.00  0.00    -0.300 N 
ATOM     34  C   LIG d   1       2.904   0.030  -5.239  0.00  0.00     0.247 C 
ATOM     35  H   LIG d   1       2.946  -0.612  -7.136  0.00  0.00     0.150 HD
ATOM     36  C   LIG d   1       3.507   0.033  -3.901  0.00  0.00     0.062 A 
ATOM     37  O   LIG d   1       1.911   0.707  -5.420  0.00  0.00    -0.270 OA
ATOM     38  C   LIG d   1       4.031  -1.116  -3.296  0.00  0.00     0.080 A 
ATOM     39  C   LIG d   1       3.563   1.256  -3.214  0.00  0.00    -0.048 A 
ATOM     40  N   LIG d   1       4.004  -2.346  -3.873  0.00  0.00    -0.215 NA
ATOM     41  C   LIG d   1       4.614  -1.014  -2.023  0.00  0.00    -0.035 A 
ATOM     42  C   LIG d   1       4.236  -2.604  -5.105  0.00  0.00     0.209 C 
ATOM     43  C   LIG d   1       4.666   0.196  -1.372  0.00  0.00    -0.060 A 
ATOM     44  H   LIG d   1       5.028  -1.893  -1.552  0.00  0.00     0.064 H 
ATOM     45  C   LIG d   1       4.136   1.331  -1.967  0.00  0.00    -0.061 A 
ATOM     46  H   LIG d   1       5.119   0.262  -0.394  0.00  0.00     0.062 H 
ATOM     47  H   LIG d   1       4.174   2.278  -1.448  0.00  0.00     0.062 H 
ATOM     48  H   LIG d   1       3.153   2.145  -3.670  0.00  0.00     0.063 H 
BRANCH  42  49
ATOM     49  O   LIG d   1       4.195  -3.887  -5.515  0.00  0.00    -0.494 OA
ATOM     50  H   LIG d   1       3.554  -4.056  -6.219  0.00  0.00     0.293 HD
ENDBRANCH  42  49
ENDBRANCH  28  31
ENDBRANCH   1  28
TORSDOF 11
ENDMDL
MODEL 2
REMARK VINA RESULT:      -6.2      2.157      3.367
REMARK  11 active torsions:
REMARK  status: ('A' for Active; 'I' for Inactive)
REMARK    1  A    between atoms: C_1  and  C_2 
REMARK    2  A    between atoms: C_2  and  C_3 
REMARK    3  A    between atoms: C_2  and  O_4 
REMARK    4  A    between atoms: O_4  and  C_5 
REMARK    5  A    between atoms: C_5  and  C_6 
REMARK    6  A    between atoms: C_6  and  C_7 
REMARK    7  A    between atoms: C_7  and  N_8 
REMARK       I    between atoms: N_8  and  C_9 
REMARK    8  A    between atoms: C_9  and  C_11 
REMARK    9  A    between atoms: C_11  and  C_12 
REMARK   10  A    between atoms: C_12  and  C_13 
REMARK   11  A    between atoms: C_15  and  O_26 
ROOT
ATOM      1  C   LIG d   1       6.625  -0.641  -7.066  0.00  0.00     0.026 C 
ATOM      2  H   LIG d   1       5.991  -1.525  -7.147  0.00  0.00     0.036 H 
ATOM      3  H   LIG d   1       7.672  -0.942  -7.079  0.00  0.00     0.036 H 
ENDROOT
BRANCH   1   4
ATOM      4  C   LIG d   1       6.352   0.281  -8.227  0.00  0.00     0.213 C 
ATOM      5  N   LIG d   1       5.535   1.341  -8.067  0.00  0.00    -0.315 N 
ATOM      6  H   LIG d   1       5.122   1.510  -7.205  0.00  0.00     0.149 HD
ATOM      7  O   LIG d   1       6.868   0.069  -9.303  0.00  0.00    -0.276 OA
BRANCH   5   8
ATOM      8  C   LIG d   1       5.269   2.237  -9.195  0.00  0.00     0.014 C 
ATOM      9  H   LIG d   1       6.050   2.117  -9.946  0.00  0.00     0.046 H 
ATOM     10  H   LIG d   1       5.258   3.269  -8.844  0.00  0.00     0.046 H 
BRANCH   8  11
ATOM     11  C   LIG d   1       3.913   1.893  -9.812  0.00  0.00    -0.014 C 
ATOM     12  H   LIG d   1       3.962   0.904 -10.269  0.00  0.00     0.030 H 
ATOM     13  H   LIG d   1       3.661   2.632 -10.572  0.00  0.00     0.030 H 
BRANCH  11  14
ATOM     14  C   LIG d   1       2.840   1.897  -8.722  0.00  0.00     0.049 C 
ATOM     15  H   LIG d   1       1.921   2.331  -9.117  0.00  0.00     0.056 H 
ATOM     16  H   LIG d   1       3.186   2.488  -7.874  0.00  0.00     0.056 H 
BRANCH  14  17
ATOM     17  O   LIG d   1       2.589   0.557  -8.295  0.00  0.00    -0.377 OA
BRANCH  17  18
ATOM     18  C   LIG d   1       2.713  -0.417  -9.335  0.00  0.00     0.053 C 
ATOM     19  H   LIG d   1       3.395  -0.046 -10.100  0.00  0.00     0.059 H 
BRANCH  18  20
ATOM     20  C   LIG d   1       3.261  -1.720  -8.750  0.00  0.00    -0.039 C 
ATOM     21  H   LIG d   1       4.337  -1.770  -8.921  0.00  0.00     0.025 H 
ATOM     22  H   LIG d   1       3.061  -1.751  -7.679  0.00  0.00     0.025 H 
ATOM     23  H   LIG d   1       2.777  -2.567  -9.236  0.00  0.00     0.025 H 
ENDBRANCH  18  20
BRANCH  18  24
ATOM     24  C   LIG d   1       1.339  -0.675  -9.958  0.00  0.00    -0.039 C 
ATOM     25  H   LIG d   1       1.453  -1.307 -10.838  0.00  0.00     0.025 H 
ATOM     26  H   LIG d   1       0.698  -1.174  -9.231  0.00  0.00     0.025 H 
ATOM     27  H   LIG d   1       0.887   0.274 -10.248  0.00  0.00     0.025 H 
ENDBRANCH  18  24
ENDBRANCH  17  18
ENDBRANCH  14  17
ENDBRANCH  11  14
ENDBRANCH   8  11
ENDBRANCH   5   8
ENDBRANCH   1   4
BRANCH   1  28
ATOM     28  C   LIG d   1       6.318   0.087  -5.755  0.00  0.00    -0.018 C 
ATOM     29  H   LIG d   1       5.889   1.064  -5.974  0.00  0.00     0.029 H 
ATOM     30  H   LIG d   1       5.610  -0.499  -5.170  0.00  0.00     0.029 H 
BRANCH  28  31
ATOM     31  C   LIG d   1       7.612   0.267  -4.958  0.00  0.00     0.100 C 
ATOM     32  H   LIG d   1       8.417   0.563  -5.630  0.00  0.00     0.060 H 
ATOM     33  N   LIG d   1       7.961  -0.992  -4.298  0.00  0.00    -0.300 N 
ATOM     34  C   LIG d   1       7.112  -1.576  -3.446  0.00  0.00     0.247 C 
ATOM     35  H   LIG d   1       8.820  -1.405  -4.480  0.00  0.00     0.150 HD
ATOM     36  C   LIG d   1       5.780  -1.051  -3.127  0.00  0.00     0.062 A 
ATOM     37  O   LIG d   1       7.465  -2.605  -2.904  0.00  0.00    -0.270 OA
ATOM     38  C   LIG d   1       5.516   0.315  -2.960  0.00  0.00     0.080 A 
ATOM     39  C   LIG d   1       4.730  -1.972  -2.996  0.00  0.00    -0.048 A 
ATOM     40  N   LIG d   1       6.470   1.279  -3.048  0.00  0.00    -0.215 NA
ATOM     41  C   LIG d   1       4.204   0.730  -2.683  0.00  0.00    -0.035 A 
ATOM     42  C   LIG d   1       7.415   1.326  -3.910  0.00  0.00     0.209 C 
ATOM     43  C   LIG d   1       3.189  -0.191  -2.568  0.00  0.00    -0.060 A 
ATOM     44  H   LIG d   1       3.990   1.781  -2.562  0.00  0.00     0.064 H 
ATOM     45  C   LIG d   1       3.453  -1.543  -2.721  0.00  0.00    -0.061 A 
ATOM     46  H   LIG d   1       2.183   0.141  -2.356  0.00  0.00     0.062 H 
ATOM     47  H   LIG d   1       2.652  -2.262  -2.623  0.00  0.00     0.062 H 
ATOM     48  H   LIG d   1       4.926  -3.029  -3.114  0.00  0.00     0.063 H 
BRANCH  42  49
ATOM     49  O   LIG d   1       8.268   2.369  -3.877  0.00  0.00    -0.494 OA
ATOM     50  H   LIG d   1       8.466   2.744  -4.746  0.00  0.00     0.293 HD
ENDBRANCH  42  49
ENDBRANCH  28  31
ENDBRANCH   1  28
TORSDOF 11
ENDMDL
MODEL 3
REMARK VINA RESULT:      -6.2      2.125      3.982
REMARK  11 active torsions:
REMARK  status: ('A' for Active; 'I' for Inactive)
REMARK    1  A    between atoms: C_1  and  C_2 
REMARK    2  A    between atoms: C_2  and  C_3 
REMARK    3  A    between atoms: C_2  and  O_4 
REMARK    4  A    between atoms: O_4  and  C_5 
REMARK    5  A    between atoms: C_5  and  C_6 
REMARK    6  A    between atoms: C_6  and  C_7 
REMARK    7  A    between atoms: C_7  and  N_8 
REMARK       I    between atoms: N_8  and  C_9 
REMARK    8  A    between atoms: C_9  and  C_11 
REMARK    9  A    between atoms: C_11  and  C_12 
REMARK   10  A    between atoms: C_12  and  C_13 
REMARK   11  A    between atoms: C_15  and  O_26 
ROOT
ATOM      1  C   LIG d   1       7.034   1.262  -3.650  0.00  0.00     0.026 C 
ATOM      2  H   LIG d   1       7.727   1.622  -2.890  0.00  0.00     0.036 H 
ATOM      3  H   LIG d   1       6.295   2.033  -3.863  0.00  0.00     0.036 H 
ENDROOT
BRANCH   1   4
ATOM      4  C   LIG d   1       7.795   0.934  -4.909  0.00  0.00     0.213 C 
ATOM      5  N   LIG d   1       7.322   1.335  -6.106  0.00  0.00    -0.315 N 
ATOM      6  H   LIG d   1       6.491   1.835  -6.157  0.00  0.00     0.149 HD
ATOM      7  O   LIG d   1       8.833   0.310  -4.846  0.00  0.00    -0.276 OA
BRANCH   5   8
ATOM      8  C   LIG d   1       8.061   1.017  -7.330  0.00  0.00     0.014 C 
ATOM      9  H   LIG d   1       7.882  -0.024  -7.602  0.00  0.00     0.046 H 
ATOM     10  H   LIG d   1       9.127   1.170  -7.161  0.00  0.00     0.046 H 
BRANCH   8  11
ATOM     11  C   LIG d   1       7.587   1.928  -8.464  0.00  0.00    -0.014 C 
ATOM     12  H   LIG d   1       8.369   2.002  -9.220  0.00  0.00     0.030 H 
ATOM     13  H   LIG d   1       7.371   2.920  -8.067  0.00  0.00     0.030 H 
BRANCH  11  14
ATOM     14  C   LIG d   1       6.322   1.343  -9.094  0.00  0.00     0.049 C 
ATOM     15  H   LIG d   1       6.357   0.255  -9.036  0.00  0.00     0.056 H 
ATOM     16  H   LIG d   1       6.261   1.650 -10.138  0.00  0.00     0.056 H 
BRANCH  14  17
ATOM     17  O   LIG d   1       5.175   1.822  -8.390  0.00  0.00    -0.377 OA
BRANCH  17  18
ATOM     18  C   LIG d   1       4.112   2.258  -9.239  0.00  0.00     0.053 C 
ATOM     19  H   LIG d   1       4.252   3.311  -9.485  0.00  0.00     0.059 H 
BRANCH  18  20
ATOM     20  C   LIG d   1       4.113   1.430 -10.526  0.00  0.00    -0.039 C 
ATOM     21  H   LIG d   1       5.022   0.829 -10.569  0.00  0.00     0.025 H 
ATOM     22  H   LIG d   1       3.242   0.775 -10.537  0.00  0.00     0.025 H 
ATOM     23  H   LIG d   1       4.078   2.097 -11.387  0.00  0.00     0.025 H 
ENDBRANCH  18  20
BRANCH  18  24
ATOM     24  C   LIG d   1       2.775   2.077  -8.517  0.00  0.00    -0.039 C 
ATOM     25  H   LIG d   1       1.960   2.150  -9.237  0.00  0.00     0.025 H 
ATOM     26  H   LIG d   1       2.750   1.098  -8.037  0.00  0.00     0.025 H 
ATOM     27  H   LIG d   1       2.662   2.854  -7.761  0.00  0.00     0.025 H 
ENDBRANCH  18  24
ENDBRANCH  17  18
ENDBRANCH  14  17
ENDBRANCH  11  14
ENDBRANCH   8  11
ENDBRANCH   5   8
ENDBRANCH   1   4
BRANCH   1  28
ATOM     28  C   LIG d   1       6.327   0.004  -3.141  0.00  0.00    -0.018 C 
ATOM     29  H   LIG d   1       6.128  -0.665  -3.978  0.00  0.00     0.029 H 
ATOM     30  H   LIG d   1       6.963  -0.502  -2.415  0.00  0.00     0.029 H 
BRANCH  28  31
ATOM     31  C   LIG d   1       5.006   0.395  -2.476  0.00  0.00     0.100 C 
ATOM     32  H   LIG d   1       5.196   1.120  -1.684  0.00  0.00     0.060 H 
ATOM     33  N   LIG d   1       4.369  -0.795  -1.911  0.00  0.00    -0.300 N 
ATOM     34  C   LIG d   1       4.066  -1.842  -2.686  0.00  0.00     0.247 C 
ATOM     35  H   LIG d   1       4.163  -0.823  -0.964  0.00  0.00     0.150 HD
ATOM     36  C   LIG d   1       4.363  -1.913  -4.121  0.00  0.00     0.062 A 
ATOM     37  O   LIG d   1       3.512  -2.792  -2.170  0.00  0.00    -0.270 OA
ATOM     38  C   LIG d   1       4.224  -0.819  -4.986  0.00  0.00     0.080 A 
ATOM     39  C   LIG d   1       4.818  -3.138  -4.633  0.00  0.00    -0.048 A 
ATOM     40  N   LIG d   1       3.773   0.399  -4.587  0.00  0.00    -0.215 NA
ATOM     41  C   LIG d   1       4.558  -0.971  -6.340  0.00  0.00    -0.035 A 
ATOM     42  C   LIG d   1       4.086   0.999  -3.500  0.00  0.00     0.209 C 
ATOM     43  C   LIG d   1       5.009  -2.179  -6.819  0.00  0.00    -0.060 A 
ATOM     44  H   LIG d   1       4.462  -0.132  -7.013  0.00  0.00     0.064 H 
ATOM     45  C   LIG d   1       5.136  -3.264  -5.965  0.00  0.00    -0.061 A 
ATOM     46  H   LIG d   1       5.265  -2.283  -7.863  0.00  0.00     0.062 H 
ATOM     47  H   LIG d   1       5.485  -4.212  -6.348  0.00  0.00     0.062 H 
ATOM     48  H   LIG d   1       4.919  -3.989  -3.975  0.00  0.00     0.063 H 
BRANCH  42  49
ATOM     49  O   LIG d   1       3.570   2.221  -3.265  0.00  0.00    -0.494 OA
ATOM     50  H   LIG d   1       2.609   2.269  -3.367  0.00  0.00     0.293 HD
ENDBRANCH  42  49
ENDBRANCH  28  31
ENDBRANCH   1  28
TORSDOF 11
ENDMDL
MODEL 4
REMARK VINA RESULT:      -6.2      2.106      3.604
REMARK  11 active torsions:
REMARK  status: ('A' for Active; 'I' for Inactive)
REMARK    1  A    between atoms: C_1  and  C_2 
REMARK    2  A    between atoms: C_2  and  C_3 
REMARK    3  A    between atoms: C_2  and  O_4 
REMARK    4  A    between atoms: O_4  and  C_5 
REMARK    5  A    between atoms: C_5  and  C_6 
REMARK    6  A    between atoms: C_6  and  C_7 
REMARK    7  A    between atoms: C_7  and  N_8 
REMARK       I    between atoms: N_8  and  C_9 
REMARK    8  A    between atoms: C_9  and  C_11 
REMARK    9  A    between atoms: C_11  and  C_12 
REMARK   10  A    between atoms: C_12  and  C_13 
REMARK   11  A    between atoms: C_15  and  O_26 
ROOT
ATOM      1  C   LIG d   1       2.708   0.416  -5.425  0.00  0.00     0.026 C 
ATOM      2  H   LIG d   1       2.799   1.397  -4.956  0.00  0.00     0.036 H 
ATOM      3  H   LIG d   1       1.782  -0.057  -5.102  0.00  0.00     0.036 H 
ENDROOT
BRANCH   1   4
ATOM      4  C   LIG d   1       2.695   0.576  -6.924  0.00  0.00     0.213 C 
ATOM      5  N   LIG d   1       2.842   1.799  -7.472  0.00  0.00    -0.315 N 
ATOM      6  H   LIG d   1       2.956   2.576  -6.902  0.00  0.00     0.149 HD
ATOM      7  O   LIG d   1       2.551  -0.395  -7.636  0.00  0.00    -0.276 OA
BRANCH   5   8
ATOM      8  C   LIG d   1       2.828   1.955  -8.929  0.00  0.00     0.014 C 
ATOM      9  H   LIG d   1       1.961   2.547  -9.223  0.00  0.00     0.046 H 
ATOM     10  H   LIG d   1       2.773   0.972  -9.399  0.00  0.00     0.046 H 
BRANCH   8  11
ATOM     11  C   LIG d   1       4.107   2.664  -9.378  0.00  0.00    -0.014 C 
ATOM     12  H   LIG d   1       4.342   3.467  -8.679  0.00  0.00     0.030 H 
ATOM     13  H   LIG d   1       3.959   3.082 -10.374  0.00  0.00     0.030 H 
BRANCH  11  14
ATOM     14  C   LIG d   1       5.262   1.662  -9.412  0.00  0.00     0.049 C 
ATOM     15  H   LIG d   1       5.981   1.962 -10.174  0.00  0.00     0.056 H 
ATOM     16  H   LIG d   1       4.876   0.670  -9.646  0.00  0.00     0.056 H 
BRANCH  14  17
ATOM     17  O   LIG d   1       5.904   1.634  -8.136  0.00  0.00    -0.377 OA
BRANCH  17  18
ATOM     18  C   LIG d   1       6.559   0.397  -7.842  0.00  0.00     0.053 C 
ATOM     19  H   LIG d   1       6.475   0.187  -6.776  0.00  0.00     0.059 H 
BRANCH  18  20
ATOM     20  C   LIG d   1       5.900  -0.731  -8.639  0.00  0.00    -0.039 C 
ATOM     21  H   LIG d   1       6.578  -1.583  -8.689  0.00  0.00     0.025 H 
ATOM     22  H   LIG d   1       4.974  -1.030  -8.148  0.00  0.00     0.025 H 
ATOM     23  H   LIG d   1       5.680  -0.382  -9.648  0.00  0.00     0.025 H 
ENDBRANCH  18  20
BRANCH  18  24
ATOM     24  C   LIG d   1       8.037   0.499  -8.228  0.00  0.00    -0.039 C 
ATOM     25  H   LIG d   1       8.290  -0.312  -8.909  0.00  0.00     0.025 H 
ATOM     26  H   LIG d   1       8.220   1.456  -8.717  0.00  0.00     0.025 H 
ATOM     27  H   LIG d   1       8.652   0.426  -7.331  0.00  0.00     0.025 H 
ENDBRANCH  18  24
ENDBRANCH  17  18
ENDBRANCH  14  17
ENDBRANCH  11  14
ENDBRANCH   8  11
ENDBRANCH   5   8
ENDBRANCH   1   4
BRANCH   1  28
ATOM     28  C   LIG d   1       3.898  -0.455  -5.017  0.00  0.00    -0.018 C 
ATOM     29  H   LIG d   1       4.113  -1.171  -5.810  0.00  0.00     0.029 H 
ATOM     30  H   LIG d   1       4.770   0.175  -4.849  0.00  0.00     0.029 H 
BRANCH  28  31
ATOM     31  C   LIG d   1       3.559  -1.210  -3.729  0.00  0.00     0.100 C 
ATOM     32  H   LIG d   1       2.559  -1.638  -3.810  0.00  0.00     0.060 H 
ATOM     33  N   LIG d   1       3.609  -0.289  -2.593  0.00  0.00    -0.300 N 
ATOM     34  C   LIG d   1       4.728   0.387  -2.310  0.00  0.00     0.247 C 
ATOM     35  H   LIG d   1       2.822  -0.170  -2.039  0.00  0.00     0.150 HD
ATOM     36  C   LIG d   1       5.960   0.302  -3.102  0.00  0.00     0.062 A 
ATOM     37  O   LIG d   1       4.723   1.116  -1.337  0.00  0.00    -0.270 OA
ATOM     38  C   LIG d   1       6.436  -0.896  -3.650  0.00  0.00     0.080 A 
ATOM     39  C   LIG d   1       6.677   1.488  -3.321  0.00  0.00    -0.048 A 
ATOM     40  N   LIG d   1       5.823  -2.096  -3.475  0.00  0.00    -0.215 NA
ATOM     41  C   LIG d   1       7.610  -0.878  -4.418  0.00  0.00    -0.035 A 
ATOM     42  C   LIG d   1       4.560  -2.308  -3.510  0.00  0.00     0.209 C 
ATOM     43  C   LIG d   1       8.292   0.298  -4.626  0.00  0.00    -0.060 A 
ATOM     44  H   LIG d   1       7.981  -1.795  -4.851  0.00  0.00     0.064 H 
ATOM     45  C   LIG d   1       7.827   1.481  -4.075  0.00  0.00    -0.061 A 
ATOM     46  H   LIG d   1       9.194   0.299  -5.221  0.00  0.00     0.062 H 
ATOM     47  H   LIG d   1       8.370   2.401  -4.237  0.00  0.00     0.062 H 
ATOM     48  H   LIG d   1       6.322   2.416  -2.895  0.00  0.00     0.063 H 
BRANCH  42  49
ATOM     49  O   LIG d   1       4.113  -3.568  -3.343  0.00  0.00    -0.494 OA
ATOM     50  H   LIG d   1       4.610  -4.232  -3.840  0.00  0.00     0.293 HD
ENDBRANCH  42  49
ENDBRANCH  28  31
ENDBRANCH   1  28
TORSDOF 11
ENDMDL
MODEL 5
REMARK VINA RESULT:      -6.0      1.785      2.627
REMARK  11 active torsions:
REMARK  status: ('A' for Active; 'I' for Inactive)
REMARK    1  A    between atoms: C_1  and  C_2 
REMARK    2  A    between atoms: C_2  and  C_3 
REMARK    3  A    between atoms: C_2  and  O_4 
REMARK    4  A    between atoms: O_4  and  C_5 
REMARK    5  A    between atoms: C_5  and  C_6 
REMARK    6  A    between atoms: C_6  and  C_7 
REMARK    7  A    between atoms: C_7  and  N_8 
REMARK       I    between atoms: N_8  and  C_9 
REMARK    8  A    between atoms: C_9  and  C_11 
REMARK    9  A    between atoms: C_11  and  C_12 
REMARK   10  A    between atoms: C_12  and  C_13 
REMARK   11  A    between atoms: C_15  and  O_26 
ROOT
ATOM      1  C   LIG d   1       6.745   0.232  -6.942  0.00  0.00     0.026 C 
ATOM      2  H   LIG d   1       7.650  -0.316  -7.207  0.00  0.00     0.036 H 
ATOM      3  H   LIG d   1       7.017   1.165  -6.450  0.00  0.00     0.036 H 
ENDROOT
BRANCH   1   4
ATOM      4  C   LIG d   1       5.956   0.532  -8.191  0.00  0.00     0.213 C 
ATOM      5  N   LIG d   1       4.943   1.421  -8.149  0.00  0.00    -0.315 N 
ATOM      6  H   LIG d   1       4.722   1.866  -7.316  0.00  0.00     0.149 HD
ATOM      7  O   LIG d   1       6.232  -0.025  -9.231  0.00  0.00    -0.276 OA
BRANCH   5   8
ATOM      8  C   LIG d   1       4.175   1.713  -9.362  0.00  0.00     0.014 C 
ATOM      9  H   LIG d   1       4.455   1.010 -10.147  0.00  0.00     0.046 H 
ATOM     10  H   LIG d   1       4.390   2.730  -9.692  0.00  0.00     0.046 H 
BRANCH   8  11
ATOM     11  C   LIG d   1       2.681   1.577  -9.066  0.00  0.00    -0.014 C 
ATOM     12  H   LIG d   1       2.128   2.322  -9.639  0.00  0.00     0.030 H 
ATOM     13  H   LIG d   1       2.506   1.735  -8.002  0.00  0.00     0.030 H 
BRANCH  11  14
ATOM     14  C   LIG d   1       2.208   0.177  -9.459  0.00  0.00     0.049 C 
ATOM     15  H   LIG d   1       2.540  -0.048 -10.472  0.00  0.00     0.056 H 
ATOM     16  H   LIG d   1       1.119   0.136  -9.415  0.00  0.00     0.056 H 
BRANCH  14  17
ATOM     17  O   LIG d   1       2.756  -0.782  -8.553  0.00  0.00    -0.377 OA
BRANCH  17  18
ATOM     18  C   LIG d   1       3.270  -1.955  -9.189  0.00  0.00     0.053 C 
ATOM     19  H   LIG d   1       4.034  -1.670  -9.913  0.00  0.00     0.059 H 
BRANCH  18  20
ATOM     20  C   LIG d   1       3.885  -2.879  -8.136  0.00  0.00    -0.039 C 
ATOM     21  H   LIG d   1       3.383  -2.724  -7.180  0.00  0.00     0.025 H 
ATOM     22  H   LIG d   1       3.764  -3.916  -8.447  0.00  0.00     0.025 H 
ATOM     23  H   LIG d   1       4.946  -2.652  -8.030  0.00  0.00     0.025 H 
ENDBRANCH  18  20
BRANCH  18  24
ATOM     24  C   LIG d   1       2.133  -2.685  -9.908  0.00  0.00    -0.039 C 
ATOM     25  H   LIG d   1       2.174  -2.460 -10.973  0.00  0.00     0.025 H 
ATOM     26  H   LIG d   1       2.239  -3.760  -9.758  0.00  0.00     0.025 H 
ATOM     27  H   LIG d   1       1.176  -2.355  -9.503  0.00  0.00     0.025 H 
ENDBRANCH  18  24
ENDBRANCH  17  18
ENDBRANCH  14  17
ENDBRANCH  11  14
ENDBRANCH   8  11
ENDBRANCH   5   8
ENDBRANCH   1   4
BRANCH   1  28
ATOM     28  C   LIG d   1       5.894  -0.617  -5.994  0.00  0.00    -0.018 C 
ATOM     29  H   LIG d   1       5.570  -0.006  -5.151  0.00  0.00     0.029 H 
ATOM     30  H   LIG d   1       5.022  -0.994  -6.526  0.00  0.00     0.029 H 
BRANCH  28  31
ATOM     31  C   LIG d   1       6.725  -1.794  -5.479  0.00  0.00     0.100 C 
ATOM     32  H   LIG d   1       7.390  -2.145  -6.269  0.00  0.00     0.060 H 
ATOM     33  N   LIG d   1       5.835  -2.880  -5.066  0.00  0.00    -0.300 N 
ATOM     34  C   LIG d   1       4.904  -2.681  -4.127  0.00  0.00     0.247 C 
ATOM     35  H   LIG d   1       5.924  -3.753  -5.478  0.00  0.00     0.150 HD
ATOM     36  C   LIG d   1       4.667  -1.392  -3.467  0.00  0.00     0.062 A 
ATOM     37  O   LIG d   1       4.211  -3.625  -3.803  0.00  0.00    -0.270 OA
ATOM     38  C   LIG d   1       5.700  -0.527  -3.085  0.00  0.00     0.080 A 
ATOM     39  C   LIG d   1       3.336  -1.019  -3.225  0.00  0.00    -0.048 A 
ATOM     40  N   LIG d   1       7.018  -0.810  -3.260  0.00  0.00    -0.215 NA
ATOM     41  C   LIG d   1       5.379   0.699  -2.484  0.00  0.00    -0.035 A 
ATOM     42  C   LIG d   1       7.540  -1.356  -4.294  0.00  0.00     0.209 C 
ATOM     43  C   LIG d   1       4.067   1.048  -2.263  0.00  0.00    -0.060 A 
ATOM     44  H   LIG d   1       6.169   1.376  -2.193  0.00  0.00     0.064 H 
ATOM     45  C   LIG d   1       3.045   0.187  -2.631  0.00  0.00    -0.061 A 
ATOM     46  H   LIG d   1       3.833   1.996  -1.801  0.00  0.00     0.062 H 
ATOM     47  H   LIG d   1       2.017   0.464  -2.449  0.00  0.00     0.062 H 
ATOM     48  H   LIG d   1       2.533  -1.684  -3.508  0.00  0.00     0.063 H 
BRANCH  42  49
ATOM     49  O   LIG d   1       8.873  -1.545  -4.321  0.00  0.00    -0.494 OA
ATOM     50  H   LIG d   1       9.364  -0.974  -3.714  0.00  0.00     0.293 HD
ENDBRANCH  42  49
ENDBRANCH  28  31
ENDBRANCH   1  28
TORSDOF 11
ENDMDL
MODEL 6
REMARK VINA RESULT:      -5.9      1.903      3.183
REMARK  11 active torsions:
REMARK  status: ('A' for Active; 'I' for Inactive)
REMARK    1  A    between atoms: C_1  and  C_2 
REMARK    2  A    between atoms: C_2  and  C_3 
REMARK    3  A    between atoms: C_2  and  O_4 
REMARK    4  A    between atoms: O_4  and  C_5 
REMARK    5  A    between atoms: C_5  and  C_6 
REMARK    6  A    between atoms: C_6  and  C_7 
REMARK    7  A    between atoms: C_7  and  N_8 
REMARK       I    between atoms: N_8  and  C_9 
REMARK    8  A    between atoms: C_9  and  C_11 
REMARK    9  A    between atoms: C_11  and  C_12 
REMARK   10  A    between atoms: C_12  and  C_13 
REMARK   11  A    between atoms: C_15  and  O_26 
ROOT
ATOM      1  C   LIG d   1       5.984  -0.194  -7.498  0.00  0.00     0.026 C 
ATOM      2  H   LIG d   1       7.056  -0.132  -7.691  0.00  0.00     0.036 H 
ATOM      3  H   LIG d   1       5.509   0.744  -7.782  0.00  0.00     0.036 H 
ENDROOT
BRANCH   1   4
ATOM      4  C   LIG d   1       5.393  -1.321  -8.306  0.00  0.00     0.213 C 
ATOM      5  N   LIG d   1       4.080  -1.609  -8.199  0.00  0.00    -0.315 N 
ATOM      6  H   LIG d   1       3.516  -1.091  -7.602  0.00  0.00     0.149 HD
ATOM      7  O   LIG d   1       6.097  -1.968  -9.051  0.00  0.00    -0.276 OA
BRANCH   5   8
ATOM      8  C   LIG d   1       3.504  -2.705  -8.983  0.00  0.00     0.014 C 
ATOM      9  H   LIG d   1       3.231  -3.524  -8.317  0.00  0.00     0.046 H 
ATOM     10  H   LIG d   1       4.238  -3.056  -9.709  0.00  0.00     0.046 H 
BRANCH   8  11
ATOM     11  C   LIG d   1       2.258  -2.207  -9.716  0.00  0.00    -0.014 C 
ATOM     12  H   LIG d   1       1.429  -2.128  -9.012  0.00  0.00     0.030 H 
ATOM     13  H   LIG d   1       1.996  -2.911 -10.506  0.00  0.00     0.030 H 
BRANCH  11  14
ATOM     14  C   LIG d   1       2.540  -0.835 -10.329  0.00  0.00     0.049 C 
ATOM     15  H   LIG d   1       1.998  -0.739 -11.270  0.00  0.00     0.056 H 
ATOM     16  H   LIG d   1       3.609  -0.731 -10.513  0.00  0.00     0.056 H 
BRANCH  14  17
ATOM     17  O   LIG d   1       2.111   0.187  -9.426  0.00  0.00    -0.377 OA
BRANCH  17  18
ATOM     18  C   LIG d   1       2.700   1.466  -9.674  0.00  0.00     0.053 C 
ATOM     19  H   LIG d   1       1.988   2.096 -10.206  0.00  0.00     0.059 H 
BRANCH  18  20
ATOM     20  C   LIG d   1       3.069   2.123  -8.342  0.00  0.00    -0.039 C 
ATOM     21  H   LIG d   1       3.197   3.196  -8.490  0.00  0.00     0.025 H 
ATOM     22  H   LIG d   1       2.275   1.948  -7.618  0.00  0.00     0.025 H 
ATOM     23  H   LIG d   1       4.001   1.694  -7.972  0.00  0.00     0.025 H 
ENDBRANCH  18  20
BRANCH  18  24
ATOM     24  C   LIG d   1       3.961   1.291 -10.524  0.00  0.00    -0.039 C 
ATOM     25  H   LIG d   1       4.058   2.134 -11.206  0.00  0.00     0.025 H 
ATOM     26  H   LIG d   1       4.835   1.246  -9.873  0.00  0.00     0.025 H 
ATOM     27  H   LIG d   1       3.888   0.366 -11.096  0.00  0.00     0.025 H 
ENDBRANCH  18  24
ENDBRANCH  17  18
ENDBRANCH  14  17
ENDBRANCH  11  14
ENDBRANCH   8  11
ENDBRANCH   5   8
ENDBRANCH   1   4
BRANCH   1  28
ATOM     28  C   LIG d   1       5.749  -0.456  -6.009  0.00  0.00    -0.018 C 
ATOM     29  H   LIG d   1       5.996   0.439  -5.439  0.00  0.00     0.029 H 
ATOM     30  H   LIG d   1       4.703  -0.715  -5.846  0.00  0.00     0.029 H 
BRANCH  28  31
ATOM     31  C   LIG d   1       6.638  -1.614  -5.549  0.00  0.00     0.100 C 
ATOM     32  H   LIG d   1       7.287  -1.924  -6.369  0.00  0.00     0.060 H 
ATOM     33  N   LIG d   1       5.800  -2.740  -5.133  0.00  0.00    -0.300 N 
ATOM     34  C   LIG d   1       4.895  -2.596  -4.160  0.00  0.00     0.247 C 
ATOM     35  H   LIG d   1       5.907  -3.601  -5.568  0.00  0.00     0.150 HD
ATOM     36  C   LIG d   1       4.635  -1.331  -3.463  0.00  0.00     0.062 A 
ATOM     37  O   LIG d   1       4.247  -3.571  -3.834  0.00  0.00    -0.270 OA
ATOM     38  C   LIG d   1       5.650  -0.438  -3.095  0.00  0.00     0.080 A 
ATOM     39  C   LIG d   1       3.301  -1.011  -3.168  0.00  0.00    -0.048 A 
ATOM     40  N   LIG d   1       6.970  -0.670  -3.319  0.00  0.00    -0.215 NA
ATOM     41  C   LIG d   1       5.306   0.762  -2.455  0.00  0.00    -0.035 A 
ATOM     42  C   LIG d   1       7.475  -1.173  -4.382  0.00  0.00     0.209 C 
ATOM     43  C   LIG d   1       3.990   1.059  -2.183  0.00  0.00    -0.060 A 
ATOM     44  H   LIG d   1       6.080   1.461  -2.175  0.00  0.00     0.064 H 
ATOM     45  C   LIG d   1       2.988   0.169  -2.537  0.00  0.00    -0.061 A 
ATOM     46  H   LIG d   1       3.738   1.987  -1.691  0.00  0.00     0.062 H 
ATOM     47  H   LIG d   1       1.957   0.405  -2.316  0.00  0.00     0.062 H 
ATOM     48  H   LIG d   1       2.512  -1.699  -3.440  0.00  0.00     0.063 H 
BRANCH  42  49
ATOM     49  O   LIG d   1       8.813  -1.313  -4.456  0.00  0.00    -0.494 OA
ATOM     50  H   LIG d   1       9.161  -2.054  -3.941  0.00  0.00     0.293 HD
ENDBRANCH  42  49
ENDBRANCH  28  31
ENDBRANCH   1  28
TORSDOF 11
ENDMDL
MODEL 7
REMARK VINA RESULT:      -5.8      1.514      2.057
REMARK  11 active torsions:
REMARK  status: ('A' for Active; 'I' for Inactive)
REMARK    1  A    between atoms: C_1  and  C_2 
REMARK    2  A    between atoms: C_2  and  C_3 
REMARK    3  A    between atoms: C_2  and  O_4 
REMARK    4  A    between atoms: O_4  and  C_5 
REMARK    5  A    between atoms: C_5  and  C_6 
REMARK    6  A    between atoms: C_6  and  C_7 
REMARK    7  A    between atoms: C_7  and  N_8 
REMARK       I    between atoms: N_8  and  C_9 
REMARK    8  A    between atoms: C_9  and  C_11 
REMARK    9  A    between atoms: C_11  and  C_12 
REMARK   10  A    between atoms: C_12  and  C_13 
REMARK   11  A    between atoms: C_15  and  O_26 
ROOT
ATOM      1  C   LIG d   1       7.551  -1.767  -5.692  0.00  0.00     0.026 C 
ATOM      2  H   LIG d   1       7.404  -2.764  -6.109  0.00  0.00     0.036 H 
ATOM      3  H   LIG d   1       8.161  -1.836  -4.792  0.00  0.00     0.036 H 
ENDROOT
BRANCH   1   4
ATOM      4  C   LIG d   1       8.247  -0.897  -6.707  0.00  0.00     0.213 C 
ATOM      5  N   LIG d   1       7.629  -0.588  -7.865  0.00  0.00    -0.315 N 
ATOM      6  H   LIG d   1       6.738  -0.926  -8.045  0.00  0.00     0.149 HD
ATOM      7  O   LIG d   1       9.361  -0.474  -6.481  0.00  0.00    -0.276 OA
BRANCH   5   8
ATOM      8  C   LIG d   1       8.305   0.258  -8.851  0.00  0.00     0.014 C 
ATOM      9  H   LIG d   1       8.770  -0.370  -9.612  0.00  0.00     0.046 H 
ATOM     10  H   LIG d   1       9.072   0.854  -8.355  0.00  0.00     0.046 H 
BRANCH   8  11
ATOM     11  C   LIG d   1       7.285   1.187  -9.512  0.00  0.00    -0.014 C 
ATOM     12  H   LIG d   1       6.940   0.742 -10.446  0.00  0.00     0.030 H 
ATOM     13  H   LIG d   1       7.751   2.150  -9.719  0.00  0.00     0.030 H 
BRANCH  11  14
ATOM     14  C   LIG d   1       6.095   1.388  -8.573  0.00  0.00     0.049 C 
ATOM     15  H   LIG d   1       5.720   2.407  -8.673  0.00  0.00     0.056 H 
ATOM     16  H   LIG d   1       6.410   1.216  -7.543  0.00  0.00     0.056 H 
BRANCH  14  17
ATOM     17  O   LIG d   1       5.059   0.464  -8.913  0.00  0.00    -0.377 OA
BRANCH  17  18
ATOM     18  C   LIG d   1       3.898   1.075  -9.481  0.00  0.00     0.053 C 
ATOM     19  H   LIG d   1       3.004   0.611  -9.066  0.00  0.00     0.059 H 
BRANCH  18  20
ATOM     20  C   LIG d   1       3.896   2.570  -9.153  0.00  0.00    -0.039 C 
ATOM     21  H   LIG d   1       2.902   2.980  -9.334  0.00  0.00     0.025 H 
ATOM     22  H   LIG d   1       4.164   2.713  -8.106  0.00  0.00     0.025 H 
ATOM     23  H   LIG d   1       4.621   3.081  -9.787  0.00  0.00     0.025 H 
ENDBRANCH  18  20
BRANCH  18  24
ATOM     24  C   LIG d   1       3.915   0.886 -11.000  0.00  0.00    -0.039 C 
ATOM     25  H   LIG d   1       3.086   0.243 -11.294  0.00  0.00     0.025 H 
ATOM     26  H   LIG d   1       3.815   1.856 -11.488  0.00  0.00     0.025 H 
ATOM     27  H   LIG d   1       4.856   0.425 -11.298  0.00  0.00     0.025 H 
ENDBRANCH  18  24
ENDBRANCH  17  18
ENDBRANCH  14  17
ENDBRANCH  11  14
ENDBRANCH   8  11
ENDBRANCH   5   8
ENDBRANCH   1   4
BRANCH   1  28
ATOM     28  C   LIG d   1       6.192  -1.156  -5.342  0.00  0.00    -0.018 C 
ATOM     29  H   LIG d   1       6.071  -1.136  -4.259  0.00  0.00     0.029 H 
ATOM     30  H   LIG d   1       6.138  -0.141  -5.734  0.00  0.00     0.029 H 
BRANCH  28  31
ATOM     31  C   LIG d   1       5.078  -2.001  -5.964  0.00  0.00     0.100 C 
ATOM     32  H   LIG d   1       5.479  -2.580  -6.797  0.00  0.00     0.060 H 
ATOM     33  N   LIG d   1       4.008  -1.126  -6.444  0.00  0.00    -0.300 N 
ATOM     34  C   LIG d   1       3.380  -0.292  -5.608  0.00  0.00     0.247 C 
ATOM     35  H   LIG d   1       3.751  -1.154  -7.378  0.00  0.00     0.150 HD
ATOM     36  C   LIG d   1       3.713  -0.151  -4.186  0.00  0.00     0.062 A 
ATOM     37  O   LIG d   1       2.479   0.391  -6.054  0.00  0.00    -0.270 OA
ATOM     38  C   LIG d   1       4.048  -1.238  -3.368  0.00  0.00     0.080 A 
ATOM     39  C   LIG d   1       3.704   1.141  -3.639  0.00  0.00    -0.048 A 
ATOM     40  N   LIG d   1       4.065  -2.525  -3.801  0.00  0.00    -0.215 NA
ATOM     41  C   LIG d   1       4.381  -1.005  -2.024  0.00  0.00    -0.035 A 
ATOM     42  C   LIG d   1       4.516  -2.934  -4.928  0.00  0.00     0.209 C 
ATOM     43  C   LIG d   1       4.372   0.271  -1.511  0.00  0.00    -0.060 A 
ATOM     44  H   LIG d   1       4.648  -1.836  -1.387  0.00  0.00     0.064 H 
ATOM     45  C   LIG d   1       4.029   1.344  -2.319  0.00  0.00    -0.061 A 
ATOM     46  H   LIG d   1       4.631   0.437  -0.476  0.00  0.00     0.062 H 
ATOM     47  H   LIG d   1       4.018   2.344  -1.909  0.00  0.00     0.062 H 
ATOM     48  H   LIG d   1       3.438   1.984  -4.261  0.00  0.00     0.063 H 
BRANCH  42  49
ATOM     49  O   LIG d   1       4.484  -4.254  -5.195  0.00  0.00    -0.494 OA
ATOM     50  H   LIG d   1       5.283  -4.588  -5.625  0.00  0.00     0.293 HD
ENDBRANCH  42  49
ENDBRANCH  28  31
ENDBRANCH   1  28
TORSDOF 11
ENDMDL
MODEL 8
REMARK VINA RESULT:      -5.8      1.895      3.041
REMARK  11 active torsions:
REMARK  status: ('A' for Active; 'I' for Inactive)
REMARK    1  A    between atoms: C_1  and  C_2 
REMARK    2  A    between atoms: C_2  and  C_3 
REMARK    3  A    between atoms: C_2  and  O_4 
REMARK    4  A    between atoms: O_4  and  C_5 
REMARK    5  A    between atoms: C_5  and  C_6 
REMARK    6  A    between atoms: C_6  and  C_7 
REMARK    7  A    between atoms: C_7  and  N_8 
REMARK       I    between atoms: N_8  and  C_9 
REMARK    8  A    between atoms: C_9  and  C_11 
REMARK    9  A    between atoms: C_11  and  C_12 
REMARK   10  A    between atoms: C_12  and  C_13 
REMARK   11  A    between atoms: C_15  and  O_26 
ROOT
ATOM      1  C   LIG d   1       2.464   0.167  -7.203  0.00  0.00     0.026 C 
ATOM      2  H   LIG d   1       1.622   0.708  -6.770  0.00  0.00     0.036 H 
ATOM      3  H   LIG d   1       2.112  -0.772  -7.629  0.00  0.00     0.036 H 
ENDROOT
BRANCH   1   4
ATOM      4  C   LIG d   1       3.096   1.005  -8.285  0.00  0.00     0.213 C 
ATOM      5  N   LIG d   1       3.478   0.431  -9.444  0.00  0.00    -0.315 N 
ATOM      6  H   LIG d   1       3.346  -0.520  -9.581  0.00  0.00     0.149 HD
ATOM      7  O   LIG d   1       3.261   2.194  -8.113  0.00  0.00    -0.276 OA
BRANCH   5   8
ATOM      8  C   LIG d   1       4.092   1.245 -10.495  0.00  0.00     0.014 C 
ATOM      9  H   LIG d   1       5.094   1.543 -10.186  0.00  0.00     0.046 H 
ATOM     10  H   LIG d   1       3.486   2.135 -10.668  0.00  0.00     0.046 H 
BRANCH   8  11
ATOM     11  C   LIG d   1       4.179   0.429 -11.786  0.00  0.00    -0.014 C 
ATOM     12  H   LIG d   1       4.959   0.844 -12.426  0.00  0.00     0.030 H 
ATOM     13  H   LIG d   1       3.223   0.470 -12.307  0.00  0.00     0.030 H 
BRANCH  11  14
ATOM     14  C   LIG d   1       4.516  -1.025 -11.450  0.00  0.00     0.049 C 
ATOM     15  H   LIG d   1       4.985  -1.071 -10.467  0.00  0.00     0.056 H 
ATOM     16  H   LIG d   1       5.200  -1.422 -12.199  0.00  0.00     0.056 H 
BRANCH  14  17
ATOM     17  O   LIG d   1       3.316  -1.801 -11.442  0.00  0.00    -0.377 OA
BRANCH  17  18
ATOM     18  C   LIG d   1       2.355  -1.396 -12.419  0.00  0.00     0.053 C 
ATOM     19  H   LIG d   1       2.625  -0.414 -12.809  0.00  0.00     0.059 H 
BRANCH  18  20
ATOM     20  C   LIG d   1       2.332  -2.411 -13.564  0.00  0.00    -0.039 C 
ATOM     21  H   LIG d   1       3.228  -3.031 -13.517  0.00  0.00     0.025 H 
ATOM     22  H   LIG d   1       1.448  -3.042 -13.473  0.00  0.00     0.025 H 
ATOM     23  H   LIG d   1       2.305  -1.883 -14.516  0.00  0.00     0.025 H 
ENDBRANCH  18  20
BRANCH  18  24
ATOM     24  C   LIG d   1       0.970  -1.325 -11.772  0.00  0.00    -0.039 C 
ATOM     25  H   LIG d   1       1.050  -1.571 -10.714  0.00  0.00     0.025 H 
ATOM     26  H   LIG d   1       0.569  -0.317 -11.882  0.00  0.00     0.025 H 
ATOM     27  H   LIG d   1       0.303  -2.036 -12.261  0.00  0.00     0.025 H 
ENDBRANCH  18  24
ENDBRANCH  17  18
ENDBRANCH  14  17
ENDBRANCH  11  14
ENDBRANCH   8  11
ENDBRANCH   5   8
ENDBRANCH   1   4
BRANCH   1  28
ATOM     28  C   LIG d   1       3.498  -0.122  -6.113  0.00  0.00    -0.018 C 
ATOM     29  H   LIG d   1       4.000   0.805  -5.834  0.00  0.00     0.029 H 
ATOM     30  H   LIG d   1       3.000  -0.543  -5.241  0.00  0.00     0.029 H 
BRANCH  28  31
ATOM     31  C   LIG d   1       4.531  -1.120  -6.642  0.00  0.00     0.100 C 
ATOM     32  H   LIG d   1       4.375  -1.274  -7.711  0.00  0.00     0.060 H 
ATOM     33  N   LIG d   1       4.387  -2.394  -5.936  0.00  0.00    -0.300 N 
ATOM     34  C   LIG d   1       4.503  -2.455  -4.606  0.00  0.00     0.247 C 
ATOM     35  H   LIG d   1       4.209  -3.203  -6.441  0.00  0.00     0.150 HD
ATOM     36  C   LIG d   1       4.740  -1.288  -3.749  0.00  0.00     0.062 A 
ATOM     37  O   LIG d   1       4.404  -3.543  -4.074  0.00  0.00    -0.270 OA
ATOM     38  C   LIG d   1       5.605  -0.244  -4.101  0.00  0.00     0.080 A 
ATOM     39  C   LIG d   1       4.050  -1.224  -2.528  0.00  0.00    -0.048 A 
ATOM     40  N   LIG d   1       6.330  -0.226  -5.250  0.00  0.00    -0.215 NA
ATOM     41  C   LIG d   1       5.750   0.848  -3.231  0.00  0.00    -0.035 A 
ATOM     42  C   LIG d   1       5.915  -0.586  -6.407  0.00  0.00     0.209 C 
ATOM     43  C   LIG d   1       5.058   0.893  -2.043  0.00  0.00    -0.060 A 
ATOM     44  H   LIG d   1       6.408   1.661  -3.497  0.00  0.00     0.064 H 
ATOM     45  C   LIG d   1       4.211  -0.146  -1.690  0.00  0.00    -0.061 A 
ATOM     46  H   LIG d   1       5.177   1.739  -1.382  0.00  0.00     0.062 H 
ATOM     47  H   LIG d   1       3.674  -0.108  -0.753  0.00  0.00     0.062 H 
ATOM     48  H   LIG d   1       3.388  -2.029  -2.244  0.00  0.00     0.063 H 
BRANCH  42  49
ATOM     49  O   LIG d   1       6.755  -0.482  -7.455  0.00  0.00    -0.494 OA
ATOM     50  H   LIG d   1       7.662  -0.252  -7.211  0.00  0.00     0.293 HD
ENDBRANCH  42  49
ENDBRANCH  28  31
ENDBRANCH   1  28
TORSDOF 11
ENDMDL
MODEL 9
REMARK VINA RESULT:      -5.7      1.884      6.358
REMARK  11 active torsions:
REMARK  status: ('A' for Active; 'I' for Inactive)
REMARK    1  A    between atoms: C_1  and  C_2 
REMARK    2  A    between atoms: C_2  and  C_3 
REMARK    3  A    between atoms: C_2  and  O_4 
REMARK    4  A    between atoms: O_4  and  C_5 
REMARK    5  A    between atoms: C_5  and  C_6 
REMARK    6  A    between atoms: C_6  and  C_7 
REMARK    7  A    between atoms: C_7  and  N_8 
REMARK       I    between atoms: N_8  and  C_9 
REMARK    8  A    between atoms: C_9  and  C_11 
REMARK    9  A    between atoms: C_11  and  C_12 
REMARK   10  A    between atoms: C_12  and  C_13 
REMARK   11  A    between atoms: C_15  and  O_26 
ROOT
ATOM      1  C   LIG d   1       2.733   0.728  -6.036  0.00  0.00     0.026 C 
ATOM      2  H   LIG d   1       1.667   0.815  -6.251  0.00  0.00     0.036 H 
ATOM      3  H   LIG d   1       3.233   1.660  -6.297  0.00  0.00     0.036 H 
ENDROOT
BRANCH   1   4
ATOM      4  C   LIG d   1       2.929   0.447  -4.568  0.00  0.00     0.213 C 
ATOM      5  N   LIG d   1       2.714  -0.793  -4.086  0.00  0.00    -0.315 N 
ATOM      6  H   LIG d   1       2.433  -1.505  -4.684  0.00  0.00     0.149 HD
ATOM      7  O   LIG d   1       3.279   1.336  -3.822  0.00  0.00    -0.276 OA
BRANCH   5   8
ATOM      8  C   LIG d   1       2.903  -1.068  -2.660  0.00  0.00     0.014 C 
ATOM      9  H   LIG d   1       2.000  -1.524  -2.254  0.00  0.00     0.046 H 
ATOM     10  H   LIG d   1       3.105  -0.134  -2.134  0.00  0.00     0.046 H 
BRANCH   8  11
ATOM     11  C   LIG d   1       4.084  -2.023  -2.476  0.00  0.00    -0.014 C 
ATOM     12  H   LIG d   1       3.833  -2.769  -1.722  0.00  0.00     0.030 H 
ATOM     13  H   LIG d   1       4.959  -1.460  -2.152  0.00  0.00     0.030 H 
BRANCH  11  14
ATOM     14  C   LIG d   1       4.387  -2.721  -3.803  0.00  0.00     0.049 C 
ATOM     15  H   LIG d   1       3.503  -2.690  -4.440  0.00  0.00     0.056 H 
ATOM     16  H   LIG d   1       4.662  -3.759  -3.613  0.00  0.00     0.056 H 
BRANCH  14  17
ATOM     17  O   LIG d   1       5.468  -2.054  -4.455  0.00  0.00    -0.377 OA
BRANCH  17  18
ATOM     18  C   LIG d   1       6.494  -1.602  -3.568  0.00  0.00     0.053 C 
ATOM     19  H   LIG d   1       6.126  -1.636  -2.542  0.00  0.00     0.059 H 
BRANCH  18  20
ATOM     20  C   LIG d   1       7.720  -2.507  -3.701  0.00  0.00    -0.039 C 
ATOM     21  H   LIG d   1       7.824  -3.113  -2.801  0.00  0.00     0.025 H 
ATOM     22  H   LIG d   1       7.598  -3.159  -4.566  0.00  0.00     0.025 H 
ATOM     23  H   LIG d   1       8.611  -1.894  -3.831  0.00  0.00     0.025 H 
ENDBRANCH  18  20
BRANCH  18  24
ATOM     24  C   LIG d   1       6.879  -0.164  -3.923  0.00  0.00    -0.039 C 
ATOM     25  H   LIG d   1       7.022   0.410  -3.009  0.00  0.00     0.025 H 
ATOM     26  H   LIG d   1       7.805  -0.168  -4.499  0.00  0.00     0.025 H 
ATOM     27  H   LIG d   1       6.085   0.289  -4.517  0.00  0.00     0.025 H 
ENDBRANCH  18  24
ENDBRANCH  17  18
ENDBRANCH  14  17
ENDBRANCH  11  14
ENDBRANCH   8  11
ENDBRANCH   5   8
ENDBRANCH   1   4
BRANCH   1  28
ATOM     28  C   LIG d   1       3.326  -0.418  -6.858  0.00  0.00    -0.018 C 
ATOM     29  H   LIG d   1       3.326  -1.331  -6.261  0.00  0.00     0.029 H 
ATOM     30  H   LIG d   1       2.728  -0.570  -7.756  0.00  0.00     0.029 H 
BRANCH  28  31
ATOM     31  C   LIG d   1       4.763  -0.071  -7.255  0.00  0.00     0.100 C 
ATOM     32  H   LIG d   1       5.307   0.286  -6.380  0.00  0.00     0.060 H 
ATOM     33  N   LIG d   1       4.749   0.970  -8.284  0.00  0.00    -0.300 N 
ATOM     34  C   LIG d   1       4.111   0.777  -9.443  0.00  0.00     0.247 C 
ATOM     35  H   LIG d   1       5.211   1.807  -8.122  0.00  0.00     0.150 HD
ATOM     36  C   LIG d   1       3.357  -0.438  -9.772  0.00  0.00     0.062 A 
ATOM     37  O   LIG d   1       4.156   1.664 -10.273  0.00  0.00    -0.270 OA
ATOM     38  C   LIG d   1       3.791  -1.724  -9.424  0.00  0.00     0.080 A 
ATOM     39  C   LIG d   1       2.142  -0.286 -10.457  0.00  0.00    -0.048 A 
ATOM     40  N   LIG d   1       4.960  -1.972  -8.779  0.00  0.00    -0.215 NA
ATOM     41  C   LIG d   1       2.991  -2.828  -9.756  0.00  0.00    -0.035 A 
ATOM     42  C   LIG d   1       5.443  -1.292  -7.807  0.00  0.00     0.209 C 
ATOM     43  C   LIG d   1       1.799  -2.655 -10.421  0.00  0.00    -0.060 A 
ATOM     44  H   LIG d   1       3.312  -3.823  -9.485  0.00  0.00     0.064 H 
ATOM     45  C   LIG d   1       1.377  -1.383 -10.775  0.00  0.00    -0.061 A 
ATOM     46  H   LIG d   1       1.192  -3.513 -10.669  0.00  0.00     0.062 H 
ATOM     47  H   LIG d   1       0.443  -1.254 -11.302  0.00  0.00     0.062 H 
ATOM     48  H   LIG d   1       1.805   0.702 -10.737  0.00  0.00     0.063 H 
BRANCH  42  49
ATOM     49  O   LIG d   1       6.607  -1.688  -7.257  0.00  0.00    -0.494 OA
ATOM     50  H   LIG d   1       7.063  -2.380  -7.756  0.00  0.00     0.293 HD
ENDBRANCH  42  49
ENDBRANCH  28  31
ENDBRANCH   1  28
TORSDOF 11
ENDMDL
