MODEL 1
REMARK VINA RESULT:      -6.3      0.000      0.000
REMARK  7 active torsions:
REMARK  status: ('A' for Active; 'I' for Inactive)
REMARK    1  A    between atoms: C_1  and  C_2 
REMARK    2  A    between atoms: C_2  and  C_3 
REMARK    3  A    between atoms: C_2  and  C_4 
REMARK    4  A    between atoms: C_8  and  O_11 
REMARK    5  A    between atoms: C_9  and  O_10 
REMARK    6  A    between atoms: C_16  and  C_26 
REMARK    7  A    between atoms: C_16  and  C_27 
ROOT
ATOM      1  C   LIG d   1       8.467   1.265  -7.076  0.00  0.00     0.001 A 
ATOM      2  C   LIG d   1       7.449   0.374  -7.345  0.00  0.00    -0.044 A 
ATOM      3  C   LIG d   1       6.574  -0.001  -6.325  0.00  0.00     0.029 A 
ATOM      4  C   LIG d   1       6.732   0.523  -5.034  0.00  0.00     0.025 A 
ATOM      5  C   LIG d   1       7.749   1.413  -4.773  0.00  0.00     0.164 A 
ATOM      6  C   LIG d   1       8.624   1.782  -5.797  0.00  0.00     0.162 A 
ATOM      7  C   LIG d   1       5.775   0.092  -3.950  0.00  0.00     0.104 C 
ATOM      8  C   LIG d   1       5.804   1.016  -2.763  0.00  0.00    -0.033 C 
ATOM      9  C   LIG d   1       4.762   0.613  -1.718  0.00  0.00    -0.051 C 
ATOM     10  C   LIG d   1       3.379   0.643  -2.375  0.00  0.00    -0.047 C 
ATOM     11  C   LIG d   1       3.344  -0.395  -3.497  0.00  0.00    -0.027 C 
ATOM     12  C   LIG d   1       4.369  -0.052  -4.578  0.00  0.00     0.029 C 
ATOM     13  H   LIG d   1       4.078   0.799  -5.192  0.00  0.00     0.036 H 
ATOM     14  C   LIG d   1       4.636  -1.372  -5.378  0.00  0.00     0.170 C 
ATOM     15  H   LIG d   1       3.719  -1.895  -5.650  0.00  0.00     0.082 H 
ATOM     16  C   LIG d   1       5.471  -0.948  -6.577  0.00  0.00     0.204 C 
ATOM     17  O   LIG d   1       5.240  -1.369  -7.691  0.00  0.00    -0.288 OA
ATOM     18  O   LIG d   1       5.474  -2.137  -4.494  0.00  0.00    -0.452 OA
ATOM     19  C   LIG d   1       6.104  -1.348  -3.601  0.00  0.00     0.319 C 
ATOM     20  O   LIG d   1       6.804  -1.718  -2.689  0.00  0.00    -0.250 OA
ATOM     21  H   LIG d   1       7.329  -0.030  -8.339  0.00  0.00     0.063 H 
ATOM     22  H   LIG d   1       6.795   0.983  -2.310  0.00  0.00     0.028 H 
ATOM     23  H   LIG d   1       5.600   2.032  -3.098  0.00  0.00     0.028 H 
ATOM     24  H   LIG d   1       4.976  -0.393  -1.358  0.00  0.00     0.027 H 
ATOM     25  H   LIG d   1       4.787   1.317  -0.887  0.00  0.00     0.027 H 
ATOM     26  H   LIG d   1       2.617   0.404  -1.634  0.00  0.00     0.027 H 
ATOM     27  H   LIG d   1       3.191   1.633  -2.790  0.00  0.00     0.027 H 
ENDROOT
BRANCH   1  28
ATOM     28  C   LIG d   1       9.416   1.674  -8.174  0.00  0.00    -0.018 C 
ATOM     29  H   LIG d   1      10.267   2.199  -7.741  0.00  0.00     0.035 H 
BRANCH  28  30
ATOM     30  C   LIG d   1       9.906   0.428  -8.914  0.00  0.00    -0.059 C 
ATOM     31  H   LIG d   1      10.632   0.719  -9.672  0.00  0.00     0.024 H 
ATOM     32  H   LIG d   1      10.376  -0.254  -8.205  0.00  0.00     0.024 H 
ATOM     33  H   LIG d   1       9.062  -0.068  -9.391  0.00  0.00     0.024 H 
ENDBRANCH  28  30
BRANCH  28  34
ATOM     34  C   LIG d   1       8.691   2.597  -9.155  0.00  0.00    -0.059 C 
ATOM     35  H   LIG d   1       9.043   2.399 -10.168  0.00  0.00     0.024 H 
ATOM     36  H   LIG d   1       7.618   2.417  -9.102  0.00  0.00     0.024 H 
ATOM     37  H   LIG d   1       8.897   3.637  -8.896  0.00  0.00     0.024 H 
ENDBRANCH  28  34
ENDBRANCH   1  28
BRANCH   6  38
ATOM     38  O   LIG d   1       9.632   2.655  -5.541  0.00  0.00    -0.503 OA
ATOM     39  H   LIG d   1      10.506   2.244  -5.499  0.00  0.00     0.292 HD
ENDBRANCH   6  38
BRANCH   5  40
ATOM     40  O   LIG d   1       7.904   1.926  -3.523  0.00  0.00    -0.503 OA
ATOM     41  H   LIG d   1       8.138   1.268  -2.854  0.00  0.00     0.292 HD
ENDBRANCH   5  40
BRANCH  11  42
ATOM     42  C   LIG d   1       3.662  -1.774  -2.918  0.00  0.00    -0.059 C 
ATOM     43  H   LIG d   1       4.695  -1.792  -2.567  0.00  0.00     0.024 H 
ATOM     44  H   LIG d   1       2.992  -1.982  -2.084  0.00  0.00     0.024 H 
ATOM     45  H   LIG d   1       3.529  -2.532  -3.691  0.00  0.00     0.024 H 
ENDBRANCH  11  42
BRANCH  11  46
ATOM     46  C   LIG d   1       1.946  -0.420  -4.117  0.00  0.00    -0.059 C 
ATOM     47  H   LIG d   1       1.755   0.528  -4.623  0.00  0.00     0.024 H 
ATOM     48  H   LIG d   1       1.882  -1.235  -4.837  0.00  0.00     0.024 H 
ATOM     49  H   LIG d   1       1.203  -0.567  -3.333  0.00  0.00     0.024 H 
ENDBRANCH  11  46
TORSDOF 7
ENDMDL
MODEL 2
REMARK VINA RESULT:      -6.3      3.087      4.398
REMARK  7 active torsions:
REMARK  status: ('A' for Active; 'I' for Inactive)
REMARK    1  A    between atoms: C_1  and  C_2 
REMARK    2  A    between atoms: C_2  and  C_3 
REMARK    3  A    between atoms: C_2  and  C_4 
REMARK    4  A    between atoms: C_8  and  O_11 
REMARK    5  A    between atoms: C_9  and  O_10 
REMARK    6  A    between atoms: C_16  and  C_26 
REMARK    7  A    between atoms: C_16  and  C_27 
ROOT
ATOM      1  C   LIG d   1       3.667  -0.571  -8.912  0.00  0.00     0.001 A 
ATOM      2  C   LIG d   1       2.925  -0.158  -7.825  0.00  0.00    -0.044 A 
ATOM      3  C   LIG d   1       3.401  -0.397  -6.536  0.00  0.00     0.029 A 
ATOM      4  C   LIG d   1       4.626  -1.055  -6.348  0.00  0.00     0.025 A 
ATOM      5  C   LIG d   1       5.361  -1.462  -7.438  0.00  0.00     0.164 A 
ATOM      6  C   LIG d   1       4.878  -1.224  -8.726  0.00  0.00     0.162 A 
ATOM      7  C   LIG d   1       5.110  -1.306  -4.941  0.00  0.00     0.104 C 
ATOM      8  C   LIG d   1       6.577  -1.634  -4.894  0.00  0.00    -0.033 C 
ATOM      9  C   LIG d   1       7.066  -1.794  -3.453  0.00  0.00    -0.051 C 
ATOM     10  C   LIG d   1       6.793  -0.488  -2.700  0.00  0.00    -0.047 C 
ATOM     11  C   LIG d   1       5.285  -0.247  -2.660  0.00  0.00    -0.027 C 
ATOM     12  C   LIG d   1       4.729  -0.083  -4.075  0.00  0.00     0.029 C 
ATOM     13  H   LIG d   1       4.991   0.871  -4.531  0.00  0.00     0.036 H 
ATOM     14  C   LIG d   1       3.191  -0.364  -3.989  0.00  0.00     0.170 C 
ATOM     15  H   LIG d   1       2.711   0.153  -3.157  0.00  0.00     0.082 H 
ATOM     16  C   LIG d   1       2.637   0.034  -5.349  0.00  0.00     0.204 C 
ATOM     17  O   LIG d   1       1.614   0.676  -5.454  0.00  0.00    -0.288 OA
ATOM     18  O   LIG d   1       3.117  -1.796  -3.873  0.00  0.00    -0.452 OA
ATOM     19  C   LIG d   1       4.231  -2.390  -4.345  0.00  0.00     0.319 C 
ATOM     20  O   LIG d   1       4.484  -3.570  -4.303  0.00  0.00    -0.250 OA
ATOM     21  H   LIG d   1       1.982   0.347  -7.971  0.00  0.00     0.063 H 
ATOM     22  H   LIG d   1       6.753  -2.565  -5.435  0.00  0.00     0.028 H 
ATOM     23  H   LIG d   1       7.137  -0.832  -5.374  0.00  0.00     0.028 H 
ATOM     24  H   LIG d   1       6.530  -2.612  -2.973  0.00  0.00     0.027 H 
ATOM     25  H   LIG d   1       8.136  -2.001  -3.451  0.00  0.00     0.027 H 
ATOM     26  H   LIG d   1       7.177  -0.564  -1.684  0.00  0.00     0.027 H 
ATOM     27  H   LIG d   1       7.280   0.340  -3.216  0.00  0.00     0.027 H 
ENDROOT
BRANCH   1  28
ATOM     28  C   LIG d   1       3.158  -0.316 -10.308  0.00  0.00    -0.018 C 
ATOM     29  H   LIG d   1       3.588  -1.049 -10.990  0.00  0.00     0.035 H 
BRANCH  28  30
ATOM     30  C   LIG d   1       1.633  -0.436 -10.324  0.00  0.00    -0.059 C 
ATOM     31  H   LIG d   1       1.310  -0.832 -11.286  0.00  0.00     0.024 H 
ATOM     32  H   LIG d   1       1.313  -1.109  -9.529  0.00  0.00     0.024 H 
ATOM     33  H   LIG d   1       1.189   0.547 -10.169  0.00  0.00     0.024 H 
ENDBRANCH  28  30
BRANCH  28  34
ATOM     34  C   LIG d   1       3.563   1.091 -10.749  0.00  0.00    -0.059 C 
ATOM     35  H   LIG d   1       3.720   1.717  -9.870  0.00  0.00     0.024 H 
ATOM     36  H   LIG d   1       4.484   1.042 -11.329  0.00  0.00     0.024 H 
ATOM     37  H   LIG d   1       2.771   1.522 -11.364  0.00  0.00     0.024 H 
ENDBRANCH  28  34
ENDBRANCH   1  28
BRANCH   6  38
ATOM     38  O   LIG d   1       5.599  -1.630  -9.803  0.00  0.00    -0.503 OA
ATOM     39  H   LIG d   1       5.354  -2.505 -10.132  0.00  0.00     0.292 HD
ENDBRANCH   6  38
BRANCH   5  40
ATOM     40  O   LIG d   1       6.550  -2.098  -7.260  0.00  0.00    -0.503 OA
ATOM     41  H   LIG d   1       6.508  -2.849  -6.654  0.00  0.00     0.292 HD
ENDBRANCH   5  40
BRANCH  11  42
ATOM     42  C   LIG d   1       4.602  -1.439  -1.986  0.00  0.00    -0.059 C 
ATOM     43  H   LIG d   1       5.359  -2.143  -1.639  0.00  0.00     0.024 H 
ATOM     44  H   LIG d   1       4.016  -1.089  -1.136  0.00  0.00     0.024 H 
ATOM     45  H   LIG d   1       3.946  -1.935  -2.701  0.00  0.00     0.024 H 
ENDBRANCH  11  42
BRANCH  11  46
ATOM     46  C   LIG d   1       4.997   1.020  -1.854  0.00  0.00    -0.059 C 
ATOM     47  H   LIG d   1       5.034   1.887  -2.515  0.00  0.00     0.024 H 
ATOM     48  H   LIG d   1       4.007   0.949  -1.405  0.00  0.00     0.024 H 
ATOM     49  H   LIG d   1       5.746   1.130  -1.069  0.00  0.00     0.024 H 
ENDBRANCH  11  46
TORSDOF 7
ENDMDL
MODEL 3
REMARK VINA RESULT:      -6.2      2.833      4.704
REMARK  7 active torsions:
REMARK  status: ('A' for Active; 'I' for Inactive)
REMARK    1  A    between atoms: C_1  and  C_2 
REMARK    2  A    between atoms: C_2  and  C_3 
REMARK    3  A    between atoms: C_2  and  C_4 
REMARK    4  A    between atoms: C_8  and  O_11 
REMARK    5  A    between atoms: C_9  and  O_10 
REMARK    6  A    between atoms: C_16  and  C_26 
REMARK    7  A    between atoms: C_16  and  C_27 
ROOT
ATOM      1  C   LIG d   1       3.034  -1.476  -9.210  0.00  0.00     0.001 A 
ATOM      2  C   LIG d   1       3.638  -2.410  -8.395  0.00  0.00    -0.044 A 
ATOM      3  C   LIG d   1       3.995  -2.059  -7.093  0.00  0.00     0.029 A 
ATOM      4  C   LIG d   1       3.742  -0.764  -6.618  0.00  0.00     0.025 A 
ATOM      5  C   LIG d   1       3.136   0.162  -7.437  0.00  0.00     0.164 A 
ATOM      6  C   LIG d   1       2.785  -0.193  -8.741  0.00  0.00     0.162 A 
ATOM      7  C   LIG d   1       4.146  -0.413  -5.207  0.00  0.00     0.104 C 
ATOM      8  C   LIG d   1       3.463   0.833  -4.713  0.00  0.00    -0.033 C 
ATOM      9  C   LIG d   1       3.816   1.119  -3.252  0.00  0.00    -0.051 C 
ATOM     10  C   LIG d   1       3.393  -0.086  -2.405  0.00  0.00    -0.047 C 
ATOM     11  C   LIG d   1       4.195  -1.308  -2.852  0.00  0.00    -0.027 C 
ATOM     12  C   LIG d   1       3.891  -1.647  -4.312  0.00  0.00     0.029 C 
ATOM     13  H   LIG d   1       2.906  -2.091  -4.453  0.00  0.00     0.036 H 
ATOM     14  C   LIG d   1       5.081  -2.524  -4.826  0.00  0.00     0.170 C 
ATOM     15  H   LIG d   1       5.352  -3.321  -4.133  0.00  0.00     0.082 H 
ATOM     16  C   LIG d   1       4.639  -3.033  -6.190  0.00  0.00     0.204 C 
ATOM     17  O   LIG d   1       4.809  -4.187  -6.522  0.00  0.00    -0.288 OA
ATOM     18  O   LIG d   1       6.141  -1.571  -5.023  0.00  0.00    -0.452 OA
ATOM     19  C   LIG d   1       5.661  -0.321  -5.180  0.00  0.00     0.319 C 
ATOM     20  O   LIG d   1       6.316   0.689  -5.280  0.00  0.00    -0.250 OA
ATOM     21  H   LIG d   1       3.834  -3.406  -8.762  0.00  0.00     0.063 H 
ATOM     22  H   LIG d   1       3.775   1.679  -5.326  0.00  0.00     0.028 H 
ATOM     23  H   LIG d   1       2.385   0.707  -4.801  0.00  0.00     0.028 H 
ATOM     24  H   LIG d   1       4.891   1.273  -3.159  0.00  0.00     0.027 H 
ATOM     25  H   LIG d   1       3.284   2.008  -2.914  0.00  0.00     0.027 H 
ATOM     26  H   LIG d   1       3.593   0.117  -1.354  0.00  0.00     0.027 H 
ATOM     27  H   LIG d   1       2.329  -0.278  -2.547  0.00  0.00     0.027 H 
ENDROOT
BRANCH   1  28
ATOM     28  C   LIG d   1       2.646  -1.849 -10.619  0.00  0.00    -0.018 C 
ATOM     29  H   LIG d   1       2.476  -0.943 -11.200  0.00  0.00     0.035 H 
BRANCH  28  30
ATOM     30  C   LIG d   1       3.773  -2.662 -11.259  0.00  0.00    -0.059 C 
ATOM     31  H   LIG d   1       3.353  -3.347 -11.995  0.00  0.00     0.024 H 
ATOM     32  H   LIG d   1       4.475  -1.988 -11.750  0.00  0.00     0.024 H 
ATOM     33  H   LIG d   1       4.294  -3.231 -10.489  0.00  0.00     0.024 H 
ENDBRANCH  28  30
BRANCH  28  34
ATOM     34  C   LIG d   1       1.367  -2.686 -10.591  0.00  0.00    -0.059 C 
ATOM     35  H   LIG d   1       0.504  -2.027 -10.484  0.00  0.00     0.024 H 
ATOM     36  H   LIG d   1       1.279  -3.250 -11.519  0.00  0.00     0.024 H 
ATOM     37  H   LIG d   1       1.402  -3.377  -9.748  0.00  0.00     0.024 H 
ENDBRANCH  28  34
ENDBRANCH   1  28
BRANCH   6  38
ATOM     38  O   LIG d   1       2.193   0.720  -9.553  0.00  0.00    -0.503 OA
ATOM     39  H   LIG d   1       1.414   0.385 -10.017  0.00  0.00     0.292 HD
ENDBRANCH   6  38
BRANCH   5  40
ATOM     40  O   LIG d   1       2.886   1.418  -6.980  0.00  0.00    -0.503 OA
ATOM     41  H   LIG d   1       3.644   2.016  -7.037  0.00  0.00     0.292 HD
ENDBRANCH   5  40
BRANCH  11  42
ATOM     42  C   LIG d   1       5.689  -1.013  -2.703  0.00  0.00    -0.059 C 
ATOM     43  H   LIG d   1       6.145  -0.941  -3.691  0.00  0.00     0.024 H 
ATOM     44  H   LIG d   1       5.822  -0.070  -2.173  0.00  0.00     0.024 H 
ATOM     45  H   LIG d   1       6.164  -1.818  -2.142  0.00  0.00     0.024 H 
ENDBRANCH  11  42
BRANCH  11  46
ATOM     46  C   LIG d   1       3.828  -2.502  -1.969  0.00  0.00    -0.059 C 
ATOM     47  H   LIG d   1       3.826  -3.412  -2.571  0.00  0.00     0.024 H 
ATOM     48  H   LIG d   1       4.559  -2.600  -1.167  0.00  0.00     0.024 H 
ATOM     49  H   LIG d   1       2.837  -2.348  -1.542  0.00  0.00     0.024 H 
ENDBRANCH  11  46
TORSDOF 7
ENDMDL
MODEL 4
REMARK VINA RESULT:      -6.0      3.169      6.400
REMARK  7 active torsions:
REMARK  status: ('A' for Active; 'I' for Inactive)
REMARK    1  A    between atoms: C_1  and  C_2 
REMARK    2  A    between atoms: C_2  and  C_3 
REMARK    3  A    between atoms: C_2  and  C_4 
REMARK    4  A    between atoms: C_8  and  O_11 
REMARK    5  A    between atoms: C_9  and  O_10 
REMARK    6  A    between atoms: C_16  and  C_26 
REMARK    7  A    between atoms: C_16  and  C_27 
ROOT
ATOM      1  C   LIG d   1       4.798  -1.340  -4.284  0.00  0.00     0.001 A 
ATOM      2  C   LIG d   1       4.054  -0.354  -4.898  0.00  0.00    -0.044 A 
ATOM      3  C   LIG d   1       3.893  -0.374  -6.283  0.00  0.00     0.029 A 
ATOM      4  C   LIG d   1       4.486  -1.391  -7.046  0.00  0.00     0.025 A 
ATOM      5  C   LIG d   1       5.225  -2.373  -6.426  0.00  0.00     0.164 A 
ATOM      6  C   LIG d   1       5.387  -2.345  -5.039  0.00  0.00     0.162 A 
ATOM      7  C   LIG d   1       4.300  -1.382  -8.543  0.00  0.00     0.104 C 
ATOM      8  C   LIG d   1       4.628  -2.711  -9.166  0.00  0.00    -0.033 C 
ATOM      9  C   LIG d   1       4.345  -2.707 -10.670  0.00  0.00    -0.051 C 
ATOM     10  C   LIG d   1       2.864  -2.375 -10.884  0.00  0.00    -0.047 C 
ATOM     11  C   LIG d   1       2.592  -0.969 -10.350  0.00  0.00    -0.027 C 
ATOM     12  C   LIG d   1       2.862  -0.903  -8.847  0.00  0.00     0.029 C 
ATOM     13  H   LIG d   1       2.101  -1.407  -8.252  0.00  0.00     0.036 H 
ATOM     14  C   LIG d   1       3.070   0.609  -8.494  0.00  0.00     0.170 C 
ATOM     15  H   LIG d   1       2.311   1.256  -8.935  0.00  0.00     0.082 H 
ATOM     16  C   LIG d   1       3.101   0.661  -6.974  0.00  0.00     0.204 C 
ATOM     17  O   LIG d   1       2.501   1.516  -6.357  0.00  0.00    -0.288 OA
ATOM     18  O   LIG d   1       4.394   0.888  -8.982  0.00  0.00    -0.452 OA
ATOM     19  C   LIG d   1       5.128  -0.237  -9.096  0.00  0.00     0.319 C 
ATOM     20  O   LIG d   1       6.242  -0.319  -9.555  0.00  0.00    -0.250 OA
ATOM     21  H   LIG d   1       3.600   0.429  -4.309  0.00  0.00     0.063 H 
ATOM     22  H   LIG d   1       5.684  -2.931  -9.003  0.00  0.00     0.028 H 
ATOM     23  H   LIG d   1       4.026  -3.485  -8.692  0.00  0.00     0.028 H 
ATOM     24  H   LIG d   1       4.964  -1.953 -11.156  0.00  0.00     0.027 H 
ATOM     25  H   LIG d   1       4.563  -3.690 -11.086  0.00  0.00     0.027 H 
ATOM     26  H   LIG d   1       2.631  -2.413 -11.947  0.00  0.00     0.027 H 
ATOM     27  H   LIG d   1       2.246  -3.094 -10.346  0.00  0.00     0.027 H 
ENDROOT
BRANCH   1  28
ATOM     28  C   LIG d   1       4.977  -1.323  -2.787  0.00  0.00    -0.018 C 
ATOM     29  H   LIG d   1       5.918  -1.806  -2.528  0.00  0.00     0.035 H 
BRANCH  28  30
ATOM     30  C   LIG d   1       4.992   0.125  -2.292  0.00  0.00    -0.059 C 
ATOM     31  H   LIG d   1       4.149   0.664  -2.722  0.00  0.00     0.024 H 
ATOM     32  H   LIG d   1       4.914   0.138  -1.205  0.00  0.00     0.024 H 
ATOM     33  H   LIG d   1       5.923   0.603  -2.595  0.00  0.00     0.024 H 
ENDBRANCH  28  30
BRANCH  28  34
ATOM     34  C   LIG d   1       3.819  -2.074  -2.127  0.00  0.00    -0.059 C 
ATOM     35  H   LIG d   1       3.707  -1.737  -1.096  0.00  0.00     0.024 H 
ATOM     36  H   LIG d   1       2.897  -1.879  -2.675  0.00  0.00     0.024 H 
ATOM     37  H   LIG d   1       4.026  -3.145  -2.138  0.00  0.00     0.024 H 
ENDBRANCH  28  34
ENDBRANCH   1  28
BRANCH   6  38
ATOM     38  O   LIG d   1       6.120  -3.309  -4.426  0.00  0.00    -0.503 OA
ATOM     39  H   LIG d   1       6.803  -3.700  -4.988  0.00  0.00     0.292 HD
ENDBRANCH   6  38
BRANCH   5  40
ATOM     40  O   LIG d   1       5.799  -3.362  -7.162  0.00  0.00    -0.503 OA
ATOM     41  H   LIG d   1       6.744  -3.237  -7.321  0.00  0.00     0.292 HD
ENDBRANCH   5  40
BRANCH  11  42
ATOM     42  C   LIG d   1       3.502   0.029 -11.070  0.00  0.00    -0.059 C 
ATOM     43  H   LIG d   1       4.216   0.447 -10.360  0.00  0.00     0.024 H 
ATOM     44  H   LIG d   1       4.041  -0.482 -11.868  0.00  0.00     0.024 H 
ATOM     45  H   LIG d   1       2.898   0.831 -11.494  0.00  0.00     0.024 H 
ENDBRANCH  11  42
BRANCH  11  46
ATOM     46  C   LIG d   1       1.132  -0.602 -10.619  0.00  0.00    -0.059 C 
ATOM     47  H   LIG d   1       1.083   0.122 -11.433  0.00  0.00     0.024 H 
ATOM     48  H   LIG d   1       0.576  -1.498 -10.895  0.00  0.00     0.024 H 
ATOM     49  H   LIG d   1       0.695  -0.166  -9.720  0.00  0.00     0.024 H 
ENDBRANCH  11  46
TORSDOF 7
ENDMDL
MODEL 5
REMARK VINA RESULT:      -6.0      3.444      6.497
REMARK  7 active torsions:
REMARK  status: ('A' for Active; 'I' for Inactive)
REMARK    1  A    between atoms: C_1  and  C_2 
REMARK    2  A    between atoms: C_2  and  C_3 
REMARK    3  A    between atoms: C_2  and  C_4 
REMARK    4  A    between atoms: C_8  and  O_11 
REMARK    5  A    between atoms: C_9  and  O_10 
REMARK    6  A    between atoms: C_16  and  C_26 
REMARK    7  A    between atoms: C_16  and  C_27 
ROOT
ATOM      1  C   LIG d   1       3.750  -0.636  -4.331  0.00  0.00     0.001 A 
ATOM      2  C   LIG d   1       4.337  -1.711  -4.965  0.00  0.00    -0.044 A 
ATOM      3  C   LIG d   1       4.398  -1.739  -6.358  0.00  0.00     0.029 A 
ATOM      4  C   LIG d   1       3.864  -0.682  -7.109  0.00  0.00     0.025 A 
ATOM      5  C   LIG d   1       3.281   0.389  -6.468  0.00  0.00     0.164 A 
ATOM      6  C   LIG d   1       3.219   0.410  -5.074  0.00  0.00     0.162 A 
ATOM      7  C   LIG d   1       3.938  -0.745  -8.614  0.00  0.00     0.104 C 
ATOM      8  C   LIG d   1       3.709   0.597  -9.253  0.00  0.00    -0.033 C 
ATOM      9  C   LIG d   1       3.880   0.528 -10.772  0.00  0.00    -0.051 C 
ATOM     10  C   LIG d   1       5.297   0.031 -11.079  0.00  0.00    -0.047 C 
ATOM     11  C   LIG d   1       5.455  -1.384 -10.523  0.00  0.00    -0.027 C 
ATOM     12  C   LIG d   1       5.290  -1.386  -9.003  0.00  0.00     0.029 C 
ATOM     13  H   LIG d   1       6.142  -0.954  -8.479  0.00  0.00     0.036 H 
ATOM     14  C   LIG d   1       4.947  -2.856  -8.591  0.00  0.00     0.170 C 
ATOM     15  H   LIG d   1       5.598  -3.592  -9.064  0.00  0.00     0.082 H 
ATOM     16  C   LIG d   1       5.022  -2.871  -7.071  0.00  0.00     0.204 C 
ATOM     17  O   LIG d   1       5.570  -3.772  -6.471  0.00  0.00    -0.288 OA
ATOM     18  O   LIG d   1       3.569  -3.001  -8.975  0.00  0.00    -0.452 OA
ATOM     19  C   LIG d   1       2.953  -1.805  -9.072  0.00  0.00     0.319 C 
ATOM     20  O   LIG d   1       1.824  -1.612  -9.454  0.00  0.00    -0.250 OA
ATOM     21  H   LIG d   1       4.746  -2.525  -4.386  0.00  0.00     0.063 H 
ATOM     22  H   LIG d   1       2.698   0.935  -9.023  0.00  0.00     0.028 H 
ATOM     23  H   LIG d   1       4.424   1.312  -8.846  0.00  0.00     0.028 H 
ATOM     24  H   LIG d   1       3.150  -0.165 -11.190  0.00  0.00     0.027 H 
ATOM     25  H   LIG d   1       3.739   1.519 -11.201  0.00  0.00     0.027 H 
ATOM     26  H   LIG d   1       5.454   0.020 -12.157  0.00  0.00     0.027 H 
ATOM     27  H   LIG d   1       6.026   0.691 -10.608  0.00  0.00     0.027 H 
ENDROOT
BRANCH   1  28
ATOM     28  C   LIG d   1       3.681  -0.599  -2.825  0.00  0.00    -0.018 C 
ATOM     29  H   LIG d   1       2.727  -0.172  -2.517  0.00  0.00     0.035 H 
BRANCH  28  30
ATOM     30  C   LIG d   1       3.806  -2.021  -2.275  0.00  0.00    -0.059 C 
ATOM     31  H   LIG d   1       2.866  -2.313  -1.808  0.00  0.00     0.024 H 
ATOM     32  H   LIG d   1       4.034  -2.707  -3.090  0.00  0.00     0.024 H 
ATOM     33  H   LIG d   1       4.605  -2.055  -1.535  0.00  0.00     0.024 H 
ENDBRANCH  28  30
BRANCH  28  34
ATOM     34  C   LIG d   1       4.824   0.260  -2.284  0.00  0.00    -0.059 C 
ATOM     35  H   LIG d   1       5.709   0.121  -2.906  0.00  0.00     0.024 H 
ATOM     36  H   LIG d   1       4.531   1.310  -2.298  0.00  0.00     0.024 H 
ATOM     37  H   LIG d   1       5.050  -0.039  -1.259  0.00  0.00     0.024 H 
ENDBRANCH  28  34
ENDBRANCH   1  28
BRANCH   6  38
ATOM     38  O   LIG d   1       2.640   1.463  -4.440  0.00  0.00    -0.503 OA
ATOM     39  H   LIG d   1       2.885   1.543  -3.509  0.00  0.00     0.292 HD
ENDBRANCH   6  38
BRANCH   5  40
ATOM     40  O   LIG d   1       2.764   1.418  -7.192  0.00  0.00    -0.503 OA
ATOM     41  H   LIG d   1       1.809   1.364  -7.326  0.00  0.00     0.292 HD
ENDBRANCH   5  40
BRANCH  11  42
ATOM     42  C   LIG d   1       4.393  -2.292 -11.147  0.00  0.00    -0.059 C 
ATOM     43  H   LIG d   1       4.165  -3.108 -10.460  0.00  0.00     0.024 H 
ATOM     44  H   LIG d   1       3.488  -1.715 -11.337  0.00  0.00     0.024 H 
ATOM     45  H   LIG d   1       4.769  -2.700 -12.085  0.00  0.00     0.024 H 
ENDBRANCH  11  42
BRANCH  11  46
ATOM     46  C   LIG d   1       6.844  -1.914 -10.882  0.00  0.00    -0.059 C 
ATOM     47  H   LIG d   1       7.371  -1.173 -11.484  0.00  0.00     0.024 H 
ATOM     48  H   LIG d   1       7.406  -2.107  -9.969  0.00  0.00     0.024 H 
ATOM     49  H   LIG d   1       6.744  -2.839 -11.450  0.00  0.00     0.024 H 
ENDBRANCH  11  46
TORSDOF 7
ENDMDL
MODEL 6
REMARK VINA RESULT:      -5.9      2.625      4.087
REMARK  7 active torsions:
REMARK  status: ('A' for Active; 'I' for Inactive)
REMARK    1  A    between atoms: C_1  and  C_2 
REMARK    2  A    between atoms: C_2  and  C_3 
REMARK    3  A    between atoms: C_2  and  C_4 
REMARK    4  A    between atoms: C_8  and  O_11 
REMARK    5  A    between atoms: C_9  and  O_10 
REMARK    6  A    between atoms: C_16  and  C_26 
REMARK    7  A    between atoms: C_16  and  C_27 
ROOT
ATOM      1  C   LIG d   1      10.066  -2.222  -5.503  0.00  0.00     0.001 A 
ATOM      2  C   LIG d   1       9.635  -0.939  -5.236  0.00  0.00    -0.044 A 
ATOM      3  C   LIG d   1       8.323  -0.728  -4.813  0.00  0.00     0.029 A 
ATOM      4  C   LIG d   1       7.448  -1.814  -4.662  0.00  0.00     0.025 A 
ATOM      5  C   LIG d   1       7.886  -3.091  -4.929  0.00  0.00     0.164 A 
ATOM      6  C   LIG d   1       9.199  -3.296  -5.356  0.00  0.00     0.162 A 
ATOM      7  C   LIG d   1       6.032  -1.552  -4.211  0.00  0.00     0.104 C 
ATOM      8  C   LIG d   1       5.355  -2.798  -3.710  0.00  0.00    -0.033 C 
ATOM      9  C   LIG d   1       3.955  -2.494  -3.173  0.00  0.00    -0.051 C 
ATOM     10  C   LIG d   1       4.083  -1.471  -2.039  0.00  0.00    -0.047 C 
ATOM     11  C   LIG d   1       4.660  -0.175  -2.607  0.00  0.00    -0.027 C 
ATOM     12  C   LIG d   1       6.063  -0.411  -3.168  0.00  0.00     0.029 C 
ATOM     13  H   LIG d   1       6.816  -0.550  -2.394  0.00  0.00     0.036 H 
ATOM     14  C   LIG d   1       6.354   0.765  -4.159  0.00  0.00     0.170 C 
ATOM     15  H   LIG d   1       6.096   1.741  -3.746  0.00  0.00     0.082 H 
ATOM     16  C   LIG d   1       7.828   0.629  -4.514  0.00  0.00     0.204 C 
ATOM     17  O   LIG d   1       8.562   1.594  -4.550  0.00  0.00    -0.288 OA
ATOM     18  O   LIG d   1       5.577   0.427  -5.321  0.00  0.00    -0.452 OA
ATOM     19  C   LIG d   1       5.302  -0.893  -5.366  0.00  0.00     0.319 C 
ATOM     20  O   LIG d   1       4.602  -1.449  -6.178  0.00  0.00    -0.250 OA
ATOM     21  H   LIG d   1      10.309  -0.104  -5.354  0.00  0.00     0.063 H 
ATOM     22  H   LIG d   1       5.274  -3.515  -4.529  0.00  0.00     0.028 H 
ATOM     23  H   LIG d   1       5.956  -3.235  -2.914  0.00  0.00     0.028 H 
ATOM     24  H   LIG d   1       3.338  -2.081  -3.971  0.00  0.00     0.027 H 
ATOM     25  H   LIG d   1       3.503  -3.408  -2.791  0.00  0.00     0.027 H 
ATOM     26  H   LIG d   1       3.100  -1.276  -1.611  0.00  0.00     0.027 H 
ATOM     27  H   LIG d   1       4.749  -1.859  -1.269  0.00  0.00     0.027 H 
ENDROOT
BRANCH   1  28
ATOM     28  C   LIG d   1      11.483  -2.457  -5.961  0.00  0.00    -0.018 C 
ATOM     29  H   LIG d   1      11.556  -3.440  -6.425  0.00  0.00     0.035 H 
BRANCH  28  30
ATOM     30  C   LIG d   1      11.875  -1.382  -6.978  0.00  0.00    -0.059 C 
ATOM     31  H   LIG d   1      11.061  -1.241  -7.688  0.00  0.00     0.024 H 
ATOM     32  H   LIG d   1      12.069  -0.445  -6.458  0.00  0.00     0.024 H 
ATOM     33  H   LIG d   1      12.772  -1.695  -7.510  0.00  0.00     0.024 H 
ENDBRANCH  28  30
BRANCH  28  34
ATOM     34  C   LIG d   1      12.426  -2.388  -4.759  0.00  0.00    -0.059 C 
ATOM     35  H   LIG d   1      11.886  -1.995  -3.896  0.00  0.00     0.024 H 
ATOM     36  H   LIG d   1      12.799  -3.386  -4.530  0.00  0.00     0.024 H 
ATOM     37  H   LIG d   1      13.265  -1.732  -4.991  0.00  0.00     0.024 H 
ENDBRANCH  28  34
ENDBRANCH   1  28
BRANCH   6  38
ATOM     38  O   LIG d   1       9.632  -4.555  -5.626  0.00  0.00    -0.503 OA
ATOM     39  H   LIG d   1       9.904  -5.053  -4.842  0.00  0.00     0.292 HD
ENDBRANCH   6  38
BRANCH   5  40
ATOM     40  O   LIG d   1       7.042  -4.147  -4.782  0.00  0.00    -0.503 OA
ATOM     41  H   LIG d   1       6.353  -4.011  -4.118  0.00  0.00     0.292 HD
ENDBRANCH   5  40
BRANCH  11  42
ATOM     42  C   LIG d   1       3.749   0.335  -3.726  0.00  0.00    -0.059 C 
ATOM     43  H   LIG d   1       2.840  -0.267  -3.757  0.00  0.00     0.024 H 
ATOM     44  H   LIG d   1       3.488   1.376  -3.535  0.00  0.00     0.024 H 
ATOM     45  H   LIG d   1       4.269   0.258  -4.681  0.00  0.00     0.024 H 
ENDBRANCH  11  42
BRANCH  11  46
ATOM     46  C   LIG d   1       4.730   0.875  -1.497  0.00  0.00    -0.059 C 
ATOM     47  H   LIG d   1       3.948   0.679  -0.762  0.00  0.00     0.024 H 
ATOM     48  H   LIG d   1       5.705   0.827  -1.012  0.00  0.00     0.024 H 
ATOM     49  H   LIG d   1       4.585   1.867  -1.925  0.00  0.00     0.024 H 
ENDBRANCH  11  46
TORSDOF 7
ENDMDL
MODEL 7
REMARK VINA RESULT:      -5.8      2.168      3.391
REMARK  7 active torsions:
REMARK  status: ('A' for Active; 'I' for Inactive)
REMARK    1  A    between atoms: C_1  and  C_2 
REMARK    2  A    between atoms: C_2  and  C_3 
REMARK    3  A    between atoms: C_2  and  C_4 
REMARK    4  A    between atoms: C_8  and  O_11 
REMARK    5  A    between atoms: C_9  and  O_10 
REMARK    6  A    between atoms: C_16  and  C_26 
REMARK    7  A    between atoms: C_16  and  C_27 
ROOT
ATOM      1  C   LIG d   1       7.283  -1.691  -8.232  0.00  0.00     0.001 A 
ATOM      2  C   LIG d   1       7.523  -2.282  -7.009  0.00  0.00    -0.044 A 
ATOM      3  C   LIG d   1       6.786  -1.883  -5.894  0.00  0.00     0.029 A 
ATOM      4  C   LIG d   1       5.809  -0.884  -6.017  0.00  0.00     0.025 A 
ATOM      5  C   LIG d   1       5.573  -0.300  -7.241  0.00  0.00     0.164 A 
ATOM      6  C   LIG d   1       6.317  -0.701  -8.353  0.00  0.00     0.162 A 
ATOM      7  C   LIG d   1       5.034  -0.469  -4.791  0.00  0.00     0.104 C 
ATOM      8  C   LIG d   1       3.779   0.285  -5.139  0.00  0.00    -0.033 C 
ATOM      9  C   LIG d   1       2.963   0.616  -3.888  0.00  0.00    -0.051 C 
ATOM     10  C   LIG d   1       2.611  -0.695  -3.177  0.00  0.00    -0.047 C 
ATOM     11  C   LIG d   1       3.904  -1.375  -2.728  0.00  0.00    -0.027 C 
ATOM     12  C   LIG d   1       4.772  -1.730  -3.936  0.00  0.00     0.029 C 
ATOM     13  H   LIG d   1       4.386  -2.572  -4.509  0.00  0.00     0.036 H 
ATOM     14  C   LIG d   1       6.231  -1.920  -3.400  0.00  0.00     0.170 C 
ATOM     15  H   LIG d   1       6.276  -2.538  -2.503  0.00  0.00     0.082 H 
ATOM     16  C   LIG d   1       7.013  -2.495  -4.571  0.00  0.00     0.204 C 
ATOM     17  O   LIG d   1       7.788  -3.417  -4.425  0.00  0.00    -0.288 OA
ATOM     18  O   LIG d   1       6.684  -0.574  -3.173  0.00  0.00    -0.452 OA
ATOM     19  C   LIG d   1       5.979   0.316  -3.901  0.00  0.00     0.319 C 
ATOM     20  O   LIG d   1       6.082   1.518  -3.853  0.00  0.00    -0.250 OA
ATOM     21  H   LIG d   1       8.278  -3.049  -6.916  0.00  0.00     0.063 H 
ATOM     22  H   LIG d   1       4.048   1.213  -5.645  0.00  0.00     0.028 H 
ATOM     23  H   LIG d   1       3.173  -0.323  -5.810  0.00  0.00     0.028 H 
ATOM     24  H   LIG d   1       3.552   1.247  -3.223  0.00  0.00     0.027 H 
ATOM     25  H   LIG d   1       2.048   1.133  -4.174  0.00  0.00     0.027 H 
ATOM     26  H   LIG d   1       1.989  -0.484  -2.308  0.00  0.00     0.027 H 
ATOM     27  H   LIG d   1       2.074  -1.351  -3.863  0.00  0.00     0.027 H 
ENDROOT
BRANCH   1  28
ATOM     28  C   LIG d   1       8.077  -2.117  -9.441  0.00  0.00    -0.018 C 
ATOM     29  H   LIG d   1       7.988  -1.360 -10.219  0.00  0.00     0.035 H 
BRANCH  28  30
ATOM     30  C   LIG d   1       9.548  -2.281  -9.052  0.00  0.00    -0.059 C 
ATOM     31  H   LIG d   1       9.929  -1.335  -8.670  0.00  0.00     0.024 H 
ATOM     32  H   LIG d   1       9.637  -3.045  -8.281  0.00  0.00     0.024 H 
ATOM     33  H   LIG d   1      10.124  -2.578  -9.928  0.00  0.00     0.024 H 
ENDBRANCH  28  30
BRANCH  28  34
ATOM     34  C   LIG d   1       7.536  -3.450  -9.961  0.00  0.00    -0.059 C 
ATOM     35  H   LIG d   1       7.266  -3.347 -11.012  0.00  0.00     0.024 H 
ATOM     36  H   LIG d   1       8.300  -4.220  -9.855  0.00  0.00     0.024 H 
ATOM     37  H   LIG d   1       6.654  -3.734  -9.386  0.00  0.00     0.024 H 
ENDBRANCH  28  34
ENDBRANCH   1  28
BRANCH   6  38
ATOM     38  O   LIG d   1       6.090  -0.122  -9.560  0.00  0.00    -0.503 OA
ATOM     39  H   LIG d   1       6.635   0.659  -9.729  0.00  0.00     0.292 HD
ENDBRANCH   6  38
BRANCH   5  40
ATOM     40  O   LIG d   1       4.624   0.666  -7.365  0.00  0.00    -0.503 OA
ATOM     41  H   LIG d   1       4.663   1.346  -6.679  0.00  0.00     0.292 HD
ENDBRANCH   5  40
BRANCH  11  42
ATOM     42  C   LIG d   1       4.679  -0.428  -1.810  0.00  0.00    -0.059 C 
ATOM     43  H   LIG d   1       4.038   0.407  -1.524  0.00  0.00     0.024 H 
ATOM     44  H   LIG d   1       4.995  -0.965  -0.917  0.00  0.00     0.024 H 
ATOM     45  H   LIG d   1       5.556  -0.048  -2.337  0.00  0.00     0.024 H 
ENDBRANCH  11  42
BRANCH  11  46
ATOM     46  C   LIG d   1       3.562  -2.652  -1.959  0.00  0.00    -0.059 C 
ATOM     47  H   LIG d   1       3.030  -2.393  -1.043  0.00  0.00     0.024 H 
ATOM     48  H   LIG d   1       2.930  -3.290  -2.577  0.00  0.00     0.024 H 
ATOM     49  H   LIG d   1       4.480  -3.183  -1.709  0.00  0.00     0.024 H 
ENDBRANCH  11  46
TORSDOF 7
ENDMDL
MODEL 8
REMARK VINA RESULT:      -5.6      2.923      5.392
REMARK  7 active torsions:
REMARK  status: ('A' for Active; 'I' for Inactive)
REMARK    1  A    between atoms: C_1  and  C_2 
REMARK    2  A    between atoms: C_2  and  C_3 
REMARK    3  A    between atoms: C_2  and  C_4 
REMARK    4  A    between atoms: C_8  and  O_11 
REMARK    5  A    between atoms: C_9  and  O_10 
REMARK    6  A    between atoms: C_16  and  C_26 
REMARK    7  A    between atoms: C_16  and  C_27 
ROOT
ATOM      1  C   LIG d   1       6.520  -5.108  -6.002  0.00  0.00     0.001 A 
ATOM      2  C   LIG d   1       7.131  -4.411  -4.981  0.00  0.00    -0.044 A 
ATOM      3  C   LIG d   1       6.648  -3.152  -4.620  0.00  0.00     0.029 A 
ATOM      4  C   LIG d   1       5.550  -2.600  -5.295  0.00  0.00     0.025 A 
ATOM      5  C   LIG d   1       4.944  -3.303  -6.312  0.00  0.00     0.164 A 
ATOM      6  C   LIG d   1       5.434  -4.560  -6.671  0.00  0.00     0.162 A 
ATOM      7  C   LIG d   1       5.056  -1.234  -4.888  0.00  0.00     0.104 C 
ATOM      8  C   LIG d   1       3.667  -0.955  -5.396  0.00  0.00    -0.033 C 
ATOM      9  C   LIG d   1       3.151   0.395  -4.895  0.00  0.00    -0.051 C 
ATOM     10  C   LIG d   1       3.160   0.380  -3.363  0.00  0.00    -0.047 C 
ATOM     11  C   LIG d   1       4.601   0.219  -2.879  0.00  0.00    -0.027 C 
ATOM     12  C   LIG d   1       5.181  -1.115  -3.352  0.00  0.00     0.029 C 
ATOM     13  H   LIG d   1       4.777  -1.973  -2.815  0.00  0.00     0.036 H 
ATOM     14  C   LIG d   1       6.739  -0.977  -3.283  0.00  0.00     0.170 C 
ATOM     15  H   LIG d   1       7.085  -0.540  -2.345  0.00  0.00     0.082 H 
ATOM     16  C   LIG d   1       7.273  -2.380  -3.530  0.00  0.00     0.204 C 
ATOM     17  O   LIG d   1       8.173  -2.842  -2.862  0.00  0.00    -0.288 OA
ATOM     18  O   LIG d   1       7.056  -0.165  -4.427  0.00  0.00    -0.452 OA
ATOM     19  C   LIG d   1       6.083  -0.221  -5.359  0.00  0.00     0.319 C 
ATOM     20  O   LIG d   1       6.037   0.418  -6.383  0.00  0.00    -0.250 OA
ATOM     21  H   LIG d   1       7.977  -4.837  -4.463  0.00  0.00     0.063 H 
ATOM     22  H   LIG d   1       3.680  -0.950  -6.486  0.00  0.00     0.028 H 
ATOM     23  H   LIG d   1       2.998  -1.743  -5.052  0.00  0.00     0.028 H 
ATOM     24  H   LIG d   1       3.801   1.192  -5.257  0.00  0.00     0.027 H 
ATOM     25  H   LIG d   1       2.135   0.554  -5.253  0.00  0.00     0.027 H 
ATOM     26  H   LIG d   1       2.751   1.317  -2.985  0.00  0.00     0.027 H 
ATOM     27  H   LIG d   1       2.560  -0.455  -3.001  0.00  0.00     0.027 H 
ENDROOT
BRANCH   1  28
ATOM     28  C   LIG d   1       7.037  -6.468  -6.396  0.00  0.00    -0.018 C 
ATOM     29  H   LIG d   1       6.653  -6.731  -7.381  0.00  0.00     0.035 H 
BRANCH  28  30
ATOM     30  C   LIG d   1       8.566  -6.440  -6.435  0.00  0.00    -0.059 C 
ATOM     31  H   LIG d   1       8.900  -6.287  -7.460  0.00  0.00     0.024 H 
ATOM     32  H   LIG d   1       8.930  -5.625  -5.810  0.00  0.00     0.024 H 
ATOM     33  H   LIG d   1       8.957  -7.386  -6.063  0.00  0.00     0.024 H 
ENDBRANCH  28  30
BRANCH  28  34
ATOM     34  C   LIG d   1       6.572  -7.506  -5.374  0.00  0.00    -0.059 C 
ATOM     35  H   LIG d   1       6.323  -7.007  -4.436  0.00  0.00     0.024 H 
ATOM     36  H   LIG d   1       5.692  -8.024  -5.754  0.00  0.00     0.024 H 
ATOM     37  H   LIG d   1       7.371  -8.228  -5.199  0.00  0.00     0.024 H 
ENDBRANCH  28  34
ENDBRANCH   1  28
BRANCH   6  38
ATOM     38  O   LIG d   1       4.842  -5.252  -7.678  0.00  0.00    -0.503 OA
ATOM     39  H   LIG d   1       5.102  -6.183  -7.720  0.00  0.00     0.292 HD
ENDBRANCH   6  38
BRANCH   5  40
ATOM     40  O   LIG d   1       3.877  -2.772  -6.968  0.00  0.00    -0.503 OA
ATOM     41  H   LIG d   1       4.095  -2.015  -7.527  0.00  0.00     0.292 HD
ENDBRANCH   5  40
BRANCH  11  42
ATOM     42  C   LIG d   1       5.450   1.363  -3.436  0.00  0.00    -0.059 C 
ATOM     43  H   LIG d   1       6.267   0.954  -4.032  0.00  0.00     0.024 H 
ATOM     44  H   LIG d   1       4.831   2.005  -4.062  0.00  0.00     0.024 H 
ATOM     45  H   LIG d   1       5.860   1.946  -2.610  0.00  0.00     0.024 H 
ENDBRANCH  11  42
BRANCH  11  46
ATOM     46  C   LIG d   1       4.629   0.269  -1.351  0.00  0.00    -0.059 C 
ATOM     47  H   LIG d   1       5.200   1.139  -1.026  0.00  0.00     0.024 H 
ATOM     48  H   LIG d   1       3.610   0.341  -0.971  0.00  0.00     0.024 H 
ATOM     49  H   LIG d   1       5.097  -0.637  -0.966  0.00  0.00     0.024 H 
ENDBRANCH  11  46
TORSDOF 7
ENDMDL
MODEL 9
REMARK VINA RESULT:      -5.4      5.552      8.436
REMARK  7 active torsions:
REMARK  status: ('A' for Active; 'I' for Inactive)
REMARK    1  A    between atoms: C_1  and  C_2 
REMARK    2  A    between atoms: C_2  and  C_3 
REMARK    3  A    between atoms: C_2  and  C_4 
REMARK    4  A    between atoms: C_8  and  O_11 
REMARK    5  A    between atoms: C_9  and  O_10 
REMARK    6  A    between atoms: C_16  and  C_26 
REMARK    7  A    between atoms: C_16  and  C_27 
ROOT
ATOM      1  C   LIG d   1      10.031   7.679  -1.152  0.00  0.00     0.001 A 
ATOM      2  C   LIG d   1       9.825   7.753  -2.513  0.00  0.00    -0.044 A 
ATOM      3  C   LIG d   1      10.084   6.639  -3.312  0.00  0.00     0.029 A 
ATOM      4  C   LIG d   1      10.554   5.451  -2.732  0.00  0.00     0.025 A 
ATOM      5  C   LIG d   1      10.756   5.384  -1.372  0.00  0.00     0.164 A 
ATOM      6  C   LIG d   1      10.498   6.503  -0.578  0.00  0.00     0.162 A 
ATOM      7  C   LIG d   1      10.833   4.266  -3.623  0.00  0.00     0.104 C 
ATOM      8  C   LIG d   1      10.929   2.981  -2.847  0.00  0.00    -0.033 C 
ATOM      9  C   LIG d   1      11.120   1.782  -3.777  0.00  0.00    -0.051 C 
ATOM     10  C   LIG d   1       9.935   1.725  -4.746  0.00  0.00    -0.047 C 
ATOM     11  C   LIG d   1       9.938   2.990  -5.604  0.00  0.00    -0.027 C 
ATOM     12  C   LIG d   1       9.755   4.232  -4.731  0.00  0.00     0.029 C 
ATOM     13  H   LIG d   1       8.739   4.345  -4.353  0.00  0.00     0.036 H 
ATOM     14  C   LIG d   1      10.280   5.449  -5.565  0.00  0.00     0.170 C 
ATOM     15  H   LIG d   1       9.910   5.451  -6.590  0.00  0.00     0.082 H 
ATOM     16  C   LIG d   1       9.871   6.681  -4.771  0.00  0.00     0.204 C 
ATOM     17  O   LIG d   1       9.391   7.654  -5.313  0.00  0.00    -0.288 OA
ATOM     18  O   LIG d   1      11.710   5.317  -5.488  0.00  0.00    -0.452 OA
ATOM     19  C   LIG d   1      12.084   4.583  -4.421  0.00  0.00     0.319 C 
ATOM     20  O   LIG d   1      13.209   4.240  -4.149  0.00  0.00    -0.250 OA
ATOM     21  H   LIG d   1       9.465   8.669  -2.959  0.00  0.00     0.063 H 
ATOM     22  H   LIG d   1      11.776   3.039  -2.163  0.00  0.00     0.028 H 
ATOM     23  H   LIG d   1      10.015   2.843  -2.270  0.00  0.00     0.028 H 
ATOM     24  H   LIG d   1      12.047   1.898  -4.339  0.00  0.00     0.027 H 
ATOM     25  H   LIG d   1      11.156   0.865  -3.190  0.00  0.00     0.027 H 
ATOM     26  H   LIG d   1      10.028   0.850  -5.388  0.00  0.00     0.027 H 
ATOM     27  H   LIG d   1       9.003   1.671  -4.182  0.00  0.00     0.027 H 
ENDROOT
BRANCH   1  28
ATOM     28  C   LIG d   1       9.753   8.879  -0.284  0.00  0.00    -0.018 C 
ATOM     29  H   LIG d   1       9.556   8.552   0.737  0.00  0.00     0.035 H 
BRANCH  28  30
ATOM     30  C   LIG d   1      10.968   9.809  -0.296  0.00  0.00    -0.059 C 
ATOM     31  H   LIG d   1      11.280   9.984  -1.325  0.00  0.00     0.024 H 
ATOM     32  H   LIG d   1      10.704  10.758   0.169  0.00  0.00     0.024 H 
ATOM     33  H   LIG d   1      11.785   9.348   0.258  0.00  0.00     0.024 H 
ENDBRANCH  28  30
BRANCH  28  34
ATOM     34  C   LIG d   1       8.534   9.628  -0.824  0.00  0.00    -0.059 C 
ATOM     35  H   LIG d   1       7.909   8.940  -1.396  0.00  0.00     0.024 H 
ATOM     36  H   LIG d   1       7.958  10.036   0.006  0.00  0.00     0.024 H 
ATOM     37  H   LIG d   1       8.863  10.442  -1.471  0.00  0.00     0.024 H 
ENDBRANCH  28  34
ENDBRANCH   1  28
BRANCH   6  38
ATOM     38  O   LIG d   1      10.702   6.441   0.763  0.00  0.00    -0.503 OA
ATOM     39  H   LIG d   1      10.496   5.580   1.151  0.00  0.00     0.292 HD
ENDBRANCH   6  38
BRANCH   5  40
ATOM     40  O   LIG d   1      11.209   4.233  -0.805  0.00  0.00    -0.503 OA
ATOM     41  H   LIG d   1      11.796   4.371  -0.051  0.00  0.00     0.292 HD
ENDBRANCH   5  40
BRANCH  11  42
ATOM     42  C   LIG d   1      11.270   3.090  -6.350  0.00  0.00    -0.059 C 
ATOM     43  H   LIG d   1      11.999   3.608  -5.725  0.00  0.00     0.024 H 
ATOM     44  H   LIG d   1      11.635   2.089  -6.578  0.00  0.00     0.024 H 
ATOM     45  H   LIG d   1      11.126   3.646  -7.277  0.00  0.00     0.024 H 
ENDBRANCH  11  42
BRANCH  11  46
ATOM     46  C   LIG d   1       8.797   2.914  -6.619  0.00  0.00    -0.059 C 
ATOM     47  H   LIG d   1       8.470   1.879  -6.721  0.00  0.00     0.024 H 
ATOM     48  H   LIG d   1       7.963   3.526  -6.276  0.00  0.00     0.024 H 
ATOM     49  H   LIG d   1       9.144   3.281  -7.585  0.00  0.00     0.024 H 
ENDBRANCH  11  46
TORSDOF 7
ENDMDL
MODEL 10
REMARK VINA RESULT:      -5.4      7.522     10.028
REMARK  7 active torsions:
REMARK  status: ('A' for Active; 'I' for Inactive)
REMARK    1  A    between atoms: C_1  and  C_2 
REMARK    2  A    between atoms: C_2  and  C_3 
REMARK    3  A    between atoms: C_2  and  C_4 
REMARK    4  A    between atoms: C_8  and  O_11 
REMARK    5  A    between atoms: C_9  and  O_10 
REMARK    6  A    between atoms: C_16  and  C_26 
REMARK    7  A    between atoms: C_16  and  C_27 
ROOT
ATOM      1  C   LIG d   1       9.780   7.332  -6.006  0.00  0.00     0.001 A 
ATOM      2  C   LIG d   1      10.068   8.588  -5.514  0.00  0.00    -0.044 A 
ATOM      3  C   LIG d   1      10.265   8.763  -4.145  0.00  0.00     0.029 A 
ATOM      4  C   LIG d   1      10.169   7.668  -3.273  0.00  0.00     0.025 A 
ATOM      5  C   LIG d   1       9.882   6.417  -3.771  0.00  0.00     0.164 A 
ATOM      6  C   LIG d   1       9.682   6.248  -5.143  0.00  0.00     0.162 A 
ATOM      7  C   LIG d   1      10.380   7.891  -1.796  0.00  0.00     0.104 C 
ATOM      8  C   LIG d   1      10.649   6.608  -1.059  0.00  0.00    -0.033 C 
ATOM      9  C   LIG d   1      10.951   6.867   0.418  0.00  0.00    -0.051 C 
ATOM     10  C   LIG d   1      12.168   7.793   0.510  0.00  0.00    -0.047 C 
ATOM     11  C   LIG d   1      11.818   9.132  -0.140  0.00  0.00    -0.027 C 
ATOM     12  C   LIG d   1      11.500   8.943  -1.623  0.00  0.00     0.029 C 
ATOM     13  H   LIG d   1      12.383   8.741  -2.229  0.00  0.00     0.036 H 
ATOM     14  C   LIG d   1      10.676  10.197  -2.069  0.00  0.00     0.170 C 
ATOM     15  H   LIG d   1      11.113  11.135  -1.727  0.00  0.00     0.082 H 
ATOM     16  C   LIG d   1      10.580  10.091  -3.584  0.00  0.00     0.204 C 
ATOM     17  O   LIG d   1      10.754  11.055  -4.299  0.00  0.00    -0.288 OA
ATOM     18  O   LIG d   1       9.370   9.954  -1.517  0.00  0.00    -0.452 OA
ATOM     19  C   LIG d   1       9.170   8.644  -1.274  0.00  0.00     0.319 C 
ATOM     20  O   LIG d   1       8.203   8.155  -0.738  0.00  0.00    -0.250 OA
ATOM     21  H   LIG d   1      10.140   9.430  -6.186  0.00  0.00     0.063 H 
ATOM     22  H   LIG d   1       9.774   5.961  -1.136  0.00  0.00     0.028 H 
ATOM     23  H   LIG d   1      11.502   6.107  -1.515  0.00  0.00     0.028 H 
ATOM     24  H   LIG d   1      10.091   7.343   0.889  0.00  0.00     0.027 H 
ATOM     25  H   LIG d   1      11.171   5.924   0.918  0.00  0.00     0.027 H 
ATOM     26  H   LIG d   1      12.428   7.952   1.556  0.00  0.00     0.027 H 
ATOM     27  H   LIG d   1      13.011   7.343  -0.014  0.00  0.00     0.027 H 
ENDROOT
BRANCH   1  28
ATOM     28  C   LIG d   1       9.564   7.135  -7.485  0.00  0.00    -0.018 C 
ATOM     29  H   LIG d   1       8.933   6.262  -7.647  0.00  0.00     0.035 H 
BRANCH  28  30
ATOM     30  C   LIG d   1       8.883   8.374  -8.069  0.00  0.00    -0.059 C 
ATOM     31  H   LIG d   1       7.869   8.450  -7.678  0.00  0.00     0.024 H 
ATOM     32  H   LIG d   1       9.447   9.264  -7.790  0.00  0.00     0.024 H 
ATOM     33  H   LIG d   1       8.848   8.292  -9.155  0.00  0.00     0.024 H 
ENDBRANCH  28  30
BRANCH  28  34
ATOM     34  C   LIG d   1      10.914   6.924  -8.172  0.00  0.00    -0.059 C 
ATOM     35  H   LIG d   1      10.814   7.125  -9.239  0.00  0.00     0.024 H 
ATOM     36  H   LIG d   1      11.653   7.602  -7.743  0.00  0.00     0.024 H 
ATOM     37  H   LIG d   1      11.240   5.894  -8.026  0.00  0.00     0.024 H 
ENDBRANCH  28  34
ENDBRANCH   1  28
BRANCH   6  38
ATOM     38  O   LIG d   1       9.393   5.016  -5.635  0.00  0.00    -0.503 OA
ATOM     39  H   LIG d   1       9.073   4.392  -4.970  0.00  0.00     0.292 HD
ENDBRANCH   6  38
BRANCH   5  40
ATOM     40  O   LIG d   1       9.791   5.352  -2.930  0.00  0.00    -0.503 OA
ATOM     41  H   LIG d   1      10.603   4.833  -2.862  0.00  0.00     0.292 HD
ENDBRANCH   5  40
BRANCH  11  42
ATOM     42  C   LIG d   1      10.600   9.732   0.565  0.00  0.00    -0.059 C 
ATOM     43  H   LIG d   1       9.768   9.792  -0.137  0.00  0.00     0.024 H 
ATOM     44  H   LIG d   1      10.319   9.099   1.407  0.00  0.00     0.024 H 
ATOM     45  H   LIG d   1      10.845  10.731   0.925  0.00  0.00     0.024 H 
ENDBRANCH  11  42
BRANCH  11  46
ATOM     46  C   LIG d   1      13.004  10.087   0.005  0.00  0.00    -0.059 C 
ATOM     47  H   LIG d   1      13.936   9.523  -0.064  0.00  0.00     0.024 H 
ATOM     48  H   LIG d   1      12.971  10.831  -0.791  0.00  0.00     0.024 H 
ATOM     49  H   LIG d   1      12.953  10.587   0.972  0.00  0.00     0.024 H 
ENDBRANCH  11  46
TORSDOF 7
ENDMDL
