MODEL 1
REMARK VINA RESULT:      -6.6      0.000      0.000
REMARK  5 active torsions:
REMARK  status: ('A' for Active; 'I' for Inactive)
REMARK    1  A    between atoms: C_1  and  C_2 
REMARK    2  A    between atoms: C_3  and  C_16 
REMARK    3  A    between atoms: C_4  and  C_8 
REMARK    4  A    between atoms: C_11  and  O_15 
REMARK    5  A    between atoms: C_13  and  O_14 
ROOT
ATOM      1  C   LIG d   1       4.569  -4.595  -6.672  0.00  0.00     0.041 A 
ATOM      2  C   LIG d   1       4.718  -3.296  -6.290  0.00  0.00     0.030 A 
ATOM      3  C   LIG d   1       4.614  -3.253  -4.876  0.00  0.00     0.104 A 
ATOM      4  N   LIG d   1       4.413  -4.481  -4.450  0.00  0.00    -0.173 NA
ATOM      5  N   LIG d   1       4.377  -5.334  -5.560  0.00  0.00    -0.281 N 
ATOM      6  H   LIG d   1       4.238  -6.294  -5.532  0.00  0.00     0.189 HD
ENDROOT
BRANCH   2   7
ATOM      7  C   LIG d   1       4.946  -2.138  -7.189  0.00  0.00    -0.010 A 
ATOM      8  C   LIG d   1       3.861  -1.423  -7.695  0.00  0.00    -0.009 A 
ATOM      9  C   LIG d   1       4.084  -0.342  -8.528  0.00  0.00     0.163 A 
ATOM     10  H   LIG d   1       2.853  -1.708  -7.432  0.00  0.00     0.066 H 
ATOM     11  C   LIG d   1       5.380   0.022  -8.868  0.00  0.00     0.162 A 
ATOM     12  O   LIG d   1       3.031   0.369  -9.027  0.00  0.00    -0.488 OA
ATOM     13  C   LIG d   1       6.458  -0.691  -8.371  0.00  0.00    -0.016 A 
ATOM     14  O   LIG d   1       5.584   1.087  -9.698  0.00  0.00    -0.488 OA
ATOM     15  C   LIG d   1       6.244  -1.769  -7.533  0.00  0.00    -0.050 A 
ATOM     16  H   LIG d   1       7.466  -0.405  -8.637  0.00  0.00     0.066 H 
ATOM     17  H   LIG d   1       7.085  -2.325  -7.145  0.00  0.00     0.062 H 
ATOM     18  C   LIG d   1       5.252   2.369  -9.163  0.00  0.00     0.093 C 
ATOM     19  C   LIG d   1       3.770   2.660  -9.339  0.00  0.00     0.016 C 
ATOM     20  H   LIG d   1       5.833   3.134  -9.678  0.00  0.00     0.070 H 
ATOM     21  H   LIG d   1       5.497   2.389  -8.100  0.00  0.00     0.070 H 
ATOM     22  C   LIG d   1       2.893   1.706  -8.544  0.00  0.00     0.093 C 
ATOM     23  H   LIG d   1       3.517   2.574 -10.396  0.00  0.00     0.033 H 
ATOM     24  H   LIG d   1       3.569   3.681  -9.012  0.00  0.00     0.033 H 
ATOM     25  H   LIG d   1       1.853   2.016  -8.634  0.00  0.00     0.070 H 
ATOM     26  H   LIG d   1       3.188   1.740  -7.495  0.00  0.00     0.070 H 
ENDBRANCH   2   7
BRANCH   1  27
ATOM     27  C   LIG d   1       4.608  -5.114  -8.086  0.00  0.00    -0.022 C 
ATOM     28  H   LIG d   1       3.970  -5.994  -8.167  0.00  0.00     0.029 H 
ATOM     29  H   LIG d   1       4.251  -4.342  -8.767  0.00  0.00     0.029 H 
ATOM     30  H   LIG d   1       5.632  -5.383  -8.346  0.00  0.00     0.029 H 
ENDBRANCH   1  27
BRANCH   3  31
ATOM     31  C   LIG d   1       4.715  -2.041  -4.030  0.00  0.00     0.044 A 
ATOM     32  C   LIG d   1       5.969  -1.511  -3.709  0.00  0.00     0.130 A 
ATOM     33  C   LIG d   1       6.056  -0.376  -2.923  0.00  0.00     0.022 A 
ATOM     34  C   LIG d   1       4.902   0.229  -2.446  0.00  0.00     0.120 A 
ATOM     35  H   LIG d   1       7.024   0.038  -2.678  0.00  0.00     0.069 H 
ATOM     36  C   LIG d   1       3.657  -0.299  -2.758  0.00  0.00    -0.019 A 
ATOM     37  C   LIG d   1       3.560  -1.428  -3.546  0.00  0.00    -0.045 A 
ATOM     38  H   LIG d   1       2.761   0.175  -2.385  0.00  0.00     0.065 H 
ATOM     39  H   LIG d   1       2.590  -1.836  -3.789  0.00  0.00     0.063 H 
BRANCH  32  40
ATOM     40  O   LIG d   1       7.098  -2.107  -4.174  0.00  0.00    -0.506 OA
ATOM     41  H   LIG d   1       7.008  -2.486  -5.058  0.00  0.00     0.292 HD
ENDBRANCH  32  40
BRANCH  34  42
ATOM     42  O   LIG d   1       4.992   1.340  -1.669  0.00  0.00    -0.507 OA
ATOM     43  H   LIG d   1       5.512   1.217  -0.864  0.00  0.00     0.292 HD
ENDBRANCH  34  42
ENDBRANCH   3  31
TORSDOF 5
ENDMDL
MODEL 2
REMARK VINA RESULT:      -6.6      1.975      2.325
REMARK  5 active torsions:
REMARK  status: ('A' for Active; 'I' for Inactive)
REMARK    1  A    between atoms: C_1  and  C_2 
REMARK    2  A    between atoms: C_3  and  C_16 
REMARK    3  A    between atoms: C_4  and  C_8 
REMARK    4  A    between atoms: C_11  and  O_15 
REMARK    5  A    between atoms: C_13  and  O_14 
ROOT
ATOM      1  C   LIG d   1       7.869  -3.032  -6.193  0.00  0.00     0.041 A 
ATOM      2  C   LIG d   1       7.051  -1.974  -5.933  0.00  0.00     0.030 A 
ATOM      3  C   LIG d   1       6.638  -2.075  -4.580  0.00  0.00     0.104 A 
ATOM      4  N   LIG d   1       7.196  -3.151  -4.070  0.00  0.00    -0.173 NA
ATOM      5  N   LIG d   1       7.965  -3.766  -5.065  0.00  0.00    -0.281 N 
ATOM      6  H   LIG d   1       8.481  -4.580  -4.959  0.00  0.00     0.189 HD
ENDROOT
BRANCH   2   7
ATOM      7  C   LIG d   1       6.661  -0.910  -6.892  0.00  0.00    -0.010 A 
ATOM      8  C   LIG d   1       5.497  -1.044  -7.648  0.00  0.00    -0.009 A 
ATOM      9  C   LIG d   1       5.141  -0.045  -8.535  0.00  0.00     0.163 A 
ATOM     10  H   LIG d   1       4.875  -1.919  -7.536  0.00  0.00     0.066 H 
ATOM     11  C   LIG d   1       5.943   1.078  -8.682  0.00  0.00     0.162 A 
ATOM     12  O   LIG d   1       4.001  -0.162  -9.278  0.00  0.00    -0.488 OA
ATOM     13  C   LIG d   1       7.103   1.209  -7.936  0.00  0.00    -0.016 A 
ATOM     14  O   LIG d   1       5.582   2.052  -9.567  0.00  0.00    -0.488 OA
ATOM     15  C   LIG d   1       7.463   0.219  -7.043  0.00  0.00    -0.050 A 
ATOM     16  H   LIG d   1       7.725   2.085  -8.053  0.00  0.00     0.066 H 
ATOM     17  H   LIG d   1       8.368   0.320  -6.461  0.00  0.00     0.062 H 
ATOM     18  C   LIG d   1       4.413   2.802  -9.231  0.00  0.00     0.093 C 
ATOM     19  C   LIG d   1       3.157   2.077  -9.689  0.00  0.00     0.016 C 
ATOM     20  H   LIG d   1       4.462   3.778  -9.713  0.00  0.00     0.070 H 
ATOM     21  H   LIG d   1       4.374   2.938  -8.150  0.00  0.00     0.070 H 
ATOM     22  C   LIG d   1       2.953   0.757  -8.964  0.00  0.00     0.093 C 
ATOM     23  H   LIG d   1       3.232   1.884 -10.759  0.00  0.00     0.033 H 
ATOM     24  H   LIG d   1       2.294   2.718  -9.507  0.00  0.00     0.033 H 
ATOM     25  H   LIG d   1       1.997   0.327  -9.263  0.00  0.00     0.070 H 
ATOM     26  H   LIG d   1       2.944   0.936  -7.889  0.00  0.00     0.070 H 
ENDBRANCH   2   7
BRANCH   1  27
ATOM     27  C   LIG d   1       8.544  -3.331  -7.506  0.00  0.00    -0.022 C 
ATOM     28  H   LIG d   1       8.707  -4.405  -7.594  0.00  0.00     0.029 H 
ATOM     29  H   LIG d   1       7.911  -2.991  -8.325  0.00  0.00     0.029 H 
ATOM     30  H   LIG d   1       9.502  -2.814  -7.548  0.00  0.00     0.029 H 
ENDBRANCH   1  27
BRANCH   3  31
ATOM     31  C   LIG d   1       5.740  -1.135  -3.869  0.00  0.00     0.044 A 
ATOM     32  C   LIG d   1       4.380  -1.432  -3.733  0.00  0.00     0.130 A 
ATOM     33  C   LIG d   1       3.547  -0.552  -3.063  0.00  0.00     0.022 A 
ATOM     34  C   LIG d   1       4.059   0.625  -2.538  0.00  0.00     0.120 A 
ATOM     35  H   LIG d   1       2.497  -0.782  -2.952  0.00  0.00     0.069 H 
ATOM     36  C   LIG d   1       5.408   0.924  -2.678  0.00  0.00    -0.019 A 
ATOM     37  C   LIG d   1       6.247   0.050  -3.339  0.00  0.00    -0.045 A 
ATOM     38  H   LIG d   1       5.802   1.842  -2.268  0.00  0.00     0.065 H 
ATOM     39  H   LIG d   1       7.295   0.285  -3.446  0.00  0.00     0.063 H 
BRANCH  32  40
ATOM     40  O   LIG d   1       3.879  -2.584  -4.251  0.00  0.00    -0.506 OA
ATOM     41  H   LIG d   1       3.137  -2.950  -3.752  0.00  0.00     0.292 HD
ENDBRANCH  32  40
BRANCH  34  42
ATOM     42  O   LIG d   1       3.238   1.489  -1.886  0.00  0.00    -0.507 OA
ATOM     43  H   LIG d   1       2.819   2.144  -2.460  0.00  0.00     0.292 HD
ENDBRANCH  34  42
ENDBRANCH   3  31
TORSDOF 5
ENDMDL
MODEL 3
REMARK VINA RESULT:      -6.4      1.689      2.198
REMARK  5 active torsions:
REMARK  status: ('A' for Active; 'I' for Inactive)
REMARK    1  A    between atoms: C_1  and  C_2 
REMARK    2  A    between atoms: C_3  and  C_16 
REMARK    3  A    between atoms: C_4  and  C_8 
REMARK    4  A    between atoms: C_11  and  O_15 
REMARK    5  A    between atoms: C_13  and  O_14 
ROOT
ATOM      1  C   LIG d   1       7.265  -3.714  -6.180  0.00  0.00     0.041 A 
ATOM      2  C   LIG d   1       6.359  -2.738  -5.891  0.00  0.00     0.030 A 
ATOM      3  C   LIG d   1       6.479  -2.443  -4.509  0.00  0.00     0.104 A 
ATOM      4  N   LIG d   1       7.419  -3.216  -4.012  0.00  0.00    -0.173 NA
ATOM      5  N   LIG d   1       7.919  -4.022  -5.041  0.00  0.00    -0.281 N 
ATOM      6  H   LIG d   1       8.619  -4.688  -4.950  0.00  0.00     0.189 HD
ENDROOT
BRANCH   2   7
ATOM      7  C   LIG d   1       5.420  -2.102  -6.847  0.00  0.00    -0.010 A 
ATOM      8  C   LIG d   1       5.494  -0.732  -7.092  0.00  0.00    -0.009 A 
ATOM      9  C   LIG d   1       4.617  -0.149  -7.988  0.00  0.00     0.163 A 
ATOM     10  H   LIG d   1       6.237  -0.131  -6.589  0.00  0.00     0.066 H 
ATOM     11  C   LIG d   1       3.659  -0.923  -8.630  0.00  0.00     0.162 A 
ATOM     12  O   LIG d   1       4.682   1.191  -8.240  0.00  0.00    -0.488 OA
ATOM     13  C   LIG d   1       3.580  -2.283  -8.383  0.00  0.00    -0.016 A 
ATOM     14  O   LIG d   1       2.795  -0.332  -9.507  0.00  0.00    -0.488 OA
ATOM     15  C   LIG d   1       4.456  -2.874  -7.494  0.00  0.00    -0.050 A 
ATOM     16  H   LIG d   1       2.833  -2.882  -8.885  0.00  0.00     0.066 H 
ATOM     17  H   LIG d   1       4.395  -3.935  -7.300  0.00  0.00     0.062 H 
ATOM     18  C   LIG d   1       3.370   0.154 -10.721  0.00  0.00     0.093 C 
ATOM     19  C   LIG d   1       3.946   1.547 -10.526  0.00  0.00     0.016 C 
ATOM     20  H   LIG d   1       2.601   0.187 -11.494  0.00  0.00     0.070 H 
ATOM     21  H   LIG d   1       4.165  -0.522 -11.036  0.00  0.00     0.070 H 
ATOM     22  C   LIG d   1       5.113   1.560  -9.551  0.00  0.00     0.093 C 
ATOM     23  H   LIG d   1       3.162   2.203 -10.147  0.00  0.00     0.033 H 
ATOM     24  H   LIG d   1       4.286   1.927 -11.490  0.00  0.00     0.033 H 
ATOM     25  H   LIG d   1       5.542   2.561  -9.519  0.00  0.00     0.070 H 
ATOM     26  H   LIG d   1       5.871   0.855  -9.891  0.00  0.00     0.070 H 
ENDBRANCH   2   7
BRANCH   1  27
ATOM     27  C   LIG d   1       7.494  -4.341  -7.531  0.00  0.00    -0.022 C 
ATOM     28  H   LIG d   1       7.539  -3.560  -8.291  0.00  0.00     0.029 H 
ATOM     29  H   LIG d   1       8.433  -4.894  -7.521  0.00  0.00     0.029 H 
ATOM     30  H   LIG d   1       6.674  -5.022  -7.759  0.00  0.00     0.029 H 
ENDBRANCH   1  27
BRANCH   3  31
ATOM     31  C   LIG d   1       5.685  -1.440  -3.760  0.00  0.00     0.044 A 
ATOM     32  C   LIG d   1       6.278  -0.243  -3.345  0.00  0.00     0.130 A 
ATOM     33  C   LIG d   1       5.530   0.691  -2.650  0.00  0.00     0.022 A 
ATOM     34  C   LIG d   1       4.199   0.436  -2.357  0.00  0.00     0.120 A 
ATOM     35  H   LIG d   1       5.985   1.619  -2.332  0.00  0.00     0.069 H 
ATOM     36  C   LIG d   1       3.610  -0.754  -2.763  0.00  0.00    -0.019 A 
ATOM     37  C   LIG d   1       4.346  -1.689  -3.461  0.00  0.00    -0.045 A 
ATOM     38  H   LIG d   1       2.573  -0.948  -2.533  0.00  0.00     0.065 H 
ATOM     39  H   LIG d   1       3.886  -2.613  -3.777  0.00  0.00     0.063 H 
BRANCH  32  40
ATOM     40  O   LIG d   1       7.584   0.003  -3.628  0.00  0.00    -0.506 OA
ATOM     41  H   LIG d   1       8.038  -0.730  -4.064  0.00  0.00     0.292 HD
ENDBRANCH  32  40
BRANCH  34  42
ATOM     42  O   LIG d   1       3.469   1.353  -1.670  0.00  0.00    -0.507 OA
ATOM     43  H   LIG d   1       2.514   1.206  -1.709  0.00  0.00     0.292 HD
ENDBRANCH  34  42
ENDBRANCH   3  31
TORSDOF 5
ENDMDL
MODEL 4
REMARK VINA RESULT:      -6.2      2.937      6.223
REMARK  5 active torsions:
REMARK  status: ('A' for Active; 'I' for Inactive)
REMARK    1  A    between atoms: C_1  and  C_2 
REMARK    2  A    between atoms: C_3  and  C_16 
REMARK    3  A    between atoms: C_4  and  C_8 
REMARK    4  A    between atoms: C_11  and  O_15 
REMARK    5  A    between atoms: C_13  and  O_14 
ROOT
ATOM      1  C   LIG d   1       4.793   0.790  -9.443  0.00  0.00     0.041 A 
ATOM      2  C   LIG d   1       4.513  -0.244  -8.601  0.00  0.00     0.030 A 
ATOM      3  C   LIG d   1       4.684  -1.447  -9.332  0.00  0.00     0.104 A 
ATOM      4  N   LIG d   1       5.051  -1.127 -10.554  0.00  0.00    -0.173 NA
ATOM      5  N   LIG d   1       5.119   0.268 -10.644  0.00  0.00    -0.281 N 
ATOM      6  H   LIG d   1       5.362   0.773 -11.436  0.00  0.00     0.189 HD
ENDROOT
BRANCH   2   7
ATOM      7  C   LIG d   1       4.102  -0.131  -7.180  0.00  0.00    -0.010 A 
ATOM      8  C   LIG d   1       5.019  -0.403  -6.165  0.00  0.00    -0.009 A 
ATOM      9  C   LIG d   1       4.629  -0.291  -4.844  0.00  0.00     0.163 A 
ATOM     10  H   LIG d   1       6.030  -0.693  -6.411  0.00  0.00     0.066 H 
ATOM     11  C   LIG d   1       3.328   0.078  -4.529  0.00  0.00     0.162 A 
ATOM     12  O   LIG d   1       5.518  -0.550  -3.840  0.00  0.00    -0.488 OA
ATOM     13  C   LIG d   1       2.414   0.343  -5.536  0.00  0.00    -0.016 A 
ATOM     14  O   LIG d   1       2.954   0.178  -3.219  0.00  0.00    -0.488 OA
ATOM     15  C   LIG d   1       2.798   0.238  -6.859  0.00  0.00    -0.050 A 
ATOM     16  H   LIG d   1       1.403   0.630  -5.287  0.00  0.00     0.066 H 
ATOM     17  H   LIG d   1       2.086   0.444  -7.645  0.00  0.00     0.062 H 
ATOM     18  C   LIG d   1       3.549   1.246  -2.479  0.00  0.00     0.093 C 
ATOM     19  C   LIG d   1       4.911   0.837  -1.942  0.00  0.00     0.016 C 
ATOM     20  H   LIG d   1       2.898   1.510  -1.645  0.00  0.00     0.070 H 
ATOM     21  H   LIG d   1       3.665   2.112  -3.130  0.00  0.00     0.070 H 
ATOM     22  C   LIG d   1       5.916   0.573  -3.052  0.00  0.00     0.093 C 
ATOM     23  H   LIG d   1       4.799  -0.068  -1.345  0.00  0.00     0.033 H 
ATOM     24  H   LIG d   1       5.292   1.634  -1.302  0.00  0.00     0.033 H 
ATOM     25  H   LIG d   1       6.893   0.375  -2.612  0.00  0.00     0.070 H 
ATOM     26  H   LIG d   1       5.983   1.454  -3.691  0.00  0.00     0.070 H 
ENDBRANCH   2   7
BRANCH   1  27
ATOM     27  C   LIG d   1       4.743   2.255  -9.097  0.00  0.00    -0.022 C 
ATOM     28  H   LIG d   1       3.814   2.685  -9.470  0.00  0.00     0.029 H 
ATOM     29  H   LIG d   1       4.791   2.375  -8.015  0.00  0.00     0.029 H 
ATOM     30  H   LIG d   1       5.590   2.766  -9.556  0.00  0.00     0.029 H 
ENDBRANCH   1  27
BRANCH   3  31
ATOM     31  C   LIG d   1       4.485  -2.821  -8.811  0.00  0.00     0.044 A 
ATOM     32  C   LIG d   1       3.307  -3.516  -9.097  0.00  0.00     0.130 A 
ATOM     33  C   LIG d   1       3.129  -4.801  -8.612  0.00  0.00     0.022 A 
ATOM     34  C   LIG d   1       4.115  -5.390  -7.834  0.00  0.00     0.120 A 
ATOM     35  H   LIG d   1       2.222  -5.342  -8.836  0.00  0.00     0.069 H 
ATOM     36  C   LIG d   1       5.283  -4.699  -7.544  0.00  0.00    -0.019 A 
ATOM     37  C   LIG d   1       5.471  -3.420  -8.028  0.00  0.00    -0.045 A 
ATOM     38  H   LIG d   1       6.048  -5.162  -6.938  0.00  0.00     0.065 H 
ATOM     39  H   LIG d   1       6.381  -2.885  -7.802  0.00  0.00     0.063 H 
BRANCH  32  40
ATOM     40  O   LIG d   1       2.340  -2.935  -9.856  0.00  0.00    -0.506 OA
ATOM     41  H   LIG d   1       2.163  -3.395 -10.687  0.00  0.00     0.292 HD
ENDBRANCH  32  40
BRANCH  34  42
ATOM     42  O   LIG d   1       3.936  -6.649  -7.355  0.00  0.00    -0.507 OA
ATOM     43  H   LIG d   1       3.835  -7.322  -8.042  0.00  0.00     0.292 HD
ENDBRANCH  34  42
ENDBRANCH   3  31
TORSDOF 5
ENDMDL
MODEL 5
REMARK VINA RESULT:      -6.0      2.590      4.077
REMARK  5 active torsions:
REMARK  status: ('A' for Active; 'I' for Inactive)
REMARK    1  A    between atoms: C_1  and  C_2 
REMARK    2  A    between atoms: C_3  and  C_16 
REMARK    3  A    between atoms: C_4  and  C_8 
REMARK    4  A    between atoms: C_11  and  O_15 
REMARK    5  A    between atoms: C_13  and  O_14 
ROOT
ATOM      1  C   LIG d   1       3.232  -0.601  -4.231  0.00  0.00     0.041 A 
ATOM      2  C   LIG d   1       4.084  -1.310  -5.023  0.00  0.00     0.030 A 
ATOM      3  C   LIG d   1       4.539  -2.423  -4.270  0.00  0.00     0.104 A 
ATOM      4  N   LIG d   1       3.973  -2.365  -3.085  0.00  0.00    -0.173 NA
ATOM      5  N   LIG d   1       3.155  -1.230  -3.039  0.00  0.00    -0.281 N 
ATOM      6  H   LIG d   1       2.623  -0.944  -2.280  0.00  0.00     0.189 HD
ENDROOT
BRANCH   2   7
ATOM      7  C   LIG d   1       4.468  -0.979  -6.417  0.00  0.00    -0.010 A 
ATOM      8  C   LIG d   1       3.719  -1.475  -7.484  0.00  0.00    -0.009 A 
ATOM      9  C   LIG d   1       4.082  -1.157  -8.779  0.00  0.00     0.163 A 
ATOM     10  H   LIG d   1       2.858  -2.100  -7.298  0.00  0.00     0.066 H 
ATOM     11  C   LIG d   1       5.191  -0.357  -9.017  0.00  0.00     0.162 A 
ATOM     12  O   LIG d   1       3.355  -1.633  -9.833  0.00  0.00    -0.488 OA
ATOM     13  C   LIG d   1       5.939   0.132  -7.959  0.00  0.00    -0.016 A 
ATOM     14  O   LIG d   1       5.542  -0.057 -10.303  0.00  0.00    -0.488 OA
ATOM     15  C   LIG d   1       5.580  -0.177  -6.662  0.00  0.00    -0.050 A 
ATOM     16  H   LIG d   1       6.802   0.755  -8.149  0.00  0.00     0.066 H 
ATOM     17  H   LIG d   1       6.163   0.204  -5.836  0.00  0.00     0.062 H 
ATOM     18  C   LIG d   1       4.642   0.797 -11.013  0.00  0.00     0.093 C 
ATOM     19  C   LIG d   1       3.508  -0.007 -11.629  0.00  0.00     0.016 C 
ATOM     20  H   LIG d   1       5.187   1.314 -11.803  0.00  0.00     0.070 H 
ATOM     21  H   LIG d   1       4.227   1.532 -10.324  0.00  0.00     0.070 H 
ATOM     22  C   LIG d   1       2.623  -0.659 -10.579  0.00  0.00     0.093 C 
ATOM     23  H   LIG d   1       3.932  -0.784 -12.266  0.00  0.00     0.033 H 
ATOM     24  H   LIG d   1       2.899   0.656 -12.243  0.00  0.00     0.033 H 
ATOM     25  H   LIG d   1       1.780  -1.143 -11.071  0.00  0.00     0.070 H 
ATOM     26  H   LIG d   1       2.250   0.107  -9.899  0.00  0.00     0.070 H 
ENDBRANCH   2   7
BRANCH   1  27
ATOM     27  C   LIG d   1       2.507   0.662  -4.616  0.00  0.00    -0.022 C 
ATOM     28  H   LIG d   1       2.883   1.019  -5.575  0.00  0.00     0.029 H 
ATOM     29  H   LIG d   1       1.439   0.458  -4.698  0.00  0.00     0.029 H 
ATOM     30  H   LIG d   1       2.674   1.423  -3.854  0.00  0.00     0.029 H 
ENDBRANCH   1  27
BRANCH   3  31
ATOM     31  C   LIG d   1       5.484  -3.465  -4.737  0.00  0.00     0.044 A 
ATOM     32  C   LIG d   1       5.014  -4.563  -5.465  0.00  0.00     0.130 A 
ATOM     33  C   LIG d   1       5.902  -5.530  -5.903  0.00  0.00     0.022 A 
ATOM     34  C   LIG d   1       7.253  -5.415  -5.610  0.00  0.00     0.120 A 
ATOM     35  H   LIG d   1       5.543  -6.376  -6.470  0.00  0.00     0.069 H 
ATOM     36  C   LIG d   1       7.720  -4.329  -4.882  0.00  0.00    -0.019 A 
ATOM     37  C   LIG d   1       6.843  -3.357  -4.447  0.00  0.00    -0.045 A 
ATOM     38  H   LIG d   1       8.773  -4.244  -4.657  0.00  0.00     0.065 H 
ATOM     39  H   LIG d   1       7.209  -2.513  -3.882  0.00  0.00     0.063 H 
BRANCH  32  40
ATOM     40  O   LIG d   1       3.690  -4.676  -5.747  0.00  0.00    -0.506 OA
ATOM     41  H   LIG d   1       3.472  -5.425  -6.317  0.00  0.00     0.292 HD
ENDBRANCH  32  40
BRANCH  34  42
ATOM     42  O   LIG d   1       8.122  -6.369  -6.036  0.00  0.00    -0.507 OA
ATOM     43  H   LIG d   1       7.768  -6.941  -6.731  0.00  0.00     0.292 HD
ENDBRANCH  34  42
ENDBRANCH   3  31
TORSDOF 5
ENDMDL
MODEL 6
REMARK VINA RESULT:      -5.9      3.832      6.905
REMARK  5 active torsions:
REMARK  status: ('A' for Active; 'I' for Inactive)
REMARK    1  A    between atoms: C_1  and  C_2 
REMARK    2  A    between atoms: C_3  and  C_16 
REMARK    3  A    between atoms: C_4  and  C_8 
REMARK    4  A    between atoms: C_11  and  O_15 
REMARK    5  A    between atoms: C_13  and  O_14 
ROOT
ATOM      1  C   LIG d   1       4.987  -0.558  -2.502  0.00  0.00     0.041 A 
ATOM      2  C   LIG d   1       6.088  -0.615  -3.303  0.00  0.00     0.030 A 
ATOM      3  C   LIG d   1       6.494   0.718  -3.565  0.00  0.00     0.104 A 
ATOM      4  N   LIG d   1       5.662   1.522  -2.940  0.00  0.00    -0.173 NA
ATOM      5  N   LIG d   1       4.709   0.742  -2.274  0.00  0.00    -0.281 N 
ATOM      6  H   LIG d   1       3.975   1.080  -1.738  0.00  0.00     0.189 HD
ENDROOT
BRANCH   2   7
ATOM      7  C   LIG d   1       6.742  -1.847  -3.810  0.00  0.00    -0.010 A 
ATOM      8  C   LIG d   1       7.936  -2.287  -3.242  0.00  0.00    -0.009 A 
ATOM      9  C   LIG d   1       8.535  -3.439  -3.717  0.00  0.00     0.163 A 
ATOM     10  H   LIG d   1       8.387  -1.735  -2.430  0.00  0.00     0.066 H 
ATOM     11  C   LIG d   1       7.957  -4.146  -4.763  0.00  0.00     0.162 A 
ATOM     12  O   LIG d   1       9.703  -3.883  -3.168  0.00  0.00    -0.488 OA
ATOM     13  C   LIG d   1       6.773  -3.706  -5.333  0.00  0.00    -0.016 A 
ATOM     14  O   LIG d   1       8.564  -5.277  -5.228  0.00  0.00    -0.488 OA
ATOM     15  C   LIG d   1       6.166  -2.560  -4.859  0.00  0.00    -0.050 A 
ATOM     16  H   LIG d   1       6.326  -4.260  -6.146  0.00  0.00     0.066 H 
ATOM     17  H   LIG d   1       5.242  -2.216  -5.303  0.00  0.00     0.062 H 
ATOM     18  C   LIG d   1       8.571  -6.394  -4.337  0.00  0.00     0.093 C 
ATOM     19  C   LIG d   1       9.738  -6.303  -3.366  0.00  0.00     0.016 C 
ATOM     20  H   LIG d   1       8.656  -7.314  -4.915  0.00  0.00     0.070 H 
ATOM     21  H   LIG d   1       7.637  -6.410  -3.774  0.00  0.00     0.070 H 
ATOM     22  C   LIG d   1       9.623  -5.107  -2.434  0.00  0.00     0.093 C 
ATOM     23  H   LIG d   1      10.664  -6.220  -3.934  0.00  0.00     0.033 H 
ATOM     24  H   LIG d   1       9.772  -7.214  -2.768  0.00  0.00     0.033 H 
ATOM     25  H   LIG d   1      10.432  -5.142  -1.704  0.00  0.00     0.070 H 
ATOM     26  H   LIG d   1       8.667  -5.150  -1.912  0.00  0.00     0.070 H 
ENDBRANCH   2   7
BRANCH   1  27
ATOM     27  C   LIG d   1       4.215  -1.737  -1.970  0.00  0.00    -0.022 C 
ATOM     28  H   LIG d   1       4.508  -1.927  -0.938  0.00  0.00     0.029 H 
ATOM     29  H   LIG d   1       3.148  -1.521  -2.012  0.00  0.00     0.029 H 
ATOM     30  H   LIG d   1       4.431  -2.617  -2.576  0.00  0.00     0.029 H 
ENDBRANCH   1  27
BRANCH   3  31
ATOM     31  C   LIG d   1       7.650   1.131  -4.395  0.00  0.00     0.044 A 
ATOM     32  C   LIG d   1       7.572   1.068  -5.790  0.00  0.00     0.130 A 
ATOM     33  C   LIG d   1       8.654   1.460  -6.559  0.00  0.00     0.022 A 
ATOM     34  C   LIG d   1       9.816   1.904  -5.946  0.00  0.00     0.120 A 
ATOM     35  H   LIG d   1       8.594   1.417  -7.637  0.00  0.00     0.069 H 
ATOM     36  C   LIG d   1       9.898   1.962  -4.562  0.00  0.00    -0.019 A 
ATOM     37  C   LIG d   1       8.822   1.579  -3.787  0.00  0.00    -0.045 A 
ATOM     38  H   LIG d   1      10.805   2.309  -4.089  0.00  0.00     0.065 H 
ATOM     39  H   LIG d   1       8.888   1.626  -2.710  0.00  0.00     0.063 H 
BRANCH  32  40
ATOM     40  O   LIG d   1       6.434   0.629  -6.388  0.00  0.00    -0.506 OA
ATOM     41  H   LIG d   1       5.841   0.145  -5.799  0.00  0.00     0.292 HD
ENDBRANCH  32  40
BRANCH  34  42
ATOM     42  O   LIG d   1      10.878   2.284  -6.704  0.00  0.00    -0.507 OA
ATOM     43  H   LIG d   1      11.247   3.144  -6.462  0.00  0.00     0.292 HD
ENDBRANCH  34  42
ENDBRANCH   3  31
TORSDOF 5
ENDMDL
MODEL 7
REMARK VINA RESULT:      -5.9      4.202      6.093
REMARK  5 active torsions:
REMARK  status: ('A' for Active; 'I' for Inactive)
REMARK    1  A    between atoms: C_1  and  C_2 
REMARK    2  A    between atoms: C_3  and  C_16 
REMARK    3  A    between atoms: C_4  and  C_8 
REMARK    4  A    between atoms: C_11  and  O_15 
REMARK    5  A    between atoms: C_13  and  O_14 
ROOT
ATOM      1  C   LIG d   1       8.773  -0.752  -7.469  0.00  0.00     0.041 A 
ATOM      2  C   LIG d   1       8.638  -0.129  -6.265  0.00  0.00     0.030 A 
ATOM      3  C   LIG d   1       9.599   0.913  -6.214  0.00  0.00     0.104 A 
ATOM      4  N   LIG d   1      10.267   0.899  -7.346  0.00  0.00    -0.173 NA
ATOM      5  N   LIG d   1       9.769  -0.138  -8.143  0.00  0.00    -0.281 N 
ATOM      6  H   LIG d   1      10.085  -0.375  -9.028  0.00  0.00     0.189 HD
ENDROOT
BRANCH   2   7
ATOM      7  C   LIG d   1       7.666  -0.479  -5.200  0.00  0.00    -0.010 A 
ATOM      8  C   LIG d   1       6.495   0.263  -5.054  0.00  0.00    -0.009 A 
ATOM      9  C   LIG d   1       5.592  -0.073  -4.062  0.00  0.00     0.163 A 
ATOM     10  H   LIG d   1       6.292   1.093  -5.715  0.00  0.00     0.066 H 
ATOM     11  C   LIG d   1       5.856  -1.137  -3.209  0.00  0.00     0.162 A 
ATOM     12  O   LIG d   1       4.440   0.643  -3.910  0.00  0.00    -0.488 OA
ATOM     13  C   LIG d   1       7.022  -1.872  -3.350  0.00  0.00    -0.016 A 
ATOM     14  O   LIG d   1       4.959  -1.453  -2.229  0.00  0.00    -0.488 OA
ATOM     15  C   LIG d   1       7.926  -1.545  -4.342  0.00  0.00    -0.050 A 
ATOM     16  H   LIG d   1       7.224  -2.699  -2.685  0.00  0.00     0.066 H 
ATOM     17  H   LIG d   1       8.835  -2.118  -4.453  0.00  0.00     0.062 H 
ATOM     18  C   LIG d   1       3.709  -1.982  -2.673  0.00  0.00     0.093 C 
ATOM     19  C   LIG d   1       2.747  -0.861  -3.036  0.00  0.00     0.016 C 
ATOM     20  H   LIG d   1       3.273  -2.587  -1.879  0.00  0.00     0.070 H 
ATOM     21  H   LIG d   1       3.876  -2.608  -3.550  0.00  0.00     0.070 H 
ATOM     22  C   LIG d   1       3.229  -0.046  -4.225  0.00  0.00     0.093 C 
ATOM     23  H   LIG d   1       2.635  -0.200  -2.176  0.00  0.00     0.033 H 
ATOM     24  H   LIG d   1       1.775  -1.294  -3.275  0.00  0.00     0.033 H 
ATOM     25  H   LIG d   1       2.463   0.680  -4.497  0.00  0.00     0.070 H 
ATOM     26  H   LIG d   1       3.406  -0.713  -5.069  0.00  0.00     0.070 H 
ENDBRANCH   2   7
BRANCH   1  27
ATOM     27  C   LIG d   1       7.958  -1.919  -7.961  0.00  0.00    -0.022 C 
ATOM     28  H   LIG d   1       8.033  -2.740  -7.248  0.00  0.00     0.029 H 
ATOM     29  H   LIG d   1       6.916  -1.619  -8.062  0.00  0.00     0.029 H 
ATOM     30  H   LIG d   1       8.337  -2.245  -8.930  0.00  0.00     0.029 H 
ENDBRANCH   1  27
BRANCH   3  31
ATOM     31  C   LIG d   1       9.810   1.851  -5.086  0.00  0.00     0.044 A 
ATOM     32  C   LIG d   1      10.765   1.565  -4.105  0.00  0.00     0.130 A 
ATOM     33  C   LIG d   1      10.961   2.447  -3.057  0.00  0.00     0.022 A 
ATOM     34  C   LIG d   1      10.204   3.606  -2.974  0.00  0.00     0.120 A 
ATOM     35  H   LIG d   1      11.701   2.231  -2.300  0.00  0.00     0.069 H 
ATOM     36  C   LIG d   1       9.251   3.889  -3.944  0.00  0.00    -0.019 A 
ATOM     37  C   LIG d   1       9.053   3.018  -4.996  0.00  0.00    -0.045 A 
ATOM     38  H   LIG d   1       8.664   4.792  -3.876  0.00  0.00     0.065 H 
ATOM     39  H   LIG d   1       8.312   3.240  -5.749  0.00  0.00     0.063 H 
BRANCH  32  40
ATOM     40  O   LIG d   1      11.503   0.427  -4.185  0.00  0.00    -0.506 OA
ATOM     41  H   LIG d   1      11.923   0.289  -5.044  0.00  0.00     0.292 HD
ENDBRANCH  32  40
BRANCH  34  42
ATOM     42  O   LIG d   1      10.395   4.468  -1.941  0.00  0.00    -0.507 OA
ATOM     43  H   LIG d   1      11.080   5.131  -2.103  0.00  0.00     0.292 HD
ENDBRANCH  34  42
ENDBRANCH   3  31
TORSDOF 5
ENDMDL
MODEL 8
REMARK VINA RESULT:      -5.9      3.258      6.644
REMARK  5 active torsions:
REMARK  status: ('A' for Active; 'I' for Inactive)
REMARK    1  A    between atoms: C_1  and  C_2 
REMARK    2  A    between atoms: C_3  and  C_16 
REMARK    3  A    between atoms: C_4  and  C_8 
REMARK    4  A    between atoms: C_11  and  O_15 
REMARK    5  A    between atoms: C_13  and  O_14 
ROOT
ATOM      1  C   LIG d   1       6.362   0.555  -8.805  0.00  0.00     0.041 A 
ATOM      2  C   LIG d   1       5.193  -0.100  -8.556  0.00  0.00     0.030 A 
ATOM      3  C   LIG d   1       4.728  -0.625  -9.789  0.00  0.00     0.104 A 
ATOM      4  N   LIG d   1       5.593  -0.290 -10.721  0.00  0.00    -0.173 NA
ATOM      5  N   LIG d   1       6.620   0.453 -10.126  0.00  0.00    -0.281 N 
ATOM      6  H   LIG d   1       7.387   0.829 -10.585  0.00  0.00     0.189 HD
ENDROOT
BRANCH   2   7
ATOM      7  C   LIG d   1       4.528  -0.236  -7.237  0.00  0.00    -0.010 A 
ATOM      8  C   LIG d   1       5.024  -1.136  -6.295  0.00  0.00    -0.009 A 
ATOM      9  C   LIG d   1       4.400  -1.253  -5.067  0.00  0.00     0.163 A 
ATOM     10  H   LIG d   1       5.896  -1.733  -6.521  0.00  0.00     0.066 H 
ATOM     11  C   LIG d   1       3.278  -0.488  -4.778  0.00  0.00     0.162 A 
ATOM     12  O   LIG d   1       4.879  -2.127  -4.134  0.00  0.00    -0.488 OA
ATOM     13  C   LIG d   1       2.780   0.402  -5.715  0.00  0.00    -0.016 A 
ATOM     14  O   LIG d   1       2.668  -0.620  -3.564  0.00  0.00    -0.488 OA
ATOM     15  C   LIG d   1       3.401   0.528  -6.942  0.00  0.00    -0.050 A 
ATOM     16  H   LIG d   1       1.906   0.995  -5.487  0.00  0.00     0.066 H 
ATOM     17  H   LIG d   1       3.013   1.222  -7.674  0.00  0.00     0.062 H 
ATOM     18  C   LIG d   1       3.409  -0.149  -2.437  0.00  0.00     0.093 C 
ATOM     19  C   LIG d   1       4.374  -1.215  -1.941  0.00  0.00     0.016 C 
ATOM     20  H   LIG d   1       2.717   0.111  -1.635  0.00  0.00     0.070 H 
ATOM     21  H   LIG d   1       3.973   0.738  -2.725  0.00  0.00     0.070 H 
ATOM     22  C   LIG d   1       5.451  -1.541  -2.963  0.00  0.00     0.093 C 
ATOM     23  H   LIG d   1       3.812  -2.123  -1.718  0.00  0.00     0.033 H 
ATOM     24  H   LIG d   1       4.850  -0.862  -1.026  0.00  0.00     0.033 H 
ATOM     25  H   LIG d   1       6.163  -2.239  -2.523  0.00  0.00     0.070 H 
ATOM     26  H   LIG d   1       5.972  -0.624  -3.239  0.00  0.00     0.070 H 
ENDBRANCH   2   7
BRANCH   1  27
ATOM     27  C   LIG d   1       7.213   1.269  -7.788  0.00  0.00    -0.022 C 
ATOM     28  H   LIG d   1       7.911   0.563  -7.339  0.00  0.00     0.029 H 
ATOM     29  H   LIG d   1       7.768   2.069  -8.276  0.00  0.00     0.029 H 
ATOM     30  H   LIG d   1       6.574   1.692  -7.012  0.00  0.00     0.029 H 
ENDBRANCH   1  27
BRANCH   3  31
ATOM     31  C   LIG d   1       3.488  -1.412  -9.990  0.00  0.00     0.044 A 
ATOM     32  C   LIG d   1       3.521  -2.807  -9.904  0.00  0.00     0.130 A 
ATOM     33  C   LIG d   1       2.358  -3.536 -10.087  0.00  0.00     0.022 A 
ATOM     34  C   LIG d   1       1.167  -2.883 -10.367  0.00  0.00     0.120 A 
ATOM     35  H   LIG d   1       2.380  -4.614 -10.016  0.00  0.00     0.069 H 
ATOM     36  C   LIG d   1       1.134  -1.498 -10.458  0.00  0.00    -0.019 A 
ATOM     37  C   LIG d   1       2.287  -0.763 -10.271  0.00  0.00    -0.045 A 
ATOM     38  H   LIG d   1       0.204  -0.994 -10.676  0.00  0.00     0.065 H 
ATOM     39  H   LIG d   1       2.258   0.314 -10.342  0.00  0.00     0.063 H 
BRANCH  32  40
ATOM     40  O   LIG d   1       4.690  -3.445  -9.634  0.00  0.00    -0.506 OA
ATOM     41  H   LIG d   1       4.666  -3.989  -8.836  0.00  0.00     0.292 HD
ENDBRANCH  32  40
BRANCH  34  42
ATOM     42  O   LIG d   1       0.029  -3.602 -10.552  0.00  0.00    -0.507 OA
ATOM     43  H   LIG d   1      -0.777  -3.140 -10.281  0.00  0.00     0.292 HD
ENDBRANCH  34  42
ENDBRANCH   3  31
TORSDOF 5
ENDMDL
MODEL 9
REMARK VINA RESULT:      -5.9      3.016      5.400
REMARK  5 active torsions:
REMARK  status: ('A' for Active; 'I' for Inactive)
REMARK    1  A    between atoms: C_1  and  C_2 
REMARK    2  A    between atoms: C_3  and  C_16 
REMARK    3  A    between atoms: C_4  and  C_8 
REMARK    4  A    between atoms: C_11  and  O_15 
REMARK    5  A    between atoms: C_13  and  O_14 
ROOT
ATOM      1  C   LIG d   1       3.816  -1.620  -8.585  0.00  0.00     0.041 A 
ATOM      2  C   LIG d   1       4.244  -1.714  -7.295  0.00  0.00     0.030 A 
ATOM      3  C   LIG d   1       3.785  -0.562  -6.608  0.00  0.00     0.104 A 
ATOM      4  N   LIG d   1       3.114   0.176  -7.465  0.00  0.00    -0.173 NA
ATOM      5  N   LIG d   1       3.126  -0.466  -8.708  0.00  0.00    -0.281 N 
ATOM      6  H   LIG d   1       2.709  -0.138  -9.520  0.00  0.00     0.189 HD
ENDROOT
BRANCH   2   7
ATOM      7  C   LIG d   1       5.046  -2.820  -6.716  0.00  0.00    -0.010 A 
ATOM      8  C   LIG d   1       4.410  -3.955  -6.216  0.00  0.00    -0.009 A 
ATOM      9  C   LIG d   1       5.165  -4.983  -5.683  0.00  0.00     0.163 A 
ATOM     10  H   LIG d   1       3.333  -4.034  -6.252  0.00  0.00     0.066 H 
ATOM     11  C   LIG d   1       6.549  -4.879  -5.634  0.00  0.00     0.162 A 
ATOM     12  O   LIG d   1       4.555  -6.102  -5.193  0.00  0.00    -0.488 OA
ATOM     13  C   LIG d   1       7.182  -3.750  -6.124  0.00  0.00    -0.016 A 
ATOM     14  O   LIG d   1       7.282  -5.899  -5.097  0.00  0.00    -0.488 OA
ATOM     15  C   LIG d   1       6.434  -2.721  -6.664  0.00  0.00    -0.050 A 
ATOM     16  H   LIG d   1       8.259  -3.673  -6.085  0.00  0.00     0.066 H 
ATOM     17  H   LIG d   1       6.927  -1.839  -7.047  0.00  0.00     0.062 H 
ATOM     18  C   LIG d   1       7.294  -7.119  -5.840  0.00  0.00     0.093 C 
ATOM     19  C   LIG d   1       6.077  -7.968  -5.504  0.00  0.00     0.016 C 
ATOM     20  H   LIG d   1       8.199  -7.677  -5.599  0.00  0.00     0.070 H 
ATOM     21  H   LIG d   1       7.288  -6.890  -6.906  0.00  0.00     0.070 H 
ATOM     22  C   LIG d   1       4.776  -7.307  -5.929  0.00  0.00     0.093 C 
ATOM     23  H   LIG d   1       6.052  -8.138  -4.428  0.00  0.00     0.033 H 
ATOM     24  H   LIG d   1       6.168  -8.929  -6.010  0.00  0.00     0.033 H 
ATOM     25  H   LIG d   1       3.949  -7.994  -5.749  0.00  0.00     0.070 H 
ATOM     26  H   LIG d   1       4.823  -7.074  -6.992  0.00  0.00     0.070 H 
ENDBRANCH   2   7
BRANCH   1  27
ATOM     27  C   LIG d   1       4.070  -2.622  -9.681  0.00  0.00    -0.022 C 
ATOM     28  H   LIG d   1       3.261  -3.352  -9.701  0.00  0.00     0.029 H 
ATOM     29  H   LIG d   1       4.119  -2.107 -10.640  0.00  0.00     0.029 H 
ATOM     30  H   LIG d   1       5.015  -3.133  -9.494  0.00  0.00     0.029 H 
ENDBRANCH   1  27
BRANCH   3  31
ATOM     31  C   LIG d   1       4.019  -0.247  -5.179  0.00  0.00     0.044 A 
ATOM     32  C   LIG d   1       2.937  -0.091  -4.308  0.00  0.00     0.130 A 
ATOM     33  C   LIG d   1       3.163   0.198  -2.973  0.00  0.00     0.022 A 
ATOM     34  C   LIG d   1       4.460   0.343  -2.504  0.00  0.00     0.120 A 
ATOM     35  H   LIG d   1       2.328   0.314  -2.297  0.00  0.00     0.069 H 
ATOM     36  C   LIG d   1       5.536   0.195  -3.369  0.00  0.00    -0.019 A 
ATOM     37  C   LIG d   1       5.320  -0.099  -4.700  0.00  0.00    -0.045 A 
ATOM     38  H   LIG d   1       6.544   0.309  -3.000  0.00  0.00     0.065 H 
ATOM     39  H   LIG d   1       6.159  -0.215  -5.371  0.00  0.00     0.063 H 
BRANCH  32  40
ATOM     40  O   LIG d   1       1.666  -0.230  -4.769  0.00  0.00    -0.506 OA
ATOM     41  H   LIG d   1       1.157   0.591  -4.773  0.00  0.00     0.292 HD
ENDBRANCH  32  40
BRANCH  34  42
ATOM     42  O   LIG d   1       4.678   0.632  -1.195  0.00  0.00    -0.507 OA
ATOM     43  H   LIG d   1       4.062   1.280  -0.826  0.00  0.00     0.292 HD
ENDBRANCH  34  42
ENDBRANCH   3  31
TORSDOF 5
ENDMDL
