MODEL 1
REMARK VINA RESULT:      -6.8      0.000      0.000
REMARK  7 active torsions:
REMARK  status: ('A' for Active; 'I' for Inactive)
REMARK    1  A    between atoms: C_4  and  C_7 
REMARK    2  A    between atoms: C_9  and  C_14 
REMARK    3  A    between atoms: C_14  and  C_15 
REMARK    4  A    between atoms: C_15  and  O_17 
REMARK    5  A    between atoms: O_17  and  C_18 
REMARK    6  A    between atoms: C_18  and  C_19 
REMARK    7  A    between atoms: C_19  and  C_21 
ROOT
ATOM      1  C   LIG d   1       5.386  -0.918  -7.413  0.00  0.00     0.074 C 
ATOM      2  H   LIG d   1       5.865  -0.513  -8.304  0.00  0.00     0.040 H 
ATOM      3  H   LIG d   1       4.793  -0.139  -6.935  0.00  0.00     0.040 H 
ENDROOT
BRANCH   1   4
ATOM      4  C   LIG d   1       4.475  -2.082  -7.808  0.00  0.00     0.102 C 
ATOM      5  C   LIG d   1       3.142  -1.561  -8.386  0.00  0.00     0.113 C 
ATOM      6  H   LIG d   1       2.356  -1.613  -7.632  0.00  0.00     0.067 H 
ATOM      7  O   LIG d   1       2.839  -2.442  -9.483  0.00  0.00    -0.344 OA
ATOM      8  C   LIG d   1       3.882  -3.432  -9.529  0.00  0.00     0.149 C 
ATOM      9  O   LIG d   1       5.040  -2.828  -8.915  0.00  0.00    -0.347 OA
ATOM     10  H   LIG d   1       3.581  -4.319  -8.971  0.00  0.00     0.087 H 
ATOM     11  H   LIG d   1       4.100  -3.698 -10.564  0.00  0.00     0.087 H 
ATOM     12  H   LIG d   1       4.296  -2.736  -6.954  0.00  0.00     0.063 H 
BRANCH   5  13
ATOM     13  C   LIG d   1       3.299  -0.146  -8.879  0.00  0.00    -0.016 A 
ATOM     14  C   LIG d   1       2.931   0.913  -8.071  0.00  0.00    -0.056 A 
ATOM     15  C   LIG d   1       3.076   2.211  -8.523  0.00  0.00    -0.061 A 
ATOM     16  H   LIG d   1       2.530   0.727  -7.086  0.00  0.00     0.062 H 
ATOM     17  C   LIG d   1       3.591   2.449  -9.784  0.00  0.00    -0.062 A 
ATOM     18  H   LIG d   1       2.788   3.039  -7.891  0.00  0.00     0.062 H 
ATOM     19  C   LIG d   1       3.959   1.391 -10.592  0.00  0.00    -0.061 A 
ATOM     20  H   LIG d   1       3.704   3.465 -10.137  0.00  0.00     0.062 H 
ATOM     21  C   LIG d   1       3.818   0.093 -10.138  0.00  0.00    -0.056 A 
ATOM     22  H   LIG d   1       4.361   1.578 -11.577  0.00  0.00     0.062 H 
ATOM     23  H   LIG d   1       4.110  -0.734 -10.768  0.00  0.00     0.062 H 
ENDBRANCH   5  13
ENDBRANCH   1   4
BRANCH   1  24
ATOM     24  C   LIG d   1       6.440  -1.407  -6.454  0.00  0.00     0.310 C 
ATOM     25  O   LIG d   1       7.409  -0.723  -6.220  0.00  0.00    -0.251 OA
BRANCH  24  26
ATOM     26  O   LIG d   1       6.304  -2.601  -5.858  0.00  0.00    -0.457 OA
BRANCH  26  27
ATOM     27  C   LIG d   1       6.325  -2.621  -4.407  0.00  0.00     0.155 C 
ATOM     28  H   LIG d   1       6.704  -3.491  -4.091  0.00  0.00     0.078 H 
ATOM     29  H   LIG d   1       6.944  -1.802  -4.041  0.00  0.00     0.078 H 
BRANCH  27  30
ATOM     30  C   LIG d   1       4.922  -2.464  -3.880  0.00  0.00     0.200 C 
ATOM     31  O   LIG d   1       4.177  -3.421  -3.848  0.00  0.00    -0.288 OA
BRANCH  30  32
ATOM     32  C   LIG d   1       4.457  -1.153  -3.403  0.00  0.00     0.021 A 
ATOM     33  C   LIG d   1       3.588  -0.387  -4.188  0.00  0.00    -0.051 A 
ATOM     34  C   LIG d   1       3.157   0.841  -3.735  0.00  0.00    -0.061 A 
ATOM     35  H   LIG d   1       3.254  -0.758  -5.146  0.00  0.00     0.062 H 
ATOM     36  C   LIG d   1       3.582   1.318  -2.507  0.00  0.00    -0.062 A 
ATOM     37  H   LIG d   1       2.486   1.434  -4.339  0.00  0.00     0.062 H 
ATOM     38  C   LIG d   1       4.442   0.567  -1.725  0.00  0.00    -0.061 A 
ATOM     39  H   LIG d   1       3.240   2.282  -2.157  0.00  0.00     0.062 H 
ATOM     40  C   LIG d   1       4.878  -0.666  -2.162  0.00  0.00    -0.051 A 
ATOM     41  H   LIG d   1       4.770   0.946  -0.769  0.00  0.00     0.062 H 
ATOM     42  H   LIG d   1       5.546  -1.253  -1.548  0.00  0.00     0.062 H 
ENDBRANCH  30  32
ENDBRANCH  27  30
ENDBRANCH  26  27
ENDBRANCH  24  26
ENDBRANCH   1  24
TORSDOF 7
ENDMDL
MODEL 2
REMARK VINA RESULT:      -6.7      1.996      6.598
REMARK  7 active torsions:
REMARK  status: ('A' for Active; 'I' for Inactive)
REMARK    1  A    between atoms: C_4  and  C_7 
REMARK    2  A    between atoms: C_9  and  C_14 
REMARK    3  A    between atoms: C_14  and  C_15 
REMARK    4  A    between atoms: C_15  and  O_17 
REMARK    5  A    between atoms: O_17  and  C_18 
REMARK    6  A    between atoms: C_18  and  C_19 
REMARK    7  A    between atoms: C_19  and  C_21 
ROOT
ATOM      1  C   LIG d   1       5.876  -0.604  -5.939  0.00  0.00     0.074 C 
ATOM      2  H   LIG d   1       4.934  -1.152  -5.912  0.00  0.00     0.040 H 
ATOM      3  H   LIG d   1       5.828   0.235  -5.245  0.00  0.00     0.040 H 
ENDROOT
BRANCH   1   4
ATOM      4  C   LIG d   1       7.019  -1.537  -5.534  0.00  0.00     0.102 C 
ATOM      5  C   LIG d   1       7.386  -1.337  -4.047  0.00  0.00     0.113 C 
ATOM      6  H   LIG d   1       8.278  -0.718  -3.958  0.00  0.00     0.067 H 
ATOM      7  O   LIG d   1       7.645  -2.661  -3.544  0.00  0.00    -0.344 OA
ATOM      8  C   LIG d   1       7.488  -3.570  -4.647  0.00  0.00     0.149 C 
ATOM      9  O   LIG d   1       6.597  -2.923  -5.580  0.00  0.00    -0.347 OA
ATOM     10  H   LIG d   1       8.453  -3.757  -5.119  0.00  0.00     0.087 H 
ATOM     11  H   LIG d   1       7.053  -4.508  -4.301  0.00  0.00     0.087 H 
ATOM     12  H   LIG d   1       7.889  -1.377  -6.171  0.00  0.00     0.063 H 
BRANCH   5  13
ATOM     13  C   LIG d   1       6.237  -0.710  -3.301  0.00  0.00    -0.016 A 
ATOM     14  C   LIG d   1       5.275  -1.510  -2.714  0.00  0.00    -0.056 A 
ATOM     15  C   LIG d   1       4.221  -0.935  -2.029  0.00  0.00    -0.061 A 
ATOM     16  H   LIG d   1       5.346  -2.585  -2.791  0.00  0.00     0.062 H 
ATOM     17  C   LIG d   1       4.131   0.441  -1.931  0.00  0.00    -0.062 A 
ATOM     18  H   LIG d   1       3.469  -1.560  -1.571  0.00  0.00     0.062 H 
ATOM     19  C   LIG d   1       5.093   1.242  -2.517  0.00  0.00    -0.061 A 
ATOM     20  H   LIG d   1       3.307   0.891  -1.395  0.00  0.00     0.062 H 
ATOM     21  C   LIG d   1       6.149   0.665  -3.199  0.00  0.00    -0.056 A 
ATOM     22  H   LIG d   1       5.022   2.316  -2.440  0.00  0.00     0.062 H 
ATOM     23  H   LIG d   1       6.903   1.291  -3.653  0.00  0.00     0.062 H 
ENDBRANCH   5  13
ENDBRANCH   1   4
BRANCH   1  24
ATOM     24  C   LIG d   1       6.118  -0.089  -7.334  0.00  0.00     0.310 C 
ATOM     25  O   LIG d   1       6.296  -0.866  -8.243  0.00  0.00    -0.251 OA
BRANCH  24  26
ATOM     26  O   LIG d   1       6.135   1.232  -7.569  0.00  0.00    -0.457 OA
BRANCH  26  27
ATOM     27  C   LIG d   1       6.036   1.658  -8.952  0.00  0.00     0.155 C 
ATOM     28  H   LIG d   1       6.623   2.454  -9.099  0.00  0.00     0.078 H 
ATOM     29  H   LIG d   1       6.355   0.847  -9.607  0.00  0.00     0.078 H 
BRANCH  27  30
ATOM     30  C   LIG d   1       4.607   2.023  -9.266  0.00  0.00     0.200 C 
ATOM     31  O   LIG d   1       4.195   3.133  -9.004  0.00  0.00    -0.288 OA
BRANCH  30  32
ATOM     32  C   LIG d   1       3.715   1.034  -9.890  0.00  0.00     0.021 A 
ATOM     33  C   LIG d   1       2.588   0.571  -9.202  0.00  0.00    -0.051 A 
ATOM     34  C   LIG d   1       1.757  -0.356  -9.793  0.00  0.00    -0.061 A 
ATOM     35  H   LIG d   1       2.369   0.940  -8.211  0.00  0.00     0.062 H 
ATOM     36  C   LIG d   1       2.035  -0.829 -11.065  0.00  0.00    -0.062 A 
ATOM     37  H   LIG d   1       0.887  -0.715  -9.264  0.00  0.00     0.062 H 
ATOM     38  C   LIG d   1       3.148  -0.377 -11.751  0.00  0.00    -0.061 A 
ATOM     39  H   LIG d   1       1.379  -1.556 -11.522  0.00  0.00     0.062 H 
ATOM     40  C   LIG d   1       3.986   0.555 -11.175  0.00  0.00    -0.051 A 
ATOM     41  H   LIG d   1       3.359  -0.751 -12.741  0.00  0.00     0.062 H 
ATOM     42  H   LIG d   1       4.852   0.910 -11.714  0.00  0.00     0.062 H 
ENDBRANCH  30  32
ENDBRANCH  27  30
ENDBRANCH  26  27
ENDBRANCH  24  26
ENDBRANCH   1  24
TORSDOF 7
ENDMDL
MODEL 3
REMARK VINA RESULT:      -6.7      1.424      2.152
REMARK  7 active torsions:
REMARK  status: ('A' for Active; 'I' for Inactive)
REMARK    1  A    between atoms: C_4  and  C_7 
REMARK    2  A    between atoms: C_9  and  C_14 
REMARK    3  A    between atoms: C_14  and  C_15 
REMARK    4  A    between atoms: C_15  and  O_17 
REMARK    5  A    between atoms: O_17  and  C_18 
REMARK    6  A    between atoms: C_18  and  C_19 
REMARK    7  A    between atoms: C_19  and  C_21 
ROOT
ATOM      1  C   LIG d   1       3.891  -2.299  -8.728  0.00  0.00     0.074 C 
ATOM      2  H   LIG d   1       4.678  -1.927  -9.383  0.00  0.00     0.040 H 
ATOM      3  H   LIG d   1       3.574  -1.504  -8.054  0.00  0.00     0.040 H 
ENDROOT
BRANCH   1   4
ATOM      4  C   LIG d   1       2.700  -2.758  -9.573  0.00  0.00     0.102 C 
ATOM      5  C   LIG d   1       1.753  -1.575  -9.869  0.00  0.00     0.113 C 
ATOM      6  H   LIG d   1       0.891  -1.604  -9.203  0.00  0.00     0.067 H 
ATOM      7  O   LIG d   1       1.336  -1.762 -11.233  0.00  0.00    -0.344 OA
ATOM      8  C   LIG d   1       1.948  -2.977 -11.699  0.00  0.00     0.149 C 
ATOM      9  O   LIG d   1       3.131  -3.168 -10.894  0.00  0.00    -0.347 OA
ATOM     10  H   LIG d   1       1.265  -3.816 -11.566  0.00  0.00     0.087 H 
ATOM     11  H   LIG d   1       2.221  -2.880 -12.751  0.00  0.00     0.087 H 
ATOM     12  H   LIG d   1       2.164  -3.565  -9.073  0.00  0.00     0.063 H 
BRANCH   5  13
ATOM     13  C   LIG d   1       2.483  -0.266  -9.720  0.00  0.00    -0.016 A 
ATOM     14  C   LIG d   1       2.451   0.411  -8.515  0.00  0.00    -0.056 A 
ATOM     15  C   LIG d   1       3.121   1.611  -8.377  0.00  0.00    -0.061 A 
ATOM     16  H   LIG d   1       1.902   0.001  -7.680  0.00  0.00     0.062 H 
ATOM     17  C   LIG d   1       3.826   2.135  -9.446  0.00  0.00    -0.062 A 
ATOM     18  H   LIG d   1       3.096   2.140  -7.436  0.00  0.00     0.062 H 
ATOM     19  C   LIG d   1       3.858   1.459 -10.651  0.00  0.00    -0.061 A 
ATOM     20  H   LIG d   1       4.349   3.075  -9.338  0.00  0.00     0.062 H 
ATOM     21  C   LIG d   1       3.191   0.256 -10.786  0.00  0.00    -0.056 A 
ATOM     22  H   LIG d   1       4.408   1.869 -11.485  0.00  0.00     0.062 H 
ATOM     23  H   LIG d   1       3.220  -0.274 -11.727  0.00  0.00     0.062 H 
ENDBRANCH   5  13
ENDBRANCH   1   4
BRANCH   1  24
ATOM     24  C   LIG d   1       4.414  -3.461  -7.924  0.00  0.00     0.310 C 
ATOM     25  O   LIG d   1       4.935  -4.397  -8.483  0.00  0.00    -0.251 OA
BRANCH  24  26
ATOM     26  O   LIG d   1       4.303  -3.456  -6.586  0.00  0.00    -0.457 OA
BRANCH  26  27
ATOM     27  C   LIG d   1       4.843  -2.308  -5.882  0.00  0.00     0.155 C 
ATOM     28  H   LIG d   1       5.841  -2.317  -5.947  0.00  0.00     0.078 H 
ATOM     29  H   LIG d   1       4.458  -1.392  -6.332  0.00  0.00     0.078 H 
BRANCH  27  30
ATOM     30  C   LIG d   1       4.433  -2.367  -4.433  0.00  0.00     0.200 C 
ATOM     31  O   LIG d   1       4.297  -3.441  -3.886  0.00  0.00    -0.288 OA
BRANCH  30  32
ATOM     32  C   LIG d   1       4.200  -1.124  -3.683  0.00  0.00     0.021 A 
ATOM     33  C   LIG d   1       4.696  -0.984  -2.382  0.00  0.00    -0.051 A 
ATOM     34  C   LIG d   1       4.473   0.184  -1.685  0.00  0.00    -0.061 A 
ATOM     35  H   LIG d   1       5.254  -1.789  -1.926  0.00  0.00     0.062 H 
ATOM     36  C   LIG d   1       3.761   1.217  -2.269  0.00  0.00    -0.062 A 
ATOM     37  H   LIG d   1       4.855   0.294  -0.681  0.00  0.00     0.062 H 
ATOM     38  C   LIG d   1       3.265   1.087  -3.554  0.00  0.00    -0.061 A 
ATOM     39  H   LIG d   1       3.589   2.130  -1.717  0.00  0.00     0.062 H 
ATOM     40  C   LIG d   1       3.485  -0.074  -4.267  0.00  0.00    -0.051 A 
ATOM     41  H   LIG d   1       2.709   1.896  -4.003  0.00  0.00     0.062 H 
ATOM     42  H   LIG d   1       3.102  -0.172  -5.272  0.00  0.00     0.062 H 
ENDBRANCH  30  32
ENDBRANCH  27  30
ENDBRANCH  26  27
ENDBRANCH  24  26
ENDBRANCH   1  24
TORSDOF 7
ENDMDL
MODEL 4
REMARK VINA RESULT:      -6.6      2.451      4.475
REMARK  7 active torsions:
REMARK  status: ('A' for Active; 'I' for Inactive)
REMARK    1  A    between atoms: C_4  and  C_7 
REMARK    2  A    between atoms: C_9  and  C_14 
REMARK    3  A    between atoms: C_14  and  C_15 
REMARK    4  A    between atoms: C_15  and  O_17 
REMARK    5  A    between atoms: O_17  and  C_18 
REMARK    6  A    between atoms: C_18  and  C_19 
REMARK    7  A    between atoms: C_19  and  C_21 
ROOT
ATOM      1  C   LIG d   1       5.545   0.286  -7.482  0.00  0.00     0.074 C 
ATOM      2  H   LIG d   1       5.546   0.696  -6.473  0.00  0.00     0.040 H 
ATOM      3  H   LIG d   1       6.210   0.875  -8.114  0.00  0.00     0.040 H 
ENDROOT
BRANCH   1   4
ATOM      4  C   LIG d   1       6.032  -1.165  -7.442  0.00  0.00     0.102 C 
ATOM      5  C   LIG d   1       7.392  -1.265  -6.719  0.00  0.00     0.113 C 
ATOM      6  H   LIG d   1       8.202  -1.343  -7.444  0.00  0.00     0.067 H 
ATOM      7  O   LIG d   1       7.310  -2.467  -5.932  0.00  0.00    -0.344 OA
ATOM      8  C   LIG d   1       6.026  -3.058  -6.196  0.00  0.00     0.149 C 
ATOM      9  O   LIG d   1       5.164  -1.979  -6.616  0.00  0.00    -0.347 OA
ATOM     10  H   LIG d   1       6.112  -3.800  -6.991  0.00  0.00     0.087 H 
ATOM     11  H   LIG d   1       5.634  -3.522  -5.291  0.00  0.00     0.087 H 
ATOM     12  H   LIG d   1       6.101  -1.574  -8.451  0.00  0.00     0.063 H 
BRANCH   5  13
ATOM     13  C   LIG d   1       7.603  -0.069  -5.827  0.00  0.00    -0.016 A 
ATOM     14  C   LIG d   1       7.105  -0.072  -4.537  0.00  0.00    -0.056 A 
ATOM     15  C   LIG d   1       7.298   1.024  -3.718  0.00  0.00    -0.061 A 
ATOM     16  H   LIG d   1       6.564  -0.932  -4.169  0.00  0.00     0.062 H 
ATOM     17  C   LIG d   1       7.991   2.124  -4.189  0.00  0.00    -0.062 A 
ATOM     18  H   LIG d   1       6.909   1.022  -2.711  0.00  0.00     0.062 H 
ATOM     19  C   LIG d   1       8.490   2.127  -5.478  0.00  0.00    -0.061 A 
ATOM     20  H   LIG d   1       8.142   2.981  -3.549  0.00  0.00     0.062 H 
ATOM     21  C   LIG d   1       8.299   1.029  -6.295  0.00  0.00    -0.056 A 
ATOM     22  H   LIG d   1       9.031   2.986  -5.845  0.00  0.00     0.062 H 
ATOM     23  H   LIG d   1       8.693   1.030  -7.301  0.00  0.00     0.062 H 
ENDBRANCH   5  13
ENDBRANCH   1   4
BRANCH   1  24
ATOM     24  C   LIG d   1       4.148   0.332  -8.043  0.00  0.00     0.310 C 
ATOM     25  O   LIG d   1       3.910  -0.176  -9.114  0.00  0.00    -0.251 OA
BRANCH  24  26
ATOM     26  O   LIG d   1       3.167   0.935  -7.355  0.00  0.00    -0.457 OA
BRANCH  26  27
ATOM     27  C   LIG d   1       2.570   0.188  -6.264  0.00  0.00     0.155 C 
ATOM     28  H   LIG d   1       1.595   0.055  -6.445  0.00  0.00     0.078 H 
ATOM     29  H   LIG d   1       3.058  -0.783  -6.178  0.00  0.00     0.078 H 
BRANCH  27  30
ATOM     30  C   LIG d   1       2.742   0.953  -4.976  0.00  0.00     0.200 C 
ATOM     31  O   LIG d   1       2.371   2.105  -4.902  0.00  0.00    -0.288 OA
BRANCH  30  32
ATOM     32  C   LIG d   1       3.358   0.301  -3.810  0.00  0.00     0.021 A 
ATOM     33  C   LIG d   1       3.827   1.071  -2.740  0.00  0.00    -0.051 A 
ATOM     34  C   LIG d   1       4.404   0.454  -1.652  0.00  0.00    -0.061 A 
ATOM     35  H   LIG d   1       3.735   2.148  -2.767  0.00  0.00     0.062 H 
ATOM     36  C   LIG d   1       4.520  -0.925  -1.615  0.00  0.00    -0.062 A 
ATOM     37  H   LIG d   1       4.766   1.047  -0.825  0.00  0.00     0.062 H 
ATOM     38  C   LIG d   1       4.061  -1.694  -2.669  0.00  0.00    -0.061 A 
ATOM     39  H   LIG d   1       4.974  -1.403  -0.758  0.00  0.00     0.062 H 
ATOM     40  C   LIG d   1       3.476  -1.091  -3.764  0.00  0.00    -0.051 A 
ATOM     41  H   LIG d   1       4.156  -2.769  -2.634  0.00  0.00     0.062 H 
ATOM     42  H   LIG d   1       3.113  -1.694  -4.584  0.00  0.00     0.062 H 
ENDBRANCH  30  32
ENDBRANCH  27  30
ENDBRANCH  26  27
ENDBRANCH  24  26
ENDBRANCH   1  24
TORSDOF 7
ENDMDL
MODEL 5
REMARK VINA RESULT:      -6.5      2.183      4.488
REMARK  7 active torsions:
REMARK  status: ('A' for Active; 'I' for Inactive)
REMARK    1  A    between atoms: C_4  and  C_7 
REMARK    2  A    between atoms: C_9  and  C_14 
REMARK    3  A    between atoms: C_14  and  C_15 
REMARK    4  A    between atoms: C_15  and  O_17 
REMARK    5  A    between atoms: O_17  and  C_18 
REMARK    6  A    between atoms: C_18  and  C_19 
REMARK    7  A    between atoms: C_19  and  C_21 
ROOT
ATOM      1  C   LIG d   1       4.503  -2.090  -6.816  0.00  0.00     0.074 C 
ATOM      2  H   LIG d   1       3.682  -2.718  -6.470  0.00  0.00     0.040 H 
ATOM      3  H   LIG d   1       5.057  -1.713  -5.957  0.00  0.00     0.040 H 
ENDROOT
BRANCH   1   4
ATOM      4  C   LIG d   1       5.437  -2.917  -7.703  0.00  0.00     0.102 C 
ATOM      5  C   LIG d   1       6.914  -2.584  -7.399  0.00  0.00     0.113 C 
ATOM      6  H   LIG d   1       7.312  -1.905  -8.152  0.00  0.00     0.067 H 
ATOM      7  O   LIG d   1       7.601  -3.848  -7.454  0.00  0.00    -0.344 OA
ATOM      8  C   LIG d   1       6.625  -4.844  -7.804  0.00  0.00     0.149 C 
ATOM      9  O   LIG d   1       5.348  -4.326  -7.377  0.00  0.00    -0.347 OA
ATOM     10  H   LIG d   1       6.623  -5.004  -8.882  0.00  0.00     0.087 H 
ATOM     11  H   LIG d   1       6.843  -5.780  -7.288  0.00  0.00     0.087 H 
ATOM     12  H   LIG d   1       5.213  -2.749  -8.756  0.00  0.00     0.063 H 
BRANCH   5  13
ATOM     13  C   LIG d   1       7.045  -1.978  -6.026  0.00  0.00    -0.016 A 
ATOM     14  C   LIG d   1       7.176  -2.794  -4.918  0.00  0.00    -0.056 A 
ATOM     15  C   LIG d   1       7.297  -2.239  -3.659  0.00  0.00    -0.061 A 
ATOM     16  H   LIG d   1       7.184  -3.868  -5.037  0.00  0.00     0.062 H 
ATOM     17  C   LIG d   1       7.288  -0.864  -3.507  0.00  0.00    -0.062 A 
ATOM     18  H   LIG d   1       7.399  -2.877  -2.794  0.00  0.00     0.062 H 
ATOM     19  C   LIG d   1       7.157  -0.047  -4.614  0.00  0.00    -0.061 A 
ATOM     20  H   LIG d   1       7.382  -0.430  -2.522  0.00  0.00     0.062 H 
ATOM     21  C   LIG d   1       7.040  -0.604  -5.874  0.00  0.00    -0.056 A 
ATOM     22  H   LIG d   1       7.150   1.026  -4.495  0.00  0.00     0.062 H 
ATOM     23  H   LIG d   1       6.942   0.035  -6.740  0.00  0.00     0.062 H 
ENDBRANCH   5  13
ENDBRANCH   1   4
BRANCH   1  24
ATOM     24  C   LIG d   1       3.952  -0.933  -7.607  0.00  0.00     0.310 C 
ATOM     25  O   LIG d   1       3.779  -1.043  -8.798  0.00  0.00    -0.251 OA
BRANCH  24  26
ATOM     26  O   LIG d   1       3.653   0.221  -6.990  0.00  0.00    -0.457 OA
BRANCH  26  27
ATOM     27  C   LIG d   1       2.451   0.243  -6.178  0.00  0.00     0.155 C 
ATOM     28  H   LIG d   1       1.716   0.698  -6.682  0.00  0.00     0.078 H 
ATOM     29  H   LIG d   1       2.151  -0.779  -5.945  0.00  0.00     0.078 H 
BRANCH  27  30
ATOM     30  C   LIG d   1       2.721   0.992  -4.898  0.00  0.00     0.200 C 
ATOM     31  O   LIG d   1       2.450   2.171  -4.819  0.00  0.00    -0.288 OA
BRANCH  30  32
ATOM     32  C   LIG d   1       3.311   0.292  -3.746  0.00  0.00     0.021 A 
ATOM     33  C   LIG d   1       3.225  -1.101  -3.650  0.00  0.00    -0.051 A 
ATOM     34  C   LIG d   1       3.779  -1.749  -2.568  0.00  0.00    -0.061 A 
ATOM     35  H   LIG d   1       2.726  -1.667  -4.423  0.00  0.00     0.062 H 
ATOM     36  C   LIG d   1       4.420  -1.025  -1.577  0.00  0.00    -0.062 A 
ATOM     37  H   LIG d   1       3.714  -2.825  -2.492  0.00  0.00     0.062 H 
ATOM     38  C   LIG d   1       4.508   0.353  -1.664  0.00  0.00    -0.061 A 
ATOM     39  H   LIG d   1       4.852  -1.539  -0.730  0.00  0.00     0.062 H 
ATOM     40  C   LIG d   1       3.963   1.016  -2.744  0.00  0.00    -0.051 A 
ATOM     41  H   LIG d   1       5.008   0.911  -0.886  0.00  0.00     0.062 H 
ATOM     42  H   LIG d   1       4.037   2.091  -2.812  0.00  0.00     0.062 H 
ENDBRANCH  30  32
ENDBRANCH  27  30
ENDBRANCH  26  27
ENDBRANCH  24  26
ENDBRANCH   1  24
TORSDOF 7
ENDMDL
MODEL 6
REMARK VINA RESULT:      -6.5      1.765      2.701
REMARK  7 active torsions:
REMARK  status: ('A' for Active; 'I' for Inactive)
REMARK    1  A    between atoms: C_4  and  C_7 
REMARK    2  A    between atoms: C_9  and  C_14 
REMARK    3  A    between atoms: C_14  and  C_15 
REMARK    4  A    between atoms: C_15  and  O_17 
REMARK    5  A    between atoms: O_17  and  C_18 
REMARK    6  A    between atoms: C_18  and  C_19 
REMARK    7  A    between atoms: C_19  and  C_21 
ROOT
ATOM      1  C   LIG d   1       5.041  -1.474  -7.924  0.00  0.00     0.074 C 
ATOM      2  H   LIG d   1       4.234  -1.627  -8.641  0.00  0.00     0.040 H 
ATOM      3  H   LIG d   1       5.952  -1.203  -8.456  0.00  0.00     0.040 H 
ENDROOT
BRANCH   1   4
ATOM      4  C   LIG d   1       4.658  -0.348  -6.961  0.00  0.00     0.102 C 
ATOM      5  C   LIG d   1       3.865   0.754  -7.696  0.00  0.00     0.113 C 
ATOM      6  H   LIG d   1       4.515   1.598  -7.928  0.00  0.00     0.067 H 
ATOM      7  O   LIG d   1       2.837   1.155  -6.772  0.00  0.00    -0.344 OA
ATOM      8  C   LIG d   1       3.028   0.389  -5.570  0.00  0.00     0.149 C 
ATOM      9  O   LIG d   1       3.716  -0.817  -5.965  0.00  0.00    -0.347 OA
ATOM     10  H   LIG d   1       3.634   0.951  -4.859  0.00  0.00     0.087 H 
ATOM     11  H   LIG d   1       2.063   0.142  -5.126  0.00  0.00     0.087 H 
ATOM     12  H   LIG d   1       5.547   0.069  -6.486  0.00  0.00     0.063 H 
BRANCH   5  13
ATOM     13  C   LIG d   1       3.249   0.207  -8.957  0.00  0.00    -0.016 A 
ATOM     14  C   LIG d   1       2.046  -0.473  -8.901  0.00  0.00    -0.056 A 
ATOM     15  C   LIG d   1       1.481  -0.974 -10.057  0.00  0.00    -0.061 A 
ATOM     16  H   LIG d   1       1.548  -0.611  -7.953  0.00  0.00     0.062 H 
ATOM     17  C   LIG d   1       2.118  -0.796 -11.272  0.00  0.00    -0.062 A 
ATOM     18  H   LIG d   1       0.541  -1.505 -10.014  0.00  0.00     0.062 H 
ATOM     19  C   LIG d   1       3.321  -0.117 -11.328  0.00  0.00    -0.061 A 
ATOM     20  H   LIG d   1       1.676  -1.189 -12.176  0.00  0.00     0.062 H 
ATOM     21  C   LIG d   1       3.884   0.389 -10.171  0.00  0.00    -0.056 A 
ATOM     22  H   LIG d   1       3.818   0.023 -12.277  0.00  0.00     0.062 H 
ATOM     23  H   LIG d   1       4.821   0.923 -10.216  0.00  0.00     0.062 H 
ENDBRANCH   5  13
ENDBRANCH   1   4
BRANCH   1  24
ATOM     24  C   LIG d   1       5.271  -2.743  -7.147  0.00  0.00     0.310 C 
ATOM     25  O   LIG d   1       4.533  -3.688  -7.299  0.00  0.00    -0.251 OA
BRANCH  24  26
ATOM     26  O   LIG d   1       6.297  -2.827  -6.285  0.00  0.00    -0.457 OA
BRANCH  26  27
ATOM     27  C   LIG d   1       5.999  -3.309  -4.949  0.00  0.00     0.155 C 
ATOM     28  H   LIG d   1       5.011  -3.287  -4.799  0.00  0.00     0.078 H 
ATOM     29  H   LIG d   1       6.359  -4.333  -4.844  0.00  0.00     0.078 H 
BRANCH  27  30
ATOM     30  C   LIG d   1       6.681  -2.430  -3.933  0.00  0.00     0.200 C 
ATOM     31  O   LIG d   1       7.845  -2.620  -3.651  0.00  0.00    -0.288 OA
BRANCH  30  32
ATOM     32  C   LIG d   1       5.935  -1.340  -3.284  0.00  0.00     0.021 A 
ATOM     33  C   LIG d   1       6.343  -0.012  -3.451  0.00  0.00    -0.051 A 
ATOM     34  C   LIG d   1       5.640   1.003  -2.839  0.00  0.00    -0.061 A 
ATOM     35  H   LIG d   1       7.206   0.217  -4.059  0.00  0.00     0.062 H 
ATOM     36  C   LIG d   1       4.532   0.712  -2.061  0.00  0.00    -0.062 A 
ATOM     37  H   LIG d   1       5.953   2.029  -2.967  0.00  0.00     0.062 H 
ATOM     38  C   LIG d   1       4.124  -0.599  -1.890  0.00  0.00    -0.061 A 
ATOM     39  H   LIG d   1       3.986   1.512  -1.584  0.00  0.00     0.062 H 
ATOM     40  C   LIG d   1       4.814  -1.626  -2.500  0.00  0.00    -0.051 A 
ATOM     41  H   LIG d   1       3.260  -0.819  -1.281  0.00  0.00     0.062 H 
ATOM     42  H   LIG d   1       4.490  -2.648  -2.369  0.00  0.00     0.062 H 
ENDBRANCH  30  32
ENDBRANCH  27  30
ENDBRANCH  26  27
ENDBRANCH  24  26
ENDBRANCH   1  24
TORSDOF 7
ENDMDL
MODEL 7
REMARK VINA RESULT:      -6.4      1.489      5.935
REMARK  7 active torsions:
REMARK  status: ('A' for Active; 'I' for Inactive)
REMARK    1  A    between atoms: C_4  and  C_7 
REMARK    2  A    between atoms: C_9  and  C_14 
REMARK    3  A    between atoms: C_14  and  C_15 
REMARK    4  A    between atoms: C_15  and  O_17 
REMARK    5  A    between atoms: O_17  and  C_18 
REMARK    6  A    between atoms: C_18  and  C_19 
REMARK    7  A    between atoms: C_19  and  C_21 
ROOT
ATOM      1  C   LIG d   1       4.776  -3.653  -5.648  0.00  0.00     0.074 C 
ATOM      2  H   LIG d   1       4.764  -4.650  -5.209  0.00  0.00     0.040 H 
ATOM      3  H   LIG d   1       4.147  -2.989  -5.056  0.00  0.00     0.040 H 
ENDROOT
BRANCH   1   4
ATOM      4  C   LIG d   1       6.210  -3.119  -5.660  0.00  0.00     0.102 C 
ATOM      5  C   LIG d   1       6.256  -1.664  -5.145  0.00  0.00     0.113 C 
ATOM      6  H   LIG d   1       6.324  -0.968  -5.981  0.00  0.00     0.067 H 
ATOM      7  O   LIG d   1       7.445  -1.590  -4.337  0.00  0.00    -0.344 OA
ATOM      8  C   LIG d   1       8.079  -2.879  -4.399  0.00  0.00     0.149 C 
ATOM      9  O   LIG d   1       7.034  -3.829  -4.702  0.00  0.00    -0.347 OA
ATOM     10  H   LIG d   1       8.833  -2.889  -5.187  0.00  0.00     0.087 H 
ATOM     11  H   LIG d   1       8.537  -3.118  -3.439  0.00  0.00     0.087 H 
ATOM     12  H   LIG d   1       6.637  -3.188  -6.661  0.00  0.00     0.063 H 
BRANCH   5  13
ATOM     13  C   LIG d   1       5.038  -1.362  -4.312  0.00  0.00    -0.016 A 
ATOM     14  C   LIG d   1       4.022  -0.581  -4.830  0.00  0.00    -0.056 A 
ATOM     15  C   LIG d   1       2.904  -0.305  -4.066  0.00  0.00    -0.061 A 
ATOM     16  H   LIG d   1       4.101  -0.187  -5.832  0.00  0.00     0.062 H 
ATOM     17  C   LIG d   1       2.802  -0.810  -2.783  0.00  0.00    -0.062 A 
ATOM     18  H   LIG d   1       2.110   0.306  -4.471  0.00  0.00     0.062 H 
ATOM     19  C   LIG d   1       3.817  -1.591  -2.265  0.00  0.00    -0.061 A 
ATOM     20  H   LIG d   1       1.927  -0.593  -2.186  0.00  0.00     0.062 H 
ATOM     21  C   LIG d   1       4.933  -1.871  -3.031  0.00  0.00    -0.056 A 
ATOM     22  H   LIG d   1       3.737  -1.986  -1.263  0.00  0.00     0.062 H 
ATOM     23  H   LIG d   1       5.725  -2.485  -2.627  0.00  0.00     0.062 H 
ENDBRANCH   5  13
ENDBRANCH   1   4
BRANCH   1  24
ATOM     24  C   LIG d   1       4.252  -3.717  -7.058  0.00  0.00     0.310 C 
ATOM     25  O   LIG d   1       3.889  -4.774  -7.521  0.00  0.00    -0.251 OA
BRANCH  24  26
ATOM     26  O   LIG d   1       4.186  -2.602  -7.802  0.00  0.00    -0.457 OA
BRANCH  26  27
ATOM     27  C   LIG d   1       3.780  -2.755  -9.187  0.00  0.00     0.155 C 
ATOM     28  H   LIG d   1       4.566  -2.594  -9.785  0.00  0.00     0.078 H 
ATOM     29  H   LIG d   1       3.406  -3.767  -9.347  0.00  0.00     0.078 H 
BRANCH  27  30
ATOM     30  C   LIG d   1       2.693  -1.762  -9.507  0.00  0.00     0.200 C 
ATOM     31  O   LIG d   1       1.577  -2.152  -9.776  0.00  0.00    -0.288 OA
BRANCH  30  32
ATOM     32  C   LIG d   1       2.985  -0.320  -9.490  0.00  0.00     0.021 A 
ATOM     33  C   LIG d   1       3.591   0.288 -10.594  0.00  0.00    -0.051 A 
ATOM     34  C   LIG d   1       3.863   1.638 -10.571  0.00  0.00    -0.061 A 
ATOM     35  H   LIG d   1       3.846  -0.301 -11.464  0.00  0.00     0.062 H 
ATOM     36  C   LIG d   1       3.536   2.394  -9.458  0.00  0.00    -0.062 A 
ATOM     37  H   LIG d   1       4.331   2.110 -11.422  0.00  0.00     0.062 H 
ATOM     38  C   LIG d   1       2.938   1.801  -8.360  0.00  0.00    -0.061 A 
ATOM     39  H   LIG d   1       3.752   3.453  -9.445  0.00  0.00     0.062 H 
ATOM     40  C   LIG d   1       2.655   0.451  -8.371  0.00  0.00    -0.051 A 
ATOM     41  H   LIG d   1       2.687   2.396  -7.495  0.00  0.00     0.062 H 
ATOM     42  H   LIG d   1       2.183  -0.010  -7.515  0.00  0.00     0.062 H 
ENDBRANCH  30  32
ENDBRANCH  27  30
ENDBRANCH  26  27
ENDBRANCH  24  26
ENDBRANCH   1  24
TORSDOF 7
ENDMDL
MODEL 8
REMARK VINA RESULT:      -6.3      1.645      2.358
REMARK  7 active torsions:
REMARK  status: ('A' for Active; 'I' for Inactive)
REMARK    1  A    between atoms: C_4  and  C_7 
REMARK    2  A    between atoms: C_9  and  C_14 
REMARK    3  A    between atoms: C_14  and  C_15 
REMARK    4  A    between atoms: C_15  and  O_17 
REMARK    5  A    between atoms: O_17  and  C_18 
REMARK    6  A    between atoms: C_18  and  C_19 
REMARK    7  A    between atoms: C_19  and  C_21 
ROOT
ATOM      1  C   LIG d   1       6.397  -0.193  -7.047  0.00  0.00     0.074 C 
ATOM      2  H   LIG d   1       6.648   0.855  -6.884  0.00  0.00     0.040 H 
ATOM      3  H   LIG d   1       5.313  -0.305  -7.080  0.00  0.00     0.040 H 
ENDROOT
BRANCH   1   4
ATOM      4  C   LIG d   1       6.999  -0.661  -8.373  0.00  0.00     0.102 C 
ATOM      5  C   LIG d   1       5.962  -0.556  -9.512  0.00  0.00     0.113 C 
ATOM      6  H   LIG d   1       5.531  -1.535  -9.723  0.00  0.00     0.067 H 
ATOM      7  O   LIG d   1       6.702  -0.081 -10.651  0.00  0.00    -0.344 OA
ATOM      8  C   LIG d   1       8.074   0.046 -10.239  0.00  0.00     0.149 C 
ATOM      9  O   LIG d   1       8.051   0.237  -8.808  0.00  0.00    -0.347 OA
ATOM     10  H   LIG d   1       8.626  -0.861 -10.487  0.00  0.00     0.087 H 
ATOM     11  H   LIG d   1       8.534   0.908 -10.725  0.00  0.00     0.087 H 
ATOM     12  H   LIG d   1       7.374  -1.681  -8.286  0.00  0.00     0.063 H 
BRANCH   5  13
ATOM     13  C   LIG d   1       4.878   0.424  -9.147  0.00  0.00    -0.016 A 
ATOM     14  C   LIG d   1       3.767  -0.003  -8.443  0.00  0.00    -0.056 A 
ATOM     15  C   LIG d   1       2.773   0.896  -8.108  0.00  0.00    -0.061 A 
ATOM     16  H   LIG d   1       3.677  -1.040  -8.155  0.00  0.00     0.062 H 
ATOM     17  C   LIG d   1       2.889   2.223  -8.476  0.00  0.00    -0.062 A 
ATOM     18  H   LIG d   1       1.905   0.562  -7.558  0.00  0.00     0.062 H 
ATOM     19  C   LIG d   1       3.999   2.651  -9.180  0.00  0.00    -0.061 A 
ATOM     20  H   LIG d   1       2.111   2.926  -8.214  0.00  0.00     0.062 H 
ATOM     21  C   LIG d   1       4.995   1.752  -9.511  0.00  0.00    -0.056 A 
ATOM     22  H   LIG d   1       4.089   3.688  -9.467  0.00  0.00     0.062 H 
ATOM     23  H   LIG d   1       5.865   2.088 -10.058  0.00  0.00     0.062 H 
ENDBRANCH   5  13
ENDBRANCH   1   4
BRANCH   1  24
ATOM     24  C   LIG d   1       6.953  -1.024  -5.921  0.00  0.00     0.310 C 
ATOM     25  O   LIG d   1       7.869  -0.604  -5.254  0.00  0.00    -0.251 OA
BRANCH  24  26
ATOM     26  O   LIG d   1       6.431  -2.232  -5.656  0.00  0.00    -0.457 OA
BRANCH  26  27
ATOM     27  C   LIG d   1       6.340  -2.621  -4.261  0.00  0.00     0.155 C 
ATOM     28  H   LIG d   1       6.605  -3.580  -4.164  0.00  0.00     0.078 H 
ATOM     29  H   LIG d   1       7.010  -1.999  -3.666  0.00  0.00     0.078 H 
BRANCH  27  30
ATOM     30  C   LIG d   1       4.924  -2.439  -3.778  0.00  0.00     0.200 C 
ATOM     31  O   LIG d   1       4.177  -3.393  -3.722  0.00  0.00    -0.288 OA
BRANCH  30  32
ATOM     32  C   LIG d   1       4.450  -1.107  -3.373  0.00  0.00     0.021 A 
ATOM     33  C   LIG d   1       4.852  -0.559  -2.150  0.00  0.00    -0.051 A 
ATOM     34  C   LIG d   1       4.402   0.689  -1.777  0.00  0.00    -0.061 A 
ATOM     35  H   LIG d   1       5.514  -1.112  -1.500  0.00  0.00     0.062 H 
ATOM     36  C   LIG d   1       3.555   1.401  -2.610  0.00  0.00    -0.062 A 
ATOM     37  H   LIG d   1       4.712   1.115  -0.834  0.00  0.00     0.062 H 
ATOM     38  C   LIG d   1       3.151   0.865  -3.820  0.00  0.00    -0.061 A 
ATOM     39  H   LIG d   1       3.205   2.379  -2.311  0.00  0.00     0.062 H 
ATOM     40  C   LIG d   1       3.597  -0.381  -4.210  0.00  0.00    -0.051 A 
ATOM     41  H   LIG d   1       2.489   1.425  -4.463  0.00  0.00     0.062 H 
ATOM     42  H   LIG d   1       3.284  -0.795  -5.157  0.00  0.00     0.062 H 
ENDBRANCH  30  32
ENDBRANCH  27  30
ENDBRANCH  26  27
ENDBRANCH  24  26
ENDBRANCH   1  24
TORSDOF 7
ENDMDL
MODEL 9
REMARK VINA RESULT:      -6.1      4.834      6.612
REMARK  7 active torsions:
REMARK  status: ('A' for Active; 'I' for Inactive)
REMARK    1  A    between atoms: C_4  and  C_7 
REMARK    2  A    between atoms: C_9  and  C_14 
REMARK    3  A    between atoms: C_14  and  C_15 
REMARK    4  A    between atoms: C_15  and  O_17 
REMARK    5  A    between atoms: O_17  and  C_18 
REMARK    6  A    between atoms: C_18  and  C_19 
REMARK    7  A    between atoms: C_19  and  C_21 
ROOT
ATOM      1  C   LIG d   1       7.049  -0.408  -3.954  0.00  0.00     0.074 C 
ATOM      2  H   LIG d   1       6.089  -0.603  -3.478  0.00  0.00     0.040 H 
ATOM      3  H   LIG d   1       7.809  -1.054  -3.516  0.00  0.00     0.040 H 
ENDROOT
BRANCH   1   4
ATOM      4  C   LIG d   1       6.941  -0.694  -5.454  0.00  0.00     0.102 C 
ATOM      5  C   LIG d   1       5.675  -1.523  -5.762  0.00  0.00     0.113 C 
ATOM      6  H   LIG d   1       5.934  -2.573  -5.900  0.00  0.00     0.067 H 
ATOM      7  O   LIG d   1       5.156  -0.973  -6.986  0.00  0.00    -0.344 OA
ATOM      8  C   LIG d   1       6.059   0.068  -7.398  0.00  0.00     0.149 C 
ATOM      9  O   LIG d   1       6.717   0.529  -6.199  0.00  0.00    -0.347 OA
ATOM     10  H   LIG d   1       6.793  -0.329  -8.099  0.00  0.00     0.087 H 
ATOM     11  H   LIG d   1       5.503   0.885  -7.859  0.00  0.00     0.087 H 
ATOM     12  H   LIG d   1       7.834  -1.206  -5.812  0.00  0.00     0.063 H 
BRANCH   5  13
ATOM     13  C   LIG d   1       4.666  -1.375  -4.653  0.00  0.00    -0.016 A 
ATOM     14  C   LIG d   1       4.687  -2.245  -3.579  0.00  0.00    -0.056 A 
ATOM     15  C   LIG d   1       3.762  -2.110  -2.561  0.00  0.00    -0.061 A 
ATOM     16  H   LIG d   1       5.426  -3.031  -3.535  0.00  0.00     0.062 H 
ATOM     17  C   LIG d   1       2.816  -1.103  -2.617  0.00  0.00    -0.062 A 
ATOM     18  H   LIG d   1       3.778  -2.790  -1.722  0.00  0.00     0.062 H 
ATOM     19  C   LIG d   1       2.795  -0.232  -3.691  0.00  0.00    -0.061 A 
ATOM     20  H   LIG d   1       2.093  -0.997  -1.821  0.00  0.00     0.062 H 
ATOM     21  C   LIG d   1       3.724  -0.366  -4.706  0.00  0.00    -0.056 A 
ATOM     22  H   LIG d   1       2.057   0.554  -3.734  0.00  0.00     0.062 H 
ATOM     23  H   LIG d   1       3.710   0.316  -5.543  0.00  0.00     0.062 H 
ENDBRANCH   5  13
ENDBRANCH   1   4
BRANCH   1  24
ATOM     24  C   LIG d   1       7.432   1.033  -3.744  0.00  0.00     0.310 C 
ATOM     25  O   LIG d   1       6.597   1.836  -3.396  0.00  0.00    -0.251 OA
BRANCH  24  26
ATOM     26  O   LIG d   1       8.699   1.428  -3.942  0.00  0.00    -0.457 OA
BRANCH  26  27
ATOM     27  C   LIG d   1       8.914   2.830  -4.245  0.00  0.00     0.155 C 
ATOM     28  H   LIG d   1       9.302   2.918  -5.163  0.00  0.00     0.078 H 
ATOM     29  H   LIG d   1       7.963   3.362  -4.202  0.00  0.00     0.078 H 
BRANCH  27  30
ATOM     30  C   LIG d   1       9.867   3.423  -3.239  0.00  0.00     0.200 C 
ATOM     31  O   LIG d   1      10.594   2.698  -2.594  0.00  0.00    -0.288 OA
BRANCH  30  32
ATOM     32  C   LIG d   1       9.917   4.880  -3.041  0.00  0.00     0.021 A 
ATOM     33  C   LIG d   1      10.247   5.409  -1.789  0.00  0.00    -0.051 A 
ATOM     34  C   LIG d   1      10.290   6.774  -1.610  0.00  0.00    -0.061 A 
ATOM     35  H   LIG d   1      10.469   4.748  -0.963  0.00  0.00     0.062 H 
ATOM     36  C   LIG d   1      10.008   7.623  -2.667  0.00  0.00    -0.062 A 
ATOM     37  H   LIG d   1      10.546   7.185  -0.645  0.00  0.00     0.062 H 
ATOM     38  C   LIG d   1       9.679   7.108  -3.909  0.00  0.00    -0.061 A 
ATOM     39  H   LIG d   1      10.043   8.693  -2.521  0.00  0.00     0.062 H 
ATOM     40  C   LIG d   1       9.637   5.744  -4.104  0.00  0.00    -0.051 A 
ATOM     41  H   LIG d   1       9.459   7.776  -4.728  0.00  0.00     0.062 H 
ATOM     42  H   LIG d   1       9.384   5.344  -5.076  0.00  0.00     0.062 H 
ENDBRANCH  30  32
ENDBRANCH  27  30
ENDBRANCH  26  27
ENDBRANCH  24  26
ENDBRANCH   1  24
TORSDOF 7
ENDMDL
