MODEL 1
REMARK VINA RESULT:      -7.5      0.000      0.000
REMARK  4 active torsions:
REMARK  status: ('A' for Active; 'I' for Inactive)
REMARK    1  A    between atoms: C_4  and  N_7 
REMARK    2  A    between atoms: N_7  and  C_8 
REMARK    3  A    between atoms: N_10  and  S_11 
REMARK    4  A    between atoms: S_11  and  C_14 
ROOT
ATOM      1  C   LIG d   1       3.295  -0.061  -6.381  0.00  0.00     0.154 C 
ATOM      2  S   LIG d   1       4.510  -1.133  -6.932  0.00  0.00    -0.017 SA
ATOM      3  N   LIG d   1       3.034   1.071  -7.063  0.00  0.00    -0.197 N 
ATOM      4  H   LIG d   1       2.346   1.679  -6.750  0.00  0.00     0.175 HD
ENDROOT
BRANCH   3   5
ATOM      5  S   LIG d   1       3.890   1.426  -8.437  0.00  0.00     0.074 S 
ATOM      6  O   LIG d   1       3.611   2.783  -8.750  0.00  0.00    -0.150 OA
ATOM      7  O   LIG d   1       5.211   0.948  -8.226  0.00  0.00    -0.150 OA
BRANCH   5   8
ATOM      8  C   LIG d   1       3.206   0.458  -9.740  0.00  0.00     0.108 A 
ATOM      9  C   LIG d   1       3.921   0.271 -10.910  0.00  0.00    -0.035 A 
ATOM     10  C   LIG d   1       3.386  -0.492 -11.931  0.00  0.00    -0.060 A 
ATOM     11  H   LIG d   1       4.896   0.719 -11.023  0.00  0.00     0.064 H 
ATOM     12  C   LIG d   1       2.134  -1.062 -11.786  0.00  0.00    -0.062 A 
ATOM     13  H   LIG d   1       3.946  -0.642 -12.842  0.00  0.00     0.062 H 
ATOM     14  C   LIG d   1       1.418  -0.870 -10.619  0.00  0.00    -0.060 A 
ATOM     15  H   LIG d   1       1.716  -1.655 -12.585  0.00  0.00     0.062 H 
ATOM     16  C   LIG d   1       1.954  -0.110  -9.597  0.00  0.00    -0.035 A 
ATOM     17  H   LIG d   1       0.440  -1.314 -10.507  0.00  0.00     0.062 H 
ATOM     18  H   LIG d   1       1.395   0.040  -8.685  0.00  0.00     0.064 H 
ENDBRANCH   5   8
ENDBRANCH   3   5
BRANCH   1  19
ATOM     19  N   LIG d   1       2.599  -0.349  -5.262  0.00  0.00    -0.296 N 
ATOM     20  H   LIG d   1       1.669  -0.618  -5.326  0.00  0.00     0.154 HD
BRANCH  19  21
ATOM     21  C   LIG d   1       3.218  -0.262  -4.011  0.00  0.00     0.033 A 
ATOM     22  C   LIG d   1       3.464   0.981  -3.443  0.00  0.00    -0.041 A 
ATOM     23  C   LIG d   1       4.075   1.064  -2.207  0.00  0.00    -0.060 A 
ATOM     24  H   LIG d   1       3.178   1.881  -3.965  0.00  0.00     0.064 H 
ATOM     25  C   LIG d   1       4.441  -0.089  -1.536  0.00  0.00    -0.062 A 
ATOM     26  H   LIG d   1       4.266   2.030  -1.763  0.00  0.00     0.062 H 
ATOM     27  C   LIG d   1       4.198  -1.327  -2.099  0.00  0.00    -0.060 A 
ATOM     28  H   LIG d   1       4.923  -0.020  -0.571  0.00  0.00     0.062 H 
ATOM     29  C   LIG d   1       3.588  -1.417  -3.336  0.00  0.00    -0.041 A 
ATOM     30  H   LIG d   1       4.485  -2.225  -1.574  0.00  0.00     0.062 H 
ATOM     31  H   LIG d   1       3.397  -2.385  -3.775  0.00  0.00     0.064 H 
ENDBRANCH  19  21
ENDBRANCH   1  19
TORSDOF 4
ENDMDL
MODEL 2
REMARK VINA RESULT:      -7.3      2.314      2.994
REMARK  4 active torsions:
REMARK  status: ('A' for Active; 'I' for Inactive)
REMARK    1  A    between atoms: C_4  and  N_7 
REMARK    2  A    between atoms: N_7  and  C_8 
REMARK    3  A    between atoms: N_10  and  S_11 
REMARK    4  A    between atoms: S_11  and  C_14 
ROOT
ATOM      1  C   LIG d   1       4.294  -2.579  -5.556  0.00  0.00     0.154 C 
ATOM      2  S   LIG d   1       5.096  -3.964  -6.162  0.00  0.00    -0.017 SA
ATOM      3  N   LIG d   1       3.970  -1.570  -6.388  0.00  0.00    -0.197 N 
ATOM      4  H   LIG d   1       3.516  -0.785  -6.044  0.00  0.00     0.175 HD
ENDROOT
BRANCH   3   5
ATOM      5  S   LIG d   1       4.348  -1.669  -7.997  0.00  0.00     0.074 S 
ATOM      6  O   LIG d   1       5.758  -1.827  -8.074  0.00  0.00    -0.150 OA
ATOM      7  O   LIG d   1       3.444  -2.605  -8.569  0.00  0.00    -0.150 OA
BRANCH   5   8
ATOM      8  C   LIG d   1       3.976  -0.105  -8.717  0.00  0.00     0.108 A 
ATOM      9  C   LIG d   1       3.275   0.840  -7.991  0.00  0.00    -0.035 A 
ATOM     10  C   LIG d   1       2.986   2.070  -8.554  0.00  0.00    -0.060 A 
ATOM     11  H   LIG d   1       2.954   0.618  -6.984  0.00  0.00     0.064 H 
ATOM     12  C   LIG d   1       3.393   2.351  -9.845  0.00  0.00    -0.062 A 
ATOM     13  H   LIG d   1       2.442   2.809  -7.985  0.00  0.00     0.062 H 
ATOM     14  C   LIG d   1       4.090   1.404 -10.572  0.00  0.00    -0.060 A 
ATOM     15  H   LIG d   1       3.165   3.310 -10.285  0.00  0.00     0.062 H 
ATOM     16  C   LIG d   1       4.382   0.177 -10.008  0.00  0.00    -0.035 A 
ATOM     17  H   LIG d   1       4.407   1.624 -11.581  0.00  0.00     0.062 H 
ATOM     18  H   LIG d   1       4.926  -0.563 -10.576  0.00  0.00     0.064 H 
ENDBRANCH   5   8
ENDBRANCH   3   5
BRANCH   1  19
ATOM     19  N   LIG d   1       3.986  -2.498  -4.245  0.00  0.00    -0.296 N 
ATOM     20  H   LIG d   1       3.609  -3.265  -3.787  0.00  0.00     0.154 HD
BRANCH  19  21
ATOM     21  C   LIG d   1       4.212  -1.307  -3.547  0.00  0.00     0.033 A 
ATOM     22  C   LIG d   1       5.508  -0.843  -3.364  0.00  0.00    -0.041 A 
ATOM     23  C   LIG d   1       5.727   0.334  -2.675  0.00  0.00    -0.060 A 
ATOM     24  H   LIG d   1       6.342  -1.400  -3.760  0.00  0.00     0.064 H 
ATOM     25  C   LIG d   1       4.657   1.049  -2.167  0.00  0.00    -0.062 A 
ATOM     26  H   LIG d   1       6.733   0.696  -2.532  0.00  0.00     0.062 H 
ATOM     27  C   LIG d   1       3.366   0.589  -2.347  0.00  0.00    -0.060 A 
ATOM     28  H   LIG d   1       4.832   1.967  -1.624  0.00  0.00     0.062 H 
ATOM     29  C   LIG d   1       3.140  -0.587  -3.036  0.00  0.00    -0.041 A 
ATOM     30  H   LIG d   1       2.533   1.149  -1.950  0.00  0.00     0.062 H 
ATOM     31  H   LIG d   1       2.131  -0.946  -3.177  0.00  0.00     0.064 H 
ENDBRANCH  19  21
ENDBRANCH   1  19
TORSDOF 4
ENDMDL
MODEL 3
REMARK VINA RESULT:      -7.2      2.600      6.740
REMARK  4 active torsions:
REMARK  status: ('A' for Active; 'I' for Inactive)
REMARK    1  A    between atoms: C_4  and  N_7 
REMARK    2  A    between atoms: N_7  and  C_8 
REMARK    3  A    between atoms: N_10  and  S_11 
REMARK    4  A    between atoms: S_11  and  C_14 
ROOT
ATOM      1  C   LIG d   1       3.910  -2.138  -7.855  0.00  0.00     0.154 C 
ATOM      2  S   LIG d   1       4.922  -3.447  -8.291  0.00  0.00    -0.017 SA
ATOM      3  N   LIG d   1       3.948  -1.643  -6.602  0.00  0.00    -0.197 N 
ATOM      4  H   LIG d   1       3.374  -0.902  -6.355  0.00  0.00     0.175 HD
ENDROOT
BRANCH   3   5
ATOM      5  S   LIG d   1       4.976  -2.302  -5.483  0.00  0.00     0.074 S 
ATOM      6  O   LIG d   1       4.462  -3.588  -5.167  0.00  0.00    -0.150 OA
ATOM      7  O   LIG d   1       6.294  -2.109  -5.979  0.00  0.00    -0.150 OA
BRANCH   5   8
ATOM      8  C   LIG d   1       4.842  -1.332  -4.019  0.00  0.00     0.108 A 
ATOM      9  C   LIG d   1       5.205   0.002  -4.038  0.00  0.00    -0.035 A 
ATOM     10  C   LIG d   1       5.096   0.764  -2.890  0.00  0.00    -0.060 A 
ATOM     11  H   LIG d   1       5.571   0.448  -4.950  0.00  0.00     0.064 H 
ATOM     12  C   LIG d   1       4.632   0.191  -1.721  0.00  0.00    -0.062 A 
ATOM     13  H   LIG d   1       5.376   1.807  -2.906  0.00  0.00     0.062 H 
ATOM     14  C   LIG d   1       4.274  -1.144  -1.700  0.00  0.00    -0.060 A 
ATOM     15  H   LIG d   1       4.550   0.786  -0.824  0.00  0.00     0.062 H 
ATOM     16  C   LIG d   1       4.379  -1.905  -2.849  0.00  0.00    -0.035 A 
ATOM     17  H   LIG d   1       3.912  -1.592  -0.787  0.00  0.00     0.062 H 
ATOM     18  H   LIG d   1       4.100  -2.949  -2.834  0.00  0.00     0.064 H 
ENDBRANCH   5   8
ENDBRANCH   3   5
BRANCH   1  19
ATOM     19  N   LIG d   1       3.072  -1.601  -8.766  0.00  0.00    -0.296 N 
ATOM     20  H   LIG d   1       2.359  -2.139  -9.145  0.00  0.00     0.154 HD
BRANCH  19  21
ATOM     21  C   LIG d   1       3.232  -0.269  -9.163  0.00  0.00     0.033 A 
ATOM     22  C   LIG d   1       2.724   0.756  -8.377  0.00  0.00    -0.041 A 
ATOM     23  C   LIG d   1       2.884   2.070  -8.771  0.00  0.00    -0.060 A 
ATOM     24  H   LIG d   1       2.206   0.527  -7.458  0.00  0.00     0.064 H 
ATOM     25  C   LIG d   1       3.549   2.364  -9.947  0.00  0.00    -0.062 A 
ATOM     26  H   LIG d   1       2.490   2.868  -8.160  0.00  0.00     0.062 H 
ATOM     27  C   LIG d   1       4.055   1.346 -10.733  0.00  0.00    -0.060 A 
ATOM     28  H   LIG d   1       3.668   3.393 -10.256  0.00  0.00     0.062 H 
ATOM     29  C   LIG d   1       3.898   0.029 -10.344  0.00  0.00    -0.041 A 
ATOM     30  H   LIG d   1       4.573   1.578 -11.651  0.00  0.00     0.062 H 
ATOM     31  H   LIG d   1       4.294  -0.767 -10.957  0.00  0.00     0.064 H 
ENDBRANCH  19  21
ENDBRANCH   1  19
TORSDOF 4
ENDMDL
MODEL 4
REMARK VINA RESULT:      -7.1      3.119      6.903
REMARK  4 active torsions:
REMARK  status: ('A' for Active; 'I' for Inactive)
REMARK    1  A    between atoms: C_4  and  N_7 
REMARK    2  A    between atoms: N_7  and  C_8 
REMARK    3  A    between atoms: N_10  and  S_11 
REMARK    4  A    between atoms: S_11  and  C_14 
ROOT
ATOM      1  C   LIG d   1       7.255   0.731  -7.409  0.00  0.00     0.154 C 
ATOM      2  S   LIG d   1       8.879   1.262  -7.323  0.00  0.00    -0.017 SA
ATOM      3  N   LIG d   1       6.573   0.460  -6.279  0.00  0.00    -0.197 N 
ATOM      4  H   LIG d   1       5.653   0.159  -6.328  0.00  0.00     0.175 HD
ENDROOT
BRANCH   3   5
ATOM      5  S   LIG d   1       7.307   0.640  -4.805  0.00  0.00     0.074 S 
ATOM      6  O   LIG d   1       8.360  -0.313  -4.757  0.00  0.00    -0.150 OA
ATOM      7  O   LIG d   1       7.531   2.032  -4.631  0.00  0.00    -0.150 OA
BRANCH   5   8
ATOM      8  C   LIG d   1       6.137   0.160  -3.579  0.00  0.00     0.108 A 
ATOM      9  C   LIG d   1       5.528   1.121  -2.792  0.00  0.00    -0.035 A 
ATOM     10  C   LIG d   1       4.607   0.744  -1.832  0.00  0.00    -0.060 A 
ATOM     11  H   LIG d   1       5.771   2.164  -2.929  0.00  0.00     0.064 H 
ATOM     12  C   LIG d   1       4.301  -0.592  -1.654  0.00  0.00    -0.062 A 
ATOM     13  H   LIG d   1       4.128   1.495  -1.221  0.00  0.00     0.062 H 
ATOM     14  C   LIG d   1       4.914  -1.552  -2.437  0.00  0.00    -0.060 A 
ATOM     15  H   LIG d   1       3.583  -0.885  -0.903  0.00  0.00     0.062 H 
ATOM     16  C   LIG d   1       5.832  -1.176  -3.399  0.00  0.00    -0.035 A 
ATOM     17  H   LIG d   1       4.674  -2.596  -2.298  0.00  0.00     0.062 H 
ATOM     18  H   LIG d   1       6.311  -1.926  -4.012  0.00  0.00     0.064 H 
ENDBRANCH   5   8
ENDBRANCH   3   5
BRANCH   1  19
ATOM     19  N   LIG d   1       6.657   0.584  -8.609  0.00  0.00    -0.296 N 
ATOM     20  H   LIG d   1       7.139   0.176  -9.344  0.00  0.00     0.154 HD
BRANCH  19  21
ATOM     21  C   LIG d   1       5.340   1.021  -8.792  0.00  0.00     0.033 A 
ATOM     22  C   LIG d   1       5.087   2.341  -9.142  0.00  0.00    -0.041 A 
ATOM     23  C   LIG d   1       3.787   2.768  -9.323  0.00  0.00    -0.060 A 
ATOM     24  H   LIG d   1       5.907   3.031  -9.275  0.00  0.00     0.064 H 
ATOM     25  C   LIG d   1       2.737   1.883  -9.155  0.00  0.00    -0.062 A 
ATOM     26  H   LIG d   1       3.589   3.793  -9.596  0.00  0.00     0.062 H 
ATOM     27  C   LIG d   1       2.985   0.569  -8.805  0.00  0.00    -0.060 A 
ATOM     28  H   LIG d   1       1.720   2.222  -9.292  0.00  0.00     0.062 H 
ATOM     29  C   LIG d   1       4.284   0.135  -8.623  0.00  0.00    -0.041 A 
ATOM     30  H   LIG d   1       2.164  -0.119  -8.674  0.00  0.00     0.062 H 
ATOM     31  H   LIG d   1       4.478  -0.892  -8.351  0.00  0.00     0.064 H 
ENDBRANCH  19  21
ENDBRANCH   1  19
TORSDOF 4
ENDMDL
MODEL 5
REMARK VINA RESULT:      -7.0      2.772      3.452
REMARK  4 active torsions:
REMARK  status: ('A' for Active; 'I' for Inactive)
REMARK    1  A    between atoms: C_4  and  N_7 
REMARK    2  A    between atoms: N_7  and  C_8 
REMARK    3  A    between atoms: N_10  and  S_11 
REMARK    4  A    between atoms: S_11  and  C_14 
ROOT
ATOM      1  C   LIG d   1       7.690   0.137  -5.278  0.00  0.00     0.154 C 
ATOM      2  S   LIG d   1       9.086  -0.492  -6.040  0.00  0.00    -0.017 SA
ATOM      3  N   LIG d   1       6.641   0.544  -6.020  0.00  0.00    -0.197 N 
ATOM      4  H   LIG d   1       5.850   0.901  -5.588  0.00  0.00     0.175 HD
ENDROOT
BRANCH   3   5
ATOM      5  S   LIG d   1       6.704   0.435  -7.672  0.00  0.00     0.074 S 
ATOM      6  O   LIG d   1       7.671   1.381  -8.105  0.00  0.00    -0.150 OA
ATOM      7  O   LIG d   1       6.798  -0.948  -7.984  0.00  0.00    -0.150 OA
BRANCH   5   8
ATOM      8  C   LIG d   1       5.149   0.987  -8.289  0.00  0.00     0.108 A 
ATOM      9  C   LIG d   1       5.085   2.102  -9.104  0.00  0.00    -0.035 A 
ATOM     10  C   LIG d   1       3.865   2.533  -9.591  0.00  0.00    -0.060 A 
ATOM     11  H   LIG d   1       5.988   2.636  -9.360  0.00  0.00     0.064 H 
ATOM     12  C   LIG d   1       2.708   1.852  -9.258  0.00  0.00    -0.062 A 
ATOM     13  H   LIG d   1       3.816   3.401 -10.231  0.00  0.00     0.062 H 
ATOM     14  C   LIG d   1       2.772   0.740  -8.440  0.00  0.00    -0.060 A 
ATOM     15  H   LIG d   1       1.756   2.190  -9.637  0.00  0.00     0.062 H 
ATOM     16  C   LIG d   1       3.992   0.307  -7.956  0.00  0.00    -0.035 A 
ATOM     17  H   LIG d   1       1.868   0.209  -8.180  0.00  0.00     0.062 H 
ATOM     18  H   LIG d   1       4.042  -0.562  -7.316  0.00  0.00     0.064 H 
ENDBRANCH   5   8
ENDBRANCH   3   5
BRANCH   1  19
ATOM     19  N   LIG d   1       7.638   0.226  -3.933  0.00  0.00    -0.296 N 
ATOM     20  H   LIG d   1       8.419   0.516  -3.436  0.00  0.00     0.154 HD
BRANCH  19  21
ATOM     21  C   LIG d   1       6.458  -0.098  -3.256  0.00  0.00     0.033 A 
ATOM     22  C   LIG d   1       6.036  -1.419  -3.187  0.00  0.00    -0.041 A 
ATOM     23  C   LIG d   1       4.871  -1.737  -2.517  0.00  0.00    -0.060 A 
ATOM     24  H   LIG d   1       6.619  -2.198  -3.656  0.00  0.00     0.064 H 
ATOM     25  C   LIG d   1       4.125  -0.740  -1.915  0.00  0.00    -0.062 A 
ATOM     26  H   LIG d   1       4.543  -2.763  -2.462  0.00  0.00     0.062 H 
ATOM     27  C   LIG d   1       4.542   0.576  -1.982  0.00  0.00    -0.060 A 
ATOM     28  H   LIG d   1       3.211  -0.990  -1.395  0.00  0.00     0.062 H 
ATOM     29  C   LIG d   1       5.706   0.901  -2.651  0.00  0.00    -0.041 A 
ATOM     30  H   LIG d   1       3.957   1.352  -1.512  0.00  0.00     0.062 H 
ATOM     31  H   LIG d   1       6.032   1.929  -2.703  0.00  0.00     0.064 H 
ENDBRANCH  19  21
ENDBRANCH   1  19
TORSDOF 4
ENDMDL
MODEL 6
REMARK VINA RESULT:      -6.9      5.728      7.985
REMARK  4 active torsions:
REMARK  status: ('A' for Active; 'I' for Inactive)
REMARK    1  A    between atoms: C_4  and  N_7 
REMARK    2  A    between atoms: N_7  and  C_8 
REMARK    3  A    between atoms: N_10  and  S_11 
REMARK    4  A    between atoms: S_11  and  C_14 
ROOT
ATOM      1  C   LIG d   1       9.857   2.058  -3.962  0.00  0.00     0.154 C 
ATOM      2  S   LIG d   1      10.386   1.569  -5.515  0.00  0.00    -0.017 SA
ATOM      3  N   LIG d   1       8.666   1.636  -3.492  0.00  0.00    -0.197 N 
ATOM      4  H   LIG d   1       8.366   1.913  -2.613  0.00  0.00     0.175 HD
ENDROOT
BRANCH   3   5
ATOM      5  S   LIG d   1       7.714   0.646  -4.417  0.00  0.00     0.074 S 
ATOM      6  O   LIG d   1       7.176   1.453  -5.455  0.00  0.00    -0.150 OA
ATOM      7  O   LIG d   1       8.479  -0.523  -4.680  0.00  0.00    -0.150 OA
BRANCH   5   8
ATOM      8  C   LIG d   1       6.356   0.144  -3.413  0.00  0.00     0.108 A 
ATOM      9  C   LIG d   1       5.594   1.093  -2.757  0.00  0.00    -0.035 A 
ATOM     10  C   LIG d   1       4.526   0.699  -1.972  0.00  0.00    -0.060 A 
ATOM     11  H   LIG d   1       5.833   2.141  -2.859  0.00  0.00     0.064 H 
ATOM     12  C   LIG d   1       4.225  -0.643  -1.838  0.00  0.00    -0.062 A 
ATOM     13  H   LIG d   1       3.929   1.441  -1.463  0.00  0.00     0.062 H 
ATOM     14  C   LIG d   1       4.990  -1.592  -2.490  0.00  0.00    -0.060 A 
ATOM     15  H   LIG d   1       3.392  -0.950  -1.223  0.00  0.00     0.062 H 
ATOM     16  C   LIG d   1       6.055  -1.199  -3.278  0.00  0.00    -0.035 A 
ATOM     17  H   LIG d   1       4.754  -2.641  -2.385  0.00  0.00     0.062 H 
ATOM     18  H   LIG d   1       6.653  -1.939  -3.788  0.00  0.00     0.064 H 
ENDBRANCH   5   8
ENDBRANCH   3   5
BRANCH   1  19
ATOM     19  N   LIG d   1      10.632   2.864  -3.209  0.00  0.00    -0.296 N 
ATOM     20  H   LIG d   1      11.422   2.509  -2.774  0.00  0.00     0.154 HD
BRANCH  19  21
ATOM     21  C   LIG d   1      10.295   4.213  -3.056  0.00  0.00     0.033 A 
ATOM     22  C   LIG d   1      10.534   4.857  -1.849  0.00  0.00    -0.041 A 
ATOM     23  C   LIG d   1      10.202   6.190  -1.702  0.00  0.00    -0.060 A 
ATOM     24  H   LIG d   1      10.980   4.318  -1.028  0.00  0.00     0.064 H 
ATOM     25  C   LIG d   1       9.631   6.882  -2.755  0.00  0.00    -0.062 A 
ATOM     26  H   LIG d   1      10.387   6.692  -0.764  0.00  0.00     0.062 H 
ATOM     27  C   LIG d   1       9.391   6.243  -3.957  0.00  0.00    -0.060 A 
ATOM     28  H   LIG d   1       9.367   7.923  -2.635  0.00  0.00     0.062 H 
ATOM     29  C   LIG d   1       9.721   4.911  -4.111  0.00  0.00    -0.041 A 
ATOM     30  H   LIG d   1       8.945   6.786  -4.776  0.00  0.00     0.062 H 
ATOM     31  H   LIG d   1       9.535   4.412  -5.051  0.00  0.00     0.064 H 
ENDBRANCH  19  21
ENDBRANCH   1  19
TORSDOF 4
ENDMDL
MODEL 7
REMARK VINA RESULT:      -6.8      5.396      7.419
REMARK  4 active torsions:
REMARK  status: ('A' for Active; 'I' for Inactive)
REMARK    1  A    between atoms: C_4  and  N_7 
REMARK    2  A    between atoms: N_7  and  C_8 
REMARK    3  A    between atoms: N_10  and  S_11 
REMARK    4  A    between atoms: S_11  and  C_14 
ROOT
ATOM      1  C   LIG d   1       7.675  -0.012  -4.103  0.00  0.00     0.154 C 
ATOM      2  S   LIG d   1       7.625  -0.514  -5.738  0.00  0.00    -0.017 SA
ATOM      3  N   LIG d   1       8.302   1.132  -3.768  0.00  0.00    -0.197 N 
ATOM      4  H   LIG d   1       8.331   1.416  -2.841  0.00  0.00     0.175 HD
ENDROOT
BRANCH   3   5
ATOM      5  S   LIG d   1       9.026   2.054  -4.938  0.00  0.00     0.074 S 
ATOM      6  O   LIG d   1      10.255   1.416  -5.255  0.00  0.00    -0.150 OA
ATOM      7  O   LIG d   1       8.031   2.320  -5.918  0.00  0.00    -0.150 OA
BRANCH   5   8
ATOM      8  C   LIG d   1       9.435   3.601  -4.203  0.00  0.00     0.108 A 
ATOM      9  C   LIG d   1       9.242   4.775  -4.909  0.00  0.00    -0.035 A 
ATOM     10  C   LIG d   1       9.560   5.989  -4.331  0.00  0.00    -0.060 A 
ATOM     11  H   LIG d   1       8.841   4.741  -5.911  0.00  0.00     0.064 H 
ATOM     12  C   LIG d   1      10.078   6.031  -3.050  0.00  0.00    -0.062 A 
ATOM     13  H   LIG d   1       9.405   6.906  -4.881  0.00  0.00     0.062 H 
ATOM     14  C   LIG d   1      10.276   4.857  -2.346  0.00  0.00    -0.060 A 
ATOM     15  H   LIG d   1      10.328   6.979  -2.600  0.00  0.00     0.062 H 
ATOM     16  C   LIG d   1       9.954   3.643  -2.923  0.00  0.00    -0.035 A 
ATOM     17  H   LIG d   1      10.681   4.890  -1.345  0.00  0.00     0.062 H 
ATOM     18  H   LIG d   1      10.109   2.726  -2.373  0.00  0.00     0.064 H 
ENDBRANCH   5   8
ENDBRANCH   3   5
BRANCH   1  19
ATOM     19  N   LIG d   1       7.086  -0.762  -3.149  0.00  0.00    -0.296 N 
ATOM     20  H   LIG d   1       7.621  -1.359  -2.603  0.00  0.00     0.154 HD
BRANCH  19  21
ATOM     21  C   LIG d   1       5.704  -0.678  -2.948  0.00  0.00     0.033 A 
ATOM     22  C   LIG d   1       4.918  -1.820  -3.036  0.00  0.00    -0.041 A 
ATOM     23  C   LIG d   1       3.554  -1.734  -2.835  0.00  0.00    -0.060 A 
ATOM     24  H   LIG d   1       5.372  -2.773  -3.260  0.00  0.00     0.064 H 
ATOM     25  C   LIG d   1       2.972  -0.513  -2.547  0.00  0.00    -0.062 A 
ATOM     26  H   LIG d   1       2.942  -2.620  -2.903  0.00  0.00     0.062 H 
ATOM     27  C   LIG d   1       3.752   0.625  -2.460  0.00  0.00    -0.060 A 
ATOM     28  H   LIG d   1       1.904  -0.447  -2.396  0.00  0.00     0.062 H 
ATOM     29  C   LIG d   1       5.117   0.546  -2.659  0.00  0.00    -0.041 A 
ATOM     30  H   LIG d   1       3.294   1.577  -2.235  0.00  0.00     0.062 H 
ATOM     31  H   LIG d   1       5.726   1.435  -2.590  0.00  0.00     0.064 H 
ENDBRANCH  19  21
ENDBRANCH   1  19
TORSDOF 4
ENDMDL
MODEL 8
REMARK VINA RESULT:      -6.4      5.698      8.024
REMARK  4 active torsions:
REMARK  status: ('A' for Active; 'I' for Inactive)
REMARK    1  A    between atoms: C_4  and  N_7 
REMARK    2  A    between atoms: N_7  and  C_8 
REMARK    3  A    between atoms: N_10  and  S_11 
REMARK    4  A    between atoms: S_11  and  C_14 
ROOT
ATOM      1  C   LIG d   1       8.685  -3.142  -3.826  0.00  0.00     0.154 C 
ATOM      2  S   LIG d   1       8.471  -4.070  -5.248  0.00  0.00    -0.017 SA
ATOM      3  N   LIG d   1       7.728  -2.279  -3.434  0.00  0.00    -0.197 N 
ATOM      4  H   LIG d   1       7.849  -1.753  -2.628  0.00  0.00     0.175 HD
ENDROOT
BRANCH   3   5
ATOM      5  S   LIG d   1       6.344  -2.114  -4.329  0.00  0.00     0.074 S 
ATOM      6  O   LIG d   1       6.727  -1.535  -5.568  0.00  0.00    -0.150 OA
ATOM      7  O   LIG d   1       5.659  -3.357  -4.248  0.00  0.00    -0.150 OA
BRANCH   5   8
ATOM      8  C   LIG d   1       5.332  -0.927  -3.509  0.00  0.00     0.108 A 
ATOM      9  C   LIG d   1       3.986  -1.180  -3.320  0.00  0.00    -0.035 A 
ATOM     10  C   LIG d   1       3.193  -0.250  -2.673  0.00  0.00    -0.060 A 
ATOM     11  H   LIG d   1       3.555  -2.104  -3.675  0.00  0.00     0.064 H 
ATOM     12  C   LIG d   1       3.744   0.935  -2.223  0.00  0.00    -0.062 A 
ATOM     13  H   LIG d   1       2.142  -0.449  -2.521  0.00  0.00     0.062 H 
ATOM     14  C   LIG d   1       5.089   1.190  -2.418  0.00  0.00    -0.060 A 
ATOM     15  H   LIG d   1       3.124   1.662  -1.721  0.00  0.00     0.062 H 
ATOM     16  C   LIG d   1       5.883   0.259  -3.060  0.00  0.00    -0.035 A 
ATOM     17  H   LIG d   1       5.519   2.116  -2.066  0.00  0.00     0.062 H 
ATOM     18  H   LIG d   1       6.933   0.457  -3.212  0.00  0.00     0.064 H 
ENDBRANCH   5   8
ENDBRANCH   3   5
BRANCH   1  19
ATOM     19  N   LIG d   1       9.812  -3.276  -3.097  0.00  0.00    -0.296 N 
ATOM     20  H   LIG d   1      10.287  -2.488  -2.790  0.00  0.00     0.154 HD
BRANCH  19  21
ATOM     21  C   LIG d   1      10.295  -4.550  -2.783  0.00  0.00     0.033 A 
ATOM     22  C   LIG d   1      11.433  -5.037  -3.411  0.00  0.00    -0.041 A 
ATOM     23  C   LIG d   1      11.908  -6.296  -3.098  0.00  0.00    -0.060 A 
ATOM     24  H   LIG d   1      11.947  -4.433  -4.143  0.00  0.00     0.064 H 
ATOM     25  C   LIG d   1      11.250  -7.071  -2.160  0.00  0.00    -0.062 A 
ATOM     26  H   LIG d   1      12.793  -6.676  -3.585  0.00  0.00     0.062 H 
ATOM     27  C   LIG d   1      10.116  -6.589  -1.533  0.00  0.00    -0.060 A 
ATOM     28  H   LIG d   1      11.621  -8.057  -1.920  0.00  0.00     0.062 H 
ATOM     29  C   LIG d   1       9.636  -5.331  -1.842  0.00  0.00    -0.041 A 
ATOM     30  H   LIG d   1       9.604  -7.196  -0.802  0.00  0.00     0.062 H 
ATOM     31  H   LIG d   1       8.750  -4.954  -1.351  0.00  0.00     0.064 H 
ENDBRANCH  19  21
ENDBRANCH   1  19
TORSDOF 4
ENDMDL
MODEL 9
REMARK VINA RESULT:      -6.3      3.156      6.664
REMARK  4 active torsions:
REMARK  status: ('A' for Active; 'I' for Inactive)
REMARK    1  A    between atoms: C_4  and  N_7 
REMARK    2  A    between atoms: N_7  and  C_8 
REMARK    3  A    between atoms: N_10  and  S_11 
REMARK    4  A    between atoms: S_11  and  C_14 
ROOT
ATOM      1  C   LIG d   1       3.024  -0.215  -6.098  0.00  0.00     0.154 C 
ATOM      2  S   LIG d   1       2.514   0.844  -4.855  0.00  0.00    -0.017 SA
ATOM      3  N   LIG d   1       4.100  -1.005  -5.911  0.00  0.00    -0.197 N 
ATOM      4  H   LIG d   1       4.389  -1.605  -6.616  0.00  0.00     0.175 HD
ENDROOT
BRANCH   3   5
ATOM      5  S   LIG d   1       4.930  -0.950  -4.479  0.00  0.00     0.074 S 
ATOM      6  O   LIG d   1       5.655   0.271  -4.476  0.00  0.00    -0.150 OA
ATOM      7  O   LIG d   1       3.999  -1.285  -3.458  0.00  0.00    -0.150 OA
BRANCH   5   8
ATOM      8  C   LIG d   1       6.123  -2.245  -4.518  0.00  0.00     0.108 A 
ATOM      9  C   LIG d   1       7.298  -2.124  -3.799  0.00  0.00    -0.035 A 
ATOM     10  C   LIG d   1       8.233  -3.143  -3.827  0.00  0.00    -0.060 A 
ATOM     11  H   LIG d   1       7.484  -1.236  -3.215  0.00  0.00     0.064 H 
ATOM     12  C   LIG d   1       7.996  -4.278  -4.580  0.00  0.00    -0.062 A 
ATOM     13  H   LIG d   1       9.149  -3.050  -3.263  0.00  0.00     0.062 H 
ATOM     14  C   LIG d   1       6.823  -4.397  -5.302  0.00  0.00    -0.060 A 
ATOM     15  H   LIG d   1       8.727  -5.072  -4.603  0.00  0.00     0.062 H 
ATOM     16  C   LIG d   1       5.887  -3.381  -5.271  0.00  0.00    -0.035 A 
ATOM     17  H   LIG d   1       6.638  -5.284  -5.890  0.00  0.00     0.062 H 
ATOM     18  H   LIG d   1       4.970  -3.472  -5.835  0.00  0.00     0.064 H 
ENDBRANCH   5   8
ENDBRANCH   3   5
BRANCH   1  19
ATOM     19  N   LIG d   1       2.349  -0.261  -7.264  0.00  0.00    -0.296 N 
ATOM     20  H   LIG d   1       1.501  -0.728  -7.316  0.00  0.00     0.154 HD
BRANCH  19  21
ATOM     21  C   LIG d   1       2.872   0.368  -8.399  0.00  0.00     0.033 A 
ATOM     22  C   LIG d   1       3.195  -0.382  -9.523  0.00  0.00    -0.041 A 
ATOM     23  C   LIG d   1       3.710   0.241 -10.642  0.00  0.00    -0.060 A 
ATOM     24  H   LIG d   1       3.041  -1.450  -9.522  0.00  0.00     0.064 H 
ATOM     25  C   LIG d   1       3.905   1.611 -10.644  0.00  0.00    -0.062 A 
ATOM     26  H   LIG d   1       3.960  -0.340 -11.517  0.00  0.00     0.062 H 
ATOM     27  C   LIG d   1       3.586   2.360  -9.527  0.00  0.00    -0.060 A 
ATOM     28  H   LIG d   1       4.314   2.095 -11.520  0.00  0.00     0.062 H 
ATOM     29  C   LIG d   1       3.070   1.742  -8.404  0.00  0.00    -0.041 A 
ATOM     30  H   LIG d   1       3.740   3.428  -9.532  0.00  0.00     0.062 H 
ATOM     31  H   LIG d   1       2.820   2.328  -7.532  0.00  0.00     0.064 H 
ENDBRANCH  19  21
ENDBRANCH   1  19
TORSDOF 4
ENDMDL
