MODEL 1
REMARK VINA RESULT:      -5.2      0.000      0.000
REMARK  10 active torsions:
REMARK  status: ('A' for Active; 'I' for Inactive)
REMARK    1  A    between atoms: C_1  and  O_2 
REMARK    2  A    between atoms: O_2  and  C_3 
REMARK    3  A    between atoms: C_5  and  C_22 
REMARK    4  A    between atoms: C_7  and  C_10 
REMARK    5  A    between atoms: C_8  and  O_9 
REMARK    6  A    between atoms: C_12  and  C_20 
REMARK    7  A    between atoms: C_14  and  O_18 
REMARK    8  A    between atoms: C_15  and  O_16 
REMARK    9  A    between atoms: O_16  and  C_17 
REMARK   10  A    between atoms: O_18  and  C_19 
ROOT
ATOM      1  C   LIG d   1       4.991  -3.191  -5.087  0.00  0.00     0.032 A 
ATOM      2  C   LIG d   1       4.819  -2.846  -3.753  0.00  0.00    -0.040 A 
ATOM      3  C   LIG d   1       4.448  -1.541  -3.414  0.00  0.00     0.018 A 
ATOM      4  C   LIG d   1       4.250  -0.587  -4.420  0.00  0.00    -0.006 A 
ATOM      5  C   LIG d   1       4.423  -0.934  -5.745  0.00  0.00     0.163 A 
ATOM      6  C   LIG d   1       4.793  -2.233  -6.087  0.00  0.00     0.169 A 
ATOM      7  H   LIG d   1       4.971  -3.584  -2.979  0.00  0.00     0.063 H 
ATOM      8  H   LIG d   1       3.964   0.420  -4.158  0.00  0.00     0.066 H 
ENDROOT
BRANCH   1   9
ATOM      9  C   LIG d   1       5.385  -4.574  -5.452  0.00  0.00     0.032 A 
ATOM     10  C   LIG d   1       6.696  -4.994  -5.269  0.00  0.00    -0.040 A 
ATOM     11  C   LIG d   1       7.061  -6.300  -5.609  0.00  0.00     0.018 A 
ATOM     12  H   LIG d   1       7.430  -4.316  -4.861  0.00  0.00     0.063 H 
ATOM     13  C   LIG d   1       6.107  -7.176  -6.143  0.00  0.00    -0.006 A 
ATOM     14  C   LIG d   1       4.807  -6.753  -6.330  0.00  0.00     0.163 A 
ATOM     15  H   LIG d   1       6.390  -8.184  -6.410  0.00  0.00     0.066 H 
ATOM     16  C   LIG d   1       4.437  -5.454  -5.987  0.00  0.00     0.167 A 
BRANCH  11  17
ATOM     17  C   LIG d   1       8.445  -6.752  -5.411  0.00  0.00     0.150 C 
ATOM     18  O   LIG d   1       9.216  -6.077  -4.763  0.00  0.00    -0.296 OA
ATOM     19  H   LIG d   1       8.775  -7.685  -5.842  0.00  0.00     0.108 H 
ENDBRANCH  11  17
BRANCH  14  20
ATOM     20  O   LIG d   1       3.883  -7.606  -6.849  0.00  0.00    -0.491 OA
BRANCH  20  21
ATOM     21  C   LIG d   1       4.267  -8.352  -8.006  0.00  0.00     0.079 C 
ATOM     22  H   LIG d   1       4.196  -7.716  -8.888  0.00  0.00     0.066 H 
ATOM     23  H   LIG d   1       5.294  -8.700  -7.891  0.00  0.00     0.066 H 
ATOM     24  H   LIG d   1       3.604  -9.208  -8.122  0.00  0.00     0.066 H 
ENDBRANCH  20  21
ENDBRANCH  14  20
BRANCH  16  25
ATOM     25  O   LIG d   1       3.157  -5.043  -6.170  0.00  0.00    -0.503 OA
ATOM     26  H   LIG d   1       2.718  -4.751  -5.360  0.00  0.00     0.292 HD
ENDBRANCH  16  25
ENDBRANCH   1   9
BRANCH   6  27
ATOM     27  O   LIG d   1       4.955  -2.571  -7.391  0.00  0.00    -0.491 OA
BRANCH  27  28
ATOM     28  C   LIG d   1       6.233  -2.307  -7.975  0.00  0.00     0.079 C 
ATOM     29  H   LIG d   1       6.111  -2.104  -9.039  0.00  0.00     0.066 H 
ATOM     30  H   LIG d   1       6.682  -1.441  -7.490  0.00  0.00     0.066 H 
ATOM     31  H   LIG d   1       6.879  -3.175  -7.842  0.00  0.00     0.066 H 
ENDBRANCH  27  28
ENDBRANCH   6  27
BRANCH   5  32
ATOM     32  O   LIG d   1       4.230  -0.005  -6.720  0.00  0.00    -0.491 OA
BRANCH  32  33
ATOM     33  C   LIG d   1       2.885   0.208  -7.156  0.00  0.00     0.079 C 
ATOM     34  H   LIG d   1       2.766   1.243  -7.476  0.00  0.00     0.066 H 
ATOM     35  H   LIG d   1       2.665  -0.458  -7.991  0.00  0.00     0.066 H 
ATOM     36  H   LIG d   1       2.199   0.001  -6.336  0.00  0.00     0.066 H 
ENDBRANCH  32  33
ENDBRANCH   5  32
BRANCH   3  37
ATOM     37  C   LIG d   1       4.264  -1.174  -2.004  0.00  0.00     0.150 C 
ATOM     38  O   LIG d   1       4.329  -0.009  -1.668  0.00  0.00    -0.296 OA
ATOM     39  H   LIG d   1       4.071  -1.938  -1.266  0.00  0.00     0.108 H 
ENDBRANCH   3  37
TORSDOF 10
ENDMDL
MODEL 2
REMARK VINA RESULT:      -5.1      2.640      6.415
REMARK  10 active torsions:
REMARK  status: ('A' for Active; 'I' for Inactive)
REMARK    1  A    between atoms: C_1  and  O_2 
REMARK    2  A    between atoms: O_2  and  C_3 
REMARK    3  A    between atoms: C_5  and  C_22 
REMARK    4  A    between atoms: C_7  and  C_10 
REMARK    5  A    between atoms: C_8  and  O_9 
REMARK    6  A    between atoms: C_12  and  C_20 
REMARK    7  A    between atoms: C_14  and  O_18 
REMARK    8  A    between atoms: C_15  and  O_16 
REMARK    9  A    between atoms: O_16  and  C_17 
REMARK   10  A    between atoms: O_18  and  C_19 
ROOT
ATOM      1  C   LIG d   1       4.846  -1.358  -6.307  0.00  0.00     0.032 A 
ATOM      2  C   LIG d   1       4.761  -2.739  -6.189  0.00  0.00    -0.040 A 
ATOM      3  C   LIG d   1       4.169  -3.490  -7.209  0.00  0.00     0.018 A 
ATOM      4  C   LIG d   1       3.664  -2.848  -8.347  0.00  0.00    -0.006 A 
ATOM      5  C   LIG d   1       3.749  -1.475  -8.460  0.00  0.00     0.163 A 
ATOM      6  C   LIG d   1       4.338  -0.722  -7.446  0.00  0.00     0.169 A 
ATOM      7  H   LIG d   1       5.153  -3.232  -5.311  0.00  0.00     0.063 H 
ATOM      8  H   LIG d   1       3.207  -3.427  -9.134  0.00  0.00     0.066 H 
ENDROOT
BRANCH   1   9
ATOM      9  C   LIG d   1       5.472  -0.557  -5.227  0.00  0.00     0.032 A 
ATOM     10  C   LIG d   1       4.725  -0.180  -4.119  0.00  0.00    -0.040 A 
ATOM     11  C   LIG d   1       5.322   0.570  -3.101  0.00  0.00     0.018 A 
ATOM     12  H   LIG d   1       3.688  -0.470  -4.041  0.00  0.00     0.063 H 
ATOM     13  C   LIG d   1       6.666   0.949  -3.208  0.00  0.00    -0.006 A 
ATOM     14  C   LIG d   1       7.404   0.578  -4.314  0.00  0.00     0.163 A 
ATOM     15  H   LIG d   1       7.126   1.532  -2.424  0.00  0.00     0.066 H 
ATOM     16  C   LIG d   1       6.815  -0.174  -5.328  0.00  0.00     0.167 A 
BRANCH  11  17
ATOM     17  C   LIG d   1       4.538   0.965  -1.923  0.00  0.00     0.150 C 
ATOM     18  O   LIG d   1       3.426   1.428  -2.062  0.00  0.00    -0.296 OA
ATOM     19  H   LIG d   1       4.953   0.843  -0.934  0.00  0.00     0.108 H 
ENDBRANCH  11  17
BRANCH  14  20
ATOM     20  O   LIG d   1       8.709   0.948  -4.415  0.00  0.00    -0.491 OA
BRANCH  20  21
ATOM     21  C   LIG d   1       9.101   2.136  -3.725  0.00  0.00     0.079 C 
ATOM     22  H   LIG d   1       8.427   2.308  -2.886  0.00  0.00     0.066 H 
ATOM     23  H   LIG d   1      10.120   2.022  -3.354  0.00  0.00     0.066 H 
ATOM     24  H   LIG d   1       9.055   2.984  -4.407  0.00  0.00     0.066 H 
ENDBRANCH  20  21
ENDBRANCH  14  20
BRANCH  16  25
ATOM     25  O   LIG d   1       7.543  -0.538  -6.413  0.00  0.00    -0.503 OA
ATOM     26  H   LIG d   1       8.220  -1.204  -6.227  0.00  0.00     0.292 HD
ENDBRANCH  16  25
ENDBRANCH   1   9
BRANCH   6  27
ATOM     27  O   LIG d   1       4.425   0.626  -7.565  0.00  0.00    -0.491 OA
BRANCH  27  28
ATOM     28  C   LIG d   1       5.371   1.133  -8.509  0.00  0.00     0.079 C 
ATOM     29  H   LIG d   1       5.287   2.220  -8.559  0.00  0.00     0.066 H 
ATOM     30  H   LIG d   1       6.378   0.862  -8.196  0.00  0.00     0.066 H 
ATOM     31  H   LIG d   1       5.167   0.708  -9.491  0.00  0.00     0.066 H 
ENDBRANCH  27  28
ENDBRANCH   6  27
BRANCH   5  32
ATOM     32  O   LIG d   1       3.258  -0.854  -9.567  0.00  0.00    -0.491 OA
BRANCH  32  33
ATOM     33  C   LIG d   1       1.842  -0.665  -9.629  0.00  0.00     0.079 C 
ATOM     34  H   LIG d   1       1.473  -1.001 -10.599  0.00  0.00     0.066 H 
ATOM     35  H   LIG d   1       1.364  -1.243  -8.838  0.00  0.00     0.066 H 
ATOM     36  H   LIG d   1       1.610   0.391  -9.499  0.00  0.00     0.066 H 
ENDBRANCH  32  33
ENDBRANCH   5  32
BRANCH   3  37
ATOM     37  C   LIG d   1       4.080  -4.951  -7.087  0.00  0.00     0.150 C 
ATOM     38  O   LIG d   1       3.487  -5.446  -6.152  0.00  0.00    -0.296 OA
ATOM     39  H   LIG d   1       4.542  -5.585  -7.830  0.00  0.00     0.108 H 
ENDBRANCH   3  37
TORSDOF 10
ENDMDL
MODEL 3
REMARK VINA RESULT:      -5.1      2.684      4.717
REMARK  10 active torsions:
REMARK  status: ('A' for Active; 'I' for Inactive)
REMARK    1  A    between atoms: C_1  and  O_2 
REMARK    2  A    between atoms: O_2  and  C_3 
REMARK    3  A    between atoms: C_5  and  C_22 
REMARK    4  A    between atoms: C_7  and  C_10 
REMARK    5  A    between atoms: C_8  and  O_9 
REMARK    6  A    between atoms: C_12  and  C_20 
REMARK    7  A    between atoms: C_14  and  O_18 
REMARK    8  A    between atoms: C_15  and  O_16 
REMARK    9  A    between atoms: O_16  and  C_17 
REMARK   10  A    between atoms: O_18  and  C_19 
ROOT
ATOM      1  C   LIG d   1       5.432  -0.531  -5.230  0.00  0.00     0.032 A 
ATOM      2  C   LIG d   1       4.687  -0.172  -4.115  0.00  0.00    -0.040 A 
ATOM      3  C   LIG d   1       5.285   0.561  -3.085  0.00  0.00     0.018 A 
ATOM      4  C   LIG d   1       6.633   0.931  -3.182  0.00  0.00    -0.006 A 
ATOM      5  C   LIG d   1       7.370   0.572  -4.292  0.00  0.00     0.163 A 
ATOM      6  C   LIG d   1       6.778  -0.159  -5.320  0.00  0.00     0.169 A 
ATOM      7  H   LIG d   1       3.648  -0.458  -4.043  0.00  0.00     0.063 H 
ATOM      8  H   LIG d   1       7.094   1.497  -2.387  0.00  0.00     0.066 H 
ENDROOT
BRANCH   1   9
ATOM      9  C   LIG d   1       4.802  -1.309  -6.325  0.00  0.00     0.032 A 
ATOM     10  C   LIG d   1       4.721  -2.692  -6.237  0.00  0.00    -0.040 A 
ATOM     11  C   LIG d   1       4.122  -3.421  -7.269  0.00  0.00     0.018 A 
ATOM     12  H   LIG d   1       5.116  -3.204  -5.372  0.00  0.00     0.063 H 
ATOM     13  C   LIG d   1       3.616  -2.755  -8.392  0.00  0.00    -0.006 A 
ATOM     14  C   LIG d   1       3.704  -1.380  -8.480  0.00  0.00     0.163 A 
ATOM     15  H   LIG d   1       3.156  -3.317  -9.192  0.00  0.00     0.066 H 
ATOM     16  C   LIG d   1       4.295  -0.650  -7.451  0.00  0.00     0.167 A 
BRANCH  11  17
ATOM     17  C   LIG d   1       4.027  -4.885  -7.177  0.00  0.00     0.150 C 
ATOM     18  O   LIG d   1       3.458  -5.397  -6.237  0.00  0.00    -0.296 OA
ATOM     19  H   LIG d   1       4.464  -5.502  -7.947  0.00  0.00     0.108 H 
ENDBRANCH  11  17
BRANCH  14  20
ATOM     20  O   LIG d   1       3.212  -0.736  -9.572  0.00  0.00    -0.491 OA
BRANCH  20  21
ATOM     21  C   LIG d   1       1.793  -0.599  -9.659  0.00  0.00     0.079 C 
ATOM     22  H   LIG d   1       1.327  -1.581  -9.581  0.00  0.00     0.066 H 
ATOM     23  H   LIG d   1       1.438   0.037  -8.848  0.00  0.00     0.066 H 
ATOM     24  H   LIG d   1       1.530  -0.148 -10.616  0.00  0.00     0.066 H 
ENDBRANCH  20  21
ENDBRANCH  14  20
BRANCH  16  25
ATOM     25  O   LIG d   1       4.379   0.702  -7.540  0.00  0.00    -0.503 OA
ATOM     26  H   LIG d   1       3.956   1.170  -6.808  0.00  0.00     0.292 HD
ENDBRANCH  16  25
ENDBRANCH   1   9
BRANCH   6  27
ATOM     27  O   LIG d   1       7.505  -0.504  -6.412  0.00  0.00    -0.491 OA
BRANCH  27  28
ATOM     28  C   LIG d   1       8.317  -1.676  -6.307  0.00  0.00     0.079 C 
ATOM     29  H   LIG d   1       7.678  -2.555  -6.219  0.00  0.00     0.066 H 
ATOM     30  H   LIG d   1       8.939  -1.768  -7.196  0.00  0.00     0.066 H 
ATOM     31  H   LIG d   1       8.952  -1.599  -5.424  0.00  0.00     0.066 H 
ENDBRANCH  27  28
ENDBRANCH   6  27
BRANCH   5  32
ATOM     32  O   LIG d   1       8.679   0.933  -4.384  0.00  0.00    -0.491 OA
BRANCH  32  33
ATOM     33  C   LIG d   1       9.043   2.196  -3.821  0.00  0.00     0.079 C 
ATOM     34  H   LIG d   1       9.546   2.799  -4.577  0.00  0.00     0.066 H 
ATOM     35  H   LIG d   1       8.146   2.714  -3.480  0.00  0.00     0.066 H 
ATOM     36  H   LIG d   1       9.714   2.038  -2.977  0.00  0.00     0.066 H 
ENDBRANCH  32  33
ENDBRANCH   5  32
BRANCH   3  37
ATOM     37  C   LIG d   1       4.499   0.943  -1.904  0.00  0.00     0.150 C 
ATOM     38  O   LIG d   1       3.371   1.368  -2.039  0.00  0.00    -0.296 OA
ATOM     39  H   LIG d   1       4.926   0.847  -0.917  0.00  0.00     0.108 H 
ENDBRANCH   3  37
TORSDOF 10
ENDMDL
MODEL 4
REMARK VINA RESULT:      -4.9      4.952      6.854
REMARK  10 active torsions:
REMARK  status: ('A' for Active; 'I' for Inactive)
REMARK    1  A    between atoms: C_1  and  O_2 
REMARK    2  A    between atoms: O_2  and  C_3 
REMARK    3  A    between atoms: C_5  and  C_22 
REMARK    4  A    between atoms: C_7  and  C_10 
REMARK    5  A    between atoms: C_8  and  O_9 
REMARK    6  A    between atoms: C_12  and  C_20 
REMARK    7  A    between atoms: C_14  and  O_18 
REMARK    8  A    between atoms: C_15  and  O_16 
REMARK    9  A    between atoms: O_16  and  C_17 
REMARK   10  A    between atoms: O_18  and  C_19 
ROOT
ATOM      1  C   LIG d   1       8.290   1.730  -4.268  0.00  0.00     0.032 A 
ATOM      2  C   LIG d   1       9.140   2.313  -3.338  0.00  0.00    -0.040 A 
ATOM      3  C   LIG d   1      10.009   3.335  -3.733  0.00  0.00     0.018 A 
ATOM      4  C   LIG d   1      10.018   3.767  -5.066  0.00  0.00    -0.006 A 
ATOM      5  C   LIG d   1       9.172   3.184  -5.988  0.00  0.00     0.163 A 
ATOM      6  C   LIG d   1       8.305   2.166  -5.598  0.00  0.00     0.169 A 
ATOM      7  H   LIG d   1       9.130   1.978  -2.310  0.00  0.00     0.063 H 
ATOM      8  H   LIG d   1      10.689   4.556  -5.371  0.00  0.00     0.066 H 
ENDROOT
BRANCH   1   9
ATOM      9  C   LIG d   1       7.366   0.645  -3.853  0.00  0.00     0.032 A 
ATOM     10  C   LIG d   1       6.144   0.957  -3.274  0.00  0.00    -0.040 A 
ATOM     11  C   LIG d   1       5.274  -0.068  -2.889  0.00  0.00     0.018 A 
ATOM     12  H   LIG d   1       5.862   1.989  -3.124  0.00  0.00     0.063 H 
ATOM     13  C   LIG d   1       5.645  -1.406  -3.079  0.00  0.00    -0.006 A 
ATOM     14  C   LIG d   1       6.863  -1.713  -3.649  0.00  0.00     0.163 A 
ATOM     15  H   LIG d   1       4.975  -2.199  -2.778  0.00  0.00     0.066 H 
ATOM     16  C   LIG d   1       7.730  -0.693  -4.039  0.00  0.00     0.167 A 
BRANCH  11  17
ATOM     17  C   LIG d   1       3.976   0.257  -2.282  0.00  0.00     0.150 C 
ATOM     18  O   LIG d   1       3.754   1.383  -1.893  0.00  0.00    -0.296 OA
ATOM     19  H   LIG d   1       3.221  -0.508  -2.183  0.00  0.00     0.108 H 
ENDBRANCH  11  17
BRANCH  14  20
ATOM     20  O   LIG d   1       7.220  -3.013  -3.832  0.00  0.00    -0.491 OA
BRANCH  20  21
ATOM     21  C   LIG d   1       6.565  -3.722  -4.885  0.00  0.00     0.079 C 
ATOM     22  H   LIG d   1       5.544  -3.955  -4.586  0.00  0.00     0.066 H 
ATOM     23  H   LIG d   1       6.550  -3.108  -5.784  0.00  0.00     0.066 H 
ATOM     24  H   LIG d   1       7.103  -4.649  -5.087  0.00  0.00     0.066 H 
ENDBRANCH  20  21
ENDBRANCH  14  20
BRANCH  16  25
ATOM     25  O   LIG d   1       8.927  -0.999  -4.600  0.00  0.00    -0.503 OA
ATOM     26  H   LIG d   1       9.147  -0.462  -5.374  0.00  0.00     0.292 HD
ENDBRANCH  16  25
ENDBRANCH   1   9
BRANCH   6  27
ATOM     27  O   LIG d   1       7.470   1.600  -6.505  0.00  0.00    -0.491 OA
BRANCH  27  28
ATOM     28  C   LIG d   1       8.053   0.694  -7.445  0.00  0.00     0.079 C 
ATOM     29  H   LIG d   1       9.122   0.607  -7.251  0.00  0.00     0.066 H 
ATOM     30  H   LIG d   1       7.585  -0.285  -7.343  0.00  0.00     0.066 H 
ATOM     31  H   LIG d   1       7.896   1.069  -8.456  0.00  0.00     0.066 H 
ENDBRANCH  27  28
ENDBRANCH   6  27
BRANCH   5  32
ATOM     32  O   LIG d   1       9.183   3.607  -7.281  0.00  0.00    -0.491 OA
BRANCH  32  33
ATOM     33  C   LIG d   1      10.009   4.733  -7.588  0.00  0.00     0.079 C 
ATOM     34  H   LIG d   1       9.390   5.543  -7.974  0.00  0.00     0.066 H 
ATOM     35  H   LIG d   1      10.520   5.065  -6.684  0.00  0.00     0.066 H 
ATOM     36  H   LIG d   1      10.745   4.449  -8.339  0.00  0.00     0.066 H 
ENDBRANCH  32  33
ENDBRANCH   5  32
BRANCH   3  37
ATOM     37  C   LIG d   1      10.909   3.954  -2.751  0.00  0.00     0.150 C 
ATOM     38  O   LIG d   1      10.469   4.742  -1.941  0.00  0.00    -0.296 OA
ATOM     39  H   LIG d   1      11.960   3.709  -2.752  0.00  0.00     0.108 H 
ENDBRANCH   3  37
TORSDOF 10
ENDMDL
MODEL 5
REMARK VINA RESULT:      -4.8      2.937      3.546
REMARK  10 active torsions:
REMARK  status: ('A' for Active; 'I' for Inactive)
REMARK    1  A    between atoms: C_1  and  O_2 
REMARK    2  A    between atoms: O_2  and  C_3 
REMARK    3  A    between atoms: C_5  and  C_22 
REMARK    4  A    between atoms: C_7  and  C_10 
REMARK    5  A    between atoms: C_8  and  O_9 
REMARK    6  A    between atoms: C_12  and  C_20 
REMARK    7  A    between atoms: C_14  and  O_18 
REMARK    8  A    between atoms: C_15  and  O_16 
REMARK    9  A    between atoms: O_16  and  C_17 
REMARK   10  A    between atoms: O_18  and  C_19 
ROOT
ATOM      1  C   LIG d   1       7.054  -1.488  -3.765  0.00  0.00     0.032 A 
ATOM      2  C   LIG d   1       5.950  -1.317  -2.940  0.00  0.00    -0.040 A 
ATOM      3  C   LIG d   1       5.456  -0.032  -2.696  0.00  0.00     0.018 A 
ATOM      4  C   LIG d   1       6.075   1.079  -3.284  0.00  0.00    -0.006 A 
ATOM      5  C   LIG d   1       7.173   0.905  -4.103  0.00  0.00     0.163 A 
ATOM      6  C   LIG d   1       7.669  -0.374  -4.348  0.00  0.00     0.169 A 
ATOM      7  H   LIG d   1       5.473  -2.175  -2.489  0.00  0.00     0.063 H 
ATOM      8  H   LIG d   1       5.694   2.071  -3.096  0.00  0.00     0.066 H 
ENDROOT
BRANCH   1   9
ATOM      9  C   LIG d   1       7.582  -2.849  -4.027  0.00  0.00     0.032 A 
ATOM     10  C   LIG d   1       8.601  -3.363  -3.237  0.00  0.00    -0.040 A 
ATOM     11  C   LIG d   1       9.092  -4.649  -3.483  0.00  0.00     0.018 A 
ATOM     12  H   LIG d   1       9.012  -2.773  -2.431  0.00  0.00     0.063 H 
ATOM     13  C   LIG d   1       8.562  -5.409  -4.533  0.00  0.00    -0.006 A 
ATOM     14  C   LIG d   1       7.553  -4.893  -5.321  0.00  0.00     0.163 A 
ATOM     15  H   LIG d   1       8.943  -6.401  -4.727  0.00  0.00     0.066 H 
ATOM     16  C   LIG d   1       7.057  -3.614  -5.075  0.00  0.00     0.167 A 
BRANCH  11  17
ATOM     17  C   LIG d   1      10.166  -5.200  -2.646  0.00  0.00     0.150 C 
ATOM     18  O   LIG d   1       9.904  -5.682  -1.564  0.00  0.00    -0.296 OA
ATOM     19  H   LIG d   1      11.188  -5.175  -2.994  0.00  0.00     0.108 H 
ENDBRANCH  11  17
BRANCH  14  20
ATOM     20  O   LIG d   1       7.040  -5.634  -6.340  0.00  0.00    -0.491 OA
BRANCH  20  21
ATOM     21  C   LIG d   1       6.132  -6.679  -5.989  0.00  0.00     0.079 C 
ATOM     22  H   LIG d   1       5.498  -6.348  -5.166  0.00  0.00     0.066 H 
ATOM     23  H   LIG d   1       5.511  -6.927  -6.849  0.00  0.00     0.066 H 
ATOM     24  H   LIG d   1       6.694  -7.560  -5.680  0.00  0.00     0.066 H 
ENDBRANCH  20  21
ENDBRANCH  14  20
BRANCH  16  25
ATOM     25  O   LIG d   1       6.064  -3.111  -5.850  0.00  0.00    -0.503 OA
ATOM     26  H   LIG d   1       5.202  -3.079  -5.413  0.00  0.00     0.292 HD
ENDBRANCH  16  25
ENDBRANCH   1   9
BRANCH   6  27
ATOM     27  O   LIG d   1       8.744  -0.541  -5.158  0.00  0.00    -0.491 OA
BRANCH  27  28
ATOM     28  C   LIG d   1       8.499  -0.550  -6.567  0.00  0.00     0.079 C 
ATOM     29  H   LIG d   1       8.929   0.346  -7.016  0.00  0.00     0.066 H 
ATOM     30  H   LIG d   1       8.959  -1.433  -7.009  0.00  0.00     0.066 H 
ATOM     31  H   LIG d   1       7.425  -0.569  -6.749  0.00  0.00     0.066 H 
ENDBRANCH  27  28
ENDBRANCH   6  27
BRANCH   5  32
ATOM     32  O   LIG d   1       7.773   1.985  -4.673  0.00  0.00    -0.491 OA
BRANCH  32  33
ATOM     33  C   LIG d   1       8.784   2.645  -3.906  0.00  0.00     0.079 C 
ATOM     34  H   LIG d   1       8.840   2.194  -2.915  0.00  0.00     0.066 H 
ATOM     35  H   LIG d   1       9.746   2.540  -4.409  0.00  0.00     0.066 H 
ATOM     36  H   LIG d   1       8.536   3.701  -3.811  0.00  0.00     0.066 H 
ENDBRANCH  32  33
ENDBRANCH   5  32
BRANCH   3  37
ATOM     37  C   LIG d   1       4.287   0.153  -1.826  0.00  0.00     0.150 C 
ATOM     38  O   LIG d   1       3.680   1.203  -1.842  0.00  0.00    -0.296 OA
ATOM     39  H   LIG d   1       3.970  -0.645  -1.171  0.00  0.00     0.108 H 
ENDBRANCH   3  37
TORSDOF 10
ENDMDL
MODEL 6
REMARK VINA RESULT:      -4.8      2.875      6.994
REMARK  10 active torsions:
REMARK  status: ('A' for Active; 'I' for Inactive)
REMARK    1  A    between atoms: C_1  and  O_2 
REMARK    2  A    between atoms: O_2  and  C_3 
REMARK    3  A    between atoms: C_5  and  C_22 
REMARK    4  A    between atoms: C_7  and  C_10 
REMARK    5  A    between atoms: C_8  and  O_9 
REMARK    6  A    between atoms: C_12  and  C_20 
REMARK    7  A    between atoms: C_14  and  O_18 
REMARK    8  A    between atoms: C_15  and  O_16 
REMARK    9  A    between atoms: O_16  and  C_17 
REMARK   10  A    between atoms: O_18  and  C_19 
ROOT
ATOM      1  C   LIG d   1       7.568  -2.819  -4.086  0.00  0.00     0.032 A 
ATOM      2  C   LIG d   1       8.543  -3.384  -3.275  0.00  0.00    -0.040 A 
ATOM      3  C   LIG d   1       9.015  -4.672  -3.548  0.00  0.00     0.018 A 
ATOM      4  C   LIG d   1       8.502  -5.387  -4.637  0.00  0.00    -0.006 A 
ATOM      5  C   LIG d   1       7.531  -4.822  -5.440  0.00  0.00     0.163 A 
ATOM      6  C   LIG d   1       7.059  -3.539  -5.172  0.00  0.00     0.169 A 
ATOM      7  H   LIG d   1       8.938  -2.829  -2.436  0.00  0.00     0.063 H 
ATOM      8  H   LIG d   1       8.865  -6.382  -4.848  0.00  0.00     0.066 H 
ENDROOT
BRANCH   1   9
ATOM      9  C   LIG d   1       7.065  -1.453  -3.800  0.00  0.00     0.032 A 
ATOM     10  C   LIG d   1       5.989  -1.274  -2.941  0.00  0.00    -0.040 A 
ATOM     11  C   LIG d   1       5.521   0.016  -2.670  0.00  0.00     0.018 A 
ATOM     12  H   LIG d   1       5.517  -2.128  -2.478  0.00  0.00     0.063 H 
ATOM     13  C   LIG d   1       6.132   1.122  -3.276  0.00  0.00    -0.006 A 
ATOM     14  C   LIG d   1       7.197   0.940  -4.135  0.00  0.00     0.163 A 
ATOM     15  H   LIG d   1       5.769   2.118  -3.071  0.00  0.00     0.066 H 
ATOM     16  C   LIG d   1       7.669  -0.343  -4.402  0.00  0.00     0.167 A 
BRANCH  11  17
ATOM     17  C   LIG d   1       4.388   0.211  -1.756  0.00  0.00     0.150 C 
ATOM     18  O   LIG d   1       3.674   1.183  -1.875  0.00  0.00    -0.296 OA
ATOM     19  H   LIG d   1       4.192  -0.512  -0.978  0.00  0.00     0.108 H 
ENDBRANCH  11  17
BRANCH  14  20
ATOM     20  O   LIG d   1       7.787   2.016  -4.722  0.00  0.00    -0.491 OA
BRANCH  20  21
ATOM     21  C   LIG d   1       8.779   2.706  -3.960  0.00  0.00     0.079 C 
ATOM     22  H   LIG d   1       8.378   3.661  -3.621  0.00  0.00     0.066 H 
ATOM     23  H   LIG d   1       9.061   2.104  -3.097  0.00  0.00     0.066 H 
ATOM     24  H   LIG d   1       9.657   2.883  -4.583  0.00  0.00     0.066 H 
ENDBRANCH  20  21
ENDBRANCH  14  20
BRANCH  16  25
ATOM     25  O   LIG d   1       8.717  -0.518  -5.247  0.00  0.00    -0.503 OA
ATOM     26  H   LIG d   1       8.460  -0.700  -6.161  0.00  0.00     0.292 HD
ENDBRANCH  16  25
ENDBRANCH   1   9
BRANCH   6  27
ATOM     27  O   LIG d   1       6.110  -2.986  -5.967  0.00  0.00    -0.491 OA
BRANCH  27  28
ATOM     28  C   LIG d   1       4.753  -3.359  -5.714  0.00  0.00     0.079 C 
ATOM     29  H   LIG d   1       4.135  -3.083  -6.569  0.00  0.00     0.066 H 
ATOM     30  H   LIG d   1       4.696  -4.435  -5.558  0.00  0.00     0.066 H 
ATOM     31  H   LIG d   1       4.394  -2.842  -4.824  0.00  0.00     0.066 H 
ENDBRANCH  27  28
ENDBRANCH   6  27
BRANCH   5  32
ATOM     32  O   LIG d   1       7.035  -5.520  -6.498  0.00  0.00    -0.491 OA
BRANCH  32  33
ATOM     33  C   LIG d   1       7.633  -6.789  -6.776  0.00  0.00     0.079 C 
ATOM     34  H   LIG d   1       7.776  -6.895  -7.851  0.00  0.00     0.066 H 
ATOM     35  H   LIG d   1       8.599  -6.852  -6.273  0.00  0.00     0.066 H 
ATOM     36  H   LIG d   1       6.982  -7.584  -6.415  0.00  0.00     0.066 H 
ENDBRANCH  32  33
ENDBRANCH   5  32
BRANCH   3  37
ATOM     37  C   LIG d   1      10.048  -5.272  -2.693  0.00  0.00     0.150 C 
ATOM     38  O   LIG d   1       9.796  -5.539  -1.536  0.00  0.00    -0.296 OA
ATOM     39  H   LIG d   1      11.029  -5.474  -3.093  0.00  0.00     0.108 H 
ENDBRANCH   3  37
TORSDOF 10
ENDMDL
MODEL 7
REMARK VINA RESULT:      -4.8      1.534      3.207
REMARK  10 active torsions:
REMARK  status: ('A' for Active; 'I' for Inactive)
REMARK    1  A    between atoms: C_1  and  O_2 
REMARK    2  A    between atoms: O_2  and  C_3 
REMARK    3  A    between atoms: C_5  and  C_22 
REMARK    4  A    between atoms: C_7  and  C_10 
REMARK    5  A    between atoms: C_8  and  O_9 
REMARK    6  A    between atoms: C_12  and  C_20 
REMARK    7  A    between atoms: C_14  and  O_18 
REMARK    8  A    between atoms: C_15  and  O_16 
REMARK    9  A    between atoms: O_16  and  C_17 
REMARK   10  A    between atoms: O_18  and  C_19 
ROOT
ATOM      1  C   LIG d   1       4.552  -2.126  -5.585  0.00  0.00     0.032 A 
ATOM      2  C   LIG d   1       4.366  -1.456  -6.787  0.00  0.00    -0.040 A 
ATOM      3  C   LIG d   1       3.662  -0.248  -6.808  0.00  0.00     0.018 A 
ATOM      4  C   LIG d   1       3.147   0.282  -5.618  0.00  0.00    -0.006 A 
ATOM      5  C   LIG d   1       3.333  -0.389  -4.425  0.00  0.00     0.163 A 
ATOM      6  C   LIG d   1       4.033  -1.593  -4.400  0.00  0.00     0.169 A 
ATOM      7  H   LIG d   1       4.766  -1.865  -7.703  0.00  0.00     0.063 H 
ATOM      8  H   LIG d   1       2.603   1.214  -5.634  0.00  0.00     0.066 H 
ENDROOT
BRANCH   1   9
ATOM      9  C   LIG d   1       5.299  -3.408  -5.558  0.00  0.00     0.032 A 
ATOM     10  C   LIG d   1       6.652  -3.418  -5.247  0.00  0.00    -0.040 A 
ATOM     11  C   LIG d   1       7.350  -4.629  -5.217  0.00  0.00     0.018 A 
ATOM     12  H   LIG d   1       7.163  -2.493  -5.025  0.00  0.00     0.063 H 
ATOM     13  C   LIG d   1       6.685  -5.826  -5.512  0.00  0.00    -0.006 A 
ATOM     14  C   LIG d   1       5.341  -5.812  -5.827  0.00  0.00     0.163 A 
ATOM     15  H   LIG d   1       7.225  -6.762  -5.493  0.00  0.00     0.066 H 
ATOM     16  C   LIG d   1       4.641  -4.608  -5.852  0.00  0.00     0.167 A 
BRANCH  11  17
ATOM     17  C   LIG d   1       8.781  -4.645  -4.882  0.00  0.00     0.150 C 
ATOM     18  O   LIG d   1       9.167  -5.253  -3.907  0.00  0.00    -0.296 OA
ATOM     19  H   LIG d   1       9.486  -4.116  -5.504  0.00  0.00     0.108 H 
ENDBRANCH  11  17
BRANCH  14  20
ATOM     20  O   LIG d   1       4.699  -6.977  -6.113  0.00  0.00    -0.491 OA
BRANCH  20  21
ATOM     21  C   LIG d   1       5.018  -8.109  -5.303  0.00  0.00     0.079 C 
ATOM     22  H   LIG d   1       5.131  -7.794  -4.265  0.00  0.00     0.066 H 
ATOM     23  H   LIG d   1       4.218  -8.845  -5.373  0.00  0.00     0.066 H 
ATOM     24  H   LIG d   1       5.952  -8.552  -5.650  0.00  0.00     0.066 H 
ENDBRANCH  20  21
ENDBRANCH  14  20
BRANCH  16  25
ATOM     25  O   LIG d   1       3.319  -4.598  -6.161  0.00  0.00    -0.503 OA
ATOM     26  H   LIG d   1       3.086  -3.986  -6.871  0.00  0.00     0.292 HD
ENDBRANCH  16  25
ENDBRANCH   1   9
BRANCH   6  27
ATOM     27  O   LIG d   1       4.220  -2.245  -3.225  0.00  0.00    -0.491 OA
BRANCH  27  28
ATOM     28  C   LIG d   1       5.240  -1.742  -2.360  0.00  0.00     0.079 C 
ATOM     29  H   LIG d   1       4.810  -1.005  -1.680  0.00  0.00     0.066 H 
ATOM     30  H   LIG d   1       5.663  -2.563  -1.782  0.00  0.00     0.066 H 
ATOM     31  H   LIG d   1       6.023  -1.273  -2.955  0.00  0.00     0.066 H 
ENDBRANCH  27  28
ENDBRANCH   6  27
BRANCH   5  32
ATOM     32  O   LIG d   1       2.831   0.128  -3.271  0.00  0.00    -0.491 OA
BRANCH  32  33
ATOM     33  C   LIG d   1       3.457   1.308  -2.763  0.00  0.00     0.079 C 
ATOM     34  H   LIG d   1       2.741   1.871  -2.165  0.00  0.00     0.066 H 
ATOM     35  H   LIG d   1       4.309   1.028  -2.142  0.00  0.00     0.066 H 
ATOM     36  H   LIG d   1       3.800   1.924  -3.593  0.00  0.00     0.066 H 
ENDBRANCH  32  33
ENDBRANCH   5  32
BRANCH   3  37
ATOM     37  C   LIG d   1       3.465   0.465  -8.077  0.00  0.00     0.150 C 
ATOM     38  O   LIG d   1       4.009   1.534  -8.262  0.00  0.00    -0.296 OA
ATOM     39  H   LIG d   1       2.836   0.039  -8.844  0.00  0.00     0.108 H 
ENDBRANCH   3  37
TORSDOF 10
ENDMDL
MODEL 8
REMARK VINA RESULT:      -4.7      1.249      6.299
REMARK  10 active torsions:
REMARK  status: ('A' for Active; 'I' for Inactive)
REMARK    1  A    between atoms: C_1  and  O_2 
REMARK    2  A    between atoms: O_2  and  C_3 
REMARK    3  A    between atoms: C_5  and  C_22 
REMARK    4  A    between atoms: C_7  and  C_10 
REMARK    5  A    between atoms: C_8  and  O_9 
REMARK    6  A    between atoms: C_12  and  C_20 
REMARK    7  A    between atoms: C_14  and  O_18 
REMARK    8  A    between atoms: C_15  and  O_16 
REMARK    9  A    between atoms: O_16  and  C_17 
REMARK   10  A    between atoms: O_18  and  C_19 
ROOT
ATOM      1  C   LIG d   1       5.916  -4.042  -5.087  0.00  0.00     0.032 A 
ATOM      2  C   LIG d   1       5.088  -5.098  -5.446  0.00  0.00    -0.040 A 
ATOM      3  C   LIG d   1       5.637  -6.358  -5.699  0.00  0.00     0.018 A 
ATOM      4  C   LIG d   1       7.021  -6.553  -5.590  0.00  0.00    -0.006 A 
ATOM      5  C   LIG d   1       7.841  -5.500  -5.234  0.00  0.00     0.163 A 
ATOM      6  C   LIG d   1       7.297  -4.243  -4.982  0.00  0.00     0.169 A 
ATOM      7  H   LIG d   1       4.022  -4.946  -5.528  0.00  0.00     0.063 H 
ATOM      8  H   LIG d   1       7.445  -7.526  -5.785  0.00  0.00     0.066 H 
ENDROOT
BRANCH   1   9
ATOM      9  C   LIG d   1       5.338  -2.703  -4.818  0.00  0.00     0.032 A 
ATOM     10  C   LIG d   1       5.062  -2.315  -3.514  0.00  0.00    -0.040 A 
ATOM     11  C   LIG d   1       4.522  -1.049  -3.264  0.00  0.00     0.018 A 
ATOM     12  H   LIG d   1       5.267  -2.986  -2.694  0.00  0.00     0.063 H 
ATOM     13  C   LIG d   1       4.251  -0.182  -4.331  0.00  0.00    -0.006 A 
ATOM     14  C   LIG d   1       4.521  -0.574  -5.627  0.00  0.00     0.163 A 
ATOM     15  H   LIG d   1       3.830   0.794  -4.139  0.00  0.00     0.066 H 
ATOM     16  C   LIG d   1       5.064  -1.832  -5.879  0.00  0.00     0.167 A 
BRANCH  11  17
ATOM     17  C   LIG d   1       4.234  -0.631  -1.886  0.00  0.00     0.150 C 
ATOM     18  O   LIG d   1       4.563   0.473  -1.506  0.00  0.00    -0.296 OA
ATOM     19  H   LIG d   1       3.730  -1.306  -1.212  0.00  0.00     0.108 H 
ENDBRANCH  11  17
BRANCH  14  20
ATOM     20  O   LIG d   1       4.256   0.270  -6.660  0.00  0.00    -0.491 OA
BRANCH  20  21
ATOM     21  C   LIG d   1       2.921   0.275  -7.168  0.00  0.00     0.079 C 
ATOM     22  H   LIG d   1       2.286  -0.335  -6.525  0.00  0.00     0.066 H 
ATOM     23  H   LIG d   1       2.542   1.297  -7.187  0.00  0.00     0.066 H 
ATOM     24  H   LIG d   1       2.915  -0.135  -8.178  0.00  0.00     0.066 H 
ENDBRANCH  20  21
ENDBRANCH  14  20
BRANCH  16  25
ATOM     25  O   LIG d   1       5.329  -2.213  -7.154  0.00  0.00    -0.503 OA
ATOM     26  H   LIG d   1       4.859  -1.698  -7.824  0.00  0.00     0.292 HD
ENDBRANCH  16  25
ENDBRANCH   1   9
BRANCH   6  27
ATOM     27  O   LIG d   1       8.106  -3.213  -4.626  0.00  0.00    -0.491 OA
BRANCH  27  28
ATOM     28  C   LIG d   1       8.733  -2.486  -5.685  0.00  0.00     0.079 C 
ATOM     29  H   LIG d   1       8.197  -1.551  -5.851  0.00  0.00     0.066 H 
ATOM     30  H   LIG d   1       9.766  -2.268  -5.414  0.00  0.00     0.066 H 
ATOM     31  H   LIG d   1       8.714  -3.083  -6.597  0.00  0.00     0.066 H 
ENDBRANCH  27  28
ENDBRANCH   6  27
BRANCH   5  32
ATOM     32  O   LIG d   1       9.183  -5.692  -5.129  0.00  0.00    -0.491 OA
BRANCH  32  33
ATOM     33  C   LIG d   1       9.670  -6.204  -3.886  0.00  0.00     0.079 C 
ATOM     34  H   LIG d   1       9.022  -7.012  -3.547  0.00  0.00     0.066 H 
ATOM     35  H   LIG d   1      10.683  -6.583  -4.021  0.00  0.00     0.066 H 
ATOM     36  H   LIG d   1       9.676  -5.407  -3.142  0.00  0.00     0.066 H 
ENDBRANCH  32  33
ENDBRANCH   5  32
BRANCH   3  37
ATOM     37  C   LIG d   1       4.764  -7.477  -6.077  0.00  0.00     0.150 C 
ATOM     38  O   LIG d   1       4.406  -8.276  -5.237  0.00  0.00    -0.296 OA
ATOM     39  H   LIG d   1       4.442  -7.589  -7.101  0.00  0.00     0.108 H 
ENDBRANCH   3  37
TORSDOF 10
ENDMDL
MODEL 9
REMARK VINA RESULT:      -4.7      2.347      6.922
REMARK  10 active torsions:
REMARK  status: ('A' for Active; 'I' for Inactive)
REMARK    1  A    between atoms: C_1  and  O_2 
REMARK    2  A    between atoms: O_2  and  C_3 
REMARK    3  A    between atoms: C_5  and  C_22 
REMARK    4  A    between atoms: C_7  and  C_10 
REMARK    5  A    between atoms: C_8  and  O_9 
REMARK    6  A    between atoms: C_12  and  C_20 
REMARK    7  A    between atoms: C_14  and  O_18 
REMARK    8  A    between atoms: C_15  and  O_16 
REMARK    9  A    between atoms: O_16  and  C_17 
REMARK   10  A    between atoms: O_18  and  C_19 
ROOT
ATOM      1  C   LIG d   1       6.613  -3.256  -4.708  0.00  0.00     0.032 A 
ATOM      2  C   LIG d   1       5.566  -3.925  -5.329  0.00  0.00    -0.040 A 
ATOM      3  C   LIG d   1       5.723  -5.260  -5.714  0.00  0.00     0.018 A 
ATOM      4  C   LIG d   1       6.936  -5.919  -5.472  0.00  0.00    -0.006 A 
ATOM      5  C   LIG d   1       7.974  -5.250  -4.855  0.00  0.00     0.163 A 
ATOM      6  C   LIG d   1       7.822  -3.920  -4.471  0.00  0.00     0.169 A 
ATOM      7  H   LIG d   1       4.631  -3.415  -5.514  0.00  0.00     0.063 H 
ATOM      8  H   LIG d   1       7.058  -6.949  -5.769  0.00  0.00     0.066 H 
ENDROOT
BRANCH   1   9
ATOM      9  C   LIG d   1       6.450  -1.840  -4.299  0.00  0.00     0.032 A 
ATOM     10  C   LIG d   1       5.671  -1.521  -3.195  0.00  0.00    -0.040 A 
ATOM     11  C   LIG d   1       5.525  -0.185  -2.809  0.00  0.00     0.018 A 
ATOM     12  H   LIG d   1       5.183  -2.302  -2.632  0.00  0.00     0.063 H 
ATOM     13  C   LIG d   1       6.156   0.828  -3.544  0.00  0.00    -0.006 A 
ATOM     14  C   LIG d   1       6.925   0.507  -4.644  0.00  0.00     0.163 A 
ATOM     15  H   LIG d   1       6.041   1.860  -3.249  0.00  0.00     0.066 H 
ATOM     16  C   LIG d   1       7.077  -0.823  -5.029  0.00  0.00     0.167 A 
BRANCH  11  17
ATOM     17  C   LIG d   1       4.708   0.158  -1.637  0.00  0.00     0.150 C 
ATOM     18  O   LIG d   1       4.656   1.305  -1.249  0.00  0.00    -0.296 OA
ATOM     19  H   LIG d   1       4.153  -0.613  -1.123  0.00  0.00     0.108 H 
ENDBRANCH  11  17
BRANCH  14  20
ATOM     20  O   LIG d   1       7.536   1.493  -5.356  0.00  0.00    -0.491 OA
BRANCH  20  21
ATOM     21  C   LIG d   1       8.510   2.280  -4.669  0.00  0.00     0.079 C 
ATOM     22  H   LIG d   1       9.482   2.149  -5.143  0.00  0.00     0.066 H 
ATOM     23  H   LIG d   1       8.224   3.331  -4.709  0.00  0.00     0.066 H 
ATOM     24  H   LIG d   1       8.568   1.958  -3.629  0.00  0.00     0.066 H 
ENDBRANCH  20  21
ENDBRANCH  14  20
BRANCH  16  25
ATOM     25  O   LIG d   1       7.835  -1.134  -6.111  0.00  0.00    -0.503 OA
ATOM     26  H   LIG d   1       8.548  -0.506  -6.284  0.00  0.00     0.292 HD
ENDBRANCH  16  25
ENDBRANCH   1   9
BRANCH   6  27
ATOM     27  O   LIG d   1       8.842  -3.269  -3.859  0.00  0.00    -0.491 OA
BRANCH  27  28
ATOM     28  C   LIG d   1      10.025  -3.048  -4.631  0.00  0.00     0.079 C 
ATOM     29  H   LIG d   1      10.680  -3.916  -4.548  0.00  0.00     0.066 H 
ATOM     30  H   LIG d   1       9.754  -2.896  -5.675  0.00  0.00     0.066 H 
ATOM     31  H   LIG d   1      10.543  -2.165  -4.257  0.00  0.00     0.066 H 
ENDBRANCH  27  28
ENDBRANCH   6  27
BRANCH   5  32
ATOM     32  O   LIG d   1       9.150  -5.893  -4.621  0.00  0.00    -0.491 OA
BRANCH  32  33
ATOM     33  C   LIG d   1       9.167  -6.848  -3.557  0.00  0.00     0.079 C 
ATOM     34  H   LIG d   1       9.101  -7.854  -3.972  0.00  0.00     0.066 H 
ATOM     35  H   LIG d   1      10.094  -6.748  -2.993  0.00  0.00     0.066 H 
ATOM     36  H   LIG d   1       8.319  -6.672  -2.897  0.00  0.00     0.066 H 
ENDBRANCH  32  33
ENDBRANCH   5  32
BRANCH   3  37
ATOM     37  C   LIG d   1       4.617  -5.970  -6.370  0.00  0.00     0.150 C 
ATOM     38  O   LIG d   1       3.484  -5.549  -6.271  0.00  0.00    -0.296 OA
ATOM     39  H   LIG d   1       4.813  -6.867  -6.939  0.00  0.00     0.108 H 
ENDBRANCH   3  37
TORSDOF 10
ENDMDL
MODEL 10
REMARK VINA RESULT:      -4.6      3.004      5.310
REMARK  10 active torsions:
REMARK  status: ('A' for Active; 'I' for Inactive)
REMARK    1  A    between atoms: C_1  and  O_2 
REMARK    2  A    between atoms: O_2  and  C_3 
REMARK    3  A    between atoms: C_5  and  C_22 
REMARK    4  A    between atoms: C_7  and  C_10 
REMARK    5  A    between atoms: C_8  and  O_9 
REMARK    6  A    between atoms: C_12  and  C_20 
REMARK    7  A    between atoms: C_14  and  O_18 
REMARK    8  A    between atoms: C_15  and  O_16 
REMARK    9  A    between atoms: O_16  and  C_17 
REMARK   10  A    between atoms: O_18  and  C_19 
ROOT
ATOM      1  C   LIG d   1       5.327  -0.720  -5.707  0.00  0.00     0.032 A 
ATOM      2  C   LIG d   1       6.589  -0.200  -5.959  0.00  0.00    -0.040 A 
ATOM      3  C   LIG d   1       7.341   0.341  -4.911  0.00  0.00     0.018 A 
ATOM      4  C   LIG d   1       6.819   0.357  -3.612  0.00  0.00    -0.006 A 
ATOM      5  C   LIG d   1       5.563  -0.161  -3.366  0.00  0.00     0.163 A 
ATOM      6  C   LIG d   1       4.810  -0.701  -4.407  0.00  0.00     0.169 A 
ATOM      7  H   LIG d   1       6.991  -0.214  -6.962  0.00  0.00     0.063 H 
ATOM      8  H   LIG d   1       7.398   0.774  -2.803  0.00  0.00     0.066 H 
ENDROOT
BRANCH   1   9
ATOM      9  C   LIG d   1       4.526  -1.295  -6.816  0.00  0.00     0.032 A 
ATOM     10  C   LIG d   1       4.579  -2.658  -7.077  0.00  0.00    -0.040 A 
ATOM     11  C   LIG d   1       3.818  -3.196  -8.120  0.00  0.00     0.018 A 
ATOM     12  H   LIG d   1       5.203  -3.301  -6.475  0.00  0.00     0.063 H 
ATOM     13  C   LIG d   1       3.014  -2.358  -8.903  0.00  0.00    -0.006 A 
ATOM     14  C   LIG d   1       2.969  -1.003  -8.644  0.00  0.00     0.163 A 
ATOM     15  H   LIG d   1       2.429  -2.772  -9.711  0.00  0.00     0.066 H 
ATOM     16  C   LIG d   1       3.721  -0.463  -7.603  0.00  0.00     0.167 A 
BRANCH  11  17
ATOM     17  C   LIG d   1       3.866  -4.638  -8.397  0.00  0.00     0.150 C 
ATOM     18  O   LIG d   1       3.448  -5.426  -7.576  0.00  0.00    -0.296 OA
ATOM     19  H   LIG d   1       4.272  -4.994  -9.331  0.00  0.00     0.108 H 
ENDBRANCH  11  17
BRANCH  14  20
ATOM     20  O   LIG d   1       2.187  -0.191  -9.407  0.00  0.00    -0.491 OA
BRANCH  20  21
ATOM     21  C   LIG d   1       1.432  -0.812 -10.449  0.00  0.00     0.079 C 
ATOM     22  H   LIG d   1       0.523  -0.239 -10.629  0.00  0.00     0.066 H 
ATOM     23  H   LIG d   1       2.028  -0.845 -11.361  0.00  0.00     0.066 H 
ATOM     24  H   LIG d   1       1.168  -1.826 -10.151  0.00  0.00     0.066 H 
ENDBRANCH  20  21
ENDBRANCH  14  20
BRANCH  16  25
ATOM     25  O   LIG d   1       3.673   0.869  -7.350  0.00  0.00    -0.503 OA
ATOM     26  H   LIG d   1       4.052   1.122  -6.497  0.00  0.00     0.292 HD
ENDBRANCH  16  25
ENDBRANCH   1   9
BRANCH   6  27
ATOM     27  O   LIG d   1       3.580  -1.214  -4.159  0.00  0.00    -0.491 OA
BRANCH  27  28
ATOM     28  C   LIG d   1       2.489  -0.291  -4.113  0.00  0.00     0.079 C 
ATOM     29  H   LIG d   1       2.867   0.724  -4.241  0.00  0.00     0.066 H 
ATOM     30  H   LIG d   1       1.786  -0.518  -4.914  0.00  0.00     0.066 H 
ATOM     31  H   LIG d   1       1.984  -0.372  -3.151  0.00  0.00     0.066 H 
ENDBRANCH  27  28
ENDBRANCH   6  27
BRANCH   5  32
ATOM     32  O   LIG d   1       5.058  -0.145  -2.102  0.00  0.00    -0.491 OA
BRANCH  32  33
ATOM     33  C   LIG d   1       4.575   1.108  -1.613  0.00  0.00     0.079 C 
ATOM     34  H   LIG d   1       5.399   1.819  -1.560  0.00  0.00     0.066 H 
ATOM     35  H   LIG d   1       3.808   1.490  -2.288  0.00  0.00     0.066 H 
ATOM     36  H   LIG d   1       4.149   0.971  -0.620  0.00  0.00     0.066 H 
ENDBRANCH  32  33
ENDBRANCH   5  32
BRANCH   3  37
ATOM     37  C   LIG d   1       8.678   0.892  -5.174  0.00  0.00     0.150 C 
ATOM     38  O   LIG d   1       8.868   1.574  -6.159  0.00  0.00    -0.296 OA
ATOM     39  H   LIG d   1       9.489   0.688  -4.492  0.00  0.00     0.108 H 
ENDBRANCH   3  37
TORSDOF 10
ENDMDL
