MODEL 1
REMARK VINA RESULT:      -4.8      0.000      0.000
REMARK  0 active torsions:
REMARK  status: ('A' for Active; 'I' for Inactive)
ROOT
ATOM      1  C   LIG d   1       4.592  -0.768  -1.487  0.00  0.00    -0.062 A 
ATOM      2  C   LIG d   1       4.500   0.579  -1.779  0.00  0.00    -0.061 A 
ATOM      3  C   LIG d   1       3.799   0.999  -2.894  0.00  0.00    -0.048 A 
ATOM      4  C   LIG d   1       3.188   0.069  -3.717  0.00  0.00     0.018 A 
ATOM      5  C   LIG d   1       3.276  -1.279  -3.422  0.00  0.00    -0.048 A 
ATOM      6  C   LIG d   1       3.982  -1.698  -2.309  0.00  0.00    -0.061 A 
ATOM      7 BR   LIG d   1       2.229   0.642  -5.243  0.00  0.00    -0.050 Br
ATOM      8  H   LIG d   1       5.139  -1.096  -0.616  0.00  0.00     0.062 H 
ATOM      9  H   LIG d   1       4.976   1.305  -1.136  0.00  0.00     0.062 H 
ATOM     10  H   LIG d   1       3.726   2.052  -3.122  0.00  0.00     0.063 H 
ATOM     11  H   LIG d   1       2.797  -2.005  -4.062  0.00  0.00     0.063 H 
ATOM     12  H   LIG d   1       4.055  -2.751  -2.080  0.00  0.00     0.062 H 
ENDROOT
TORSDOF 0
ENDMDL
MODEL 2
REMARK VINA RESULT:      -4.5      2.573      3.238
REMARK  0 active torsions:
REMARK  status: ('A' for Active; 'I' for Inactive)
ROOT
ATOM      1  C   LIG d   1       4.232  -0.972  -1.988  0.00  0.00    -0.062 A 
ATOM      2  C   LIG d   1       5.233  -1.624  -2.682  0.00  0.00    -0.061 A 
ATOM      3  C   LIG d   1       6.250  -0.899  -3.275  0.00  0.00    -0.048 A 
ATOM      4  C   LIG d   1       6.264   0.481  -3.172  0.00  0.00     0.018 A 
ATOM      5  C   LIG d   1       5.265   1.133  -2.474  0.00  0.00    -0.048 A 
ATOM      6  C   LIG d   1       4.247   0.407  -1.885  0.00  0.00    -0.061 A 
ATOM      7 BR   LIG d   1       7.655   1.474  -3.983  0.00  0.00    -0.050 Br
ATOM      8  H   LIG d   1       3.438  -1.539  -1.524  0.00  0.00     0.062 H 
ATOM      9  H   LIG d   1       5.221  -2.702  -2.761  0.00  0.00     0.062 H 
ATOM     10  H   LIG d   1       7.032  -1.409  -3.817  0.00  0.00     0.063 H 
ATOM     11  H   LIG d   1       5.278   2.210  -2.390  0.00  0.00     0.063 H 
ATOM     12  H   LIG d   1       3.464   0.916  -1.343  0.00  0.00     0.062 H 
ENDROOT
TORSDOF 0
ENDMDL
MODEL 3
REMARK VINA RESULT:      -4.4      1.842      2.596
REMARK  0 active torsions:
REMARK  status: ('A' for Active; 'I' for Inactive)
ROOT
ATOM      1  C   LIG d   1       3.685   1.361  -2.405  0.00  0.00    -0.062 A 
ATOM      2  C   LIG d   1       3.177   0.955  -3.624  0.00  0.00    -0.061 A 
ATOM      3  C   LIG d   1       3.480  -0.301  -4.116  0.00  0.00    -0.048 A 
ATOM      4  C   LIG d   1       4.290  -1.152  -3.386  0.00  0.00     0.018 A 
ATOM      5  C   LIG d   1       4.794  -0.748  -2.163  0.00  0.00    -0.048 A 
ATOM      6  C   LIG d   1       4.494   0.510  -1.675  0.00  0.00    -0.061 A 
ATOM      7 BR   LIG d   1       4.704  -2.870  -4.058  0.00  0.00    -0.050 Br
ATOM      8  H   LIG d   1       3.448   2.342  -2.021  0.00  0.00     0.062 H 
ATOM      9  H   LIG d   1       2.544   1.620  -4.194  0.00  0.00     0.062 H 
ATOM     10  H   LIG d   1       3.083  -0.618  -5.069  0.00  0.00     0.063 H 
ATOM     11  H   LIG d   1       5.424  -1.413  -1.591  0.00  0.00     0.063 H 
ATOM     12  H   LIG d   1       4.891   0.828  -0.722  0.00  0.00     0.062 H 
ENDROOT
TORSDOF 0
ENDMDL
MODEL 4
REMARK VINA RESULT:      -4.4      2.686      2.994
REMARK  0 active torsions:
REMARK  status: ('A' for Active; 'I' for Inactive)
ROOT
ATOM      1  C   LIG d   1       4.273   0.716  -2.047  0.00  0.00    -0.062 A 
ATOM      2  C   LIG d   1       5.395   1.192  -2.696  0.00  0.00    -0.061 A 
ATOM      3  C   LIG d   1       6.303   0.308  -3.248  0.00  0.00    -0.048 A 
ATOM      4  C   LIG d   1       6.086  -1.056  -3.149  0.00  0.00     0.018 A 
ATOM      5  C   LIG d   1       4.960  -1.532  -2.503  0.00  0.00    -0.048 A 
ATOM      6  C   LIG d   1       4.056  -0.646  -1.948  0.00  0.00    -0.061 A 
ATOM      7 BR   LIG d   1       7.327  -2.267  -3.903  0.00  0.00    -0.050 Br
ATOM      8  H   LIG d   1       3.563   1.407  -1.617  0.00  0.00     0.062 H 
ATOM      9  H   LIG d   1       5.563   2.256  -2.774  0.00  0.00     0.062 H 
ATOM     10  H   LIG d   1       7.180   0.680  -3.756  0.00  0.00     0.063 H 
ATOM     11  H   LIG d   1       4.789  -2.596  -2.429  0.00  0.00     0.063 H 
ATOM     12  H   LIG d   1       3.178  -1.018  -1.440  0.00  0.00     0.062 H 
ENDROOT
TORSDOF 0
ENDMDL
MODEL 5
REMARK VINA RESULT:      -3.9      1.680      2.419
REMARK  0 active torsions:
REMARK  status: ('A' for Active; 'I' for Inactive)
ROOT
ATOM      1  C   LIG d   1       3.565  -1.692  -2.433  0.00  0.00    -0.062 A 
ATOM      2  C   LIG d   1       4.406  -2.388  -3.280  0.00  0.00    -0.061 A 
ATOM      3  C   LIG d   1       4.559  -1.981  -4.592  0.00  0.00    -0.048 A 
ATOM      4  C   LIG d   1       3.869  -0.874  -5.056  0.00  0.00     0.018 A 
ATOM      5  C   LIG d   1       3.032  -0.175  -4.206  0.00  0.00    -0.048 A 
ATOM      6  C   LIG d   1       2.877  -0.587  -2.896  0.00  0.00    -0.061 A 
ATOM      7 BR   LIG d   1       4.077  -0.315  -6.851  0.00  0.00    -0.050 Br
ATOM      8  H   LIG d   1       3.447  -2.011  -1.408  0.00  0.00     0.062 H 
ATOM      9  H   LIG d   1       4.945  -3.252  -2.917  0.00  0.00     0.062 H 
ATOM     10  H   LIG d   1       5.216  -2.524  -5.254  0.00  0.00     0.063 H 
ATOM     11  H   LIG d   1       2.496   0.691  -4.567  0.00  0.00     0.063 H 
ATOM     12  H   LIG d   1       2.220  -0.044  -2.233  0.00  0.00     0.062 H 
ENDROOT
TORSDOF 0
ENDMDL
MODEL 6
REMARK VINA RESULT:      -3.9      2.611      3.047
REMARK  0 active torsions:
REMARK  status: ('A' for Active; 'I' for Inactive)
ROOT
ATOM      1  C   LIG d   1       5.879  -2.869  -4.155  0.00  0.00    -0.062 A 
ATOM      2  C   LIG d   1       6.769  -1.840  -3.911  0.00  0.00    -0.061 A 
ATOM      3  C   LIG d   1       6.359  -0.722  -3.210  0.00  0.00    -0.048 A 
ATOM      4  C   LIG d   1       5.057  -0.634  -2.750  0.00  0.00     0.018 A 
ATOM      5  C   LIG d   1       4.168  -1.666  -2.989  0.00  0.00    -0.048 A 
ATOM      6  C   LIG d   1       4.578  -2.781  -3.695  0.00  0.00    -0.061 A 
ATOM      7 BR   LIG d   1       4.495   0.895  -1.789  0.00  0.00    -0.050 Br
ATOM      8  H   LIG d   1       6.200  -3.742  -4.703  0.00  0.00     0.062 H 
ATOM      9  H   LIG d   1       7.786  -1.910  -4.270  0.00  0.00     0.062 H 
ATOM     10  H   LIG d   1       7.055   0.081  -3.019  0.00  0.00     0.063 H 
ATOM     11  H   LIG d   1       3.152  -1.599  -2.628  0.00  0.00     0.063 H 
ATOM     12  H   LIG d   1       3.883  -3.585  -3.886  0.00  0.00     0.062 H 
ENDROOT
TORSDOF 0
ENDMDL
MODEL 7
REMARK VINA RESULT:      -3.7      2.421      3.529
REMARK  0 active torsions:
REMARK  status: ('A' for Active; 'I' for Inactive)
ROOT
ATOM      1  C   LIG d   1       3.053   0.225  -6.321  0.00  0.00    -0.062 A 
ATOM      2  C   LIG d   1       2.328   0.525  -5.183  0.00  0.00    -0.061 A 
ATOM      3  C   LIG d   1       2.635  -0.091  -3.985  0.00  0.00    -0.048 A 
ATOM      4  C   LIG d   1       3.669  -1.008  -3.924  0.00  0.00     0.018 A 
ATOM      5  C   LIG d   1       4.398  -1.306  -5.062  0.00  0.00    -0.048 A 
ATOM      6  C   LIG d   1       4.086  -0.692  -6.261  0.00  0.00    -0.061 A 
ATOM      7 BR   LIG d   1       4.090  -1.852  -2.285  0.00  0.00    -0.050 Br
ATOM      8  H   LIG d   1       2.814   0.707  -7.257  0.00  0.00     0.062 H 
ATOM      9  H   LIG d   1       1.522   1.242  -5.231  0.00  0.00     0.062 H 
ATOM     10  H   LIG d   1       2.069   0.144  -3.096  0.00  0.00     0.063 H 
ATOM     11  H   LIG d   1       5.207  -2.019  -5.015  0.00  0.00     0.063 H 
ATOM     12  H   LIG d   1       4.652  -0.926  -7.150  0.00  0.00     0.062 H 
ENDROOT
TORSDOF 0
ENDMDL
MODEL 8
REMARK VINA RESULT:      -3.7      2.645      2.987
REMARK  0 active torsions:
REMARK  status: ('A' for Active; 'I' for Inactive)
ROOT
ATOM      1  C   LIG d   1       6.694   1.214  -3.395  0.00  0.00    -0.062 A 
ATOM      2  C   LIG d   1       5.470   1.487  -2.815  0.00  0.00    -0.061 A 
ATOM      3  C   LIG d   1       4.605   0.454  -2.506  0.00  0.00    -0.048 A 
ATOM      4  C   LIG d   1       4.967  -0.854  -2.777  0.00  0.00     0.018 A 
ATOM      5  C   LIG d   1       6.194  -1.127  -3.353  0.00  0.00    -0.048 A 
ATOM      6  C   LIG d   1       7.056  -0.093  -3.666  0.00  0.00    -0.061 A 
ATOM      7 BR   LIG d   1       3.785  -2.269  -2.355  0.00  0.00    -0.050 Br
ATOM      8  H   LIG d   1       7.369   2.021  -3.635  0.00  0.00     0.062 H 
ATOM      9  H   LIG d   1       5.188   2.508  -2.603  0.00  0.00     0.062 H 
ATOM     10  H   LIG d   1       3.649   0.666  -2.053  0.00  0.00     0.063 H 
ATOM     11  H   LIG d   1       6.478  -2.148  -3.561  0.00  0.00     0.063 H 
ATOM     12  H   LIG d   1       8.013  -0.305  -4.119  0.00  0.00     0.062 H 
ENDROOT
TORSDOF 0
ENDMDL
MODEL 9
REMARK VINA RESULT:      -3.5      6.372      7.409
REMARK  0 active torsions:
REMARK  status: ('A' for Active; 'I' for Inactive)
ROOT
ATOM      1  C   LIG d   1       2.962   1.788  -8.394  0.00  0.00    -0.062 A 
ATOM      2  C   LIG d   1       2.565   0.468  -8.478  0.00  0.00    -0.061 A 
ATOM      3  C   LIG d   1       2.815  -0.259  -9.626  0.00  0.00    -0.048 A 
ATOM      4  C   LIG d   1       3.466   0.337 -10.693  0.00  0.00     0.018 A 
ATOM      5  C   LIG d   1       3.868   1.657 -10.607  0.00  0.00    -0.048 A 
ATOM      6  C   LIG d   1       3.612   2.384  -9.459  0.00  0.00    -0.061 A 
ATOM      7 BR   LIG d   1       3.810  -0.657 -12.265  0.00  0.00    -0.050 Br
ATOM      8  H   LIG d   1       2.767   2.355  -7.496  0.00  0.00     0.062 H 
ATOM      9  H   LIG d   1       2.057   0.002  -7.645  0.00  0.00     0.062 H 
ATOM     10  H   LIG d   1       2.505  -1.291  -9.692  0.00  0.00     0.063 H 
ATOM     11  H   LIG d   1       4.379   2.122 -11.437  0.00  0.00     0.063 H 
ATOM     12  H   LIG d   1       3.922   3.416  -9.393  0.00  0.00     0.062 H 
ENDROOT
TORSDOF 0
ENDMDL
MODEL 10
REMARK VINA RESULT:      -3.4      2.410      3.532
REMARK  0 active torsions:
REMARK  status: ('A' for Active; 'I' for Inactive)
ROOT
ATOM      1  C   LIG d   1       3.605  -0.429  -6.352  0.00  0.00    -0.062 A 
ATOM      2  C   LIG d   1       4.753  -0.883  -5.732  0.00  0.00    -0.061 A 
ATOM      3  C   LIG d   1       5.000  -0.561  -4.411  0.00  0.00    -0.048 A 
ATOM      4  C   LIG d   1       4.095   0.216  -3.709  0.00  0.00     0.018 A 
ATOM      5  C   LIG d   1       2.943   0.666  -4.328  0.00  0.00    -0.048 A 
ATOM      6  C   LIG d   1       2.701   0.347  -5.651  0.00  0.00    -0.061 A 
ATOM      7 BR   LIG d   1       4.432   0.657  -1.901  0.00  0.00    -0.050 Br
ATOM      8  H   LIG d   1       3.412  -0.682  -7.384  0.00  0.00     0.062 H 
ATOM      9  H   LIG d   1       5.459  -1.490  -6.280  0.00  0.00     0.062 H 
ATOM     10  H   LIG d   1       5.897  -0.915  -3.927  0.00  0.00     0.063 H 
ATOM     11  H   LIG d   1       2.235   1.269  -3.779  0.00  0.00     0.063 H 
ATOM     12  H   LIG d   1       1.803   0.701  -6.136  0.00  0.00     0.062 H 
ENDROOT
TORSDOF 0
ENDMDL
