MODEL 1
REMARK VINA RESULT:      -6.4      0.000      0.000
REMARK  13 active torsions:
REMARK  status: ('A' for Active; 'I' for Inactive)
REMARK    1  A    between atoms: C_1  and  C_2 
REMARK    2  A    between atoms: C_2  and  C_3 
REMARK    3  A    between atoms: C_4  and  C_5 
REMARK    4  A    between atoms: C_5  and  C_7 
REMARK    5  A    between atoms: C_5  and  O_34 
REMARK    6  A    between atoms: C_7  and  C_9 
REMARK    7  A    between atoms: C_7  and  O_33 
REMARK    8  A    between atoms: C_10  and  C_32 
REMARK    9  A    between atoms: C_15  and  O_31 
REMARK   10  A    between atoms: C_17  and  C_21 
REMARK   11  A    between atoms: C_17  and  O_29 
REMARK   12  A    between atoms: C_21  and  C_23 
REMARK   13  A    between atoms: O_29  and  C_30 
ROOT
ATOM      1  C   LIG d   1       3.448  -3.002  -9.582  0.00  0.00     0.138 A 
ATOM      2  C   LIG d   1       3.205  -4.244  -9.128  0.00  0.00     0.037 A 
ATOM      3  C   LIG d   1       4.008  -4.508  -7.996  0.00  0.00     0.217 A 
ATOM      4  O   LIG d   1       4.047  -5.526  -7.333  0.00  0.00    -0.287 OA
ATOM      5  C   LIG d   1       4.802  -3.244  -7.795  0.00  0.00     0.276 A 
ATOM      6  O   LIG d   1       4.372  -2.353  -8.852  0.00  0.00    -0.467 OA
ATOM      7  C   LIG d   1       4.539  -2.641  -6.405  0.00  0.00     0.164 C 
ATOM      8  H   LIG d   1       3.783  -1.858  -6.458  0.00  0.00     0.070 H 
ATOM      9  C   LIG d   1       5.926  -2.049  -6.059  0.00  0.00     0.231 C 
ATOM     10  N   LIG d   1       6.892  -2.827  -6.846  0.00  0.00    -0.275 N 
ATOM     11  C   LIG d   1       6.282  -3.502  -7.839  0.00  0.00     0.270 C 
ATOM     12  O   LIG d   1       6.842  -4.209  -8.650  0.00  0.00    -0.271 OA
ATOM     13  H   LIG d   1       7.846  -2.852  -6.673  0.00  0.00     0.152 HD
ENDROOT
BRANCH   7  14
ATOM     14  O   LIG d   1       4.164  -3.649  -5.465  0.00  0.00    -0.382 OA
ATOM     15  H   LIG d   1       4.050  -4.527  -5.854  0.00  0.00     0.210 HD
ENDBRANCH   7  14
BRANCH   2  16
ATOM     16  C   LIG d   1       2.224  -5.212  -9.736  0.00  0.00    -0.033 C 
ATOM     17  H   LIG d   1       1.759  -5.803  -8.948  0.00  0.00     0.028 H 
ATOM     18  H   LIG d   1       1.454  -4.658 -10.275  0.00  0.00     0.028 H 
ATOM     19  H   LIG d   1       2.746  -5.873 -10.427  0.00  0.00     0.028 H 
ENDBRANCH   2  16
BRANCH   1  20
ATOM     20  C   LIG d   1       2.757  -2.402 -10.779  0.00  0.00     0.142 C 
ATOM     21  H   LIG d   1       2.357  -3.200 -11.405  0.00  0.00     0.070 H 
BRANCH  20  22
ATOM     22  C   LIG d   1       1.614  -1.500 -10.310  0.00  0.00     0.106 C 
ATOM     23  H   LIG d   1       1.248  -1.850  -9.346  0.00  0.00     0.067 H 
BRANCH  22  24
ATOM     24  C   LIG d   1       2.115  -0.085 -10.174  0.00  0.00    -0.057 C 
ATOM     25  C   LIG d   1       2.285   0.438  -8.986  0.00  0.00    -0.086 C 
ATOM     26  H   LIG d   1       2.068  -0.145  -8.103  0.00  0.00     0.057 H 
ATOM     27  H   LIG d   1       2.332   0.498 -11.057  0.00  0.00     0.059 H 
BRANCH  25  28
ATOM     28  C   LIG d   1       2.786   1.854  -8.851  0.00  0.00    -0.037 C 
ATOM     29  H   LIG d   1       1.939   2.540  -8.863  0.00  0.00     0.030 H 
ATOM     30  H   LIG d   1       3.328   1.960  -7.912  0.00  0.00     0.030 H 
BRANCH  28  31
ATOM     31  C   LIG d   1       3.720   2.177 -10.018  0.00  0.00    -0.062 C 
ATOM     32  H   LIG d   1       3.932   1.265 -10.578  0.00  0.00     0.023 H 
ATOM     33  H   LIG d   1       3.243   2.904 -10.675  0.00  0.00     0.023 H 
ATOM     34  H   LIG d   1       4.653   2.592  -9.634  0.00  0.00     0.023 H 
ENDBRANCH  28  31
ENDBRANCH  25  28
ENDBRANCH  22  24
BRANCH  22  35
ATOM     35  O   LIG d   1       0.553  -1.540 -11.266  0.00  0.00    -0.385 OA
ATOM     36  H   LIG d   1       0.562  -2.325 -11.831  0.00  0.00     0.210 HD
ENDBRANCH  22  35
ENDBRANCH  20  22
BRANCH  20  37
ATOM     37  O   LIG d   1       3.695  -1.631 -11.533  0.00  0.00    -0.381 OA
ATOM     38  H   LIG d   1       3.856  -1.970 -12.425  0.00  0.00     0.210 HD
ENDBRANCH  20  37
ENDBRANCH   1  20
BRANCH   9  39
ATOM     39  C   LIG d   1       6.208  -2.205  -4.587  0.00  0.00     0.216 C 
ATOM     40  O   LIG d   1       6.898  -3.122  -4.195  0.00  0.00    -0.287 OA
BRANCH  39  41
ATOM     41  C   LIG d   1       5.645  -1.244  -3.625  0.00  0.00     0.022 A 
ATOM     42  C   LIG d   1       4.592  -1.625  -2.785  0.00  0.00    -0.051 A 
ATOM     43  C   LIG d   1       4.070  -0.718  -1.887  0.00  0.00    -0.061 A 
ATOM     44  H   LIG d   1       4.190  -2.625  -2.841  0.00  0.00     0.062 H 
ATOM     45  C   LIG d   1       4.584   0.565  -1.814  0.00  0.00    -0.062 A 
ATOM     46  H   LIG d   1       3.258  -1.011  -1.238  0.00  0.00     0.062 H 
ATOM     47  C   LIG d   1       5.625   0.949  -2.642  0.00  0.00    -0.061 A 
ATOM     48  H   LIG d   1       4.170   1.270  -1.109  0.00  0.00     0.062 H 
ATOM     49  C   LIG d   1       6.162   0.052  -3.541  0.00  0.00    -0.051 A 
ATOM     50  H   LIG d   1       6.021   1.951  -2.579  0.00  0.00     0.062 H 
ATOM     51  H   LIG d   1       6.978   0.353  -4.183  0.00  0.00     0.062 H 
ENDBRANCH  39  41
ENDBRANCH   9  39
BRANCH   9  52
ATOM     52  O   LIG d   1       5.983  -0.670  -6.430  0.00  0.00    -0.350 OA
BRANCH  52  53
ATOM     53  C   LIG d   1       7.238  -0.269  -6.984  0.00  0.00     0.040 C 
ATOM     54  H   LIG d   1       7.917   0.012  -6.180  0.00  0.00     0.052 H 
ATOM     55  H   LIG d   1       7.667  -1.096  -7.550  0.00  0.00     0.052 H 
ATOM     56  H   LIG d   1       7.086   0.584  -7.646  0.00  0.00     0.052 H 
ENDBRANCH  52  53
ENDBRANCH   9  52
TORSDOF 13
ENDMDL
MODEL 2
REMARK VINA RESULT:      -5.9      1.944      7.127
REMARK  13 active torsions:
REMARK  status: ('A' for Active; 'I' for Inactive)
REMARK    1  A    between atoms: C_1  and  C_2 
REMARK    2  A    between atoms: C_2  and  C_3 
REMARK    3  A    between atoms: C_4  and  C_5 
REMARK    4  A    between atoms: C_5  and  C_7 
REMARK    5  A    between atoms: C_5  and  O_34 
REMARK    6  A    between atoms: C_7  and  C_9 
REMARK    7  A    between atoms: C_7  and  O_33 
REMARK    8  A    between atoms: C_10  and  C_32 
REMARK    9  A    between atoms: C_15  and  O_31 
REMARK   10  A    between atoms: C_17  and  C_21 
REMARK   11  A    between atoms: C_17  and  O_29 
REMARK   12  A    between atoms: C_21  and  C_23 
REMARK   13  A    between atoms: O_29  and  C_30 
ROOT
ATOM      1  C   LIG d   1       5.540  -2.944  -5.950  0.00  0.00     0.138 A 
ATOM      2  C   LIG d   1       6.449  -3.383  -6.837  0.00  0.00     0.037 A 
ATOM      3  C   LIG d   1       5.980  -3.171  -8.152  0.00  0.00     0.217 A 
ATOM      4  O   LIG d   1       6.540  -3.445  -9.195  0.00  0.00    -0.287 OA
ATOM      5  C   LIG d   1       4.629  -2.529  -7.970  0.00  0.00     0.276 A 
ATOM      6  O   LIG d   1       4.446  -2.428  -6.538  0.00  0.00    -0.467 OA
ATOM      7  C   LIG d   1       4.580  -1.147  -8.645  0.00  0.00     0.164 C 
ATOM      8  H   LIG d   1       4.774  -0.355  -7.923  0.00  0.00     0.070 H 
ATOM      9  C   LIG d   1       3.115  -1.099  -9.140  0.00  0.00     0.231 C 
ATOM     10  N   LIG d   1       2.705  -2.502  -9.288  0.00  0.00    -0.275 N 
ATOM     11  C   LIG d   1       3.539  -3.327  -8.627  0.00  0.00     0.270 C 
ATOM     12  O   LIG d   1       3.426  -4.534  -8.567  0.00  0.00    -0.271 OA
ATOM     13  H   LIG d   1       1.932  -2.796  -9.796  0.00  0.00     0.152 HD
ENDROOT
BRANCH   7  14
ATOM     14  O   LIG d   1       5.493  -1.072  -9.742  0.00  0.00    -0.382 OA
ATOM     15  H   LIG d   1       6.112  -1.813  -9.789  0.00  0.00     0.210 HD
ENDBRANCH   7  14
BRANCH   2  16
ATOM     16  C   LIG d   1       7.772  -4.009  -6.481  0.00  0.00    -0.033 C 
ATOM     17  H   LIG d   1       8.057  -3.712  -5.472  0.00  0.00     0.028 H 
ATOM     18  H   LIG d   1       7.684  -5.095  -6.528  0.00  0.00     0.028 H 
ATOM     19  H   LIG d   1       8.534  -3.676  -7.186  0.00  0.00     0.028 H 
ENDBRANCH   2  16
BRANCH   1  20
ATOM     20  C   LIG d   1       5.727  -3.019  -4.456  0.00  0.00     0.142 C 
ATOM     21  H   LIG d   1       6.395  -3.846  -4.216  0.00  0.00     0.070 H 
BRANCH  20  22
ATOM     22  C   LIG d   1       6.335  -1.709  -3.951  0.00  0.00     0.106 C 
ATOM     23  H   LIG d   1       6.629  -1.094  -4.801  0.00  0.00     0.067 H 
BRANCH  22  24
ATOM     24  C   LIG d   1       5.316  -0.969  -3.124  0.00  0.00    -0.057 C 
ATOM     25  C   LIG d   1       5.627   0.179  -2.575  0.00  0.00    -0.086 C 
ATOM     26  H   LIG d   1       6.614   0.594  -2.714  0.00  0.00     0.057 H 
ATOM     27  H   LIG d   1       4.329  -1.385  -2.984  0.00  0.00     0.059 H 
BRANCH  25  28
ATOM     28  C   LIG d   1       4.607   0.919  -1.747  0.00  0.00    -0.037 C 
ATOM     29  H   LIG d   1       4.389   0.346  -0.845  0.00  0.00     0.030 H 
ATOM     30  H   LIG d   1       5.002   1.896  -1.472  0.00  0.00     0.030 H 
BRANCH  28  31
ATOM     31  C   LIG d   1       3.324   1.097  -2.560  0.00  0.00    -0.062 C 
ATOM     32  H   LIG d   1       2.559   0.415  -2.187  0.00  0.00     0.023 H 
ATOM     33  H   LIG d   1       2.972   2.124  -2.464  0.00  0.00     0.023 H 
ATOM     34  H   LIG d   1       3.525   0.878  -3.609  0.00  0.00     0.023 H 
ENDBRANCH  28  31
ENDBRANCH  25  28
ENDBRANCH  22  24
BRANCH  22  35
ATOM     35  O   LIG d   1       7.483  -1.995  -3.150  0.00  0.00    -0.385 OA
ATOM     36  H   LIG d   1       8.320  -1.952  -3.632  0.00  0.00     0.210 HD
ENDBRANCH  22  35
ENDBRANCH  20  22
BRANCH  20  37
ATOM     37  O   LIG d   1       4.461  -3.231  -3.828  0.00  0.00    -0.381 OA
ATOM     38  H   LIG d   1       4.007  -2.415  -3.574  0.00  0.00     0.210 HD
ENDBRANCH  20  37
ENDBRANCH   1  20
BRANCH   9  39
ATOM     39  C   LIG d   1       3.035  -0.391 -10.468  0.00  0.00     0.216 C 
ATOM     40  O   LIG d   1       3.521   0.712 -10.596  0.00  0.00    -0.287 OA
BRANCH  39  41
ATOM     41  C   LIG d   1       2.368  -1.039 -11.608  0.00  0.00     0.022 A 
ATOM     42  C   LIG d   1       3.123  -1.525 -12.681  0.00  0.00    -0.051 A 
ATOM     43  C   LIG d   1       2.491  -2.131 -13.745  0.00  0.00    -0.061 A 
ATOM     44  H   LIG d   1       4.198  -1.423 -12.675  0.00  0.00     0.062 H 
ATOM     45  C   LIG d   1       1.113  -2.261 -13.755  0.00  0.00    -0.062 A 
ATOM     46  H   LIG d   1       3.073  -2.505 -14.574  0.00  0.00     0.062 H 
ATOM     47  C   LIG d   1       0.359  -1.783 -12.696  0.00  0.00    -0.061 A 
ATOM     48  H   LIG d   1       0.624  -2.736 -14.592  0.00  0.00     0.062 H 
ATOM     49  C   LIG d   1       0.977  -1.179 -11.622  0.00  0.00    -0.051 A 
ATOM     50  H   LIG d   1      -0.716  -1.888 -12.711  0.00  0.00     0.062 H 
ATOM     51  H   LIG d   1       0.386  -0.812 -10.795  0.00  0.00     0.062 H 
ENDBRANCH  39  41
ENDBRANCH   9  39
BRANCH   9  52
ATOM     52  O   LIG d   1       2.288  -0.442  -8.178  0.00  0.00    -0.350 OA
BRANCH  52  53
ATOM     53  C   LIG d   1       2.972   0.542  -7.399  0.00  0.00     0.040 C 
ATOM     54  H   LIG d   1       3.782   0.973  -7.987  0.00  0.00     0.052 H 
ATOM     55  H   LIG d   1       2.274   1.328  -7.111  0.00  0.00     0.052 H 
ATOM     56  H   LIG d   1       3.382   0.075  -6.503  0.00  0.00     0.052 H 
ENDBRANCH  52  53
ENDBRANCH   9  52
TORSDOF 13
ENDMDL
MODEL 3
REMARK VINA RESULT:      -5.8      2.733      7.677
REMARK  13 active torsions:
REMARK  status: ('A' for Active; 'I' for Inactive)
REMARK    1  A    between atoms: C_1  and  C_2 
REMARK    2  A    between atoms: C_2  and  C_3 
REMARK    3  A    between atoms: C_4  and  C_5 
REMARK    4  A    between atoms: C_5  and  C_7 
REMARK    5  A    between atoms: C_5  and  O_34 
REMARK    6  A    between atoms: C_7  and  C_9 
REMARK    7  A    between atoms: C_7  and  O_33 
REMARK    8  A    between atoms: C_10  and  C_32 
REMARK    9  A    between atoms: C_15  and  O_31 
REMARK   10  A    between atoms: C_17  and  C_21 
REMARK   11  A    between atoms: C_17  and  O_29 
REMARK   12  A    between atoms: C_21  and  C_23 
REMARK   13  A    between atoms: O_29  and  C_30 
ROOT
ATOM      1  C   LIG d   1       7.527   0.600  -6.370  0.00  0.00     0.138 A 
ATOM      2  C   LIG d   1       8.083   1.353  -7.334  0.00  0.00     0.037 A 
ATOM      3  C   LIG d   1       7.315   1.264  -8.516  0.00  0.00     0.217 A 
ATOM      4  O   LIG d   1       7.522   1.812  -9.581  0.00  0.00    -0.287 OA
ATOM      5  C   LIG d   1       6.182   0.336  -8.160  0.00  0.00     0.276 A 
ATOM      6  O   LIG d   1       6.409  -0.026  -6.777  0.00  0.00    -0.467 OA
ATOM      7  C   LIG d   1       4.822   1.030  -8.347  0.00  0.00     0.164 C 
ATOM      8  H   LIG d   1       4.457   1.431  -7.401  0.00  0.00     0.070 H 
ATOM      9  C   LIG d   1       3.940  -0.148  -8.826  0.00  0.00     0.231 C 
ATOM     10  N   LIG d   1       4.868  -1.111  -9.432  0.00  0.00    -0.275 N 
ATOM     11  C   LIG d   1       6.139  -0.864  -9.062  0.00  0.00     0.270 C 
ATOM     12  O   LIG d   1       7.105  -1.516  -9.402  0.00  0.00    -0.271 OA
ATOM     13  H   LIG d   1       4.600  -1.833 -10.022  0.00  0.00     0.152 HD
ENDROOT
BRANCH   7  14
ATOM     14  O   LIG d   1       4.893   2.053  -9.341  0.00  0.00    -0.382 OA
ATOM     15  H   LIG d   1       4.789   1.730 -10.246  0.00  0.00     0.210 HD
ENDBRANCH   7  14
BRANCH   2  16
ATOM     16  C   LIG d   1       9.339   2.170  -7.179  0.00  0.00    -0.033 C 
ATOM     17  H   LIG d   1       9.708   2.462  -8.162  0.00  0.00     0.028 H 
ATOM     18  H   LIG d   1       9.120   3.064  -6.593  0.00  0.00     0.028 H 
ATOM     19  H   LIG d   1      10.097   1.577  -6.667  0.00  0.00     0.028 H 
ENDBRANCH   2  16
BRANCH   1  20
ATOM     20  C   LIG d   1       8.096   0.472  -4.980  0.00  0.00     0.142 C 
ATOM     21  H   LIG d   1       9.167   0.669  -5.006  0.00  0.00     0.070 H 
BRANCH  20  22
ATOM     22  C   LIG d   1       7.414   1.482  -4.055  0.00  0.00     0.106 C 
ATOM     23  H   LIG d   1       6.796   2.156  -4.647  0.00  0.00     0.067 H 
BRANCH  22  24
ATOM     24  C   LIG d   1       6.550   0.750  -3.061  0.00  0.00    -0.057 C 
ATOM     25  C   LIG d   1       5.372   1.225  -2.743  0.00  0.00    -0.086 C 
ATOM     26  H   LIG d   1       5.020   2.142  -3.192  0.00  0.00     0.057 H 
ATOM     27  H   LIG d   1       6.903  -0.166  -2.611  0.00  0.00     0.059 H 
BRANCH  25  28
ATOM     28  C   LIG d   1       4.508   0.492  -1.747  0.00  0.00    -0.037 C 
ATOM     29  H   LIG d   1       4.946   0.581  -0.753  0.00  0.00     0.030 H 
ATOM     30  H   LIG d   1       3.509   0.925  -1.746  0.00  0.00     0.030 H 
BRANCH  28  31
ATOM     31  C   LIG d   1       4.424  -0.985  -2.137  0.00  0.00    -0.062 C 
ATOM     32  H   LIG d   1       5.273  -1.243  -2.771  0.00  0.00     0.023 H 
ATOM     33  H   LIG d   1       4.443  -1.600  -1.237  0.00  0.00     0.023 H 
ATOM     34  H   LIG d   1       3.496  -1.165  -2.681  0.00  0.00     0.023 H 
ENDBRANCH  28  31
ENDBRANCH  25  28
ENDBRANCH  22  24
BRANCH  22  35
ATOM     35  O   LIG d   1       8.408   2.236  -3.358  0.00  0.00    -0.385 OA
ATOM     36  H   LIG d   1       9.028   2.700  -3.937  0.00  0.00     0.210 HD
ENDBRANCH  22  35
ENDBRANCH  20  22
BRANCH  20  37
ATOM     37  O   LIG d   1       7.867  -0.852  -4.491  0.00  0.00    -0.381 OA
ATOM     38  H   LIG d   1       8.599  -1.210  -3.969  0.00  0.00     0.210 HD
ENDBRANCH  20  37
ENDBRANCH   1  20
BRANCH   9  39
ATOM     39  C   LIG d   1       2.943   0.330  -9.850  0.00  0.00     0.216 C 
ATOM     40  O   LIG d   1       2.302   1.339  -9.647  0.00  0.00    -0.287 OA
BRANCH  39  41
ATOM     41  C   LIG d   1       2.750  -0.428 -11.097  0.00  0.00     0.022 A 
ATOM     42  C   LIG d   1       1.611  -1.224 -11.265  0.00  0.00    -0.051 A 
ATOM     43  C   LIG d   1       1.437  -1.932 -12.436  0.00  0.00    -0.061 A 
ATOM     44  H   LIG d   1       0.872  -1.284 -10.480  0.00  0.00     0.062 H 
ATOM     45  C   LIG d   1       2.384  -1.856 -13.442  0.00  0.00    -0.062 A 
ATOM     46  H   LIG d   1       0.559  -2.546 -12.567  0.00  0.00     0.062 H 
ATOM     47  C   LIG d   1       3.513  -1.070 -13.283  0.00  0.00    -0.061 A 
ATOM     48  H   LIG d   1       2.242  -2.413 -14.356  0.00  0.00     0.062 H 
ATOM     49  C   LIG d   1       3.699  -0.353 -12.120  0.00  0.00    -0.051 A 
ATOM     50  H   LIG d   1       4.247  -1.017 -14.072  0.00  0.00     0.062 H 
ATOM     51  H   LIG d   1       4.578   0.263 -12.000  0.00  0.00     0.062 H 
ENDBRANCH  39  41
ENDBRANCH   9  39
BRANCH   9  52
ATOM     52  O   LIG d   1       3.263  -0.743  -7.717  0.00  0.00    -0.350 OA
BRANCH  52  53
ATOM     53  C   LIG d   1       2.962   0.171  -6.661  0.00  0.00     0.040 C 
ATOM     54  H   LIG d   1       1.965  -0.037  -6.274  0.00  0.00     0.052 H 
ATOM     55  H   LIG d   1       3.693   0.057  -5.861  0.00  0.00     0.052 H 
ATOM     56  H   LIG d   1       2.998   1.192  -7.043  0.00  0.00     0.052 H 
ENDBRANCH  52  53
ENDBRANCH   9  52
TORSDOF 13
ENDMDL
MODEL 4
REMARK VINA RESULT:      -5.8      2.916      4.756
REMARK  13 active torsions:
REMARK  status: ('A' for Active; 'I' for Inactive)
REMARK    1  A    between atoms: C_1  and  C_2 
REMARK    2  A    between atoms: C_2  and  C_3 
REMARK    3  A    between atoms: C_4  and  C_5 
REMARK    4  A    between atoms: C_5  and  C_7 
REMARK    5  A    between atoms: C_5  and  O_34 
REMARK    6  A    between atoms: C_7  and  C_9 
REMARK    7  A    between atoms: C_7  and  O_33 
REMARK    8  A    between atoms: C_10  and  C_32 
REMARK    9  A    between atoms: C_15  and  O_31 
REMARK   10  A    between atoms: C_17  and  C_21 
REMARK   11  A    between atoms: C_17  and  O_29 
REMARK   12  A    between atoms: C_21  and  C_23 
REMARK   13  A    between atoms: O_29  and  C_30 
ROOT
ATOM      1  C   LIG d   1       3.790  -0.614  -6.262  0.00  0.00     0.138 A 
ATOM      2  C   LIG d   1       3.741  -0.181  -4.990  0.00  0.00     0.037 A 
ATOM      3  C   LIG d   1       4.743  -0.819  -4.226  0.00  0.00     0.217 A 
ATOM      4  O   LIG d   1       4.987  -0.668  -3.045  0.00  0.00    -0.287 OA
ATOM      5  C   LIG d   1       5.441  -1.727  -5.205  0.00  0.00     0.276 A 
ATOM      6  O   LIG d   1       4.761  -1.521  -6.466  0.00  0.00    -0.467 OA
ATOM      7  C   LIG d   1       6.937  -1.384  -5.306  0.00  0.00     0.164 C 
ATOM      8  H   LIG d   1       7.130  -0.734  -6.159  0.00  0.00     0.070 H 
ATOM      9  C   LIG d   1       7.559  -2.784  -5.525  0.00  0.00     0.231 C 
ATOM     10  N   LIG d   1       6.601  -3.734  -4.945  0.00  0.00    -0.275 N 
ATOM     11  C   LIG d   1       5.395  -3.163  -4.764  0.00  0.00     0.270 C 
ATOM     12  O   LIG d   1       4.416  -3.724  -4.317  0.00  0.00    -0.271 OA
ATOM     13  H   LIG d   1       6.810  -4.655  -4.720  0.00  0.00     0.152 HD
ENDROOT
BRANCH   7  14
ATOM     14  O   LIG d   1       7.417  -0.795  -4.096  0.00  0.00    -0.382 OA
ATOM     15  H   LIG d   1       8.379  -0.708  -4.056  0.00  0.00     0.210 HD
ENDBRANCH   7  14
BRANCH   2  16
ATOM     16  C   LIG d   1       2.762   0.833  -4.458  0.00  0.00    -0.033 C 
ATOM     17  H   LIG d   1       1.798   0.354  -4.287  0.00  0.00     0.028 H 
ATOM     18  H   LIG d   1       3.136   1.240  -3.518  0.00  0.00     0.028 H 
ATOM     19  H   LIG d   1       2.644   1.639  -5.182  0.00  0.00     0.028 H 
ENDBRANCH   2  16
BRANCH   1  20
ATOM     20  C   LIG d   1       2.857  -0.132  -7.343  0.00  0.00     0.142 C 
ATOM     21  H   LIG d   1       1.955   0.278  -6.888  0.00  0.00     0.070 H 
BRANCH  20  22
ATOM     22  C   LIG d   1       3.550   0.953  -8.169  0.00  0.00     0.106 C 
ATOM     23  H   LIG d   1       4.615   0.959  -7.939  0.00  0.00     0.067 H 
BRANCH  22  24
ATOM     24  C   LIG d   1       3.353   0.670  -9.636  0.00  0.00    -0.057 C 
ATOM     25  C   LIG d   1       4.392   0.531 -10.421  0.00  0.00    -0.086 C 
ATOM     26  H   LIG d   1       5.390   0.618 -10.017  0.00  0.00     0.057 H 
ATOM     27  H   LIG d   1       2.355   0.583 -10.040  0.00  0.00     0.059 H 
BRANCH  25  28
ATOM     28  C   LIG d   1       4.195   0.248 -11.889  0.00  0.00    -0.037 C 
ATOM     29  H   LIG d   1       3.893   1.165 -12.397  0.00  0.00     0.030 H 
ATOM     30  H   LIG d   1       5.127  -0.117 -12.317  0.00  0.00     0.030 H 
BRANCH  28  31
ATOM     31  C   LIG d   1       3.105  -0.811 -12.061  0.00  0.00    -0.062 C 
ATOM     32  H   LIG d   1       2.136  -0.382 -11.804  0.00  0.00     0.023 H 
ATOM     33  H   LIG d   1       3.088  -1.151 -13.097  0.00  0.00     0.023 H 
ATOM     34  H   LIG d   1       3.312  -1.657 -11.404  0.00  0.00     0.023 H 
ENDBRANCH  28  31
ENDBRANCH  25  28
ENDBRANCH  22  24
BRANCH  22  35
ATOM     35  O   LIG d   1       2.987   2.227  -7.850  0.00  0.00    -0.385 OA
ATOM     36  H   LIG d   1       2.904   2.821  -8.608  0.00  0.00     0.210 HD
ENDBRANCH  22  35
ENDBRANCH  20  22
BRANCH  20  37
ATOM     37  O   LIG d   1       2.506  -1.227  -8.192  0.00  0.00    -0.381 OA
ATOM     38  H   LIG d   1       1.708  -1.698  -7.916  0.00  0.00     0.210 HD
ENDBRANCH  20  37
ENDBRANCH   1  20
BRANCH   9  39
ATOM     39  C   LIG d   1       8.885  -2.883  -4.816  0.00  0.00     0.216 C 
ATOM     40  O   LIG d   1       9.726  -2.025  -4.981  0.00  0.00    -0.287 OA
BRANCH  39  41
ATOM     41  C   LIG d   1       9.158  -4.021  -3.924  0.00  0.00     0.022 A 
ATOM     42  C   LIG d   1       9.283  -5.312  -4.449  0.00  0.00    -0.051 A 
ATOM     43  C   LIG d   1       9.539  -6.373  -3.607  0.00  0.00    -0.061 A 
ATOM     44  H   LIG d   1       9.179  -5.476  -5.511  0.00  0.00     0.062 H 
ATOM     45  C   LIG d   1       9.672  -6.164  -2.245  0.00  0.00    -0.062 A 
ATOM     46  H   LIG d   1       9.635  -7.369  -4.011  0.00  0.00     0.062 H 
ATOM     47  C   LIG d   1       9.549  -4.890  -1.718  0.00  0.00    -0.061 A 
ATOM     48  H   LIG d   1       9.872  -6.999  -1.591  0.00  0.00     0.062 H 
ATOM     49  C   LIG d   1       9.299  -3.818  -2.548  0.00  0.00    -0.051 A 
ATOM     50  H   LIG d   1       9.654  -4.735  -0.654  0.00  0.00     0.062 H 
ATOM     51  H   LIG d   1       9.208  -2.823  -2.134  0.00  0.00     0.062 H 
ENDBRANCH  39  41
ENDBRANCH   9  39
BRANCH   9  52
ATOM     52  O   LIG d   1       7.724  -3.040  -6.921  0.00  0.00    -0.350 OA
BRANCH  52  53
ATOM     53  C   LIG d   1       7.351  -4.362  -7.318  0.00  0.00     0.040 C 
ATOM     54  H   LIG d   1       6.961  -4.903  -6.457  0.00  0.00     0.052 H 
ATOM     55  H   LIG d   1       6.584  -4.306  -8.091  0.00  0.00     0.052 H 
ATOM     56  H   LIG d   1       8.224  -4.883  -7.711  0.00  0.00     0.052 H 
ENDBRANCH  52  53
ENDBRANCH   9  52
TORSDOF 13
ENDMDL
MODEL 5
REMARK VINA RESULT:      -5.8      2.437      7.332
REMARK  13 active torsions:
REMARK  status: ('A' for Active; 'I' for Inactive)
REMARK    1  A    between atoms: C_1  and  C_2 
REMARK    2  A    between atoms: C_2  and  C_3 
REMARK    3  A    between atoms: C_4  and  C_5 
REMARK    4  A    between atoms: C_5  and  C_7 
REMARK    5  A    between atoms: C_5  and  O_34 
REMARK    6  A    between atoms: C_7  and  C_9 
REMARK    7  A    between atoms: C_7  and  O_33 
REMARK    8  A    between atoms: C_10  and  C_32 
REMARK    9  A    between atoms: C_15  and  O_31 
REMARK   10  A    between atoms: C_17  and  C_21 
REMARK   11  A    between atoms: C_17  and  O_29 
REMARK   12  A    between atoms: C_21  and  C_23 
REMARK   13  A    between atoms: O_29  and  C_30 
ROOT
ATOM      1  C   LIG d   1       3.748  -0.524  -7.972  0.00  0.00     0.138 A 
ATOM      2  C   LIG d   1       3.321   0.311  -8.936  0.00  0.00     0.037 A 
ATOM      3  C   LIG d   1       2.920  -0.430 -10.070  0.00  0.00     0.217 A 
ATOM      4  O   LIG d   1       2.482  -0.003 -11.120  0.00  0.00    -0.287 OA
ATOM      5  C   LIG d   1       3.158  -1.867  -9.684  0.00  0.00     0.276 A 
ATOM      6  O   LIG d   1       3.681  -1.816  -8.336  0.00  0.00    -0.467 OA
ATOM      7  C   LIG d   1       1.853  -2.679  -9.754  0.00  0.00     0.164 C 
ATOM      8  H   LIG d   1       1.390  -2.755  -8.771  0.00  0.00     0.070 H 
ATOM      9  C   LIG d   1       2.375  -4.057 -10.229  0.00  0.00     0.231 C 
ATOM     10  N   LIG d   1       3.633  -3.778 -10.934  0.00  0.00    -0.275 N 
ATOM     11  C   LIG d   1       4.099  -2.551 -10.635  0.00  0.00     0.270 C 
ATOM     12  O   LIG d   1       5.128  -2.071 -11.063  0.00  0.00    -0.271 OA
ATOM     13  H   LIG d   1       4.071  -4.398 -11.538  0.00  0.00     0.152 HD
ENDROOT
BRANCH   7  14
ATOM     14  O   LIG d   1       0.944  -2.121 -10.705  0.00  0.00    -0.382 OA
ATOM     15  H   LIG d   1       0.019  -2.350 -10.545  0.00  0.00     0.210 HD
ENDBRANCH   7  14
BRANCH   2  16
ATOM     16  C   LIG d   1       3.277   1.812  -8.824  0.00  0.00    -0.033 C 
ATOM     17  H   LIG d   1       3.946   2.138  -8.027  0.00  0.00     0.028 H 
ATOM     18  H   LIG d   1       3.594   2.256  -9.768  0.00  0.00     0.028 H 
ATOM     19  H   LIG d   1       2.259   2.130  -8.596  0.00  0.00     0.028 H 
ENDBRANCH   2  16
BRANCH   1  20
ATOM     20  C   LIG d   1       4.247  -0.059  -6.628  0.00  0.00     0.142 C 
ATOM     21  H   LIG d   1       4.684   0.934  -6.726  0.00  0.00     0.070 H 
BRANCH  20  22
ATOM     22  C   LIG d   1       3.080  -0.008  -5.641  0.00  0.00     0.106 C 
ATOM     23  H   LIG d   1       2.279  -0.658  -5.992  0.00  0.00     0.067 H 
BRANCH  22  24
ATOM     24  C   LIG d   1       3.547  -0.473  -4.285  0.00  0.00    -0.057 C 
ATOM     25  C   LIG d   1       3.713   0.394  -3.318  0.00  0.00    -0.086 C 
ATOM     26  H   LIG d   1       3.517   1.441  -3.491  0.00  0.00     0.057 H 
ATOM     27  H   LIG d   1       3.745  -1.520  -4.113  0.00  0.00     0.059 H 
BRANCH  25  28
ATOM     28  C   LIG d   1       4.181  -0.072  -1.962  0.00  0.00    -0.037 C 
ATOM     29  H   LIG d   1       5.139   0.395  -1.729  0.00  0.00     0.030 H 
ATOM     30  H   LIG d   1       3.447   0.209  -1.209  0.00  0.00     0.030 H 
BRANCH  28  31
ATOM     31  C   LIG d   1       4.345  -1.593  -1.975  0.00  0.00    -0.062 C 
ATOM     32  H   LIG d   1       3.384  -2.064  -1.769  0.00  0.00     0.023 H 
ATOM     33  H   LIG d   1       4.704  -1.912  -2.953  0.00  0.00     0.023 H 
ATOM     34  H   LIG d   1       5.065  -1.887  -1.210  0.00  0.00     0.023 H 
ENDBRANCH  28  31
ENDBRANCH  25  28
ENDBRANCH  22  24
BRANCH  22  35
ATOM     35  O   LIG d   1       2.597   1.333  -5.544  0.00  0.00    -0.385 OA
ATOM     36  H   LIG d   1       1.635   1.400  -5.467  0.00  0.00     0.210 HD
ENDBRANCH  22  35
ENDBRANCH  20  22
BRANCH  20  37
ATOM     37  O   LIG d   1       5.238  -0.970  -6.148  0.00  0.00    -0.381 OA
ATOM     38  H   LIG d   1       5.737  -0.642  -5.386  0.00  0.00     0.210 HD
ENDBRANCH  20  37
ENDBRANCH   1  20
BRANCH   9  39
ATOM     39  C   LIG d   1       1.383  -4.696 -11.166  0.00  0.00     0.216 C 
ATOM     40  O   LIG d   1       1.439  -4.468 -12.355  0.00  0.00    -0.287 OA
BRANCH  39  41
ATOM     41  C   LIG d   1       0.346  -5.596 -10.636  0.00  0.00     0.022 A 
ATOM     42  C   LIG d   1       0.552  -6.980 -10.634  0.00  0.00    -0.051 A 
ATOM     43  C   LIG d   1      -0.423  -7.817 -10.135  0.00  0.00    -0.061 A 
ATOM     44  H   LIG d   1       1.472  -7.391 -11.022  0.00  0.00     0.062 H 
ATOM     45  C   LIG d   1      -1.604  -7.293  -9.639  0.00  0.00    -0.062 A 
ATOM     46  H   LIG d   1      -0.265  -8.886 -10.134  0.00  0.00     0.062 H 
ATOM     47  C   LIG d   1      -1.815  -5.924  -9.638  0.00  0.00    -0.061 A 
ATOM     48  H   LIG d   1      -2.364  -7.954  -9.250  0.00  0.00     0.062 H 
ATOM     49  C   LIG d   1      -0.846  -5.074 -10.127  0.00  0.00    -0.051 A 
ATOM     50  H   LIG d   1      -2.738  -5.523  -9.248  0.00  0.00     0.062 H 
ATOM     51  H   LIG d   1      -1.012  -4.006 -10.121  0.00  0.00     0.062 H 
ENDBRANCH  39  41
ENDBRANCH   9  39
BRANCH   9  52
ATOM     52  O   LIG d   1       2.615  -4.909  -9.107  0.00  0.00    -0.350 OA
BRANCH  52  53
ATOM     53  C   LIG d   1       3.765  -5.746  -9.249  0.00  0.00     0.040 C 
ATOM     54  H   LIG d   1       4.453  -5.562  -8.425  0.00  0.00     0.052 H 
ATOM     55  H   LIG d   1       3.457  -6.792  -9.240  0.00  0.00     0.052 H 
ATOM     56  H   LIG d   1       4.262  -5.523 -10.194  0.00  0.00     0.052 H 
ENDBRANCH  52  53
ENDBRANCH   9  52
TORSDOF 13
ENDMDL
MODEL 6
REMARK VINA RESULT:      -5.7      1.419      2.376
REMARK  13 active torsions:
REMARK  status: ('A' for Active; 'I' for Inactive)
REMARK    1  A    between atoms: C_1  and  C_2 
REMARK    2  A    between atoms: C_2  and  C_3 
REMARK    3  A    between atoms: C_4  and  C_5 
REMARK    4  A    between atoms: C_5  and  C_7 
REMARK    5  A    between atoms: C_5  and  O_34 
REMARK    6  A    between atoms: C_7  and  C_9 
REMARK    7  A    between atoms: C_7  and  O_33 
REMARK    8  A    between atoms: C_10  and  C_32 
REMARK    9  A    between atoms: C_15  and  O_31 
REMARK   10  A    between atoms: C_17  and  C_21 
REMARK   11  A    between atoms: C_17  and  O_29 
REMARK   12  A    between atoms: C_21  and  C_23 
REMARK   13  A    between atoms: O_29  and  C_30 
ROOT
ATOM      1  C   LIG d   1       3.721  -2.540  -9.889  0.00  0.00     0.138 A 
ATOM      2  C   LIG d   1       3.466  -3.794  -9.478  0.00  0.00     0.037 A 
ATOM      3  C   LIG d   1       4.124  -4.041  -8.252  0.00  0.00     0.217 A 
ATOM      4  O   LIG d   1       4.113  -5.064  -7.596  0.00  0.00    -0.287 OA
ATOM      5  C   LIG d   1       4.839  -2.752  -7.943  0.00  0.00     0.276 A 
ATOM      6  O   LIG d   1       4.518  -1.866  -9.041  0.00  0.00    -0.467 OA
ATOM      7  C   LIG d   1       4.376  -2.174  -6.595  0.00  0.00     0.164 C 
ATOM      8  H   LIG d   1       3.605  -1.417  -6.741  0.00  0.00     0.070 H 
ATOM      9  C   LIG d   1       5.684  -1.537  -6.067  0.00  0.00     0.231 C 
ATOM     10  N   LIG d   1       6.771  -2.273  -6.726  0.00  0.00    -0.275 N 
ATOM     11  C   LIG d   1       6.320  -2.959  -7.794  0.00  0.00     0.270 C 
ATOM     12  O   LIG d   1       7.007  -3.636  -8.529  0.00  0.00    -0.271 OA
ATOM     13  H   LIG d   1       7.695  -2.266  -6.430  0.00  0.00     0.152 HD
ENDROOT
BRANCH   7  14
ATOM     14  O   LIG d   1       3.918  -3.204  -5.717  0.00  0.00    -0.382 OA
ATOM     15  H   LIG d   1       3.094  -2.993  -5.258  0.00  0.00     0.210 HD
ENDBRANCH   7  14
BRANCH   2  16
ATOM     16  C   LIG d   1       2.608  -4.789 -10.215  0.00  0.00    -0.033 C 
ATOM     17  H   LIG d   1       2.702  -5.768  -9.747  0.00  0.00     0.028 H 
ATOM     18  H   LIG d   1       1.567  -4.468 -10.177  0.00  0.00     0.028 H 
ATOM     19  H   LIG d   1       2.932  -4.849 -11.254  0.00  0.00     0.028 H 
ENDBRANCH   2  16
BRANCH   1  20
ATOM     20  C   LIG d   1       3.171  -1.952 -11.163  0.00  0.00     0.142 C 
ATOM     21  H   LIG d   1       2.659  -2.729 -11.730  0.00  0.00     0.070 H 
BRANCH  20  22
ATOM     22  C   LIG d   1       2.184  -0.833 -10.824  0.00  0.00     0.106 C 
ATOM     23  H   LIG d   1       2.626   0.130 -11.077  0.00  0.00     0.067 H 
BRANCH  22  24
ATOM     24  C   LIG d   1       0.915  -1.027 -11.613  0.00  0.00    -0.057 C 
ATOM     25  C   LIG d   1       0.792  -2.056 -12.413  0.00  0.00    -0.086 C 
ATOM     26  H   LIG d   1       1.600  -2.766 -12.508  0.00  0.00     0.057 H 
ATOM     27  H   LIG d   1       0.107  -0.316 -11.518  0.00  0.00     0.059 H 
BRANCH  25  28
ATOM     28  C   LIG d   1      -0.479  -2.249 -13.202  0.00  0.00    -0.037 C 
ATOM     29  H   LIG d   1      -1.294  -2.499 -12.522  0.00  0.00     0.030 H 
ATOM     30  H   LIG d   1      -0.717  -1.330 -13.736  0.00  0.00     0.030 H 
BRANCH  28  31
ATOM     31  C   LIG d   1      -0.287  -3.387 -14.206  0.00  0.00    -0.062 C 
ATOM     32  H   LIG d   1      -1.029  -4.164 -14.022  0.00  0.00     0.023 H 
ATOM     33  H   LIG d   1      -0.407  -3.003 -15.219  0.00  0.00     0.023 H 
ATOM     34  H   LIG d   1       0.713  -3.807 -14.093  0.00  0.00     0.023 H 
ENDBRANCH  28  31
ENDBRANCH  25  28
ENDBRANCH  22  24
BRANCH  22  35
ATOM     35  O   LIG d   1       1.886  -0.869  -9.427  0.00  0.00    -0.385 OA
ATOM     36  H   LIG d   1       2.150  -1.689  -8.989  0.00  0.00     0.210 HD
ENDBRANCH  22  35
ENDBRANCH  20  22
BRANCH  20  37
ATOM     37  O   LIG d   1       4.243  -1.421 -11.944  0.00  0.00    -0.381 OA
ATOM     38  H   LIG d   1       4.028  -1.305 -12.880  0.00  0.00     0.210 HD
ENDBRANCH  20  37
ENDBRANCH   1  20
BRANCH   9  39
ATOM     39  C   LIG d   1       5.777  -1.699  -4.572  0.00  0.00     0.216 C 
ATOM     40  O   LIG d   1       6.379  -2.640  -4.100  0.00  0.00    -0.287 OA
BRANCH  39  41
ATOM     41  C   LIG d   1       5.137  -0.713  -3.685  0.00  0.00     0.022 A 
ATOM     42  C   LIG d   1       5.889   0.334  -3.141  0.00  0.00    -0.051 A 
ATOM     43  C   LIG d   1       5.283   1.253  -2.312  0.00  0.00    -0.061 A 
ATOM     44  H   LIG d   1       6.940   0.421  -3.371  0.00  0.00     0.062 H 
ATOM     45  C   LIG d   1       3.935   1.142  -2.016  0.00  0.00    -0.062 A 
ATOM     46  H   LIG d   1       5.862   2.062  -1.891  0.00  0.00     0.062 H 
ATOM     47  C   LIG d   1       3.185   0.108  -2.551  0.00  0.00    -0.061 A 
ATOM     48  H   LIG d   1       3.467   1.865  -1.366  0.00  0.00     0.062 H 
ATOM     49  C   LIG d   1       3.775  -0.815  -3.387  0.00  0.00    -0.051 A 
ATOM     50  H   LIG d   1       2.134   0.029  -2.316  0.00  0.00     0.062 H 
ATOM     51  H   LIG d   1       3.187  -1.619  -3.806  0.00  0.00     0.062 H 
ENDBRANCH  39  41
ENDBRANCH   9  39
BRANCH   9  52
ATOM     52  O   LIG d   1       5.739  -0.154  -6.420  0.00  0.00    -0.350 OA
BRANCH  52  53
ATOM     53  C   LIG d   1       7.057   0.323  -6.700  0.00  0.00     0.040 C 
ATOM     54  H   LIG d   1       7.431  -0.153  -7.605  0.00  0.00     0.052 H 
ATOM     55  H   LIG d   1       7.031   1.404  -6.840  0.00  0.00     0.052 H 
ATOM     56  H   LIG d   1       7.715   0.082  -5.864  0.00  0.00     0.052 H 
ENDBRANCH  52  53
ENDBRANCH   9  52
TORSDOF 13
ENDMDL
MODEL 7
REMARK VINA RESULT:      -5.5      3.984      7.670
REMARK  13 active torsions:
REMARK  status: ('A' for Active; 'I' for Inactive)
REMARK    1  A    between atoms: C_1  and  C_2 
REMARK    2  A    between atoms: C_2  and  C_3 
REMARK    3  A    between atoms: C_4  and  C_5 
REMARK    4  A    between atoms: C_5  and  C_7 
REMARK    5  A    between atoms: C_5  and  O_34 
REMARK    6  A    between atoms: C_7  and  C_9 
REMARK    7  A    between atoms: C_7  and  O_33 
REMARK    8  A    between atoms: C_10  and  C_32 
REMARK    9  A    between atoms: C_15  and  O_31 
REMARK   10  A    between atoms: C_17  and  C_21 
REMARK   11  A    between atoms: C_17  and  O_29 
REMARK   12  A    between atoms: C_21  and  C_23 
REMARK   13  A    between atoms: O_29  and  C_30 
ROOT
ATOM      1  C   LIG d   1      10.107   2.112  -5.357  0.00  0.00     0.138 A 
ATOM      2  C   LIG d   1       9.601   2.565  -6.517  0.00  0.00     0.037 A 
ATOM      3  C   LIG d   1       8.666   1.638  -7.029  0.00  0.00     0.217 A 
ATOM      4  O   LIG d   1       8.019   1.723  -8.054  0.00  0.00    -0.287 OA
ATOM      5  C   LIG d   1       8.653   0.521  -6.018  0.00  0.00     0.276 A 
ATOM      6  O   LIG d   1       9.599   0.921  -4.999  0.00  0.00    -0.467 OA
ATOM      7  C   LIG d   1       7.243   0.322  -5.435  0.00  0.00     0.164 C 
ATOM      8  H   LIG d   1       7.139   0.845  -4.484  0.00  0.00     0.070 H 
ATOM      9  C   LIG d   1       7.209  -1.211  -5.230  0.00  0.00     0.231 C 
ATOM     10  N   LIG d   1       8.179  -1.756  -6.189  0.00  0.00    -0.275 N 
ATOM     11  C   LIG d   1       9.011  -0.798  -6.640  0.00  0.00     0.270 C 
ATOM     12  O   LIG d   1       9.918  -0.975  -7.427  0.00  0.00    -0.271 OA
ATOM     13  H   LIG d   1       8.216  -2.686  -6.463  0.00  0.00     0.152 HD
ENDROOT
BRANCH   7  14
ATOM     14  O   LIG d   1       6.236   0.737  -6.359  0.00  0.00    -0.382 OA
ATOM     15  H   LIG d   1       5.332   0.614  -6.037  0.00  0.00     0.210 HD
ENDBRANCH   7  14
BRANCH   2  16
ATOM     16  C   LIG d   1       9.975   3.868  -7.175  0.00  0.00    -0.033 C 
ATOM     17  H   LIG d   1      10.777   4.343  -6.611  0.00  0.00     0.028 H 
ATOM     18  H   LIG d   1      10.312   3.677  -8.194  0.00  0.00     0.028 H 
ATOM     19  H   LIG d   1       9.107   4.527  -7.197  0.00  0.00     0.028 H 
ENDBRANCH   2  16
BRANCH   1  20
ATOM     20  C   LIG d   1      11.133   2.861  -4.546  0.00  0.00     0.142 C 
ATOM     21  H   LIG d   1      11.303   3.841  -4.992  0.00  0.00     0.070 H 
BRANCH  20  22
ATOM     22  C   LIG d   1      10.623   3.034  -3.114  0.00  0.00     0.106 C 
ATOM     23  H   LIG d   1      11.138   2.333  -2.458  0.00  0.00     0.067 H 
BRANCH  22  24
ATOM     24  C   LIG d   1      10.890   4.444  -2.652  0.00  0.00    -0.057 C 
ATOM     25  C   LIG d   1      10.111   5.420  -3.045  0.00  0.00    -0.086 C 
ATOM     26  H   LIG d   1       9.277   5.216  -3.699  0.00  0.00     0.057 H 
ATOM     27  H   LIG d   1      11.725   4.648  -1.998  0.00  0.00     0.059 H 
BRANCH  25  28
ATOM     28  C   LIG d   1      10.379   6.830  -2.582  0.00  0.00    -0.037 C 
ATOM     29  H   LIG d   1      11.353   6.872  -2.094  0.00  0.00     0.030 H 
ATOM     30  H   LIG d   1      10.371   7.501  -3.440  0.00  0.00     0.030 H 
BRANCH  28  31
ATOM     31  C   LIG d   1       9.295   7.255  -1.590  0.00  0.00    -0.062 C 
ATOM     32  H   LIG d   1       9.756   7.526  -0.640  0.00  0.00     0.023 H 
ATOM     33  H   LIG d   1       8.754   8.114  -1.989  0.00  0.00     0.023 H 
ATOM     34  H   LIG d   1       8.600   6.429  -1.434  0.00  0.00     0.023 H 
ENDBRANCH  28  31
ENDBRANCH  25  28
ENDBRANCH  22  24
BRANCH  22  35
ATOM     35  O   LIG d   1       9.218   2.778  -3.075  0.00  0.00    -0.385 OA
ATOM     36  H   LIG d   1       8.950   1.977  -3.545  0.00  0.00     0.210 HD
ENDBRANCH  22  35
ENDBRANCH  20  22
BRANCH  20  37
ATOM     37  O   LIG d   1      12.358   2.125  -4.531  0.00  0.00    -0.381 OA
ATOM     38  H   LIG d   1      12.953   2.338  -5.264  0.00  0.00     0.210 HD
ENDBRANCH  20  37
ENDBRANCH   1  20
BRANCH   9  39
ATOM     39  C   LIG d   1       5.831  -1.746  -5.522  0.00  0.00     0.216 C 
ATOM     40  O   LIG d   1       5.629  -2.382  -6.535  0.00  0.00    -0.287 OA
BRANCH  39  41
ATOM     41  C   LIG d   1       4.731  -1.497  -4.577  0.00  0.00     0.022 A 
ATOM     42  C   LIG d   1       3.778  -0.510  -4.852  0.00  0.00    -0.051 A 
ATOM     43  C   LIG d   1       2.750  -0.282  -3.962  0.00  0.00    -0.061 A 
ATOM     44  H   LIG d   1       3.849   0.072  -5.759  0.00  0.00     0.062 H 
ATOM     45  C   LIG d   1       2.659  -1.027  -2.798  0.00  0.00    -0.062 A 
ATOM     46  H   LIG d   1       2.015   0.480  -4.173  0.00  0.00     0.062 H 
ATOM     47  C   LIG d   1       3.598  -2.006  -2.520  0.00  0.00    -0.061 A 
ATOM     48  H   LIG d   1       1.852  -0.844  -2.105  0.00  0.00     0.062 H 
ATOM     49  C   LIG d   1       4.628  -2.249  -3.403  0.00  0.00    -0.051 A 
ATOM     50  H   LIG d   1       3.520  -2.583  -1.611  0.00  0.00     0.062 H 
ATOM     51  H   LIG d   1       5.357  -3.017  -3.185  0.00  0.00     0.062 H 
ENDBRANCH  39  41
ENDBRANCH   9  39
BRANCH   9  52
ATOM     52  O   LIG d   1       7.595  -1.542  -3.895  0.00  0.00    -0.350 OA
BRANCH  52  53
ATOM     53  C   LIG d   1       8.142  -2.856  -3.756  0.00  0.00     0.040 C 
ATOM     54  H   LIG d   1       8.769  -3.081  -4.618  0.00  0.00     0.052 H 
ATOM     55  H   LIG d   1       8.741  -2.906  -2.847  0.00  0.00     0.052 H 
ATOM     56  H   LIG d   1       7.331  -3.581  -3.696  0.00  0.00     0.052 H 
ENDBRANCH  52  53
ENDBRANCH   9  52
TORSDOF 13
ENDMDL
MODEL 8
REMARK VINA RESULT:      -5.5      3.759      6.295
REMARK  13 active torsions:
REMARK  status: ('A' for Active; 'I' for Inactive)
REMARK    1  A    between atoms: C_1  and  C_2 
REMARK    2  A    between atoms: C_2  and  C_3 
REMARK    3  A    between atoms: C_4  and  C_5 
REMARK    4  A    between atoms: C_5  and  C_7 
REMARK    5  A    between atoms: C_5  and  O_34 
REMARK    6  A    between atoms: C_7  and  C_9 
REMARK    7  A    between atoms: C_7  and  O_33 
REMARK    8  A    between atoms: C_10  and  C_32 
REMARK    9  A    between atoms: C_15  and  O_31 
REMARK   10  A    between atoms: C_17  and  C_21 
REMARK   11  A    between atoms: C_17  and  O_29 
REMARK   12  A    between atoms: C_21  and  C_23 
REMARK   13  A    between atoms: O_29  and  C_30 
ROOT
ATOM      1  C   LIG d   1       6.365  -1.535  -6.048  0.00  0.00     0.138 A 
ATOM      2  C   LIG d   1       7.267  -2.178  -5.287  0.00  0.00     0.037 A 
ATOM      3  C   LIG d   1       8.524  -1.543  -5.390  0.00  0.00     0.217 A 
ATOM      4  O   LIG d   1       9.562  -1.854  -4.840  0.00  0.00    -0.287 OA
ATOM      5  C   LIG d   1       8.288  -0.393  -6.335  0.00  0.00     0.276 A 
ATOM      6  O   LIG d   1       6.888  -0.477  -6.692  0.00  0.00    -0.467 OA
ATOM      7  C   LIG d   1       8.621   0.950  -5.663  0.00  0.00     0.164 C 
ATOM      8  H   LIG d   1       7.722   1.420  -5.267  0.00  0.00     0.070 H 
ATOM      9  C   LIG d   1       9.188   1.757  -6.856  0.00  0.00     0.231 C 
ATOM     10  N   LIG d   1       9.688   0.755  -7.805  0.00  0.00    -0.275 N 
ATOM     11  C   LIG d   1       9.186  -0.466  -7.537  0.00  0.00     0.270 C 
ATOM     12  O   LIG d   1       9.418  -1.472  -8.174  0.00  0.00    -0.271 OA
ATOM     13  H   LIG d   1      10.302   0.946  -8.532  0.00  0.00     0.152 HD
ENDROOT
BRANCH   7  14
ATOM     14  O   LIG d   1       9.606   0.789  -4.641  0.00  0.00    -0.382 OA
ATOM     15  H   LIG d   1       9.241   0.751  -3.746  0.00  0.00     0.210 HD
ENDBRANCH   7  14
BRANCH   2  16
ATOM     16  C   LIG d   1       6.981  -3.397  -4.450  0.00  0.00    -0.033 C 
ATOM     17  H   LIG d   1       5.918  -3.633  -4.501  0.00  0.00     0.028 H 
ATOM     18  H   LIG d   1       7.558  -4.241  -4.828  0.00  0.00     0.028 H 
ATOM     19  H   LIG d   1       7.260  -3.201  -3.414  0.00  0.00     0.028 H 
ENDBRANCH   2  16
BRANCH   1  20
ATOM     20  C   LIG d   1       4.922  -1.953  -6.164  0.00  0.00     0.142 C 
ATOM     21  H   LIG d   1       4.755  -2.851  -5.569  0.00  0.00     0.070 H 
BRANCH  20  22
ATOM     22  C   LIG d   1       4.021  -0.828  -5.651  0.00  0.00     0.106 C 
ATOM     23  H   LIG d   1       2.985  -1.163  -5.653  0.00  0.00     0.067 H 
BRANCH  22  24
ATOM     24  C   LIG d   1       4.428  -0.458  -4.248  0.00  0.00    -0.057 C 
ATOM     25  C   LIG d   1       3.928  -1.111  -3.228  0.00  0.00    -0.086 C 
ATOM     26  H   LIG d   1       3.225  -1.913  -3.392  0.00  0.00     0.057 H 
ATOM     27  H   LIG d   1       5.132   0.344  -4.084  0.00  0.00     0.059 H 
BRANCH  25  28
ATOM     28  C   LIG d   1       4.336  -0.740  -1.825  0.00  0.00    -0.037 C 
ATOM     29  H   LIG d   1       3.563  -1.062  -1.126  0.00  0.00     0.030 H 
ATOM     30  H   LIG d   1       5.277  -1.230  -1.578  0.00  0.00     0.030 H 
BRANCH  28  31
ATOM     31  C   LIG d   1       4.509   0.776  -1.728  0.00  0.00    -0.062 C 
ATOM     32  H   LIG d   1       5.519   1.048  -2.040  0.00  0.00     0.023 H 
ATOM     33  H   LIG d   1       3.784   1.268  -2.377  0.00  0.00     0.023 H 
ATOM     34  H   LIG d   1       4.350   1.096  -0.698  0.00  0.00     0.023 H 
ENDBRANCH  28  31
ENDBRANCH  25  28
ENDBRANCH  22  24
BRANCH  22  35
ATOM     35  O   LIG d   1       4.154   0.313  -6.501  0.00  0.00    -0.385 OA
ATOM     36  H   LIG d   1       4.435   0.102  -7.402  0.00  0.00     0.210 HD
ENDBRANCH  22  35
ENDBRANCH  20  22
BRANCH  20  37
ATOM     37  O   LIG d   1       4.613  -2.224  -7.533  0.00  0.00    -0.381 OA
ATOM     38  H   LIG d   1       3.726  -1.944  -7.799  0.00  0.00     0.210 HD
ENDBRANCH  20  37
ENDBRANCH   1  20
BRANCH   9  39
ATOM     39  C   LIG d   1      10.315   2.646  -6.396  0.00  0.00     0.216 C 
ATOM     40  O   LIG d   1      11.439   2.202  -6.304  0.00  0.00    -0.287 OA
BRANCH  39  41
ATOM     41  C   LIG d   1      10.049   4.054  -6.059  0.00  0.00     0.022 A 
ATOM     42  C   LIG d   1       9.507   4.388  -4.813  0.00  0.00    -0.051 A 
ATOM     43  C   LIG d   1       9.261   5.709  -4.504  0.00  0.00    -0.061 A 
ATOM     44  H   LIG d   1       9.282   3.613  -4.095  0.00  0.00     0.062 H 
ATOM     45  C   LIG d   1       9.548   6.703  -5.423  0.00  0.00    -0.062 A 
ATOM     46  H   LIG d   1       8.842   5.968  -3.542  0.00  0.00     0.062 H 
ATOM     47  C   LIG d   1      10.084   6.381  -6.658  0.00  0.00    -0.061 A 
ATOM     48  H   LIG d   1       9.352   7.736  -5.175  0.00  0.00     0.062 H 
ATOM     49  C   LIG d   1      10.341   5.065  -6.979  0.00  0.00    -0.051 A 
ATOM     50  H   LIG d   1      10.305   7.162  -7.369  0.00  0.00     0.062 H 
ATOM     51  H   LIG d   1      10.764   4.816  -7.942  0.00  0.00     0.062 H 
ENDBRANCH  39  41
ENDBRANCH   9  39
BRANCH   9  52
ATOM     52  O   LIG d   1       8.157   2.539  -7.460  0.00  0.00    -0.350 OA
BRANCH  52  53
ATOM     53  C   LIG d   1       8.245   2.617  -8.885  0.00  0.00     0.040 C 
ATOM     54  H   LIG d   1       9.160   2.130  -9.219  0.00  0.00     0.052 H 
ATOM     55  H   LIG d   1       7.384   2.118  -9.331  0.00  0.00     0.052 H 
ATOM     56  H   LIG d   1       8.257   3.663  -9.191  0.00  0.00     0.052 H 
ENDBRANCH  52  53
ENDBRANCH   9  52
TORSDOF 13
ENDMDL
MODEL 9
REMARK VINA RESULT:      -5.4     11.887     16.664
REMARK  13 active torsions:
REMARK  status: ('A' for Active; 'I' for Inactive)
REMARK    1  A    between atoms: C_1  and  C_2 
REMARK    2  A    between atoms: C_2  and  C_3 
REMARK    3  A    between atoms: C_4  and  C_5 
REMARK    4  A    between atoms: C_5  and  C_7 
REMARK    5  A    between atoms: C_5  and  O_34 
REMARK    6  A    between atoms: C_7  and  C_9 
REMARK    7  A    between atoms: C_7  and  O_33 
REMARK    8  A    between atoms: C_10  and  C_32 
REMARK    9  A    between atoms: C_15  and  O_31 
REMARK   10  A    between atoms: C_17  and  C_21 
REMARK   11  A    between atoms: C_17  and  O_29 
REMARK   12  A    between atoms: C_21  and  C_23 
REMARK   13  A    between atoms: O_29  and  C_30 
ROOT
ATOM      1  C   LIG d   1      13.057  10.147   2.506  0.00  0.00     0.138 A 
ATOM      2  C   LIG d   1      12.955  11.211   1.690  0.00  0.00     0.037 A 
ATOM      3  C   LIG d   1      12.364  10.824   0.467  0.00  0.00     0.217 A 
ATOM      4  O   LIG d   1      12.120  11.524  -0.495  0.00  0.00    -0.287 OA
ATOM      5  C   LIG d   1      12.102   9.348   0.627  0.00  0.00     0.276 A 
ATOM      6  O   LIG d   1      12.576   9.020   1.954  0.00  0.00    -0.467 OA
ATOM      7  C   LIG d   1      10.605   9.033   0.467  0.00  0.00     0.164 C 
ATOM      8  H   LIG d   1      10.116   8.968   1.438  0.00  0.00     0.070 H 
ATOM      9  C   LIG d   1      10.655   7.648  -0.223  0.00  0.00     0.231 C 
ATOM     10  N   LIG d   1      11.953   7.598  -0.908  0.00  0.00    -0.275 N 
ATOM     11  C   LIG d   1      12.790   8.542  -0.438  0.00  0.00     0.270 C 
ATOM     12  O   LIG d   1      13.931   8.713  -0.814  0.00  0.00    -0.271 OA
ATOM     13  H   LIG d   1      12.178   6.966  -1.609  0.00  0.00     0.152 HD
ENDROOT
BRANCH   7  14
ATOM     14  O   LIG d   1       9.958   9.996  -0.367  0.00  0.00    -0.382 OA
ATOM     15  H   LIG d   1       9.151   9.672  -0.789  0.00  0.00     0.210 HD
ENDBRANCH   7  14
BRANCH   2  16
ATOM     16  C   LIG d   1      13.407  12.607   2.028  0.00  0.00    -0.033 C 
ATOM     17  H   LIG d   1      14.350  12.564   2.573  0.00  0.00     0.028 H 
ATOM     18  H   LIG d   1      13.546  13.177   1.109  0.00  0.00     0.028 H 
ATOM     19  H   LIG d   1      12.652  13.094   2.646  0.00  0.00     0.028 H 
ENDBRANCH   2  16
BRANCH   1  20
ATOM     20  C   LIG d   1      13.644  10.213   3.893  0.00  0.00     0.142 C 
ATOM     21  H   LIG d   1      14.126  11.180   4.037  0.00  0.00     0.070 H 
BRANCH  20  22
ATOM     22  C   LIG d   1      12.530  10.039   4.927  0.00  0.00     0.106 C 
ATOM     23  H   LIG d   1      11.567  10.244   4.461  0.00  0.00     0.067 H 
BRANCH  22  24
ATOM     24  C   LIG d   1      12.546   8.626   5.449  0.00  0.00    -0.057 C 
ATOM     25  C   LIG d   1      11.420   7.983   5.633  0.00  0.00    -0.086 C 
ATOM     26  H   LIG d   1      10.480   8.466   5.410  0.00  0.00     0.057 H 
ATOM     27  H   LIG d   1      13.486   8.143   5.673  0.00  0.00     0.059 H 
BRANCH  25  28
ATOM     28  C   LIG d   1      11.436   6.569   6.155  0.00  0.00    -0.037 C 
ATOM     29  H   LIG d   1      11.001   5.902   5.411  0.00  0.00     0.030 H 
ATOM     30  H   LIG d   1      12.464   6.268   6.357  0.00  0.00     0.030 H 
BRANCH  28  31
ATOM     31  C   LIG d   1      10.620   6.494   7.447  0.00  0.00    -0.062 C 
ATOM     32  H   LIG d   1       9.560   6.408   7.203  0.00  0.00     0.023 H 
ATOM     33  H   LIG d   1      10.931   5.623   8.024  0.00  0.00     0.023 H 
ATOM     34  H   LIG d   1      10.785   7.397   8.035  0.00  0.00     0.023 H 
ENDBRANCH  28  31
ENDBRANCH  25  28
ENDBRANCH  22  24
BRANCH  22  35
ATOM     35  O   LIG d   1      12.739  10.949   6.009  0.00  0.00    -0.385 OA
ATOM     36  H   LIG d   1      12.593  10.561   6.883  0.00  0.00     0.210 HD
ENDBRANCH  22  35
ENDBRANCH  20  22
BRANCH  20  37
ATOM     37  O   LIG d   1      14.609   9.171   4.051  0.00  0.00    -0.381 OA
ATOM     38  H   LIG d   1      15.472   9.479   4.362  0.00  0.00     0.210 HD
ENDBRANCH  20  37
ENDBRANCH   1  20
BRANCH   9  39
ATOM     39  C   LIG d   1       9.533   7.522  -1.221  0.00  0.00     0.216 C 
ATOM     40  O   LIG d   1       8.403   7.824  -0.904  0.00  0.00    -0.287 OA
BRANCH  39  41
ATOM     41  C   LIG d   1       9.812   7.032  -2.580  0.00  0.00     0.022 A 
ATOM     42  C   LIG d   1       9.789   5.659  -2.851  0.00  0.00    -0.051 A 
ATOM     43  C   LIG d   1      10.051   5.208  -4.127  0.00  0.00    -0.061 A 
ATOM     44  H   LIG d   1       9.567   4.956  -2.062  0.00  0.00     0.062 H 
ATOM     45  C   LIG d   1      10.336   6.108  -5.139  0.00  0.00    -0.062 A 
ATOM     46  H   LIG d   1      10.033   4.148  -4.337  0.00  0.00     0.062 H 
ATOM     47  C   LIG d   1      10.360   7.468  -4.879  0.00  0.00    -0.061 A 
ATOM     48  H   LIG d   1      10.540   5.748  -6.136  0.00  0.00     0.062 H 
ATOM     49  C   LIG d   1      10.095   7.935  -3.609  0.00  0.00    -0.051 A 
ATOM     50  H   LIG d   1      10.584   8.163  -5.674  0.00  0.00     0.062 H 
ATOM     51  H   LIG d   1      10.110   8.997  -3.410  0.00  0.00     0.062 H 
ENDBRANCH  39  41
ENDBRANCH   9  39
BRANCH   9  52
ATOM     52  O   LIG d   1      10.570   6.607   0.752  0.00  0.00    -0.350 OA
BRANCH  52  53
ATOM     53  C   LIG d   1      11.429   5.495   0.491  0.00  0.00     0.040 C 
ATOM     54  H   LIG d   1      11.576   5.393  -0.584  0.00  0.00     0.052 H 
ATOM     55  H   LIG d   1      12.392   5.658   0.976  0.00  0.00     0.052 H 
ATOM     56  H   LIG d   1      10.975   4.585   0.884  0.00  0.00     0.052 H 
ENDBRANCH  52  53
ENDBRANCH   9  52
TORSDOF 13
ENDMDL
