MODEL 1
REMARK VINA RESULT:      -7.1      0.000      0.000
REMARK  4 active torsions:
REMARK  status: ('A' for Active; 'I' for Inactive)
REMARK    1  A    between atoms: C_6  and  C_7 
REMARK    2  A    between atoms: C_7  and  O_8 
REMARK    3  A    between atoms: O_8  and  C_9 
REMARK    4  A    between atoms: C_17  and  C_18 
ROOT
ATOM      1  C   LIG d   1       3.234  -0.352  -9.359  0.00  0.00     0.124 A 
ATOM      2  C   LIG d   1       3.369   0.196 -10.633  0.00  0.00    -0.019 A 
ATOM      3  C   LIG d   1       2.734  -0.378 -11.697  0.00  0.00    -0.044 A 
ATOM      4  C   LIG d   1       1.937  -1.508 -11.505  0.00  0.00     0.068 A 
ATOM      5  C   LIG d   1       1.789  -2.066 -10.225  0.00  0.00     0.143 A 
ATOM      6  C   LIG d   1       2.446  -1.474  -9.155  0.00  0.00     0.023 A 
ATOM      7  O   LIG d   1       0.979  -3.146 -10.289  0.00  0.00    -0.451 OA
ATOM      8  C   LIG d   1       0.549  -3.379 -11.550  0.00  0.00     0.176 A 
ATOM      9  C   LIG d   1      -0.272  -4.383 -11.943  0.00  0.00    -0.008 C 
ATOM     10  C   LIG d   1       1.135  -2.342 -12.418  0.00  0.00     0.232 A 
ATOM     11  O   LIG d   1       0.990  -2.206 -13.620  0.00  0.00    -0.283 OA
ATOM     12  H   LIG d   1       3.982   1.073 -10.780  0.00  0.00     0.065 H 
ATOM     13  H   LIG d   1       2.843   0.045 -12.685  0.00  0.00     0.063 H 
ATOM     14  H   LIG d   1       2.344  -1.888  -8.163  0.00  0.00     0.069 H 
ATOM     15  H   LIG d   1      -0.621  -4.428 -12.964  0.00  0.00     0.066 H 
ENDROOT
BRANCH   1  16
ATOM     16  O   LIG d   1       3.873   0.222  -8.309  0.00  0.00    -0.487 OA
BRANCH  16  17
ATOM     17  C   LIG d   1       3.055   0.812  -7.296  0.00  0.00     0.115 C 
ATOM     18  H   LIG d   1       3.337   1.857  -7.164  0.00  0.00     0.075 H 
ATOM     19  H   LIG d   1       2.009   0.753  -7.594  0.00  0.00     0.075 H 
BRANCH  17  20
ATOM     20  C   LIG d   1       3.251   0.071  -5.998  0.00  0.00    -0.010 A 
ATOM     21  C   LIG d   1       2.435   0.344  -4.917  0.00  0.00    -0.054 A 
ATOM     22  C   LIG d   1       2.612  -0.339  -3.727  0.00  0.00    -0.043 A 
ATOM     23  H   LIG d   1       1.656   1.088  -5.002  0.00  0.00     0.062 H 
ATOM     24  C   LIG d   1       3.613  -1.287  -3.617  0.00  0.00     0.041 A 
ATOM     25  H   LIG d   1       1.971  -0.128  -2.884  0.00  0.00     0.063 H 
ATOM     26  C   LIG d   1       4.433  -1.556  -4.698  0.00  0.00    -0.043 A 
ATOM     27 CL   LIG d   1       3.841  -2.139  -2.121  0.00  0.00    -0.084 Cl
ATOM     28  C   LIG d   1       4.252  -0.877  -5.888  0.00  0.00    -0.054 A 
ATOM     29  H   LIG d   1       5.215  -2.295  -4.611  0.00  0.00     0.063 H 
ATOM     30  H   LIG d   1       4.892  -1.086  -6.732  0.00  0.00     0.062 H 
ENDBRANCH  17  20
ENDBRANCH  16  17
ENDBRANCH   1  16
BRANCH   9  31
ATOM     31  C   LIG d   1      -0.689  -5.413 -10.979  0.00  0.00    -0.019 A 
ATOM     32  C   LIG d   1      -1.797  -5.211 -10.141  0.00  0.00    -0.036 A 
ATOM     33  C   LIG d   1      -2.151  -6.205  -9.252  0.00  0.00     0.028 A 
ATOM     34  H   LIG d   1      -2.363  -4.293 -10.193  0.00  0.00     0.064 H 
ATOM     35  N   LIG d   1      -1.465  -7.330  -9.184  0.00  0.00    -0.263 NA
ATOM     36  H   LIG d   1      -3.003  -6.060  -8.604  0.00  0.00     0.083 H 
ATOM     37  C   LIG d   1      -0.417  -7.561  -9.951  0.00  0.00     0.028 A 
ATOM     38  C   LIG d   1       0.006  -6.627 -10.873  0.00  0.00    -0.036 A 
ATOM     39  H   LIG d   1       0.113  -8.497  -9.859  0.00  0.00     0.083 H 
ATOM     40  H   LIG d   1       0.861  -6.826 -11.502  0.00  0.00     0.064 H 
ENDBRANCH   9  31
TORSDOF 4
ENDMDL
MODEL 2
REMARK VINA RESULT:      -7.0      0.666      1.475
REMARK  4 active torsions:
REMARK  status: ('A' for Active; 'I' for Inactive)
REMARK    1  A    between atoms: C_6  and  C_7 
REMARK    2  A    between atoms: C_7  and  O_8 
REMARK    3  A    between atoms: O_8  and  C_9 
REMARK    4  A    between atoms: C_17  and  C_18 
ROOT
ATOM      1  C   LIG d   1       3.222  -0.478  -9.518  0.00  0.00     0.124 A 
ATOM      2  C   LIG d   1       3.656  -0.261 -10.824  0.00  0.00    -0.019 A 
ATOM      3  C   LIG d   1       3.078  -0.938 -11.860  0.00  0.00    -0.044 A 
ATOM      4  C   LIG d   1       2.042  -1.841 -11.610  0.00  0.00     0.068 A 
ATOM      5  C   LIG d   1       1.594  -2.063 -10.298  0.00  0.00     0.143 A 
ATOM      6  C   LIG d   1       2.196  -1.371  -9.256  0.00  0.00     0.023 A 
ATOM      7  O   LIG d   1       0.593  -2.972 -10.306  0.00  0.00    -0.451 OA
ATOM      8  C   LIG d   1       0.314  -3.403 -11.557  0.00  0.00     0.176 A 
ATOM      9  C   LIG d   1      -0.632  -4.310 -11.900  0.00  0.00    -0.008 C 
ATOM     10  C   LIG d   1       1.226  -2.704 -12.481  0.00  0.00     0.232 A 
ATOM     11  O   LIG d   1       1.291  -2.817 -13.692  0.00  0.00    -0.283 OA
ATOM     12  H   LIG d   1       4.454   0.441 -11.017  0.00  0.00     0.065 H 
ATOM     13  H   LIG d   1       3.417  -0.772 -12.872  0.00  0.00     0.063 H 
ATOM     14  H   LIG d   1       1.864  -1.529  -8.240  0.00  0.00     0.069 H 
ATOM     15  H   LIG d   1      -0.828  -4.520 -12.941  0.00  0.00     0.066 H 
ENDROOT
BRANCH   1  16
ATOM     16  O   LIG d   1       3.806   0.196  -8.495  0.00  0.00    -0.487 OA
BRANCH  16  17
ATOM     17  C   LIG d   1       2.938   0.749  -7.504  0.00  0.00     0.115 C 
ATOM     18  H   LIG d   1       3.130   1.818  -7.409  0.00  0.00     0.075 H 
ATOM     19  H   LIG d   1       1.901   0.591  -7.801  0.00  0.00     0.075 H 
BRANCH  17  20
ATOM     20  C   LIG d   1       3.191   0.073  -6.181  0.00  0.00    -0.010 A 
ATOM     21  C   LIG d   1       4.172  -0.894  -6.076  0.00  0.00    -0.054 A 
ATOM     22  C   LIG d   1       4.407  -1.512  -4.861  0.00  0.00    -0.043 A 
ATOM     23  H   LIG d   1       4.758  -1.165  -6.942  0.00  0.00     0.062 H 
ATOM     24  C   LIG d   1       3.652  -1.169  -3.754  0.00  0.00     0.041 A 
ATOM     25  H   LIG d   1       5.177  -2.265  -4.780  0.00  0.00     0.063 H 
ATOM     26  C   LIG d   1       2.667  -0.204  -3.861  0.00  0.00    -0.043 A 
ATOM     27 CL   LIG d   1       3.942  -1.949  -2.230  0.00  0.00    -0.084 Cl
ATOM     28  C   LIG d   1       2.437   0.417  -5.074  0.00  0.00    -0.054 A 
ATOM     29  H   LIG d   1       2.078   0.064  -2.997  0.00  0.00     0.063 H 
ATOM     30  H   LIG d   1       1.667   1.170  -5.158  0.00  0.00     0.062 H 
ENDBRANCH  17  20
ENDBRANCH  16  17
ENDBRANCH   1  16
BRANCH   9  31
ATOM     31  C   LIG d   1      -1.393  -5.010 -10.853  0.00  0.00    -0.019 A 
ATOM     32  C   LIG d   1      -0.814  -6.053 -10.115  0.00  0.00    -0.036 A 
ATOM     33  C   LIG d   1      -1.565  -6.681  -9.143  0.00  0.00     0.028 A 
ATOM     34  H   LIG d   1       0.205  -6.358 -10.304  0.00  0.00     0.064 H 
ATOM     35  N   LIG d   1      -2.809  -6.313  -8.905  0.00  0.00    -0.263 NA
ATOM     36  H   LIG d   1      -1.127  -7.484  -8.568  0.00  0.00     0.083 H 
ATOM     37  C   LIG d   1      -3.394  -5.339  -9.575  0.00  0.00     0.028 A 
ATOM     38  C   LIG d   1      -2.717  -4.651 -10.560  0.00  0.00    -0.036 A 
ATOM     39  H   LIG d   1      -4.415  -5.073  -9.345  0.00  0.00     0.083 H 
ATOM     40  H   LIG d   1      -3.201  -3.851 -11.101  0.00  0.00     0.064 H 
ENDBRANCH   9  31
TORSDOF 4
ENDMDL
MODEL 3
REMARK VINA RESULT:      -6.9      4.969      8.098
REMARK  4 active torsions:
REMARK  status: ('A' for Active; 'I' for Inactive)
REMARK    1  A    between atoms: C_6  and  C_7 
REMARK    2  A    between atoms: C_7  and  O_8 
REMARK    3  A    between atoms: O_8  and  C_9 
REMARK    4  A    between atoms: C_17  and  C_18 
ROOT
ATOM      1  C   LIG d   1       7.326  -2.030  -4.187  0.00  0.00     0.124 A 
ATOM      2  C   LIG d   1       6.537  -1.969  -3.041  0.00  0.00    -0.019 A 
ATOM      3  C   LIG d   1       5.277  -1.446  -3.104  0.00  0.00    -0.044 A 
ATOM      4  C   LIG d   1       4.776  -0.982  -4.322  0.00  0.00     0.068 A 
ATOM      5  C   LIG d   1       5.561  -1.042  -5.484  0.00  0.00     0.143 A 
ATOM      6  C   LIG d   1       6.842  -1.573  -5.402  0.00  0.00     0.023 A 
ATOM      7  O   LIG d   1       4.869  -0.538  -6.530  0.00  0.00    -0.451 OA
ATOM      8  C   LIG d   1       3.635  -0.124  -6.164  0.00  0.00     0.176 A 
ATOM      9  C   LIG d   1       2.701   0.427  -6.977  0.00  0.00    -0.008 C 
ATOM     10  C   LIG d   1       3.490  -0.380  -4.719  0.00  0.00     0.232 A 
ATOM     11  O   LIG d   1       2.526  -0.147  -4.013  0.00  0.00    -0.283 OA
ATOM     12  H   LIG d   1       6.923  -2.332  -2.100  0.00  0.00     0.065 H 
ATOM     13  H   LIG d   1       4.666  -1.395  -2.215  0.00  0.00     0.063 H 
ATOM     14  H   LIG d   1       7.461  -1.628  -6.285  0.00  0.00     0.069 H 
ATOM     15  H   LIG d   1       1.714   0.647  -6.596  0.00  0.00     0.066 H 
ENDROOT
BRANCH   1  16
ATOM     16  O   LIG d   1       8.579  -2.546  -4.113  0.00  0.00    -0.487 OA
BRANCH  16  17
ATOM     17  C   LIG d   1       8.845  -3.716  -4.891  0.00  0.00     0.115 C 
ATOM     18  H   LIG d   1       7.982  -3.938  -5.519  0.00  0.00     0.075 H 
ATOM     19  H   LIG d   1       9.717  -3.543  -5.521  0.00  0.00     0.075 H 
BRANCH  17  20
ATOM     20  C   LIG d   1       9.110  -4.880  -3.972  0.00  0.00    -0.010 A 
ATOM     21  C   LIG d   1       9.609  -4.658  -2.703  0.00  0.00    -0.054 A 
ATOM     22  C   LIG d   1       9.849  -5.726  -1.857  0.00  0.00    -0.043 A 
ATOM     23  H   LIG d   1       9.808  -3.650  -2.369  0.00  0.00     0.062 H 
ATOM     24  C   LIG d   1       9.600  -7.017  -2.287  0.00  0.00     0.041 A 
ATOM     25  H   LIG d   1      10.235  -5.551  -0.864  0.00  0.00     0.063 H 
ATOM     26  C   LIG d   1       9.105  -7.239  -3.560  0.00  0.00    -0.043 A 
ATOM     27 CL   LIG d   1       9.908  -8.359  -1.229  0.00  0.00    -0.084 Cl
ATOM     28  C   LIG d   1       8.860  -6.171  -4.401  0.00  0.00    -0.054 A 
ATOM     29  H   LIG d   1       8.911  -8.247  -3.895  0.00  0.00     0.063 H 
ATOM     30  H   LIG d   1       8.475  -6.343  -5.395  0.00  0.00     0.062 H 
ENDBRANCH  17  20
ENDBRANCH  16  17
ENDBRANCH   1  16
BRANCH   9  31
ATOM     31  C   LIG d   1       3.031   0.727  -8.379  0.00  0.00    -0.019 A 
ATOM     32  C   LIG d   1       3.519   1.989  -8.751  0.00  0.00    -0.036 A 
ATOM     33  C   LIG d   1       3.815   2.226 -10.078  0.00  0.00     0.028 A 
ATOM     34  H   LIG d   1       3.662   2.762  -8.011  0.00  0.00     0.064 H 
ATOM     35  N   LIG d   1       3.645   1.286 -10.988  0.00  0.00    -0.263 NA
ATOM     36  H   LIG d   1       4.192   3.193 -10.374  0.00  0.00     0.083 H 
ATOM     37  C   LIG d   1       3.188   0.087 -10.683  0.00  0.00     0.028 A 
ATOM     38  C   LIG d   1       2.872  -0.240  -9.382  0.00  0.00    -0.036 A 
ATOM     39  H   LIG d   1       3.065  -0.650 -11.463  0.00  0.00     0.083 H 
ATOM     40  H   LIG d   1       2.503  -1.226  -9.138  0.00  0.00     0.064 H 
ENDBRANCH   9  31
TORSDOF 4
ENDMDL
MODEL 4
REMARK VINA RESULT:      -6.8      9.637     14.223
REMARK  4 active torsions:
REMARK  status: ('A' for Active; 'I' for Inactive)
REMARK    1  A    between atoms: C_6  and  C_7 
REMARK    2  A    between atoms: C_7  and  O_8 
REMARK    3  A    between atoms: O_8  and  C_9 
REMARK    4  A    between atoms: C_17  and  C_18 
ROOT
ATOM      1  C   LIG d   1       9.881   2.303  -3.595  0.00  0.00     0.124 A 
ATOM      2  C   LIG d   1      11.208   1.904  -3.738  0.00  0.00    -0.019 A 
ATOM      3  C   LIG d   1      12.219   2.795  -3.518  0.00  0.00    -0.044 A 
ATOM      4  C   LIG d   1      11.922   4.105  -3.137  0.00  0.00     0.068 A 
ATOM      5  C   LIG d   1      10.589   4.517  -2.985  0.00  0.00     0.143 A 
ATOM      6  C   LIG d   1       9.572   3.600  -3.217  0.00  0.00     0.023 A 
ATOM      7  O   LIG d   1      10.552   5.817  -2.616  0.00  0.00    -0.451 OA
ATOM      8  C   LIG d   1      11.792   6.343  -2.501  0.00  0.00     0.176 A 
ATOM      9  C   LIG d   1      12.093   7.617  -2.148  0.00  0.00    -0.008 C 
ATOM     10  C   LIG d   1      12.759   5.279  -2.828  0.00  0.00     0.232 A 
ATOM     11  O   LIG d   1      13.974   5.353  -2.841  0.00  0.00    -0.283 OA
ATOM     12  H   LIG d   1      11.437   0.890  -4.028  0.00  0.00     0.065 H 
ATOM     13  H   LIG d   1      13.248   2.486  -3.633  0.00  0.00     0.063 H 
ATOM     14  H   LIG d   1       8.541   3.898  -3.105  0.00  0.00     0.069 H 
ATOM     15  H   LIG d   1      13.123   7.910  -2.006  0.00  0.00     0.066 H 
ENDROOT
BRANCH   1  16
ATOM     16  O   LIG d   1       8.883   1.412  -3.821  0.00  0.00    -0.487 OA
BRANCH  16  17
ATOM     17  C   LIG d   1       7.550   1.927  -3.855  0.00  0.00     0.115 C 
ATOM     18  H   LIG d   1       7.473   2.783  -3.185  0.00  0.00     0.075 H 
ATOM     19  H   LIG d   1       7.307   2.239  -4.871  0.00  0.00     0.075 H 
BRANCH  17  20
ATOM     20  C   LIG d   1       6.586   0.856  -3.415  0.00  0.00    -0.010 A 
ATOM     21  C   LIG d   1       6.874  -0.474  -3.656  0.00  0.00    -0.054 A 
ATOM     22  C   LIG d   1       5.992  -1.458  -3.249  0.00  0.00    -0.043 A 
ATOM     23  H   LIG d   1       7.791  -0.746  -4.161  0.00  0.00     0.062 H 
ATOM     24  C   LIG d   1       4.816  -1.110  -2.609  0.00  0.00     0.041 A 
ATOM     25  H   LIG d   1       6.221  -2.497  -3.435  0.00  0.00     0.063 H 
ATOM     26  C   LIG d   1       4.527   0.221  -2.372  0.00  0.00    -0.043 A 
ATOM     27 CL   LIG d   1       3.705  -2.345  -2.104  0.00  0.00    -0.084 Cl
ATOM     28  C   LIG d   1       5.411   1.204  -2.774  0.00  0.00    -0.054 A 
ATOM     29  H   LIG d   1       3.608   0.493  -1.873  0.00  0.00     0.063 H 
ATOM     30  H   LIG d   1       5.185   2.243  -2.590  0.00  0.00     0.062 H 
ENDBRANCH  17  20
ENDBRANCH  16  17
ENDBRANCH   1  16
BRANCH   9  31
ATOM     31  C   LIG d   1      11.016   8.601  -1.960  0.00  0.00    -0.019 A 
ATOM     32  C   LIG d   1      10.716   9.542  -2.957  0.00  0.00    -0.036 A 
ATOM     33  C   LIG d   1       9.698  10.447  -2.738  0.00  0.00     0.028 A 
ATOM     34  H   LIG d   1      11.273   9.557  -3.883  0.00  0.00     0.064 H 
ATOM     35  N   LIG d   1       9.012  10.435  -1.611  0.00  0.00    -0.263 NA
ATOM     36  H   LIG d   1       9.459  11.174  -3.500  0.00  0.00     0.083 H 
ATOM     37  C   LIG d   1       9.260   9.569  -0.647  0.00  0.00     0.028 A 
ATOM     38  C   LIG d   1      10.255   8.625  -0.782  0.00  0.00    -0.036 A 
ATOM     39  H   LIG d   1       8.672   9.598   0.258  0.00  0.00     0.083 H 
ATOM     40  H   LIG d   1      10.450   7.915   0.009  0.00  0.00     0.064 H 
ENDBRANCH   9  31
TORSDOF 4
ENDMDL
MODEL 5
REMARK VINA RESULT:      -6.6      9.722     14.091
REMARK  4 active torsions:
REMARK  status: ('A' for Active; 'I' for Inactive)
REMARK    1  A    between atoms: C_6  and  C_7 
REMARK    2  A    between atoms: C_7  and  O_8 
REMARK    3  A    between atoms: O_8  and  C_9 
REMARK    4  A    between atoms: C_17  and  C_18 
ROOT
ATOM      1  C   LIG d   1       9.316   3.175  -4.000  0.00  0.00     0.124 A 
ATOM      2  C   LIG d   1       9.350   3.416  -5.371  0.00  0.00    -0.019 A 
ATOM      3  C   LIG d   1       9.635   4.667  -5.840  0.00  0.00    -0.044 A 
ATOM      4  C   LIG d   1       9.904   5.702  -4.943  0.00  0.00     0.068 A 
ATOM      5  C   LIG d   1       9.878   5.469  -3.559  0.00  0.00     0.143 A 
ATOM      6  C   LIG d   1       9.582   4.192  -3.098  0.00  0.00     0.023 A 
ATOM      7  O   LIG d   1      10.168   6.611  -2.897  0.00  0.00    -0.451 OA
ATOM      8  C   LIG d   1      10.396   7.640  -3.745  0.00  0.00     0.176 A 
ATOM      9  C   LIG d   1      10.708   8.911  -3.397  0.00  0.00    -0.008 C 
ATOM     10  C   LIG d   1      10.242   7.126  -5.119  0.00  0.00     0.232 A 
ATOM     11  O   LIG d   1      10.366   7.740  -6.163  0.00  0.00    -0.283 OA
ATOM     12  H   LIG d   1       9.145   2.614  -6.065  0.00  0.00     0.065 H 
ATOM     13  H   LIG d   1       9.656   4.855  -6.904  0.00  0.00     0.063 H 
ATOM     14  H   LIG d   1       9.558   3.994  -2.037  0.00  0.00     0.069 H 
ATOM     15  H   LIG d   1      10.952   9.637  -4.159  0.00  0.00     0.066 H 
ENDROOT
BRANCH   1  16
ATOM     16  O   LIG d   1       9.027   1.929  -3.543  0.00  0.00    -0.487 OA
BRANCH  16  17
ATOM     17  C   LIG d   1       8.531   0.988  -4.498  0.00  0.00     0.115 C 
ATOM     18  H   LIG d   1       8.207   1.516  -5.395  0.00  0.00     0.075 H 
ATOM     19  H   LIG d   1       9.320   0.282  -4.756  0.00  0.00     0.075 H 
BRANCH  17  20
ATOM     20  C   LIG d   1       7.363   0.242  -3.905  0.00  0.00    -0.010 A 
ATOM     21  C   LIG d   1       7.294  -1.134  -4.016  0.00  0.00    -0.054 A 
ATOM     22  C   LIG d   1       6.225  -1.819  -3.469  0.00  0.00    -0.043 A 
ATOM     23  H   LIG d   1       8.078  -1.675  -4.527  0.00  0.00     0.062 H 
ATOM     24  C   LIG d   1       5.219  -1.126  -2.820  0.00  0.00     0.041 A 
ATOM     25  H   LIG d   1       6.175  -2.895  -3.553  0.00  0.00     0.063 H 
ATOM     26  C   LIG d   1       5.286   0.251  -2.713  0.00  0.00    -0.043 A 
ATOM     27 CL   LIG d   1       3.873  -1.986  -2.139  0.00  0.00    -0.084 Cl
ATOM     28  C   LIG d   1       6.358   0.935  -3.255  0.00  0.00    -0.054 A 
ATOM     29  H   LIG d   1       4.501   0.792  -2.207  0.00  0.00     0.063 H 
ATOM     30  H   LIG d   1       6.410   2.010  -3.173  0.00  0.00     0.062 H 
ENDBRANCH  17  20
ENDBRANCH  16  17
ENDBRANCH   1  16
BRANCH   9  31
ATOM     31  C   LIG d   1      10.715   9.305  -1.979  0.00  0.00    -0.019 A 
ATOM     32  C   LIG d   1       9.580   9.874  -1.382  0.00  0.00    -0.036 A 
ATOM     33  C   LIG d   1       9.632  10.228  -0.050  0.00  0.00     0.028 A 
ATOM     34  H   LIG d   1       8.679  10.030  -1.957  0.00  0.00     0.064 H 
ATOM     35  N   LIG d   1      10.728  10.038   0.659  0.00  0.00    -0.263 NA
ATOM     36  H   LIG d   1       8.763  10.665   0.419  0.00  0.00     0.083 H 
ATOM     37  C   LIG d   1      11.818   9.508   0.139  0.00  0.00     0.028 A 
ATOM     38  C   LIG d   1      11.855   9.119  -1.183  0.00  0.00    -0.036 A 
ATOM     39  H   LIG d   1      12.692   9.372   0.759  0.00  0.00     0.083 H 
ATOM     40  H   LIG d   1      12.749   8.680  -1.601  0.00  0.00     0.064 H 
ENDBRANCH   9  31
TORSDOF 4
ENDMDL
MODEL 6
REMARK VINA RESULT:      -6.5      1.834      2.628
REMARK  4 active torsions:
REMARK  status: ('A' for Active; 'I' for Inactive)
REMARK    1  A    between atoms: C_6  and  C_7 
REMARK    2  A    between atoms: C_7  and  O_8 
REMARK    3  A    between atoms: O_8  and  C_9 
REMARK    4  A    between atoms: C_17  and  C_18 
ROOT
ATOM      1  C   LIG d   1       3.783   0.492  -9.267  0.00  0.00     0.124 A 
ATOM      2  C   LIG d   1       4.839   0.631 -10.164  0.00  0.00    -0.019 A 
ATOM      3  C   LIG d   1       4.742   0.111 -11.423  0.00  0.00    -0.044 A 
ATOM      4  C   LIG d   1       3.577  -0.551 -11.815  0.00  0.00     0.068 A 
ATOM      5  C   LIG d   1       2.504  -0.692 -10.921  0.00  0.00     0.143 A 
ATOM      6  C   LIG d   1       2.620  -0.162  -9.643  0.00  0.00     0.023 A 
ATOM      7  O   LIG d   1       1.495  -1.363 -11.520  0.00  0.00    -0.451 OA
ATOM      8  C   LIG d   1       1.803  -1.704 -12.793  0.00  0.00     0.176 A 
ATOM      9  C   LIG d   1       1.008  -2.380 -13.656  0.00  0.00    -0.008 C 
ATOM     10  C   LIG d   1       3.163  -1.205 -13.069  0.00  0.00     0.232 A 
ATOM     11  O   LIG d   1       3.800  -1.310 -14.102  0.00  0.00    -0.283 OA
ATOM     12  H   LIG d   1       5.739   1.146  -9.862  0.00  0.00     0.065 H 
ATOM     13  H   LIG d   1       5.563   0.215 -12.117  0.00  0.00     0.063 H 
ATOM     14  H   LIG d   1       1.805  -0.260  -8.941  0.00  0.00     0.069 H 
ATOM     15  H   LIG d   1       1.321  -2.527 -14.679  0.00  0.00     0.066 H 
ENDROOT
BRANCH   1  16
ATOM     16  O   LIG d   1       3.890   1.008  -8.016  0.00  0.00    -0.487 OA
BRANCH  16  17
ATOM     17  C   LIG d   1       2.727   0.947  -7.188  0.00  0.00     0.115 C 
ATOM     18  H   LIG d   1       2.420   1.957  -6.917  0.00  0.00     0.075 H 
ATOM     19  H   LIG d   1       1.920   0.456  -7.731  0.00  0.00     0.075 H 
BRANCH  17  20
ATOM     20  C   LIG d   1       3.041   0.165  -5.938  0.00  0.00    -0.010 A 
ATOM     21  C   LIG d   1       4.086  -0.739  -5.933  0.00  0.00    -0.054 A 
ATOM     22  C   LIG d   1       4.377  -1.453  -4.786  0.00  0.00    -0.043 A 
ATOM     23  H   LIG d   1       4.679  -0.885  -6.825  0.00  0.00     0.062 H 
ATOM     24  C   LIG d   1       3.616  -1.271  -3.646  0.00  0.00     0.041 A 
ATOM     25  H   LIG d   1       5.197  -2.157  -4.782  0.00  0.00     0.063 H 
ATOM     26  C   LIG d   1       2.567  -0.369  -3.653  0.00  0.00    -0.043 A 
ATOM     27 CL   LIG d   1       3.976  -2.173  -2.207  0.00  0.00    -0.084 Cl
ATOM     28  C   LIG d   1       2.280   0.349  -4.798  0.00  0.00    -0.054 A 
ATOM     29  H   LIG d   1       1.972  -0.227  -2.763  0.00  0.00     0.063 H 
ATOM     30  H   LIG d   1       1.461   1.052  -4.805  0.00  0.00     0.062 H 
ENDBRANCH  17  20
ENDBRANCH  16  17
ENDBRANCH   1  16
BRANCH   9  31
ATOM     31  C   LIG d   1      -0.285  -2.916 -13.200  0.00  0.00    -0.019 A 
ATOM     32  C   LIG d   1      -1.487  -2.265 -13.516  0.00  0.00    -0.036 A 
ATOM     33  C   LIG d   1      -2.676  -2.803 -13.068  0.00  0.00     0.028 A 
ATOM     34  H   LIG d   1      -1.482  -1.359 -14.104  0.00  0.00     0.064 H 
ATOM     35  N   LIG d   1      -2.690  -3.911 -12.351  0.00  0.00    -0.263 NA
ATOM     36  H   LIG d   1      -3.607  -2.311 -13.307  0.00  0.00     0.083 H 
ATOM     37  C   LIG d   1      -1.585  -4.555 -12.030  0.00  0.00     0.028 A 
ATOM     38  C   LIG d   1      -0.352  -4.093 -12.440  0.00  0.00    -0.036 A 
ATOM     39  H   LIG d   1      -1.646  -5.458 -11.441  0.00  0.00     0.083 H 
ATOM     40  H   LIG d   1       0.549  -4.628 -12.178  0.00  0.00     0.064 H 
ENDBRANCH   9  31
TORSDOF 4
ENDMDL
MODEL 7
REMARK VINA RESULT:      -6.4      6.597      8.230
REMARK  4 active torsions:
REMARK  status: ('A' for Active; 'I' for Inactive)
REMARK    1  A    between atoms: C_6  and  C_7 
REMARK    2  A    between atoms: C_7  and  O_8 
REMARK    3  A    between atoms: O_8  and  C_9 
REMARK    4  A    between atoms: C_17  and  C_18 
ROOT
ATOM      1  C   LIG d   1       4.323  -5.096  -6.583  0.00  0.00     0.124 A 
ATOM      2  C   LIG d   1       4.013  -5.701  -7.798  0.00  0.00    -0.019 A 
ATOM      3  C   LIG d   1       4.147  -7.052  -7.946  0.00  0.00    -0.044 A 
ATOM      4  C   LIG d   1       4.587  -7.829  -6.871  0.00  0.00     0.068 A 
ATOM      5  C   LIG d   1       4.898  -7.230  -5.641  0.00  0.00     0.143 A 
ATOM      6  C   LIG d   1       4.760  -5.855  -5.509  0.00  0.00     0.023 A 
ATOM      7  O   LIG d   1       5.298  -8.175  -4.761  0.00  0.00    -0.451 OA
ATOM      8  C   LIG d   1       5.286  -9.411  -5.311  0.00  0.00     0.176 A 
ATOM      9  C   LIG d   1       5.633 -10.566  -4.692  0.00  0.00    -0.008 C 
ATOM     10  C   LIG d   1       4.828  -9.273  -6.705  0.00  0.00     0.232 A 
ATOM     11  O   LIG d   1       4.682 -10.155  -7.533  0.00  0.00    -0.283 OA
ATOM     12  H   LIG d   1       3.669  -5.101  -8.627  0.00  0.00     0.065 H 
ATOM     13  H   LIG d   1       3.910  -7.520  -8.889  0.00  0.00     0.063 H 
ATOM     14  H   LIG d   1       4.994  -5.376  -4.570  0.00  0.00     0.069 H 
ATOM     15  H   LIG d   1       5.506 -11.511  -5.201  0.00  0.00     0.066 H 
ENDROOT
BRANCH   1  16
ATOM     16  O   LIG d   1       4.191  -3.752  -6.448  0.00  0.00    -0.487 OA
BRANCH  16  17
ATOM     17  C   LIG d   1       5.384  -3.005  -6.197  0.00  0.00     0.115 C 
ATOM     18  H   LIG d   1       6.203  -3.691  -5.981  0.00  0.00     0.075 H 
ATOM     19  H   LIG d   1       5.631  -2.410  -7.076  0.00  0.00     0.075 H 
BRANCH  17  20
ATOM     20  C   LIG d   1       5.166  -2.093  -5.017  0.00  0.00    -0.010 A 
ATOM     21  C   LIG d   1       5.515  -0.759  -5.101  0.00  0.00    -0.054 A 
ATOM     22  C   LIG d   1       5.312   0.079  -4.020  0.00  0.00    -0.043 A 
ATOM     23  H   LIG d   1       5.944  -0.369  -6.014  0.00  0.00     0.062 H 
ATOM     24  C   LIG d   1       4.768  -0.421  -2.851  0.00  0.00     0.041 A 
ATOM     25  H   LIG d   1       5.582   1.123  -4.089  0.00  0.00     0.063 H 
ATOM     26  C   LIG d   1       4.423  -1.758  -2.766  0.00  0.00    -0.043 A 
ATOM     27 CL   LIG d   1       4.520   0.628  -1.491  0.00  0.00    -0.084 Cl
ATOM     28  C   LIG d   1       4.622  -2.594  -3.848  0.00  0.00    -0.054 A 
ATOM     29  H   LIG d   1       4.000  -2.149  -1.852  0.00  0.00     0.063 H 
ATOM     30  H   LIG d   1       4.354  -3.637  -3.782  0.00  0.00     0.062 H 
ENDBRANCH  17  20
ENDBRANCH  16  17
ENDBRANCH   1  16
BRANCH   9  31
ATOM     31  C   LIG d   1       6.181 -10.534  -3.327  0.00  0.00    -0.019 A 
ATOM     32  C   LIG d   1       5.550 -11.221  -2.279  0.00  0.00    -0.036 A 
ATOM     33  C   LIG d   1       6.100 -11.163  -1.016  0.00  0.00     0.028 A 
ATOM     34  H   LIG d   1       4.649 -11.788  -2.460  0.00  0.00     0.064 H 
ATOM     35  N   LIG d   1       7.201 -10.474  -0.787  0.00  0.00    -0.263 NA
ATOM     36  H   LIG d   1       5.622 -11.690  -0.202  0.00  0.00     0.083 H 
ATOM     37  C   LIG d   1       7.827  -9.813  -1.741  0.00  0.00     0.028 A 
ATOM     38  C   LIG d   1       7.353  -9.820  -3.036  0.00  0.00    -0.036 A 
ATOM     39  H   LIG d   1       8.726  -9.262  -1.507  0.00  0.00     0.083 H 
ATOM     40  H   LIG d   1       7.873  -9.280  -3.814  0.00  0.00     0.064 H 
ENDBRANCH   9  31
TORSDOF 4
ENDMDL
MODEL 8
REMARK VINA RESULT:      -6.4      7.487     10.011
REMARK  4 active torsions:
REMARK  status: ('A' for Active; 'I' for Inactive)
REMARK    1  A    between atoms: C_6  and  C_7 
REMARK    2  A    between atoms: C_7  and  O_8 
REMARK    3  A    between atoms: O_8  and  C_9 
REMARK    4  A    between atoms: C_17  and  C_18 
ROOT
ATOM      1  C   LIG d   1       9.630   3.434  -4.410  0.00  0.00     0.124 A 
ATOM      2  C   LIG d   1      10.377   2.953  -5.482  0.00  0.00    -0.019 A 
ATOM      3  C   LIG d   1       9.958   1.848  -6.168  0.00  0.00    -0.044 A 
ATOM      4  C   LIG d   1       8.772   1.209  -5.800  0.00  0.00     0.068 A 
ATOM      5  C   LIG d   1       8.009   1.689  -4.724  0.00  0.00     0.143 A 
ATOM      6  C   LIG d   1       8.452   2.810  -4.034  0.00  0.00     0.023 A 
ATOM      7  O   LIG d   1       6.915   0.913  -4.558  0.00  0.00    -0.451 OA
ATOM      8  C   LIG d   1       6.869  -0.092  -5.462  0.00  0.00     0.176 A 
ATOM      9  C   LIG d   1       5.904  -1.038  -5.560  0.00  0.00    -0.008 C 
ATOM     10  C   LIG d   1       8.060   0.030  -6.323  0.00  0.00     0.232 A 
ATOM     11  O   LIG d   1       8.382  -0.684  -7.256  0.00  0.00    -0.283 OA
ATOM     12  H   LIG d   1      11.292   3.450  -5.769  0.00  0.00     0.065 H 
ATOM     13  H   LIG d   1      10.540   1.473  -6.997  0.00  0.00     0.063 H 
ATOM     14  H   LIG d   1       7.878   3.194  -3.204  0.00  0.00     0.069 H 
ATOM     15  H   LIG d   1       5.922  -1.747  -6.375  0.00  0.00     0.066 H 
ENDROOT
BRANCH   1  16
ATOM     16  O   LIG d   1      10.057   4.530  -3.731  0.00  0.00    -0.487 OA
BRANCH  16  17
ATOM     17  C   LIG d   1      10.295   4.372  -2.330  0.00  0.00     0.115 C 
ATOM     18  H   LIG d   1       9.510   3.752  -1.896  0.00  0.00     0.075 H 
ATOM     19  H   LIG d   1      11.261   3.893  -2.177  0.00  0.00     0.075 H 
BRANCH  17  20
ATOM     20  C   LIG d   1      10.293   5.724  -1.666  0.00  0.00    -0.010 A 
ATOM     21  C   LIG d   1       9.649   6.789  -2.267  0.00  0.00    -0.054 A 
ATOM     22  C   LIG d   1       9.644   8.029  -1.656  0.00  0.00    -0.043 A 
ATOM     23  H   LIG d   1       9.147   6.651  -3.214  0.00  0.00     0.062 H 
ATOM     24  C   LIG d   1      10.292   8.207  -0.447  0.00  0.00     0.041 A 
ATOM     25  H   LIG d   1       9.137   8.860  -2.126  0.00  0.00     0.063 H 
ATOM     26  C   LIG d   1      10.940   7.142   0.152  0.00  0.00    -0.043 A 
ATOM     27 CL   LIG d   1      10.292   9.766   0.317  0.00  0.00    -0.084 Cl
ATOM     28  C   LIG d   1      10.940   5.902  -0.457  0.00  0.00    -0.054 A 
ATOM     29  H   LIG d   1      11.447   7.281   1.096  0.00  0.00     0.063 H 
ATOM     30  H   LIG d   1      11.447   5.070   0.010  0.00  0.00     0.062 H 
ENDBRANCH  17  20
ENDBRANCH  16  17
ENDBRANCH   1  16
BRANCH   9  31
ATOM     31  C   LIG d   1       4.830  -1.100  -4.556  0.00  0.00    -0.019 A 
ATOM     32  C   LIG d   1       3.660  -0.339  -4.702  0.00  0.00    -0.036 A 
ATOM     33  C   LIG d   1       2.680  -0.429  -3.736  0.00  0.00     0.028 A 
ATOM     34  H   LIG d   1       3.529   0.305  -5.559  0.00  0.00     0.064 H 
ATOM     35  N   LIG d   1       2.832  -1.215  -2.687  0.00  0.00    -0.263 NA
ATOM     36  H   LIG d   1       1.775   0.152  -3.839  0.00  0.00     0.083 H 
ATOM     37  C   LIG d   1       3.915  -1.947  -2.509  0.00  0.00     0.028 A 
ATOM     38  C   LIG d   1       4.944  -1.925  -3.426  0.00  0.00    -0.036 A 
ATOM     39  H   LIG d   1       3.995  -2.575  -1.634  0.00  0.00     0.083 H 
ATOM     40  H   LIG d   1       5.825  -2.531  -3.277  0.00  0.00     0.064 H 
ENDBRANCH   9  31
TORSDOF 4
ENDMDL
MODEL 9
REMARK VINA RESULT:      -6.4      3.987      6.013
REMARK  4 active torsions:
REMARK  status: ('A' for Active; 'I' for Inactive)
REMARK    1  A    between atoms: C_6  and  C_7 
REMARK    2  A    between atoms: C_7  and  O_8 
REMARK    3  A    between atoms: O_8  and  C_9 
REMARK    4  A    between atoms: C_17  and  C_18 
ROOT
ATOM      1  C   LIG d   1       3.389   0.247  -9.195  0.00  0.00     0.124 A 
ATOM      2  C   LIG d   1       2.282  -0.597  -9.171  0.00  0.00    -0.019 A 
ATOM      3  C   LIG d   1       1.882  -1.236 -10.310  0.00  0.00    -0.044 A 
ATOM      4  C   LIG d   1       2.591  -1.049 -11.498  0.00  0.00     0.068 A 
ATOM      5  C   LIG d   1       3.711  -0.204 -11.533  0.00  0.00     0.143 A 
ATOM      6  C   LIG d   1       4.102   0.441 -10.367  0.00  0.00     0.023 A 
ATOM      7  O   LIG d   1       4.228  -0.181 -12.782  0.00  0.00    -0.451 OA
ATOM      8  C   LIG d   1       3.527  -0.968 -13.631  0.00  0.00     0.176 A 
ATOM      9  C   LIG d   1       3.789  -1.158 -14.946  0.00  0.00    -0.008 C 
ATOM     10  C   LIG d   1       2.427  -1.580 -12.863  0.00  0.00     0.232 A 
ATOM     11  O   LIG d   1       1.574  -2.350 -13.267  0.00  0.00    -0.283 OA
ATOM     12  H   LIG d   1       1.736  -0.745  -8.251  0.00  0.00     0.065 H 
ATOM     13  H   LIG d   1       1.021  -1.888 -10.292  0.00  0.00     0.063 H 
ATOM     14  H   LIG d   1       4.962   1.095 -10.374  0.00  0.00     0.069 H 
ATOM     15  H   LIG d   1       3.214  -1.875 -15.514  0.00  0.00     0.066 H 
ENDROOT
BRANCH   1  16
ATOM     16  O   LIG d   1       3.776   0.881  -8.059  0.00  0.00    -0.487 OA
BRANCH  16  17
ATOM     17  C   LIG d   1       2.770   1.113  -7.071  0.00  0.00     0.115 C 
ATOM     18  H   LIG d   1       2.775   2.165  -6.787  0.00  0.00     0.075 H 
ATOM     19  H   LIG d   1       1.794   0.851  -7.478  0.00  0.00     0.075 H 
BRANCH  17  20
ATOM     20  C   LIG d   1       3.053   0.264  -5.859  0.00  0.00    -0.010 A 
ATOM     21  C   LIG d   1       2.252   0.371  -4.738  0.00  0.00    -0.054 A 
ATOM     22  C   LIG d   1       2.509  -0.411  -3.627  0.00  0.00    -0.043 A 
ATOM     23  H   LIG d   1       1.423   1.064  -4.730  0.00  0.00     0.062 H 
ATOM     24  C   LIG d   1       3.575  -1.293  -3.634  0.00  0.00     0.041 A 
ATOM     25  H   LIG d   1       1.880  -0.329  -2.752  0.00  0.00     0.063 H 
ATOM     26  C   LIG d   1       4.379  -1.397  -4.754  0.00  0.00    -0.043 A 
ATOM     27 CL   LIG d   1       3.903  -2.270  -2.236  0.00  0.00    -0.084 Cl
ATOM     28  C   LIG d   1       4.118  -0.619  -5.866  0.00  0.00    -0.054 A 
ATOM     29  H   LIG d   1       5.211  -2.085  -4.760  0.00  0.00     0.063 H 
ATOM     30  H   LIG d   1       4.746  -0.698  -6.741  0.00  0.00     0.062 H 
ENDBRANCH  17  20
ENDBRANCH  16  17
ENDBRANCH   1  16
BRANCH   9  31
ATOM     31  C   LIG d   1       4.857  -0.389 -15.603  0.00  0.00    -0.019 A 
ATOM     32  C   LIG d   1       6.209  -0.696 -15.381  0.00  0.00    -0.036 A 
ATOM     33  C   LIG d   1       7.177   0.053 -16.018  0.00  0.00     0.028 A 
ATOM     34  H   LIG d   1       6.486  -1.506 -14.723  0.00  0.00     0.064 H 
ATOM     35  N   LIG d   1       6.846   1.043 -16.825  0.00  0.00    -0.263 NA
ATOM     36  H   LIG d   1       8.220  -0.176 -15.855  0.00  0.00     0.083 H 
ATOM     37  C   LIG d   1       5.590   1.366 -17.062  0.00  0.00     0.028 A 
ATOM     38  C   LIG d   1       4.556   0.669 -16.473  0.00  0.00    -0.036 A 
ATOM     39  H   LIG d   1       5.368   2.185 -17.730  0.00  0.00     0.083 H 
ATOM     40  H   LIG d   1       3.529   0.936 -16.676  0.00  0.00     0.064 H 
ENDBRANCH   9  31
TORSDOF 4
ENDMDL
MODEL 10
REMARK VINA RESULT:      -6.3      8.785     11.871
REMARK  4 active torsions:
REMARK  status: ('A' for Active; 'I' for Inactive)
REMARK    1  A    between atoms: C_6  and  C_7 
REMARK    2  A    between atoms: C_7  and  O_8 
REMARK    3  A    between atoms: O_8  and  C_9 
REMARK    4  A    between atoms: C_17  and  C_18 
ROOT
ATOM      1  C   LIG d   1       8.776   1.843  -5.970  0.00  0.00     0.124 A 
ATOM      2  C   LIG d   1       8.504   1.247  -7.199  0.00  0.00    -0.019 A 
ATOM      3  C   LIG d   1       8.631   1.966  -8.353  0.00  0.00    -0.044 A 
ATOM      4  C   LIG d   1       9.044   3.299  -8.300  0.00  0.00     0.068 A 
ATOM      5  C   LIG d   1       9.326   3.908  -7.067  0.00  0.00     0.143 A 
ATOM      6  C   LIG d   1       9.188   3.164  -5.903  0.00  0.00     0.023 A 
ATOM      7  O   LIG d   1       9.704   5.190  -7.267  0.00  0.00    -0.451 OA
ATOM      8  C   LIG d   1       9.702   5.517  -8.580  0.00  0.00     0.176 A 
ATOM      9  C   LIG d   1      10.030   6.721  -9.107  0.00  0.00    -0.008 C 
ATOM     10  C   LIG d   1       9.278   4.323  -9.334  0.00  0.00     0.232 A 
ATOM     11  O   LIG d   1       9.149   4.209 -10.540  0.00  0.00    -0.283 OA
ATOM     12  H   LIG d   1       8.189   0.215  -7.239  0.00  0.00     0.065 H 
ATOM     13  H   LIG d   1       8.416   1.504  -9.305  0.00  0.00     0.063 H 
ATOM     14  H   LIG d   1       9.400   3.616  -4.945  0.00  0.00     0.069 H 
ATOM     15  H   LIG d   1      10.075   6.849 -10.178  0.00  0.00     0.066 H 
ENDROOT
BRANCH   1  16
ATOM     16  O   LIG d   1       8.643   1.121  -4.828  0.00  0.00    -0.487 OA
BRANCH  16  17
ATOM     17  C   LIG d   1       7.820   1.679  -3.801  0.00  0.00     0.115 C 
ATOM     18  H   LIG d   1       8.437   1.930  -2.938  0.00  0.00     0.075 H 
ATOM     19  H   LIG d   1       7.334   2.580  -4.174  0.00  0.00     0.075 H 
BRANCH  17  20
ATOM     20  C   LIG d   1       6.773   0.674  -3.395  0.00  0.00    -0.010 A 
ATOM     21  C   LIG d   1       6.983  -0.673  -3.623  0.00  0.00    -0.054 A 
ATOM     22  C   LIG d   1       6.025  -1.596  -3.248  0.00  0.00    -0.043 A 
ATOM     23  H   LIG d   1       7.898  -1.005  -4.092  0.00  0.00     0.062 H 
ATOM     24  C   LIG d   1       4.850  -1.170  -2.653  0.00  0.00     0.041 A 
ATOM     25  H   LIG d   1       6.192  -2.649  -3.423  0.00  0.00     0.063 H 
ATOM     26  C   LIG d   1       4.639   0.179  -2.429  0.00  0.00    -0.043 A 
ATOM     27 CL   LIG d   1       3.643  -2.328  -2.188  0.00  0.00    -0.084 Cl
ATOM     28  C   LIG d   1       5.600   1.100  -2.800  0.00  0.00    -0.054 A 
ATOM     29  H   LIG d   1       3.722   0.511  -1.966  0.00  0.00     0.063 H 
ATOM     30  H   LIG d   1       5.435   2.153  -2.627  0.00  0.00     0.062 H 
ENDBRANCH  17  20
ENDBRANCH  16  17
ENDBRANCH   1  16
BRANCH   9  31
ATOM     31  C   LIG d   1      10.325   7.857  -8.218  0.00  0.00    -0.019 A 
ATOM     32  C   LIG d   1      11.647   8.272  -7.993  0.00  0.00    -0.036 A 
ATOM     33  C   LIG d   1      11.877   9.341  -7.153  0.00  0.00     0.028 A 
ATOM     34  H   LIG d   1      12.470   7.763  -8.472  0.00  0.00     0.064 H 
ATOM     35  N   LIG d   1      10.876   9.969  -6.565  0.00  0.00    -0.263 NA
ATOM     36  H   LIG d   1      12.890   9.669  -6.974  0.00  0.00     0.083 H 
ATOM     37  C   LIG d   1       9.619   9.612  -6.748  0.00  0.00     0.028 A 
ATOM     38  C   LIG d   1       9.295   8.559  -7.576  0.00  0.00    -0.036 A 
ATOM     39  H   LIG d   1       8.833  10.156  -6.245  0.00  0.00     0.083 H 
ATOM     40  H   LIG d   1       8.263   8.275  -7.725  0.00  0.00     0.064 H 
ENDBRANCH   9  31
TORSDOF 4
ENDMDL
