MODEL 1
REMARK VINA RESULT:      -6.5      0.000      0.000
REMARK  10 active torsions:
REMARK  status: ('A' for Active; 'I' for Inactive)
REMARK    1  A    between atoms: C_1  and  C_2 
REMARK    2  A    between atoms: C_6  and  O_31 
REMARK    3  A    between atoms: C_12  and  C_13 
REMARK    4  A    between atoms: C_13  and  C_14 
REMARK       I    between atoms: C_14  and  N_16 
REMARK    5  A    between atoms: N_16  and  C_17 
REMARK    6  A    between atoms: C_17  and  C_18 
REMARK    7  A    between atoms: C_18  and  C_19 
REMARK    8  A    between atoms: C_26  and  O_29 
REMARK    9  A    between atoms: O_29  and  C_30 
REMARK   10  A    between atoms: O_31  and  C_32 
ROOT
ATOM      1  C   LIG d   1       5.722  -4.763  -8.528  0.00  0.00     0.218 C 
ATOM      2  O   LIG d   1       6.456  -4.347  -9.400  0.00  0.00    -0.276 OA
ATOM      3  N   LIG d   1       4.388  -4.775  -8.718  0.00  0.00    -0.315 N 
ATOM      4  H   LIG d   1       3.803  -5.107  -8.020  0.00  0.00     0.149 HD
ENDROOT
BRANCH   1   5
ATOM      5  C   LIG d   1       6.303  -5.264  -7.231  0.00  0.00     0.056 C 
ATOM      6  H   LIG d   1       7.391  -5.233  -7.284  0.00  0.00     0.041 H 
ATOM      7  H   LIG d   1       5.977  -6.290  -7.059  0.00  0.00     0.041 H 
BRANCH   5   8
ATOM      8  C   LIG d   1       5.831  -4.390  -6.097  0.00  0.00     0.049 A 
ATOM      9  C   LIG d   1       6.543  -3.288  -5.745  0.00  0.00    -0.029 A 
ATOM     10  C   LIG d   1       6.047  -2.468  -4.638  0.00  0.00     0.021 A 
ATOM     11  C   LIG d   1       4.861  -2.850  -3.985  0.00  0.00     0.143 A 
ATOM     12  C   LIG d   1       6.735  -1.321  -4.226  0.00  0.00    -0.047 A 
ATOM     13  C   LIG d   1       4.382  -2.081  -2.935  0.00  0.00     0.023 A 
ATOM     14  O   LIG d   1       4.200  -3.958  -4.386  0.00  0.00    -0.422 OA
ATOM     15  C   LIG d   1       5.075  -0.949  -2.540  0.00  0.00     0.124 A 
ATOM     16  H   LIG d   1       3.473  -2.363  -2.426  0.00  0.00     0.069 H 
ATOM     17  C   LIG d   1       6.251  -0.575  -3.191  0.00  0.00    -0.019 A 
ATOM     18  H   LIG d   1       6.781   0.310  -2.874  0.00  0.00     0.065 H 
ATOM     19  C   LIG d   1       4.649  -4.714  -5.400  0.00  0.00     0.341 A 
ATOM     20  O   LIG d   1       4.020  -5.705  -5.726  0.00  0.00    -0.245 OA
ATOM     21  H   LIG d   1       7.645  -1.027  -4.726  0.00  0.00     0.063 H 
BRANCH   9  22
ATOM     22  C   LIG d   1       7.809  -2.919  -6.474  0.00  0.00    -0.038 C 
ATOM     23  H   LIG d   1       7.571  -2.642  -7.501  0.00  0.00     0.028 H 
ATOM     24  H   LIG d   1       8.285  -2.075  -5.972  0.00  0.00     0.028 H 
ATOM     25  H   LIG d   1       8.489  -3.771  -6.476  0.00  0.00     0.028 H 
ENDBRANCH   9  22
BRANCH  15  26
ATOM     26  O   LIG d   1       4.604  -0.193  -1.517  0.00  0.00    -0.495 OA
BRANCH  26  27
ATOM     27  C   LIG d   1       4.250   1.158  -1.817  0.00  0.00     0.079 C 
ATOM     28  H   LIG d   1       4.392   1.343  -2.882  0.00  0.00     0.066 H 
ATOM     29  H   LIG d   1       3.206   1.328  -1.555  0.00  0.00     0.066 H 
ATOM     30  H   LIG d   1       4.883   1.836  -1.243  0.00  0.00     0.066 H 
ENDBRANCH  26  27
ENDBRANCH  15  26
ENDBRANCH   5   8
ENDBRANCH   1   5
BRANCH   3  31
ATOM     31  C   LIG d   1       3.824  -4.287  -9.979  0.00  0.00     0.016 C 
ATOM     32  H   LIG d   1       4.588  -3.743 -10.534  0.00  0.00     0.046 H 
ATOM     33  H   LIG d   1       3.477  -5.133 -10.573  0.00  0.00     0.046 H 
BRANCH  31  34
ATOM     34  C   LIG d   1       2.647  -3.354  -9.684  0.00  0.00    -0.010 C 
ATOM     35  H   LIG d   1       1.741  -3.760 -10.134  0.00  0.00     0.033 H 
ATOM     36  H   LIG d   1       2.511  -3.272  -8.605  0.00  0.00     0.033 H 
BRANCH  34  37
ATOM     37  C   LIG d   1       2.929  -1.991 -10.260  0.00  0.00    -0.021 A 
ATOM     38  C   LIG d   1       3.011  -0.731  -9.516  0.00  0.00     0.006 A 
ATOM     39  C   LIG d   1       3.297   0.265 -10.468  0.00  0.00     0.047 A 
ATOM     40  C   LIG d   1       2.885  -0.392  -8.168  0.00  0.00    -0.011 A 
ATOM     41  N   LIG d   1       3.370  -0.358 -11.697  0.00  0.00    -0.360 N 
ATOM     42  C   LIG d   1       3.438   1.585 -10.056  0.00  0.00    -0.034 A 
ATOM     43  C   LIG d   1       3.148  -1.700 -11.552  0.00  0.00     0.006 A 
ATOM     44  H   LIG d   1       3.552   0.090 -12.538  0.00  0.00     0.165 HD
ATOM     45  H   LIG d   1       3.150  -2.419 -12.357  0.00  0.00     0.081 H 
ATOM     46  C   LIG d   1       3.306   1.909  -8.724  0.00  0.00    -0.018 A 
ATOM     47  H   LIG d   1       3.654   2.357 -10.781  0.00  0.00     0.064 H 
ATOM     48  C   LIG d   1       3.030   0.925  -7.779  0.00  0.00     0.121 A 
ATOM     49  H   LIG d   1       3.417   2.937  -8.411  0.00  0.00     0.066 H 
ATOM     50  H   LIG d   1       2.672  -1.154  -7.433  0.00  0.00     0.066 H 
BRANCH  48  51
ATOM     51  O   LIG d   1       2.903   1.262  -6.468  0.00  0.00    -0.495 OA
BRANCH  51  52
ATOM     52  C   LIG d   1       2.975   0.201  -5.514  0.00  0.00     0.079 C 
ATOM     53  H   LIG d   1       1.988   0.033  -5.083  0.00  0.00     0.066 H 
ATOM     54  H   LIG d   1       3.315  -0.709  -6.008  0.00  0.00     0.066 H 
ATOM     55  H   LIG d   1       3.676   0.470  -4.724  0.00  0.00     0.066 H 
ENDBRANCH  51  52
ENDBRANCH  48  51
ENDBRANCH  34  37
ENDBRANCH  31  34
ENDBRANCH   3  31
TORSDOF 10
ENDMDL
MODEL 2
REMARK VINA RESULT:      -6.4      3.300      7.257
REMARK  10 active torsions:
REMARK  status: ('A' for Active; 'I' for Inactive)
REMARK    1  A    between atoms: C_1  and  C_2 
REMARK    2  A    between atoms: C_6  and  O_31 
REMARK    3  A    between atoms: C_12  and  C_13 
REMARK    4  A    between atoms: C_13  and  C_14 
REMARK       I    between atoms: C_14  and  N_16 
REMARK    5  A    between atoms: N_16  and  C_17 
REMARK    6  A    between atoms: C_17  and  C_18 
REMARK    7  A    between atoms: C_18  and  C_19 
REMARK    8  A    between atoms: C_26  and  O_29 
REMARK    9  A    between atoms: O_29  and  C_30 
REMARK   10  A    between atoms: O_31  and  C_32 
ROOT
ATOM      1  C   LIG d   1       2.643   0.349  -5.172  0.00  0.00     0.218 C 
ATOM      2  O   LIG d   1       2.622   1.534  -4.915  0.00  0.00    -0.276 OA
ATOM      3  N   LIG d   1       2.773  -0.553  -4.180  0.00  0.00    -0.315 N 
ATOM      4  H   LIG d   1       2.790  -1.501  -4.387  0.00  0.00     0.149 HD
ENDROOT
BRANCH   1   5
ATOM      5  C   LIG d   1       2.524  -0.114  -6.601  0.00  0.00     0.056 C 
ATOM      6  H   LIG d   1       1.679   0.386  -7.076  0.00  0.00     0.041 H 
ATOM      7  H   LIG d   1       2.367  -1.192  -6.622  0.00  0.00     0.041 H 
BRANCH   5   8
ATOM      8  C   LIG d   1       3.790   0.225  -7.346  0.00  0.00     0.049 A 
ATOM      9  C   LIG d   1       4.828  -0.651  -7.357  0.00  0.00    -0.029 A 
ATOM     10  C   LIG d   1       6.039  -0.280  -8.093  0.00  0.00     0.021 A 
ATOM     11  C   LIG d   1       6.080   0.960  -8.756  0.00  0.00     0.143 A 
ATOM     12  C   LIG d   1       7.143  -1.138  -8.143  0.00  0.00    -0.047 A 
ATOM     13  C   LIG d   1       7.222   1.321  -9.456  0.00  0.00     0.023 A 
ATOM     14  O   LIG d   1       5.012   1.785  -8.706  0.00  0.00    -0.422 OA
ATOM     15  C   LIG d   1       8.306   0.460  -9.495  0.00  0.00     0.124 A 
ATOM     16  H   LIG d   1       7.266   2.271  -9.969  0.00  0.00     0.069 H 
ATOM     17  C   LIG d   1       8.259  -0.768  -8.836  0.00  0.00    -0.019 A 
ATOM     18  H   LIG d   1       9.111  -1.430  -8.875  0.00  0.00     0.065 H 
ATOM     19  C   LIG d   1       3.900   1.452  -8.033  0.00  0.00     0.341 A 
ATOM     20  O   LIG d   1       2.961   2.228  -8.015  0.00  0.00    -0.245 OA
ATOM     21  H   LIG d   1       7.112  -2.090  -7.635  0.00  0.00     0.063 H 
BRANCH   9  22
ATOM     22  C   LIG d   1       4.738  -1.968  -6.631  0.00  0.00    -0.038 C 
ATOM     23  H   LIG d   1       4.043  -2.626  -7.155  0.00  0.00     0.028 H 
ATOM     24  H   LIG d   1       5.723  -2.434  -6.599  0.00  0.00     0.028 H 
ATOM     25  H   LIG d   1       4.382  -1.800  -5.615  0.00  0.00     0.028 H 
ENDBRANCH   9  22
BRANCH  15  26
ATOM     26  O   LIG d   1       9.420   0.811 -10.185  0.00  0.00    -0.495 OA
BRANCH  26  27
ATOM     27  C   LIG d   1       9.718   2.206 -10.272  0.00  0.00     0.079 C 
ATOM     28  H   LIG d   1       9.972   2.585  -9.282  0.00  0.00     0.066 H 
ATOM     29  H   LIG d   1      10.561   2.357 -10.946  0.00  0.00     0.066 H 
ATOM     30  H   LIG d   1       8.847   2.740 -10.653  0.00  0.00     0.066 H 
ENDBRANCH  26  27
ENDBRANCH  15  26
ENDBRANCH   5   8
ENDBRANCH   1   5
BRANCH   3  31
ATOM     31  C   LIG d   1       2.889  -0.103  -2.791  0.00  0.00     0.016 C 
ATOM     32  H   LIG d   1       2.916   0.986  -2.762  0.00  0.00     0.046 H 
ATOM     33  H   LIG d   1       2.030  -0.460  -2.221  0.00  0.00     0.046 H 
BRANCH  31  34
ATOM     34  C   LIG d   1       4.175  -0.662  -2.179  0.00  0.00    -0.010 C 
ATOM     35  H   LIG d   1       4.220  -0.396  -1.123  0.00  0.00     0.033 H 
ATOM     36  H   LIG d   1       4.183  -1.748  -2.282  0.00  0.00     0.033 H 
BRANCH  34  37
ATOM     37  C   LIG d   1       5.366  -0.081  -2.896  0.00  0.00    -0.021 A 
ATOM     38  C   LIG d   1       6.441  -0.833  -3.550  0.00  0.00     0.006 A 
ATOM     39  C   LIG d   1       7.320   0.128  -4.082  0.00  0.00     0.047 A 
ATOM     40  C   LIG d   1       6.701  -2.193  -3.732  0.00  0.00    -0.011 A 
ATOM     41  N   LIG d   1       6.810   1.368  -3.758  0.00  0.00    -0.360 N 
ATOM     42  C   LIG d   1       8.452  -0.288  -4.774  0.00  0.00    -0.034 A 
ATOM     43  C   LIG d   1       5.647   1.222  -3.052  0.00  0.00     0.006 A 
ATOM     44  H   LIG d   1       7.215   2.216  -3.995  0.00  0.00     0.165 HD
ATOM     45  H   LIG d   1       5.043   2.034  -2.677  0.00  0.00     0.081 H 
ATOM     46  C   LIG d   1       8.702  -1.631  -4.941  0.00  0.00    -0.018 A 
ATOM     47  H   LIG d   1       9.135   0.444  -5.182  0.00  0.00     0.064 H 
ATOM     48  C   LIG d   1       7.831  -2.585  -4.422  0.00  0.00     0.121 A 
ATOM     49  H   LIG d   1       9.583  -1.948  -5.479  0.00  0.00     0.066 H 
ATOM     50  H   LIG d   1       6.026  -2.934  -3.330  0.00  0.00     0.066 H 
BRANCH  48  51
ATOM     51  O   LIG d   1       8.093  -3.908  -4.596  0.00  0.00    -0.495 OA
BRANCH  51  52
ATOM     52  C   LIG d   1       9.138  -4.473  -3.802  0.00  0.00     0.079 C 
ATOM     53  H   LIG d   1       9.986  -4.717  -4.440  0.00  0.00     0.066 H 
ATOM     54  H   LIG d   1       9.447  -3.754  -3.044  0.00  0.00     0.066 H 
ATOM     55  H   LIG d   1       8.775  -5.380  -3.317  0.00  0.00     0.066 H 
ENDBRANCH  51  52
ENDBRANCH  48  51
ENDBRANCH  34  37
ENDBRANCH  31  34
ENDBRANCH   3  31
TORSDOF 10
ENDMDL
MODEL 3
REMARK VINA RESULT:      -6.3      5.870      8.574
REMARK  10 active torsions:
REMARK  status: ('A' for Active; 'I' for Inactive)
REMARK    1  A    between atoms: C_1  and  C_2 
REMARK    2  A    between atoms: C_6  and  O_31 
REMARK    3  A    between atoms: C_12  and  C_13 
REMARK    4  A    between atoms: C_13  and  C_14 
REMARK       I    between atoms: C_14  and  N_16 
REMARK    5  A    between atoms: N_16  and  C_17 
REMARK    6  A    between atoms: C_17  and  C_18 
REMARK    7  A    between atoms: C_18  and  C_19 
REMARK    8  A    between atoms: C_26  and  O_29 
REMARK    9  A    between atoms: O_29  and  C_30 
REMARK   10  A    between atoms: O_31  and  C_32 
ROOT
ATOM      1  C   LIG d   1       8.899   2.369  -5.581  0.00  0.00     0.218 C 
ATOM      2  O   LIG d   1       7.826   2.614  -5.072  0.00  0.00    -0.276 OA
ATOM      3  N   LIG d   1       9.143   1.143  -6.085  0.00  0.00    -0.315 N 
ATOM      4  H   LIG d   1      10.001   0.949  -6.492  0.00  0.00     0.149 HD
ENDROOT
BRANCH   1   5
ATOM      5  C   LIG d   1       9.960   3.436  -5.650  0.00  0.00     0.056 C 
ATOM      6  H   LIG d   1       9.630   4.235  -6.314  0.00  0.00     0.041 H 
ATOM      7  H   LIG d   1      10.885   3.005  -6.032  0.00  0.00     0.041 H 
BRANCH   5   8
ATOM      8  C   LIG d   1      10.199   3.998  -4.271  0.00  0.00     0.049 A 
ATOM      9  C   LIG d   1       9.820   5.269  -3.979  0.00  0.00    -0.029 A 
ATOM     10  C   LIG d   1      10.073   5.772  -2.627  0.00  0.00     0.021 A 
ATOM     11  C   LIG d   1      10.694   4.926  -1.689  0.00  0.00     0.143 A 
ATOM     12  C   LIG d   1       9.707   7.073  -2.262  0.00  0.00    -0.047 A 
ATOM     13  C   LIG d   1      10.937   5.393  -0.406  0.00  0.00     0.023 A 
ATOM     14  O   LIG d   1      11.046   3.671  -2.046  0.00  0.00    -0.422 OA
ATOM     15  C   LIG d   1      10.569   6.683  -0.062  0.00  0.00     0.124 A 
ATOM     16  H   LIG d   1      11.413   4.753   0.322  0.00  0.00     0.069 H 
ATOM     17  C   LIG d   1       9.953   7.516  -0.995  0.00  0.00    -0.019 A 
ATOM     18  H   LIG d   1       9.671   8.519  -0.714  0.00  0.00     0.065 H 
ATOM     19  C   LIG d   1      10.817   3.204  -3.283  0.00  0.00     0.341 A 
ATOM     20  O   LIG d   1      11.152   2.066  -3.559  0.00  0.00    -0.245 OA
ATOM     21  H   LIG d   1       9.230   7.722  -2.980  0.00  0.00     0.063 H 
BRANCH   9  22
ATOM     22  C   LIG d   1       9.159   6.138  -5.016  0.00  0.00    -0.038 C 
ATOM     23  H   LIG d   1       9.921   6.680  -5.577  0.00  0.00     0.028 H 
ATOM     24  H   LIG d   1       8.582   5.514  -5.699  0.00  0.00     0.028 H 
ATOM     25  H   LIG d   1       8.495   6.850  -4.525  0.00  0.00     0.028 H 
ENDBRANCH   9  22
BRANCH  15  26
ATOM     26  O   LIG d   1      10.802   7.137   1.195  0.00  0.00    -0.495 OA
BRANCH  26  27
ATOM     27  C   LIG d   1      11.521   8.365   1.319  0.00  0.00     0.079 C 
ATOM     28  H   LIG d   1      12.588   8.154   1.405  0.00  0.00     0.066 H 
ATOM     29  H   LIG d   1      11.343   8.982   0.438  0.00  0.00     0.066 H 
ATOM     30  H   LIG d   1      11.183   8.897   2.209  0.00  0.00     0.066 H 
ENDBRANCH  26  27
ENDBRANCH  15  26
ENDBRANCH   5   8
ENDBRANCH   1   5
BRANCH   3  31
ATOM     31  C   LIG d   1       8.111   0.105  -6.018  0.00  0.00     0.016 C 
ATOM     32  H   LIG d   1       7.184   0.537  -5.639  0.00  0.00     0.046 H 
ATOM     33  H   LIG d   1       7.940  -0.302  -7.014  0.00  0.00     0.046 H 
BRANCH  31  34
ATOM     34  C   LIG d   1       8.573  -1.013  -5.081  0.00  0.00    -0.010 C 
ATOM     35  H   LIG d   1       9.375  -1.577  -5.558  0.00  0.00     0.033 H 
ATOM     36  H   LIG d   1       8.937  -0.579  -4.150  0.00  0.00     0.033 H 
BRANCH  34  37
ATOM     37  C   LIG d   1       7.416  -1.932  -4.788  0.00  0.00    -0.021 A 
ATOM     38  C   LIG d   1       6.282  -1.651  -3.902  0.00  0.00     0.006 A 
ATOM     39  C   LIG d   1       5.460  -2.792  -3.947  0.00  0.00     0.047 A 
ATOM     40  C   LIG d   1       5.911  -0.554  -3.122  0.00  0.00    -0.011 A 
ATOM     41  N   LIG d   1       6.068  -3.696  -4.793  0.00  0.00    -0.360 N 
ATOM     42  C   LIG d   1       4.289  -2.822  -3.200  0.00  0.00    -0.034 A 
ATOM     43  C   LIG d   1       7.229  -3.166  -5.284  0.00  0.00     0.006 A 
ATOM     44  H   LIG d   1       5.722  -4.576  -5.009  0.00  0.00     0.165 HD
ATOM     45  H   LIG d   1       7.899  -3.665  -5.968  0.00  0.00     0.081 H 
ATOM     46  C   LIG d   1       3.936  -1.737  -2.428  0.00  0.00    -0.018 A 
ATOM     47  H   LIG d   1       3.654  -3.695  -3.225  0.00  0.00     0.064 H 
ATOM     48  C   LIG d   1       4.744  -0.603  -2.386  0.00  0.00     0.121 A 
ATOM     49  H   LIG d   1       3.025  -1.766  -1.850  0.00  0.00     0.066 H 
ATOM     50  H   LIG d   1       6.537   0.326  -3.089  0.00  0.00     0.066 H 
BRANCH  48  51
ATOM     51  O   LIG d   1       4.381   0.459  -1.620  0.00  0.00    -0.495 OA
BRANCH  51  52
ATOM     52  C   LIG d   1       3.737   1.549  -2.283  0.00  0.00     0.079 C 
ATOM     53  H   LIG d   1       2.664   1.364  -2.328  0.00  0.00     0.066 H 
ATOM     54  H   LIG d   1       3.924   2.471  -1.731  0.00  0.00     0.066 H 
ATOM     55  H   LIG d   1       4.132   1.643  -3.294  0.00  0.00     0.066 H 
ENDBRANCH  51  52
ENDBRANCH  48  51
ENDBRANCH  34  37
ENDBRANCH  31  34
ENDBRANCH   3  31
TORSDOF 10
ENDMDL
MODEL 4
REMARK VINA RESULT:      -6.1      4.837      7.238
REMARK  10 active torsions:
REMARK  status: ('A' for Active; 'I' for Inactive)
REMARK    1  A    between atoms: C_1  and  C_2 
REMARK    2  A    between atoms: C_6  and  O_31 
REMARK    3  A    between atoms: C_12  and  C_13 
REMARK    4  A    between atoms: C_13  and  C_14 
REMARK       I    between atoms: C_14  and  N_16 
REMARK    5  A    between atoms: N_16  and  C_17 
REMARK    6  A    between atoms: C_17  and  C_18 
REMARK    7  A    between atoms: C_18  and  C_19 
REMARK    8  A    between atoms: C_26  and  O_29 
REMARK    9  A    between atoms: O_29  and  C_30 
REMARK   10  A    between atoms: O_31  and  C_32 
ROOT
ATOM      1  C   LIG d   1       5.328  -6.499  -5.912  0.00  0.00     0.218 C 
ATOM      2  O   LIG d   1       4.294  -6.424  -5.283  0.00  0.00    -0.276 OA
ATOM      3  N   LIG d   1       5.910  -5.382  -6.390  0.00  0.00    -0.315 N 
ATOM      4  H   LIG d   1       6.736  -5.443  -6.893  0.00  0.00     0.149 HD
ENDROOT
BRANCH   1   5
ATOM      5  C   LIG d   1       5.962  -7.843  -6.160  0.00  0.00     0.056 C 
ATOM      6  H   LIG d   1       6.588  -7.792  -7.051  0.00  0.00     0.041 H 
ATOM      7  H   LIG d   1       5.184  -8.592  -6.306  0.00  0.00     0.041 H 
BRANCH   5   8
ATOM      8  C   LIG d   1       6.810  -8.225  -4.973  0.00  0.00     0.049 A 
ATOM      9  C   LIG d   1       6.332  -9.097  -4.047  0.00  0.00    -0.029 A 
ATOM     10  C   LIG d   1       7.190  -9.439  -2.911  0.00  0.00     0.021 A 
ATOM     11  C   LIG d   1       8.467  -8.855  -2.821  0.00  0.00     0.143 A 
ATOM     12  C   LIG d   1       6.756 -10.331  -1.923  0.00  0.00    -0.047 A 
ATOM     13  C   LIG d   1       9.288  -9.172  -1.749  0.00  0.00     0.023 A 
ATOM     14  O   LIG d   1       8.882  -7.996  -3.777  0.00  0.00    -0.422 OA
ATOM     15  C   LIG d   1       8.842 -10.057  -0.780  0.00  0.00     0.124 A 
ATOM     16  H   LIG d   1      10.270  -8.732  -1.669  0.00  0.00     0.069 H 
ATOM     17  C   LIG d   1       7.576 -10.632  -0.874  0.00  0.00    -0.019 A 
ATOM     18  H   LIG d   1       7.241 -11.320  -0.112  0.00  0.00     0.065 H 
ATOM     19  C   LIG d   1       8.101  -7.678  -4.821  0.00  0.00     0.341 A 
ATOM     20  O   LIG d   1       8.517  -6.898  -5.658  0.00  0.00    -0.245 OA
ATOM     21  H   LIG d   1       5.777 -10.779  -1.991  0.00  0.00     0.063 H 
BRANCH   9  22
ATOM     22  C   LIG d   1       4.956  -9.696  -4.185  0.00  0.00    -0.038 C 
ATOM     23  H   LIG d   1       4.399  -9.155  -4.951  0.00  0.00     0.028 H 
ATOM     24  H   LIG d   1       5.043 -10.744  -4.473  0.00  0.00     0.028 H 
ATOM     25  H   LIG d   1       4.430  -9.623  -3.234  0.00  0.00     0.028 H 
ENDBRANCH   9  22
BRANCH  15  26
ATOM     26  O   LIG d   1       9.648 -10.371   0.266  0.00  0.00    -0.495 OA
BRANCH  26  27
ATOM     27  C   LIG d   1      11.057 -10.305   0.043  0.00  0.00     0.079 C 
ATOM     28  H   LIG d   1      11.290  -9.420  -0.550  0.00  0.00     0.066 H 
ATOM     29  H   LIG d   1      11.575 -10.248   1.000  0.00  0.00     0.066 H 
ATOM     30  H   LIG d   1      11.383 -11.197  -0.493  0.00  0.00     0.066 H 
ENDBRANCH  26  27
ENDBRANCH  15  26
ENDBRANCH   5   8
ENDBRANCH   1   5
BRANCH   3  31
ATOM     31  C   LIG d   1       5.293  -4.075  -6.150  0.00  0.00     0.016 C 
ATOM     32  H   LIG d   1       5.199  -3.537  -7.094  0.00  0.00     0.046 H 
ATOM     33  H   LIG d   1       4.303  -4.215  -5.713  0.00  0.00     0.046 H 
BRANCH  31  34
ATOM     34  C   LIG d   1       6.166  -3.267  -5.187  0.00  0.00    -0.010 C 
ATOM     35  H   LIG d   1       6.905  -3.925  -4.730  0.00  0.00     0.033 H 
ATOM     36  H   LIG d   1       6.674  -2.475  -5.737  0.00  0.00     0.033 H 
BRANCH  34  37
ATOM     37  C   LIG d   1       5.301  -2.659  -4.115  0.00  0.00    -0.021 A 
ATOM     38  C   LIG d   1       5.402  -1.298  -3.581  0.00  0.00     0.006 A 
ATOM     39  C   LIG d   1       4.391  -1.184  -2.610  0.00  0.00     0.047 A 
ATOM     40  C   LIG d   1       6.230  -0.208  -3.858  0.00  0.00    -0.011 A 
ATOM     41  N   LIG d   1       3.738  -2.397  -2.560  0.00  0.00    -0.360 N 
ATOM     42  C   LIG d   1       4.235   0.014  -1.922  0.00  0.00    -0.034 A 
ATOM     43  C   LIG d   1       4.294  -3.262  -3.463  0.00  0.00     0.006 A 
ATOM     44  H   LIG d   1       2.996  -2.606  -1.972  0.00  0.00     0.165 HD
ATOM     45  H   LIG d   1       3.971  -4.279  -3.628  0.00  0.00     0.081 H 
ATOM     46  C   LIG d   1       5.062   1.080  -2.198  0.00  0.00    -0.018 A 
ATOM     47  H   LIG d   1       3.464   0.109  -1.170  0.00  0.00     0.064 H 
ATOM     48  C   LIG d   1       6.059   0.973  -3.163  0.00  0.00     0.121 A 
ATOM     49  H   LIG d   1       4.935   2.008  -1.659  0.00  0.00     0.066 H 
ATOM     50  H   LIG d   1       7.004  -0.289  -4.607  0.00  0.00     0.066 H 
BRANCH  48  51
ATOM     51  O   LIG d   1       6.866   2.035  -3.424  0.00  0.00    -0.495 OA
BRANCH  51  52
ATOM     52  C   LIG d   1       8.199   1.749  -3.855  0.00  0.00     0.079 C 
ATOM     53  H   LIG d   1       8.352   2.157  -4.853  0.00  0.00     0.066 H 
ATOM     54  H   LIG d   1       8.909   2.204  -3.164  0.00  0.00     0.066 H 
ATOM     55  H   LIG d   1       8.350   0.671  -3.875  0.00  0.00     0.066 H 
ENDBRANCH  51  52
ENDBRANCH  48  51
ENDBRANCH  34  37
ENDBRANCH  31  34
ENDBRANCH   3  31
TORSDOF 10
ENDMDL
MODEL 5
REMARK VINA RESULT:      -6.1      4.971      6.924
REMARK  10 active torsions:
REMARK  status: ('A' for Active; 'I' for Inactive)
REMARK    1  A    between atoms: C_1  and  C_2 
REMARK    2  A    between atoms: C_6  and  O_31 
REMARK    3  A    between atoms: C_12  and  C_13 
REMARK    4  A    between atoms: C_13  and  C_14 
REMARK       I    between atoms: C_14  and  N_16 
REMARK    5  A    between atoms: N_16  and  C_17 
REMARK    6  A    between atoms: C_17  and  C_18 
REMARK    7  A    between atoms: C_18  and  C_19 
REMARK    8  A    between atoms: C_26  and  O_29 
REMARK    9  A    between atoms: O_29  and  C_30 
REMARK   10  A    between atoms: O_31  and  C_32 
ROOT
ATOM      1  C   LIG d   1       7.325   1.763  -8.422  0.00  0.00     0.218 C 
ATOM      2  O   LIG d   1       6.904   2.584  -9.210  0.00  0.00    -0.276 OA
ATOM      3  N   LIG d   1       6.477   0.896  -7.834  0.00  0.00    -0.315 N 
ATOM      4  H   LIG d   1       6.814   0.240  -7.205  0.00  0.00     0.149 HD
ENDROOT
BRANCH   1   5
ATOM      5  C   LIG d   1       8.796   1.712  -8.102  0.00  0.00     0.056 C 
ATOM      6  H   LIG d   1       9.355   2.241  -8.874  0.00  0.00     0.041 H 
ATOM      7  H   LIG d   1       9.124   0.674  -8.062  0.00  0.00     0.041 H 
BRANCH   5   8
ATOM      8  C   LIG d   1       9.042   2.369  -6.767  0.00  0.00     0.049 A 
ATOM      9  C   LIG d   1       9.405   3.676  -6.708  0.00  0.00    -0.029 A 
ATOM     10  C   LIG d   1       9.634   4.272  -5.390  0.00  0.00     0.021 A 
ATOM     11  C   LIG d   1       9.472   3.472  -4.243  0.00  0.00     0.143 A 
ATOM     12  C   LIG d   1      10.009   5.614  -5.260  0.00  0.00    -0.047 A 
ATOM     13  C   LIG d   1       9.687   4.027  -2.990  0.00  0.00     0.023 A 
ATOM     14  O   LIG d   1       9.109   2.178  -4.372  0.00  0.00    -0.422 OA
ATOM     15  C   LIG d   1      10.058   5.357  -2.880  0.00  0.00     0.124 A 
ATOM     16  H   LIG d   1       9.565   3.424  -2.102  0.00  0.00     0.069 H 
ATOM     17  C   LIG d   1      10.217   6.144  -4.020  0.00  0.00    -0.019 A 
ATOM     18  H   LIG d   1      10.506   7.179  -3.920  0.00  0.00     0.065 H 
ATOM     19  C   LIG d   1       8.897   1.626  -5.577  0.00  0.00     0.341 A 
ATOM     20  O   LIG d   1       8.573   0.454  -5.645  0.00  0.00    -0.245 OA
ATOM     21  H   LIG d   1      10.134   6.228  -6.139  0.00  0.00     0.063 H 
BRANCH   9  22
ATOM     22  C   LIG d   1       9.567   4.493  -7.964  0.00  0.00    -0.038 C 
ATOM     23  H   LIG d   1      10.600   4.433  -8.306  0.00  0.00     0.028 H 
ATOM     24  H   LIG d   1       8.905   4.103  -8.738  0.00  0.00     0.028 H 
ATOM     25  H   LIG d   1       9.312   5.532  -7.757  0.00  0.00     0.028 H 
ENDBRANCH   9  22
BRANCH  15  26
ATOM     26  O   LIG d   1      10.262   5.900  -1.654  0.00  0.00    -0.495 OA
BRANCH  26  27
ATOM     27  C   LIG d   1       9.649   7.164  -1.393  0.00  0.00     0.079 C 
ATOM     28  H   LIG d   1      10.039   7.571  -0.459  0.00  0.00     0.066 H 
ATOM     29  H   LIG d   1       9.872   7.851  -2.209  0.00  0.00     0.066 H 
ATOM     30  H   LIG d   1       8.570   7.035  -1.310  0.00  0.00     0.066 H 
ENDBRANCH  26  27
ENDBRANCH  15  26
ENDBRANCH   5   8
ENDBRANCH   1   5
BRANCH   3  31
ATOM     31  C   LIG d   1       5.046   0.945  -8.146  0.00  0.00     0.016 C 
ATOM     32  H   LIG d   1       4.575   1.740  -7.568  0.00  0.00     0.046 H 
ATOM     33  H   LIG d   1       4.913   1.143  -9.210  0.00  0.00     0.046 H 
BRANCH  31  34
ATOM     34  C   LIG d   1       4.400  -0.396  -7.790  0.00  0.00    -0.010 C 
ATOM     35  H   LIG d   1       3.651  -0.647  -8.541  0.00  0.00     0.033 H 
ATOM     36  H   LIG d   1       5.166  -1.172  -7.765  0.00  0.00     0.033 H 
BRANCH  34  37
ATOM     37  C   LIG d   1       3.744  -0.294  -6.438  0.00  0.00    -0.021 A 
ATOM     38  C   LIG d   1       4.327  -0.695  -5.154  0.00  0.00     0.006 A 
ATOM     39  C   LIG d   1       3.354  -0.410  -4.179  0.00  0.00     0.047 A 
ATOM     40  C   LIG d   1       5.558  -1.234  -4.776  0.00  0.00    -0.011 A 
ATOM     41  N   LIG d   1       2.261   0.114  -4.837  0.00  0.00    -0.360 N 
ATOM     42  C   LIG d   1       3.623  -0.684  -2.843  0.00  0.00    -0.034 A 
ATOM     43  C   LIG d   1       2.513   0.175  -6.180  0.00  0.00     0.006 A 
ATOM     44  H   LIG d   1       1.437   0.397  -4.411  0.00  0.00     0.165 HD
ATOM     45  H   LIG d   1       1.824   0.546  -6.925  0.00  0.00     0.081 H 
ATOM     46  C   LIG d   1       4.838  -1.222  -2.481  0.00  0.00    -0.018 A 
ATOM     47  H   LIG d   1       2.880  -0.473  -2.088  0.00  0.00     0.064 H 
ATOM     48  C   LIG d   1       5.806  -1.498  -3.444  0.00  0.00     0.121 A 
ATOM     49  H   LIG d   1       5.042  -1.432  -1.442  0.00  0.00     0.066 H 
ATOM     50  H   LIG d   1       6.310  -1.449  -5.521  0.00  0.00     0.066 H 
BRANCH  48  51
ATOM     51  O   LIG d   1       7.000  -2.029  -3.069  0.00  0.00    -0.495 OA
BRANCH  51  52
ATOM     52  C   LIG d   1       7.676  -2.849  -4.026  0.00  0.00     0.079 C 
ATOM     53  H   LIG d   1       7.079  -2.912  -4.935  0.00  0.00     0.066 H 
ATOM     54  H   LIG d   1       8.647  -2.410  -4.258  0.00  0.00     0.066 H 
ATOM     55  H   LIG d   1       7.816  -3.847  -3.613  0.00  0.00     0.066 H 
ENDBRANCH  51  52
ENDBRANCH  48  51
ENDBRANCH  34  37
ENDBRANCH  31  34
ENDBRANCH   3  31
TORSDOF 10
ENDMDL
MODEL 6
REMARK VINA RESULT:      -6.1      4.509      6.825
REMARK  10 active torsions:
REMARK  status: ('A' for Active; 'I' for Inactive)
REMARK    1  A    between atoms: C_1  and  C_2 
REMARK    2  A    between atoms: C_6  and  O_31 
REMARK    3  A    between atoms: C_12  and  C_13 
REMARK    4  A    between atoms: C_13  and  C_14 
REMARK       I    between atoms: C_14  and  N_16 
REMARK    5  A    between atoms: N_16  and  C_17 
REMARK    6  A    between atoms: C_17  and  C_18 
REMARK    7  A    between atoms: C_18  and  C_19 
REMARK    8  A    between atoms: C_26  and  O_29 
REMARK    9  A    between atoms: O_29  and  C_30 
REMARK   10  A    between atoms: O_31  and  C_32 
ROOT
ATOM      1  C   LIG d   1       5.913   1.406  -8.763  0.00  0.00     0.218 C 
ATOM      2  O   LIG d   1       5.562   2.395  -9.371  0.00  0.00    -0.276 OA
ATOM      3  N   LIG d   1       4.998   0.639  -8.137  0.00  0.00    -0.315 N 
ATOM      4  H   LIG d   1       5.280  -0.151  -7.651  0.00  0.00     0.149 HD
ENDROOT
BRANCH   1   5
ATOM      5  C   LIG d   1       7.372   1.034  -8.707  0.00  0.00     0.056 C 
ATOM      6  H   LIG d   1       7.807   1.119  -9.703  0.00  0.00     0.041 H 
ATOM      7  H   LIG d   1       7.473   0.009  -8.353  0.00  0.00     0.041 H 
BRANCH   5   8
ATOM      8  C   LIG d   1       8.092   1.965  -7.764  0.00  0.00     0.049 A 
ATOM      9  C   LIG d   1       8.131   1.691  -6.435  0.00  0.00    -0.029 A 
ATOM     10  C   LIG d   1       8.841   2.623  -5.556  0.00  0.00     0.021 A 
ATOM     11  C   LIG d   1       9.451   3.759  -6.119  0.00  0.00     0.143 A 
ATOM     12  C   LIG d   1       8.917   2.397  -4.177  0.00  0.00    -0.047 A 
ATOM     13  C   LIG d   1      10.126   4.648  -5.296  0.00  0.00     0.023 A 
ATOM     14  O   LIG d   1       9.375   3.973  -7.451  0.00  0.00    -0.422 OA
ATOM     15  C   LIG d   1      10.192   4.410  -3.933  0.00  0.00     0.124 A 
ATOM     16  H   LIG d   1      10.599   5.524  -5.716  0.00  0.00     0.069 H 
ATOM     17  C   LIG d   1       9.585   3.282  -3.381  0.00  0.00    -0.019 A 
ATOM     18  H   LIG d   1       9.645   3.108  -2.318  0.00  0.00     0.065 H 
ATOM     19  C   LIG d   1       8.726   3.122  -8.261  0.00  0.00     0.341 A 
ATOM     20  O   LIG d   1       8.683   3.356  -9.456  0.00  0.00    -0.245 OA
ATOM     21  H   LIG d   1       8.450   1.526  -3.745  0.00  0.00     0.063 H 
BRANCH   9  22
ATOM     22  C   LIG d   1       7.461   0.461  -5.878  0.00  0.00    -0.038 C 
ATOM     23  H   LIG d   1       6.620   0.758  -5.251  0.00  0.00     0.028 H 
ATOM     24  H   LIG d   1       7.101  -0.160  -6.698  0.00  0.00     0.028 H 
ATOM     25  H   LIG d   1       8.177  -0.104  -5.281  0.00  0.00     0.028 H 
ENDBRANCH   9  22
BRANCH  15  26
ATOM     26  O   LIG d   1      10.857   5.277  -3.130  0.00  0.00    -0.495 OA
BRANCH  26  27
ATOM     27  C   LIG d   1      10.067   6.149  -2.320  0.00  0.00     0.079 C 
ATOM     28  H   LIG d   1       9.104   6.320  -2.803  0.00  0.00     0.066 H 
ATOM     29  H   LIG d   1       9.907   5.694  -1.343  0.00  0.00     0.066 H 
ATOM     30  H   LIG d   1      10.585   7.101  -2.197  0.00  0.00     0.066 H 
ENDBRANCH  26  27
ENDBRANCH  15  26
ENDBRANCH   5   8
ENDBRANCH   1   5
BRANCH   3  31
ATOM     31  C   LIG d   1       3.580   1.001  -8.191  0.00  0.00     0.016 C 
ATOM     32  H   LIG d   1       3.444   2.003  -7.786  0.00  0.00     0.046 H 
ATOM     33  H   LIG d   1       3.238   0.977  -9.226  0.00  0.00     0.046 H 
BRANCH  31  34
ATOM     34  C   LIG d   1       2.767   0.002  -7.363  0.00  0.00    -0.010 C 
ATOM     35  H   LIG d   1       1.704   0.166  -7.539  0.00  0.00     0.033 H 
ATOM     36  H   LIG d   1       3.033  -1.013  -7.656  0.00  0.00     0.033 H 
BRANCH  34  37
ATOM     37  C   LIG d   1       3.071   0.198  -5.900  0.00  0.00    -0.021 A 
ATOM     38  C   LIG d   1       3.926  -0.651  -5.067  0.00  0.00     0.006 A 
ATOM     39  C   LIG d   1       3.913  -0.077  -3.783  0.00  0.00     0.047 A 
ATOM     40  C   LIG d   1       4.684  -1.799  -5.310  0.00  0.00    -0.011 A 
ATOM     41  N   LIG d   1       3.097   1.033  -3.844  0.00  0.00    -0.360 N 
ATOM     42  C   LIG d   1       4.647  -0.668  -2.761  0.00  0.00    -0.034 A 
ATOM     43  C   LIG d   1       2.605   1.180  -5.112  0.00  0.00     0.006 A 
ATOM     44  H   LIG d   1       2.901   1.622  -3.099  0.00  0.00     0.165 HD
ATOM     45  H   LIG d   1       1.942   1.969  -5.433  0.00  0.00     0.081 H 
ATOM     46  C   LIG d   1       5.386  -1.803  -3.010  0.00  0.00    -0.018 A 
ATOM     47  H   LIG d   1       4.639  -0.235  -1.770  0.00  0.00     0.064 H 
ATOM     48  C   LIG d   1       5.407  -2.370  -4.282  0.00  0.00     0.121 A 
ATOM     49  H   LIG d   1       5.954  -2.257  -2.212  0.00  0.00     0.066 H 
ATOM     50  H   LIG d   1       4.702  -2.240  -6.296  0.00  0.00     0.066 H 
BRANCH  48  51
ATOM     51  O   LIG d   1       6.142  -3.490  -4.511  0.00  0.00    -0.495 OA
BRANCH  51  52
ATOM     52  C   LIG d   1       7.563  -3.365  -4.420  0.00  0.00     0.079 C 
ATOM     53  H   LIG d   1       7.815  -2.678  -3.612  0.00  0.00     0.066 H 
ATOM     54  H   LIG d   1       8.000  -4.343  -4.215  0.00  0.00     0.066 H 
ATOM     55  H   LIG d   1       7.954  -2.980  -5.360  0.00  0.00     0.066 H 
ENDBRANCH  51  52
ENDBRANCH  48  51
ENDBRANCH  34  37
ENDBRANCH  31  34
ENDBRANCH   3  31
TORSDOF 10
ENDMDL
MODEL 7
REMARK VINA RESULT:      -6.0      2.580      7.417
REMARK  10 active torsions:
REMARK  status: ('A' for Active; 'I' for Inactive)
REMARK    1  A    between atoms: C_1  and  C_2 
REMARK    2  A    between atoms: C_6  and  O_31 
REMARK    3  A    between atoms: C_12  and  C_13 
REMARK    4  A    between atoms: C_13  and  C_14 
REMARK       I    between atoms: C_14  and  N_16 
REMARK    5  A    between atoms: N_16  and  C_17 
REMARK    6  A    between atoms: C_17  and  C_18 
REMARK    7  A    between atoms: C_18  and  C_19 
REMARK    8  A    between atoms: C_26  and  O_29 
REMARK    9  A    between atoms: O_29  and  C_30 
REMARK   10  A    between atoms: O_31  and  C_32 
ROOT
ATOM      1  C   LIG d   1       3.271   0.625  -7.163  0.00  0.00     0.218 C 
ATOM      2  O   LIG d   1       2.788   1.735  -7.076  0.00  0.00    -0.276 OA
ATOM      3  N   LIG d   1       3.186  -0.230  -6.125  0.00  0.00    -0.315 N 
ATOM      4  H   LIG d   1       3.572  -1.117  -6.196  0.00  0.00     0.149 HD
ENDROOT
BRANCH   1   5
ATOM      5  C   LIG d   1       3.966   0.205  -8.431  0.00  0.00     0.056 C 
ATOM      6  H   LIG d   1       5.045   0.294  -8.302  0.00  0.00     0.041 H 
ATOM      7  H   LIG d   1       3.645   0.845  -9.252  0.00  0.00     0.041 H 
BRANCH   5   8
ATOM      8  C   LIG d   1       3.616  -1.228  -8.745  0.00  0.00     0.049 A 
ATOM      9  C   LIG d   1       2.499  -1.514  -9.463  0.00  0.00    -0.029 A 
ATOM     10  C   LIG d   1       2.198  -2.920  -9.743  0.00  0.00     0.021 A 
ATOM     11  C   LIG d   1       3.071  -3.913  -9.262  0.00  0.00     0.143 A 
ATOM     12  C   LIG d   1       1.063  -3.281 -10.478  0.00  0.00    -0.047 A 
ATOM     13  C   LIG d   1       2.796  -5.247  -9.522  0.00  0.00     0.023 A 
ATOM     14  O   LIG d   1       4.166  -3.560  -8.554  0.00  0.00    -0.422 OA
ATOM     15  C   LIG d   1       1.668  -5.587 -10.250  0.00  0.00     0.124 A 
ATOM     16  H   LIG d   1       3.458  -6.019  -9.158  0.00  0.00     0.069 H 
ATOM     17  C   LIG d   1       0.806  -4.599 -10.725  0.00  0.00    -0.019 A 
ATOM     18  H   LIG d   1      -0.069  -4.877 -11.291  0.00  0.00     0.065 H 
ATOM     19  C   LIG d   1       4.448  -2.274  -8.294  0.00  0.00     0.341 A 
ATOM     20  O   LIG d   1       5.446  -2.003  -7.650  0.00  0.00    -0.245 OA
ATOM     21  H   LIG d   1       0.393  -2.520 -10.847  0.00  0.00     0.063 H 
BRANCH   9  22
ATOM     22  C   LIG d   1       1.594  -0.416  -9.957  0.00  0.00    -0.038 C 
ATOM     23  H   LIG d   1       1.164   0.112  -9.105  0.00  0.00     0.028 H 
ATOM     24  H   LIG d   1       2.168   0.283 -10.565  0.00  0.00     0.028 H 
ATOM     25  H   LIG d   1       0.793  -0.848 -10.557  0.00  0.00     0.028 H 
ENDBRANCH   9  22
BRANCH  15  26
ATOM     26  O   LIG d   1       1.401  -6.892 -10.509  0.00  0.00    -0.495 OA
BRANCH  26  27
ATOM     27  C   LIG d   1       0.104  -7.374 -10.153  0.00  0.00     0.079 C 
ATOM     28  H   LIG d   1      -0.171  -6.983  -9.173  0.00  0.00     0.066 H 
ATOM     29  H   LIG d   1      -0.623  -7.042 -10.893  0.00  0.00     0.066 H 
ATOM     30  H   LIG d   1       0.118  -8.463 -10.119  0.00  0.00     0.066 H 
ENDBRANCH  26  27
ENDBRANCH  15  26
ENDBRANCH   5   8
ENDBRANCH   1   5
BRANCH   3  31
ATOM     31  C   LIG d   1       2.510   0.179  -4.892  0.00  0.00     0.016 C 
ATOM     32  H   LIG d   1       2.842   1.178  -4.609  0.00  0.00     0.046 H 
ATOM     33  H   LIG d   1       1.432   0.188  -5.054  0.00  0.00     0.046 H 
BRANCH  31  34
ATOM     34  C   LIG d   1       2.849  -0.808  -3.772  0.00  0.00    -0.010 C 
ATOM     35  H   LIG d   1       2.390  -0.473  -2.842  0.00  0.00     0.033 H 
ATOM     36  H   LIG d   1       2.466  -1.795  -4.032  0.00  0.00     0.033 H 
BRANCH  34  37
ATOM     37  C   LIG d   1       4.344  -0.878  -3.600  0.00  0.00    -0.021 A 
ATOM     38  C   LIG d   1       5.217  -1.980  -4.011  0.00  0.00     0.006 A 
ATOM     39  C   LIG d   1       6.522  -1.598  -3.652  0.00  0.00     0.047 A 
ATOM     40  C   LIG d   1       4.999  -3.205  -4.645  0.00  0.00    -0.011 A 
ATOM     41  N   LIG d   1       6.432  -0.356  -3.058  0.00  0.00    -0.360 N 
ATOM     42  C   LIG d   1       7.585  -2.452  -3.921  0.00  0.00    -0.034 A 
ATOM     43  C   LIG d   1       5.128   0.055  -3.037  0.00  0.00     0.006 A 
ATOM     44  H   LIG d   1       7.182   0.150  -2.708  0.00  0.00     0.165 HD
ATOM     45  H   LIG d   1       4.779   0.992  -2.628  0.00  0.00     0.081 H 
ATOM     46  C   LIG d   1       7.358  -3.660  -4.542  0.00  0.00    -0.018 A 
ATOM     47  H   LIG d   1       8.591  -2.168  -3.645  0.00  0.00     0.064 H 
ATOM     48  C   LIG d   1       6.068  -4.039  -4.905  0.00  0.00     0.121 A 
ATOM     49  H   LIG d   1       8.188  -4.320  -4.749  0.00  0.00     0.066 H 
ATOM     50  H   LIG d   1       3.999  -3.500  -4.927  0.00  0.00     0.066 H 
BRANCH  48  51
ATOM     51  O   LIG d   1       5.861  -5.235  -5.517  0.00  0.00    -0.495 OA
BRANCH  51  52
ATOM     52  C   LIG d   1       4.504  -5.628  -5.735  0.00  0.00     0.079 C 
ATOM     53  H   LIG d   1       4.153  -6.208  -4.883  0.00  0.00     0.066 H 
ATOM     54  H   LIG d   1       3.883  -4.739  -5.850  0.00  0.00     0.066 H 
ATOM     55  H   LIG d   1       4.442  -6.234  -6.639  0.00  0.00     0.066 H 
ENDBRANCH  51  52
ENDBRANCH  48  51
ENDBRANCH  34  37
ENDBRANCH  31  34
ENDBRANCH   3  31
TORSDOF 10
ENDMDL
MODEL 8
REMARK VINA RESULT:      -6.0      5.600      8.569
REMARK  10 active torsions:
REMARK  status: ('A' for Active; 'I' for Inactive)
REMARK    1  A    between atoms: C_1  and  C_2 
REMARK    2  A    between atoms: C_6  and  O_31 
REMARK    3  A    between atoms: C_12  and  C_13 
REMARK    4  A    between atoms: C_13  and  C_14 
REMARK       I    between atoms: C_14  and  N_16 
REMARK    5  A    between atoms: N_16  and  C_17 
REMARK    6  A    between atoms: C_17  and  C_18 
REMARK    7  A    between atoms: C_18  and  C_19 
REMARK    8  A    between atoms: C_26  and  O_29 
REMARK    9  A    between atoms: O_29  and  C_30 
REMARK   10  A    between atoms: O_31  and  C_32 
ROOT
ATOM      1  C   LIG d   1       7.353   1.100  -4.623  0.00  0.00     0.218 C 
ATOM      2  O   LIG d   1       6.615   0.763  -5.525  0.00  0.00    -0.276 OA
ATOM      3  N   LIG d   1       6.851   1.339  -3.395  0.00  0.00    -0.315 N 
ATOM      4  H   LIG d   1       7.442   1.608  -2.675  0.00  0.00     0.149 HD
ENDROOT
BRANCH   1   5
ATOM      5  C   LIG d   1       8.830   1.252  -4.876  0.00  0.00     0.056 C 
ATOM      6  H   LIG d   1       9.126   0.607  -5.704  0.00  0.00     0.041 H 
ATOM      7  H   LIG d   1       9.384   0.970  -3.980  0.00  0.00     0.041 H 
BRANCH   5   8
ATOM      8  C   LIG d   1       9.136   2.687  -5.224  0.00  0.00     0.049 A 
ATOM      9  C   LIG d   1       9.244   3.063  -6.525  0.00  0.00    -0.029 A 
ATOM     10  C   LIG d   1       9.543   4.467  -6.816  0.00  0.00     0.021 A 
ATOM     11  C   LIG d   1       9.706   5.366  -5.745  0.00  0.00     0.143 A 
ATOM     12  C   LIG d   1       9.667   4.919  -8.134  0.00  0.00    -0.047 A 
ATOM     13  C   LIG d   1       9.988   6.697  -6.010  0.00  0.00     0.023 A 
ATOM     14  O   LIG d   1       9.584   4.925  -4.474  0.00  0.00    -0.422 OA
ATOM     15  C   LIG d   1      10.108   7.128  -7.321  0.00  0.00     0.124 A 
ATOM     16  H   LIG d   1      10.115   7.397  -5.197  0.00  0.00     0.069 H 
ATOM     17  C   LIG d   1       9.946   6.233  -8.378  0.00  0.00    -0.019 A 
ATOM     18  H   LIG d   1      10.042   6.581  -9.395  0.00  0.00     0.065 H 
ATOM     19  C   LIG d   1       9.311   3.641  -4.200  0.00  0.00     0.341 A 
ATOM     20  O   LIG d   1       9.211   3.289  -3.038  0.00  0.00    -0.245 OA
ATOM     21  H   LIG d   1       9.543   4.231  -8.956  0.00  0.00     0.063 H 
BRANCH   9  22
ATOM     22  C   LIG d   1       9.063   2.064  -7.638  0.00  0.00    -0.038 C 
ATOM     23  H   LIG d   1       8.835   1.085  -7.215  0.00  0.00     0.028 H 
ATOM     24  H   LIG d   1       8.241   2.382  -8.280  0.00  0.00     0.028 H 
ATOM     25  H   LIG d   1       9.979   2.003  -8.224  0.00  0.00     0.028 H 
ENDBRANCH   9  22
BRANCH  15  26
ATOM     26  O   LIG d   1      10.379   8.431  -7.580  0.00  0.00    -0.495 OA
BRANCH  26  27
ATOM     27  C   LIG d   1       9.902   9.393  -6.637  0.00  0.00     0.079 C 
ATOM     28  H   LIG d   1      10.324  10.371  -6.871  0.00  0.00     0.066 H 
ATOM     29  H   LIG d   1       8.814   9.445  -6.689  0.00  0.00     0.066 H 
ATOM     30  H   LIG d   1      10.204   9.099  -5.632  0.00  0.00     0.066 H 
ENDBRANCH  26  27
ENDBRANCH  15  26
ENDBRANCH   5   8
ENDBRANCH   1   5
BRANCH   3  31
ATOM     31  C   LIG d   1       5.415   1.192  -3.149  0.00  0.00     0.016 C 
ATOM     32  H   LIG d   1       5.047   2.063  -2.607  0.00  0.00     0.046 H 
ATOM     33  H   LIG d   1       4.890   1.110  -4.102  0.00  0.00     0.046 H 
BRANCH  31  34
ATOM     34  C   LIG d   1       5.165  -0.069  -2.319  0.00  0.00    -0.010 C 
ATOM     35  H   LIG d   1       6.031  -0.264  -1.687  0.00  0.00     0.033 H 
ATOM     36  H   LIG d   1       4.284   0.077  -1.694  0.00  0.00     0.033 H 
BRANCH  34  37
ATOM     37  C   LIG d   1       4.940  -1.240  -3.239  0.00  0.00    -0.021 A 
ATOM     38  C   LIG d   1       5.955  -2.186  -3.710  0.00  0.00     0.006 A 
ATOM     39  C   LIG d   1       5.280  -3.102  -4.538  0.00  0.00     0.047 A 
ATOM     40  C   LIG d   1       7.326  -2.327  -3.486  0.00  0.00    -0.011 A 
ATOM     41  N   LIG d   1       3.955  -2.722  -4.567  0.00  0.00    -0.360 N 
ATOM     42  C   LIG d   1       5.991  -4.135  -5.138  0.00  0.00    -0.034 A 
ATOM     43  C   LIG d   1       3.772  -1.612  -3.788  0.00  0.00     0.006 A 
ATOM     44  H   LIG d   1       3.257  -3.174  -5.064  0.00  0.00     0.165 HD
ATOM     45  H   LIG d   1       2.829  -1.110  -3.635  0.00  0.00     0.081 H 
ATOM     46  C   LIG d   1       7.344  -4.261  -4.915  0.00  0.00    -0.018 A 
ATOM     47  H   LIG d   1       5.481  -4.841  -5.778  0.00  0.00     0.064 H 
ATOM     48  C   LIG d   1       8.014  -3.360  -4.091  0.00  0.00     0.121 A 
ATOM     49  H   LIG d   1       7.890  -5.066  -5.384  0.00  0.00     0.066 H 
ATOM     50  H   LIG d   1       7.847  -1.629  -2.847  0.00  0.00     0.066 H 
BRANCH  48  51
ATOM     51  O   LIG d   1       9.350  -3.499  -3.882  0.00  0.00    -0.495 OA
BRANCH  51  52
ATOM     52  C   LIG d   1       9.754  -4.175  -2.689  0.00  0.00     0.079 C 
ATOM     53  H   LIG d   1       9.749  -3.474  -1.855  0.00  0.00     0.066 H 
ATOM     54  H   LIG d   1       9.060  -4.991  -2.482  0.00  0.00     0.066 H 
ATOM     55  H   LIG d   1      10.758  -4.576  -2.821  0.00  0.00     0.066 H 
ENDBRANCH  51  52
ENDBRANCH  48  51
ENDBRANCH  34  37
ENDBRANCH  31  34
ENDBRANCH   3  31
TORSDOF 10
ENDMDL
MODEL 9
REMARK VINA RESULT:      -6.0      4.976      8.790
REMARK  10 active torsions:
REMARK  status: ('A' for Active; 'I' for Inactive)
REMARK    1  A    between atoms: C_1  and  C_2 
REMARK    2  A    between atoms: C_6  and  O_31 
REMARK    3  A    between atoms: C_12  and  C_13 
REMARK    4  A    between atoms: C_13  and  C_14 
REMARK       I    between atoms: C_14  and  N_16 
REMARK    5  A    between atoms: N_16  and  C_17 
REMARK    6  A    between atoms: C_17  and  C_18 
REMARK    7  A    between atoms: C_18  and  C_19 
REMARK    8  A    between atoms: C_26  and  O_29 
REMARK    9  A    between atoms: O_29  and  C_30 
REMARK   10  A    between atoms: O_31  and  C_32 
ROOT
ATOM      1  C   LIG d   1       7.539  -6.981  -5.713  0.00  0.00     0.218 C 
ATOM      2  O   LIG d   1       6.958  -8.044  -5.664  0.00  0.00    -0.276 OA
ATOM      3  N   LIG d   1       8.683  -6.805  -5.023  0.00  0.00    -0.315 N 
ATOM      4  H   LIG d   1       9.146  -5.955  -5.063  0.00  0.00     0.149 HD
ENDROOT
BRANCH   1   5
ATOM      5  C   LIG d   1       6.980  -5.855  -6.545  0.00  0.00     0.056 C 
ATOM      6  H   LIG d   1       6.276  -6.256  -7.273  0.00  0.00     0.041 H 
ATOM      7  H   LIG d   1       7.793  -5.350  -7.066  0.00  0.00     0.041 H 
BRANCH   5   8
ATOM      8  C   LIG d   1       6.270  -4.872  -5.649  0.00  0.00     0.049 A 
ATOM      9  C   LIG d   1       6.931  -3.785  -5.173  0.00  0.00    -0.029 A 
ATOM     10  C   LIG d   1       6.202  -2.857  -4.306  0.00  0.00     0.021 A 
ATOM     11  C   LIG d   1       4.854  -3.126  -4.000  0.00  0.00     0.143 A 
ATOM     12  C   LIG d   1       6.825  -1.718  -3.783  0.00  0.00    -0.047 A 
ATOM     13  C   LIG d   1       4.154  -2.253  -3.180  0.00  0.00     0.023 A 
ATOM     14  O   LIG d   1       4.257  -4.226  -4.507  0.00  0.00    -0.422 OA
ATOM     15  C   LIG d   1       4.787  -1.131  -2.671  0.00  0.00     0.124 A 
ATOM     16  H   LIG d   1       3.120  -2.448  -2.939  0.00  0.00     0.069 H 
ATOM     17  C   LIG d   1       6.122  -0.870  -2.977  0.00  0.00    -0.019 A 
ATOM     18  H   LIG d   1       6.603   0.008  -2.574  0.00  0.00     0.065 H 
ATOM     19  C   LIG d   1       4.919  -5.080  -5.303  0.00  0.00     0.341 A 
ATOM     20  O   LIG d   1       4.339  -6.059  -5.736  0.00  0.00    -0.245 OA
ATOM     21  H   LIG d   1       7.858  -1.512  -4.017  0.00  0.00     0.063 H 
BRANCH   9  22
ATOM     22  C   LIG d   1       8.375  -3.540  -5.527  0.00  0.00    -0.038 C 
ATOM     23  H   LIG d   1       9.017  -4.059  -4.815  0.00  0.00     0.028 H 
ATOM     24  H   LIG d   1       8.571  -3.914  -6.532  0.00  0.00     0.028 H 
ATOM     25  H   LIG d   1       8.582  -2.470  -5.490  0.00  0.00     0.028 H 
ENDBRANCH   9  22
BRANCH  15  26
ATOM     26  O   LIG d   1       4.100  -0.275  -1.874  0.00  0.00    -0.495 OA
BRANCH  26  27
ATOM     27  C   LIG d   1       4.565   1.075  -1.817  0.00  0.00     0.079 C 
ATOM     28  H   LIG d   1       4.431   1.546  -2.792  0.00  0.00     0.066 H 
ATOM     29  H   LIG d   1       3.996   1.625  -1.068  0.00  0.00     0.066 H 
ATOM     30  H   LIG d   1       5.622   1.085  -1.551  0.00  0.00     0.066 H 
ENDBRANCH  26  27
ENDBRANCH  15  26
ENDBRANCH   5   8
ENDBRANCH   1   5
BRANCH   3  31
ATOM     31  C   LIG d   1       9.226  -7.899  -4.214  0.00  0.00     0.016 C 
ATOM     32  H   LIG d   1       8.624  -8.795  -4.363  0.00  0.00     0.046 H 
ATOM     33  H   LIG d   1      10.254  -8.099  -4.516  0.00  0.00     0.046 H 
BRANCH  31  34
ATOM     34  C   LIG d   1       9.195  -7.504  -2.736  0.00  0.00    -0.010 C 
ATOM     35  H   LIG d   1      10.119  -6.984  -2.481  0.00  0.00     0.033 H 
ATOM     36  H   LIG d   1       8.345  -6.847  -2.554  0.00  0.00     0.033 H 
BRANCH  34  37
ATOM     37  C   LIG d   1       9.064  -8.742  -1.888  0.00  0.00    -0.021 A 
ATOM     38  C   LIG d   1       7.888  -9.613  -1.793  0.00  0.00     0.006 A 
ATOM     39  C   LIG d   1       8.232 -10.634  -0.890  0.00  0.00     0.047 A 
ATOM     40  C   LIG d   1       6.629  -9.609  -2.397  0.00  0.00    -0.011 A 
ATOM     41  N   LIG d   1       9.521 -10.385  -0.467  0.00  0.00    -0.360 N 
ATOM     42  C   LIG d   1       7.306 -11.628  -0.595  0.00  0.00    -0.034 A 
ATOM     43  C   LIG d   1       9.998  -9.255  -1.072  0.00  0.00     0.006 A 
ATOM     44  H   LIG d   1      10.015 -10.930   0.165  0.00  0.00     0.165 HD
ATOM     45  H   LIG d   1      10.981  -8.837  -0.917  0.00  0.00     0.081 H 
ATOM     46  C   LIG d   1       6.064 -11.611  -1.191  0.00  0.00    -0.018 A 
ATOM     47  H   LIG d   1       7.560 -12.415   0.101  0.00  0.00     0.064 H 
ATOM     48  C   LIG d   1       5.723 -10.605  -2.091  0.00  0.00     0.121 A 
ATOM     49  H   LIG d   1       5.349 -12.386  -0.958  0.00  0.00     0.066 H 
ATOM     50  H   LIG d   1       6.363  -8.829  -3.095  0.00  0.00     0.066 H 
BRANCH  48  51
ATOM     51  O   LIG d   1       4.494 -10.604  -2.671  0.00  0.00    -0.495 OA
BRANCH  51  52
ATOM     52  C   LIG d   1       4.366  -9.928  -3.924  0.00  0.00     0.079 C 
ATOM     53  H   LIG d   1       5.357  -9.698  -4.314  0.00  0.00     0.066 H 
ATOM     54  H   LIG d   1       3.838 -10.569  -4.630  0.00  0.00     0.066 H 
ATOM     55  H   LIG d   1       3.808  -9.003  -3.783  0.00  0.00     0.066 H 
ENDBRANCH  51  52
ENDBRANCH  48  51
ENDBRANCH  34  37
ENDBRANCH  31  34
ENDBRANCH   3  31
TORSDOF 10
ENDMDL
