MODEL 1
REMARK VINA RESULT:      -7.0      0.000      0.000
REMARK  10 active torsions:
REMARK  status: ('A' for Active; 'I' for Inactive)
REMARK    1  A    between atoms: C_1  and  O_2 
REMARK    2  A    between atoms: O_2  and  C_3 
REMARK    3  A    between atoms: C_5  and  C_13 
REMARK    4  A    between atoms: C_7  and  O_11 
REMARK    5  A    between atoms: C_8  and  O_9 
REMARK    6  A    between atoms: O_9  and  C_10 
REMARK    7  A    between atoms: O_11  and  C_12 
REMARK    8  A    between atoms: C_20  and  O_24 
REMARK    9  A    between atoms: O_24  and  C_25 
REMARK   10  A    between atoms: C_25  and  C_26 
ROOT
ATOM      1  C   LIG d   1       1.363  -3.074 -11.934  0.00  0.00    -0.008 C 
ATOM      2  C   LIG d   1       1.831  -2.090 -11.125  0.00  0.00     0.176 A 
ATOM      3  C   LIG d   1       2.598  -0.909 -11.548  0.00  0.00     0.232 A 
ATOM      4  O   LIG d   1       2.944  -0.610 -12.678  0.00  0.00    -0.283 OA
ATOM      5  C   LIG d   1       2.862  -0.172 -10.299  0.00  0.00     0.068 A 
ATOM      6  C   LIG d   1       3.526   1.021 -10.017  0.00  0.00    -0.044 A 
ATOM      7  C   LIG d   1       3.603   1.471  -8.729  0.00  0.00    -0.019 A 
ATOM      8  C   LIG d   1       3.016   0.742  -7.698  0.00  0.00     0.124 A 
ATOM      9  C   LIG d   1       2.349  -0.443  -7.963  0.00  0.00     0.023 A 
ATOM     10  C   LIG d   1       2.260  -0.913  -9.268  0.00  0.00     0.143 A 
ATOM     11  O   LIG d   1       1.677  -2.017  -9.782  0.00  0.00    -0.451 OA
ATOM     12  H   LIG d   1       1.471  -2.990 -13.005  0.00  0.00     0.066 H 
ATOM     13  H   LIG d   1       3.982   1.588 -10.815  0.00  0.00     0.063 H 
ATOM     14  H   LIG d   1       4.121   2.393  -8.510  0.00  0.00     0.065 H 
ATOM     15  H   LIG d   1       1.897  -1.000  -7.157  0.00  0.00     0.069 H 
ENDROOT
BRANCH   1  16
ATOM     16  C   LIG d   1       0.709  -4.253 -11.353  0.00  0.00    -0.014 A 
ATOM     17  C   LIG d   1      -0.682  -4.392 -11.429  0.00  0.00    -0.009 A 
ATOM     18  C   LIG d   1      -1.294  -5.504 -10.881  0.00  0.00     0.166 A 
ATOM     19  H   LIG d   1      -1.277  -3.633 -11.914  0.00  0.00     0.066 H 
ATOM     20  C   LIG d   1      -0.529  -6.485 -10.254  0.00  0.00     0.203 A 
ATOM     21  C   LIG d   1       0.856  -6.349 -10.177  0.00  0.00     0.166 A 
ATOM     22  C   LIG d   1       1.476  -5.243 -10.727  0.00  0.00    -0.009 A 
ATOM     23  H   LIG d   1       2.549  -5.142 -10.670  0.00  0.00     0.066 H 
BRANCH  18  24
ATOM     24  O   LIG d   1      -2.645  -5.641 -10.954  0.00  0.00    -0.491 OA
BRANCH  24  25
ATOM     25  C   LIG d   1      -3.420  -4.968  -9.960  0.00  0.00     0.079 C 
ATOM     26  H   LIG d   1      -2.895  -5.004  -9.005  0.00  0.00     0.066 H 
ATOM     27  H   LIG d   1      -3.565  -3.928 -10.255  0.00  0.00     0.066 H 
ATOM     28  H   LIG d   1      -4.388  -5.456  -9.861  0.00  0.00     0.066 H 
ENDBRANCH  24  25
ENDBRANCH  18  24
BRANCH  20  29
ATOM     29  O   LIG d   1      -1.134  -7.576  -9.716  0.00  0.00    -0.488 OA
BRANCH  29  30
ATOM     30  C   LIG d   1      -1.355  -8.689 -10.585  0.00  0.00     0.079 C 
ATOM     31  H   LIG d   1      -0.963  -9.595 -10.123  0.00  0.00     0.066 H 
ATOM     32  H   LIG d   1      -2.424  -8.806 -10.761  0.00  0.00     0.066 H 
ATOM     33  H   LIG d   1      -0.847  -8.517 -11.534  0.00  0.00     0.066 H 
ENDBRANCH  29  30
ENDBRANCH  20  29
BRANCH  21  34
ATOM     34  O   LIG d   1       1.599  -7.310  -9.564  0.00  0.00    -0.491 OA
BRANCH  34  35
ATOM     35  C   LIG d   1       2.459  -8.092 -10.395  0.00  0.00     0.079 C 
ATOM     36  H   LIG d   1       3.040  -7.433 -11.039  0.00  0.00     0.066 H 
ATOM     37  H   LIG d   1       3.134  -8.677  -9.769  0.00  0.00     0.066 H 
ATOM     38  H   LIG d   1       1.859  -8.765 -11.008  0.00  0.00     0.066 H 
ENDBRANCH  34  35
ENDBRANCH  21  34
ENDBRANCH   1  16
BRANCH   8  39
ATOM     39  O   LIG d   1       3.099   1.196  -6.422  0.00  0.00    -0.487 OA
BRANCH  39  40
ATOM     40  C   LIG d   1       2.136   0.696  -5.491  0.00  0.00     0.115 C 
ATOM     41  H   LIG d   1       1.445   1.494  -5.220  0.00  0.00     0.075 H 
ATOM     42  H   LIG d   1       1.582  -0.125  -5.948  0.00  0.00     0.075 H 
BRANCH  40  43
ATOM     43  C   LIG d   1       2.841   0.200  -4.255  0.00  0.00    -0.010 A 
ATOM     44  C   LIG d   1       2.908  -1.156  -3.995  0.00  0.00    -0.053 A 
ATOM     45  C   LIG d   1       3.555  -1.613  -2.863  0.00  0.00    -0.026 A 
ATOM     46  H   LIG d   1       2.455  -1.859  -4.678  0.00  0.00     0.062 H 
ATOM     47  C   LIG d   1       4.137  -0.711  -1.987  0.00  0.00     0.123 A 
ATOM     48  H   LIG d   1       3.607  -2.672  -2.660  0.00  0.00     0.065 H 
ATOM     49  C   LIG d   1       4.069   0.648  -2.248  0.00  0.00    -0.026 A 
ATOM     50  F   LIG d   1       4.768  -1.155  -0.879  0.00  0.00    -0.205 F 
ATOM     51  C   LIG d   1       3.426   1.101  -3.385  0.00  0.00    -0.053 A 
ATOM     52  H   LIG d   1       4.522   1.352  -1.567  0.00  0.00     0.065 H 
ATOM     53  H   LIG d   1       3.376   2.161  -3.591  0.00  0.00     0.062 H 
ENDBRANCH  40  43
ENDBRANCH  39  40
ENDBRANCH   8  39
TORSDOF 10
ENDMDL
MODEL 2
REMARK VINA RESULT:      -7.0      0.107      2.230
REMARK  10 active torsions:
REMARK  status: ('A' for Active; 'I' for Inactive)
REMARK    1  A    between atoms: C_1  and  O_2 
REMARK    2  A    between atoms: O_2  and  C_3 
REMARK    3  A    between atoms: C_5  and  C_13 
REMARK    4  A    between atoms: C_7  and  O_11 
REMARK    5  A    between atoms: C_8  and  O_9 
REMARK    6  A    between atoms: O_9  and  C_10 
REMARK    7  A    between atoms: O_11  and  C_12 
REMARK    8  A    between atoms: C_20  and  O_24 
REMARK    9  A    between atoms: O_24  and  C_25 
REMARK   10  A    between atoms: C_25  and  C_26 
ROOT
ATOM      1  C   LIG d   1       1.443  -3.139 -11.962  0.00  0.00    -0.008 C 
ATOM      2  C   LIG d   1       1.894  -2.144 -11.156  0.00  0.00     0.176 A 
ATOM      3  C   LIG d   1       2.658  -0.962 -11.581  0.00  0.00     0.232 A 
ATOM      4  O   LIG d   1       3.015  -0.671 -12.709  0.00  0.00    -0.283 OA
ATOM      5  C   LIG d   1       2.899  -0.211 -10.336  0.00  0.00     0.068 A 
ATOM      6  C   LIG d   1       3.552   0.990 -10.057  0.00  0.00    -0.044 A 
ATOM      7  C   LIG d   1       3.609   1.452  -8.773  0.00  0.00    -0.019 A 
ATOM      8  C   LIG d   1       3.015   0.728  -7.742  0.00  0.00     0.124 A 
ATOM      9  C   LIG d   1       2.359  -0.464  -8.004  0.00  0.00     0.023 A 
ATOM     10  C   LIG d   1       2.291  -0.947  -9.305  0.00  0.00     0.143 A 
ATOM     11  O   LIG d   1       1.721  -2.060  -9.816  0.00  0.00    -0.451 OA
ATOM     12  H   LIG d   1       1.563  -3.065 -13.032  0.00  0.00     0.066 H 
ATOM     13  H   LIG d   1       4.014   1.552 -10.854  0.00  0.00     0.063 H 
ATOM     14  H   LIG d   1       4.117   2.380  -8.555  0.00  0.00     0.065 H 
ATOM     15  H   LIG d   1       1.901  -1.016  -7.198  0.00  0.00     0.069 H 
ENDROOT
BRANCH   1  16
ATOM     16  C   LIG d   1       0.790  -4.318 -11.378  0.00  0.00    -0.014 A 
ATOM     17  C   LIG d   1       1.560  -5.311 -10.761  0.00  0.00    -0.009 A 
ATOM     18  C   LIG d   1       0.941  -6.419 -10.211  0.00  0.00     0.166 A 
ATOM     19  H   LIG d   1       2.634  -5.213 -10.713  0.00  0.00     0.066 H 
ATOM     20  C   LIG d   1      -0.445  -6.548 -10.272  0.00  0.00     0.203 A 
ATOM     21  C   LIG d   1      -1.212  -5.561 -10.887  0.00  0.00     0.166 A 
ATOM     22  C   LIG d   1      -0.603  -4.448 -11.434  0.00  0.00    -0.009 A 
ATOM     23  H   LIG d   1      -1.199  -3.682 -11.905  0.00  0.00     0.066 H 
BRANCH  18  24
ATOM     24  O   LIG d   1       1.687  -7.385  -9.611  0.00  0.00    -0.491 OA
BRANCH  24  25
ATOM     25  C   LIG d   1       2.767  -7.935 -10.368  0.00  0.00     0.079 C 
ATOM     26  H   LIG d   1       2.508  -8.944 -10.689  0.00  0.00     0.066 H 
ATOM     27  H   LIG d   1       2.952  -7.312 -11.244  0.00  0.00     0.066 H 
ATOM     28  H   LIG d   1       3.663  -7.970  -9.751  0.00  0.00     0.066 H 
ENDBRANCH  24  25
ENDBRANCH  18  24
BRANCH  20  29
ATOM     29  O   LIG d   1      -1.048  -7.639  -9.733  0.00  0.00    -0.488 OA
BRANCH  29  30
ATOM     30  C   LIG d   1      -1.266  -8.754 -10.599  0.00  0.00     0.079 C 
ATOM     31  H   LIG d   1      -1.797  -8.423 -11.492  0.00  0.00     0.066 H 
ATOM     32  H   LIG d   1      -0.307  -9.184 -10.887  0.00  0.00     0.066 H 
ATOM     33  H   LIG d   1      -1.861  -9.507 -10.081  0.00  0.00     0.066 H 
ENDBRANCH  29  30
ENDBRANCH  20  29
BRANCH  21  34
ATOM     34  O   LIG d   1      -2.565  -5.691 -10.943  0.00  0.00    -0.491 OA
BRANCH  34  35
ATOM     35  C   LIG d   1      -3.322  -5.057  -9.910  0.00  0.00     0.079 C 
ATOM     36  H   LIG d   1      -2.710  -4.973  -9.012  0.00  0.00     0.066 H 
ATOM     37  H   LIG d   1      -3.622  -4.062 -10.239  0.00  0.00     0.066 H 
ATOM     38  H   LIG d   1      -4.209  -5.651  -9.692  0.00  0.00     0.066 H 
ENDBRANCH  34  35
ENDBRANCH  21  34
ENDBRANCH   1  16
BRANCH   8  39
ATOM     39  O   LIG d   1       3.078   1.195  -6.469  0.00  0.00    -0.487 OA
BRANCH  39  40
ATOM     40  C   LIG d   1       2.117   0.684  -5.542  0.00  0.00     0.115 C 
ATOM     41  H   LIG d   1       1.406   1.469  -5.287  0.00  0.00     0.075 H 
ATOM     42  H   LIG d   1       1.587  -0.154  -5.994  0.00  0.00     0.075 H 
BRANCH  40  43
ATOM     43  C   LIG d   1       2.821   0.219  -4.293  0.00  0.00    -0.010 A 
ATOM     44  C   LIG d   1       2.931  -1.132  -4.024  0.00  0.00    -0.053 A 
ATOM     45  C   LIG d   1       3.577  -1.560  -2.880  0.00  0.00    -0.026 A 
ATOM     46  H   LIG d   1       2.513  -1.854  -4.710  0.00  0.00     0.062 H 
ATOM     47  C   LIG d   1       4.114  -0.633  -2.002  0.00  0.00     0.123 A 
ATOM     48  H   LIG d   1       3.663  -2.615  -2.670  0.00  0.00     0.065 H 
ATOM     49  C   LIG d   1       4.003   0.720  -2.271  0.00  0.00    -0.026 A 
ATOM     50  F   LIG d   1       4.745  -1.050  -0.882  0.00  0.00    -0.205 F 
ATOM     51  C   LIG d   1       3.361   1.145  -3.419  0.00  0.00    -0.053 A 
ATOM     52  H   LIG d   1       4.421   1.444  -1.587  0.00  0.00     0.065 H 
ATOM     53  H   LIG d   1       3.277   2.201  -3.632  0.00  0.00     0.062 H 
ENDBRANCH  40  43
ENDBRANCH  39  40
ENDBRANCH   8  39
TORSDOF 10
ENDMDL
MODEL 3
REMARK VINA RESULT:      -6.9      7.650     13.700
REMARK  10 active torsions:
REMARK  status: ('A' for Active; 'I' for Inactive)
REMARK    1  A    between atoms: C_1  and  O_2 
REMARK    2  A    between atoms: O_2  and  C_3 
REMARK    3  A    between atoms: C_5  and  C_13 
REMARK    4  A    between atoms: C_7  and  O_11 
REMARK    5  A    between atoms: C_8  and  O_9 
REMARK    6  A    between atoms: O_9  and  C_10 
REMARK    7  A    between atoms: O_11  and  C_12 
REMARK    8  A    between atoms: C_20  and  O_24 
REMARK    9  A    between atoms: O_24  and  C_25 
REMARK   10  A    between atoms: C_25  and  C_26 
ROOT
ATOM      1  C   LIG d   1      10.519   5.913  -4.541  0.00  0.00    -0.008 C 
ATOM      2  C   LIG d   1       9.975   4.732  -4.935  0.00  0.00     0.176 A 
ATOM      3  C   LIG d   1       9.764   4.293  -6.321  0.00  0.00     0.232 A 
ATOM      4  O   LIG d   1      10.033   4.899  -7.345  0.00  0.00    -0.283 OA
ATOM      5  C   LIG d   1       9.147   2.960  -6.198  0.00  0.00     0.068 A 
ATOM      6  C   LIG d   1       8.715   2.018  -7.131  0.00  0.00    -0.044 A 
ATOM      7  C   LIG d   1       8.178   0.836  -6.708  0.00  0.00    -0.019 A 
ATOM      8  C   LIG d   1       8.065   0.567  -5.346  0.00  0.00     0.124 A 
ATOM      9  C   LIG d   1       8.495   1.491  -4.407  0.00  0.00     0.023 A 
ATOM     10  C   LIG d   1       9.044   2.698  -4.821  0.00  0.00     0.143 A 
ATOM     11  O   LIG d   1       9.529   3.746  -4.121  0.00  0.00    -0.451 OA
ATOM     12  H   LIG d   1      10.919   6.594  -5.276  0.00  0.00     0.066 H 
ATOM     13  H   LIG d   1       8.801   2.224  -8.187  0.00  0.00     0.063 H 
ATOM     14  H   LIG d   1       7.839   0.107  -7.430  0.00  0.00     0.065 H 
ATOM     15  H   LIG d   1       8.403   1.273  -3.354  0.00  0.00     0.069 H 
ENDROOT
BRANCH   1  16
ATOM     16  C   LIG d   1      10.562   6.262  -3.116  0.00  0.00    -0.014 A 
ATOM     17  C   LIG d   1      11.622   5.815  -2.316  0.00  0.00    -0.009 A 
ATOM     18  C   LIG d   1      11.659   6.146  -0.974  0.00  0.00     0.166 A 
ATOM     19  H   LIG d   1      12.408   5.213  -2.746  0.00  0.00     0.066 H 
ATOM     20  C   LIG d   1      10.645   6.923  -0.418  0.00  0.00     0.203 A 
ATOM     21  C   LIG d   1       9.590   7.368  -1.211  0.00  0.00     0.166 A 
ATOM     22  C   LIG d   1       9.547   7.046  -2.554  0.00  0.00    -0.009 A 
ATOM     23  H   LIG d   1       8.731   7.395  -3.168  0.00  0.00     0.066 H 
BRANCH  18  24
ATOM     24  O   LIG d   1      12.687   5.714  -0.197  0.00  0.00    -0.491 OA
BRANCH  24  25
ATOM     25  C   LIG d   1      14.011   5.979  -0.666  0.00  0.00     0.079 C 
ATOM     26  H   LIG d   1      14.042   6.965  -1.128  0.00  0.00     0.066 H 
ATOM     27  H   LIG d   1      14.707   5.949   0.173  0.00  0.00     0.066 H 
ATOM     28  H   LIG d   1      14.295   5.225  -1.400  0.00  0.00     0.066 H 
ENDBRANCH  24  25
ENDBRANCH  18  24
BRANCH  20  29
ATOM     29  O   LIG d   1      10.685   7.245   0.901  0.00  0.00    -0.488 OA
BRANCH  29  30
ATOM     30  C   LIG d   1      11.475   8.379   1.268  0.00  0.00     0.079 C 
ATOM     31  H   LIG d   1      10.964   9.292   0.961  0.00  0.00     0.066 H 
ATOM     32  H   LIG d   1      11.617   8.388   2.348  0.00  0.00     0.066 H 
ATOM     33  H   LIG d   1      12.445   8.322   0.774  0.00  0.00     0.066 H 
ENDBRANCH  29  30
ENDBRANCH  20  29
BRANCH  21  34
ATOM     34  O   LIG d   1       8.602   8.126  -0.662  0.00  0.00    -0.491 OA
BRANCH  34  35
ATOM     35  C   LIG d   1       8.674   9.538  -0.876  0.00  0.00     0.079 C 
ATOM     36  H   LIG d   1       8.371  10.058   0.031  0.00  0.00     0.066 H 
ATOM     37  H   LIG d   1       9.698   9.814  -1.129  0.00  0.00     0.066 H 
ATOM     38  H   LIG d   1       8.010   9.815  -1.695  0.00  0.00     0.066 H 
ENDBRANCH  34  35
ENDBRANCH  21  34
ENDBRANCH   1  16
BRANCH   8  39
ATOM     39  O   LIG d   1       7.529  -0.610  -4.934  0.00  0.00    -0.487 OA
BRANCH  39  40
ATOM     40  C   LIG d   1       7.309  -0.767  -3.531  0.00  0.00     0.115 C 
ATOM     41  H   LIG d   1       7.735  -1.714  -3.200  0.00  0.00     0.075 H 
ATOM     42  H   LIG d   1       7.785   0.053  -2.994  0.00  0.00     0.075 H 
BRANCH  40  43
ATOM     43  C   LIG d   1       5.828  -0.759  -3.250  0.00  0.00    -0.010 A 
ATOM     44  C   LIG d   1       5.108  -1.937  -3.299  0.00  0.00    -0.053 A 
ATOM     45  C   LIG d   1       3.751  -1.931  -3.041  0.00  0.00    -0.026 A 
ATOM     46  H   LIG d   1       5.608  -2.865  -3.538  0.00  0.00     0.062 H 
ATOM     47  C   LIG d   1       3.111  -0.742  -2.734  0.00  0.00     0.123 A 
ATOM     48  H   LIG d   1       3.189  -2.853  -3.079  0.00  0.00     0.065 H 
ATOM     49  C   LIG d   1       3.832   0.439  -2.686  0.00  0.00    -0.026 A 
ATOM     50  F   LIG d   1       1.783  -0.734  -2.483  0.00  0.00    -0.205 F 
ATOM     51  C   LIG d   1       5.191   0.429  -2.938  0.00  0.00    -0.053 A 
ATOM     52  H   LIG d   1       3.334   1.367  -2.447  0.00  0.00     0.065 H 
ATOM     53  H   LIG d   1       5.755   1.349  -2.897  0.00  0.00     0.062 H 
ENDBRANCH  40  43
ENDBRANCH  39  40
ENDBRANCH   8  39
TORSDOF 10
ENDMDL
MODEL 4
REMARK VINA RESULT:      -6.9      7.759     13.781
REMARK  10 active torsions:
REMARK  status: ('A' for Active; 'I' for Inactive)
REMARK    1  A    between atoms: C_1  and  O_2 
REMARK    2  A    between atoms: O_2  and  C_3 
REMARK    3  A    between atoms: C_5  and  C_13 
REMARK    4  A    between atoms: C_7  and  O_11 
REMARK    5  A    between atoms: C_8  and  O_9 
REMARK    6  A    between atoms: O_9  and  C_10 
REMARK    7  A    between atoms: O_11  and  C_12 
REMARK    8  A    between atoms: C_20  and  O_24 
REMARK    9  A    between atoms: O_24  and  C_25 
REMARK   10  A    between atoms: C_25  and  C_26 
ROOT
ATOM      1  C   LIG d   1      10.788   6.117  -4.363  0.00  0.00    -0.008 C 
ATOM      2  C   LIG d   1      10.195   4.960  -4.753  0.00  0.00     0.176 A 
ATOM      3  C   LIG d   1       9.986   4.516  -6.139  0.00  0.00     0.232 A 
ATOM      4  O   LIG d   1      10.300   5.098  -7.164  0.00  0.00    -0.283 OA
ATOM      5  C   LIG d   1       9.305   3.216  -6.012  0.00  0.00     0.068 A 
ATOM      6  C   LIG d   1       8.843   2.285  -6.943  0.00  0.00    -0.044 A 
ATOM      7  C   LIG d   1       8.244   1.134  -6.517  0.00  0.00    -0.019 A 
ATOM      8  C   LIG d   1       8.096   0.886  -5.154  0.00  0.00     0.124 A 
ATOM      9  C   LIG d   1       8.554   1.799  -4.218  0.00  0.00     0.023 A 
ATOM     10  C   LIG d   1       9.167   2.974  -4.635  0.00  0.00     0.143 A 
ATOM     11  O   LIG d   1       9.690   4.005  -3.938  0.00  0.00    -0.451 OA
ATOM     12  H   LIG d   1      11.232   6.771  -5.097  0.00  0.00     0.066 H 
ATOM     13  H   LIG d   1       8.957   2.475  -8.000  0.00  0.00     0.063 H 
ATOM     14  H   LIG d   1       7.883   0.414  -7.237  0.00  0.00     0.065 H 
ATOM     15  H   LIG d   1       8.435   1.597  -3.165  0.00  0.00     0.069 H 
ENDROOT
BRANCH   1  16
ATOM     16  C   LIG d   1      10.825   6.480  -2.941  0.00  0.00    -0.014 A 
ATOM     17  C   LIG d   1       9.773   7.212  -2.376  0.00  0.00    -0.009 A 
ATOM     18  C   LIG d   1       9.811   7.551  -1.036  0.00  0.00     0.166 A 
ATOM     19  H   LIG d   1       8.934   7.512  -2.986  0.00  0.00     0.066 H 
ATOM     20  C   LIG d   1      10.893   7.165  -0.248  0.00  0.00     0.203 A 
ATOM     21  C   LIG d   1      11.941   6.437  -0.807  0.00  0.00     0.166 A 
ATOM     22  C   LIG d   1      11.909   6.089  -2.145  0.00  0.00    -0.009 A 
ATOM     23  H   LIG d   1      12.719   5.521  -2.575  0.00  0.00     0.066 H 
BRANCH  18  24
ATOM     24  O   LIG d   1       8.791   8.261  -0.486  0.00  0.00    -0.491 OA
BRANCH  24  25
ATOM     25  C   LIG d   1       8.710   9.648  -0.824  0.00  0.00     0.079 C 
ATOM     26  H   LIG d   1       8.467   9.750  -1.881  0.00  0.00     0.066 H 
ATOM     27  H   LIG d   1       7.933  10.123  -0.225  0.00  0.00     0.066 H 
ATOM     28  H   LIG d   1       9.667  10.127  -0.623  0.00  0.00     0.066 H 
ENDBRANCH  24  25
ENDBRANCH  18  24
BRANCH  20  29
ATOM     29  O   LIG d   1      10.928   7.500   1.068  0.00  0.00    -0.488 OA
BRANCH  29  30
ATOM     30  C   LIG d   1      11.576   8.728   1.407  0.00  0.00     0.079 C 
ATOM     31  H   LIG d   1      11.982   9.187   0.505  0.00  0.00     0.066 H 
ATOM     32  H   LIG d   1      10.854   9.406   1.864  0.00  0.00     0.066 H 
ATOM     33  H   LIG d   1      12.384   8.531   2.110  0.00  0.00     0.066 H 
ENDBRANCH  29  30
ENDBRANCH  20  29
BRANCH  21  34
ATOM     34  O   LIG d   1      12.996   6.062  -0.034  0.00  0.00    -0.491 OA
BRANCH  34  35
ATOM     35  C   LIG d   1      14.276   6.001  -0.668  0.00  0.00     0.079 C 
ATOM     36  H   LIG d   1      14.335   6.767  -1.440  0.00  0.00     0.066 H 
ATOM     37  H   LIG d   1      15.056   6.170   0.074  0.00  0.00     0.066 H 
ATOM     38  H   LIG d   1      14.411   5.018  -1.119  0.00  0.00     0.066 H 
ENDBRANCH  34  35
ENDBRANCH  21  34
ENDBRANCH   1  16
BRANCH   8  39
ATOM     39  O   LIG d   1       7.498  -0.260  -4.740  0.00  0.00    -0.487 OA
BRANCH  39  40
ATOM     40  C   LIG d   1       7.221  -0.379  -3.343  0.00  0.00     0.115 C 
ATOM     41  H   LIG d   1       7.711  -1.269  -2.950  0.00  0.00     0.075 H 
ATOM     42  H   LIG d   1       7.595   0.503  -2.822  0.00  0.00     0.075 H 
BRANCH  40  43
ATOM     43  C   LIG d   1       5.732  -0.491  -3.134  0.00  0.00    -0.010 A 
ATOM     44  C   LIG d   1       5.122  -1.731  -3.160  0.00  0.00    -0.053 A 
ATOM     45  C   LIG d   1       3.758  -1.835  -2.967  0.00  0.00    -0.026 A 
ATOM     46  H   LIG d   1       5.713  -2.619  -3.328  0.00  0.00     0.062 H 
ATOM     47  C   LIG d   1       3.001  -0.696  -2.750  0.00  0.00     0.123 A 
ATOM     48  H   LIG d   1       3.282  -2.804  -2.987  0.00  0.00     0.065 H 
ATOM     49  C   LIG d   1       3.612   0.546  -2.725  0.00  0.00    -0.026 A 
ATOM     50  F   LIG d   1       1.667  -0.797  -2.563  0.00  0.00    -0.205 F 
ATOM     51  C   LIG d   1       4.978   0.647  -2.912  0.00  0.00    -0.053 A 
ATOM     52  H   LIG d   1       3.023   1.435  -2.556  0.00  0.00     0.065 H 
ATOM     53  H   LIG d   1       5.457   1.616  -2.889  0.00  0.00     0.062 H 
ENDBRANCH  40  43
ENDBRANCH  39  40
ENDBRANCH   8  39
TORSDOF 10
ENDMDL
MODEL 5
REMARK VINA RESULT:      -6.5      8.090     14.107
REMARK  10 active torsions:
REMARK  status: ('A' for Active; 'I' for Inactive)
REMARK    1  A    between atoms: C_1  and  O_2 
REMARK    2  A    between atoms: O_2  and  C_3 
REMARK    3  A    between atoms: C_5  and  C_13 
REMARK    4  A    between atoms: C_7  and  O_11 
REMARK    5  A    between atoms: C_8  and  O_9 
REMARK    6  A    between atoms: O_9  and  C_10 
REMARK    7  A    between atoms: O_11  and  C_12 
REMARK    8  A    between atoms: C_20  and  O_24 
REMARK    9  A    between atoms: O_24  and  C_25 
REMARK   10  A    between atoms: C_25  and  C_26 
ROOT
ATOM      1  C   LIG d   1      11.070   7.059  -4.825  0.00  0.00    -0.008 C 
ATOM      2  C   LIG d   1      10.538   5.846  -5.123  0.00  0.00     0.176 A 
ATOM      3  C   LIG d   1      10.810   5.051  -6.329  0.00  0.00     0.232 A 
ATOM      4  O   LIG d   1      11.547   5.335  -7.258  0.00  0.00    -0.283 OA
ATOM      5  C   LIG d   1       9.989   3.839  -6.167  0.00  0.00     0.068 A 
ATOM      6  C   LIG d   1       9.804   2.699  -6.949  0.00  0.00    -0.044 A 
ATOM      7  C   LIG d   1       8.963   1.710  -6.525  0.00  0.00    -0.019 A 
ATOM      8  C   LIG d   1       8.292   1.835  -5.311  0.00  0.00     0.124 A 
ATOM      9  C   LIG d   1       8.469   2.960  -4.521  0.00  0.00     0.023 A 
ATOM     10  C   LIG d   1       9.322   3.974  -4.937  0.00  0.00     0.143 A 
ATOM     11  O   LIG d   1       9.661   5.148  -4.363  0.00  0.00    -0.451 OA
ATOM     12  H   LIG d   1      11.827   7.489  -5.463  0.00  0.00     0.066 H 
ATOM     13  H   LIG d   1      10.324   2.599  -7.890  0.00  0.00     0.063 H 
ATOM     14  H   LIG d   1       8.818   0.828  -7.132  0.00  0.00     0.065 H 
ATOM     15  H   LIG d   1       7.945   3.047  -3.582  0.00  0.00     0.069 H 
ENDROOT
BRANCH   1  16
ATOM     16  C   LIG d   1      10.616   7.787  -3.633  0.00  0.00    -0.014 A 
ATOM     17  C   LIG d   1      10.300   9.149  -3.721  0.00  0.00    -0.009 A 
ATOM     18  C   LIG d   1       9.872   9.830  -2.597  0.00  0.00     0.166 A 
ATOM     19  H   LIG d   1      10.390   9.666  -4.665  0.00  0.00     0.066 H 
ATOM     20  C   LIG d   1       9.755   9.165  -1.378  0.00  0.00     0.203 A 
ATOM     21  C   LIG d   1      10.069   7.811  -1.288  0.00  0.00     0.166 A 
ATOM     22  C   LIG d   1      10.493   7.120  -2.408  0.00  0.00    -0.009 A 
ATOM     23  H   LIG d   1      10.731   6.070  -2.338  0.00  0.00     0.066 H 
BRANCH  18  24
ATOM     24  O   LIG d   1       9.565  11.152  -2.680  0.00  0.00    -0.491 OA
BRANCH  24  25
ATOM     25  C   LIG d   1       8.774  11.565  -3.797  0.00  0.00     0.079 C 
ATOM     26  H   LIG d   1       9.348  11.439  -4.715  0.00  0.00     0.066 H 
ATOM     27  H   LIG d   1       7.871  10.955  -3.848  0.00  0.00     0.066 H 
ATOM     28  H   LIG d   1       8.499  12.612  -3.681  0.00  0.00     0.066 H 
ENDBRANCH  24  25
ENDBRANCH  18  24
BRANCH  20  29
ATOM     29  O   LIG d   1       9.336   9.838  -0.276  0.00  0.00    -0.488 OA
BRANCH  29  30
ATOM     30  C   LIG d   1      10.331  10.537   0.475  0.00  0.00     0.079 C 
ATOM     31  H   LIG d   1      10.293  11.599   0.229  0.00  0.00     0.066 H 
ATOM     32  H   LIG d   1      10.143  10.405   1.540  0.00  0.00     0.066 H 
ATOM     33  H   LIG d   1      11.317  10.143   0.228  0.00  0.00     0.066 H 
ENDBRANCH  29  30
ENDBRANCH  20  29
BRANCH  21  34
ATOM     34  O   LIG d   1       9.953   7.165  -0.096  0.00  0.00    -0.491 OA
BRANCH  34  35
ATOM     35  C   LIG d   1      11.167   6.840   0.586  0.00  0.00     0.079 C 
ATOM     36  H   LIG d   1      11.482   5.836   0.308  0.00  0.00     0.066 H 
ATOM     37  H   LIG d   1      11.942   7.555   0.308  0.00  0.00     0.066 H 
ATOM     38  H   LIG d   1      11.001   6.885   1.663  0.00  0.00     0.066 H 
ENDBRANCH  34  35
ENDBRANCH  21  34
ENDBRANCH   1  16
BRANCH   8  39
ATOM     39  O   LIG d   1       7.458   0.848  -4.898  0.00  0.00    -0.487 OA
BRANCH  39  40
ATOM     40  C   LIG d   1       7.281   0.694  -3.488  0.00  0.00     0.115 C 
ATOM     41  H   LIG d   1       7.963  -0.071  -3.118  0.00  0.00     0.075 H 
ATOM     42  H   LIG d   1       7.492   1.641  -2.990  0.00  0.00     0.075 H 
BRANCH  40  43
ATOM     43  C   LIG d   1       5.860   0.282  -3.201  0.00  0.00    -0.010 A 
ATOM     44  C   LIG d   1       4.954   1.210  -2.726  0.00  0.00    -0.053 A 
ATOM     45  C   LIG d   1       3.651   0.834  -2.463  0.00  0.00    -0.026 A 
ATOM     46  H   LIG d   1       5.264   2.232  -2.561  0.00  0.00     0.062 H 
ATOM     47  C   LIG d   1       3.253  -0.475  -2.675  0.00  0.00     0.123 A 
ATOM     48  H   LIG d   1       2.943   1.560  -2.092  0.00  0.00     0.065 H 
ATOM     49  C   LIG d   1       4.162  -1.406  -3.151  0.00  0.00    -0.026 A 
ATOM     50  F   LIG d   1       1.979  -0.845  -2.418  0.00  0.00    -0.205 F 
ATOM     51  C   LIG d   1       5.463  -1.025  -3.419  0.00  0.00    -0.053 A 
ATOM     52  H   LIG d   1       3.853  -2.427  -3.317  0.00  0.00     0.065 H 
ATOM     53  H   LIG d   1       6.172  -1.749  -3.793  0.00  0.00     0.062 H 
ENDBRANCH  40  43
ENDBRANCH  39  40
ENDBRANCH   8  39
TORSDOF 10
ENDMDL
MODEL 6
REMARK VINA RESULT:      -6.4      6.862      9.225
REMARK  10 active torsions:
REMARK  status: ('A' for Active; 'I' for Inactive)
REMARK    1  A    between atoms: C_1  and  O_2 
REMARK    2  A    between atoms: O_2  and  C_3 
REMARK    3  A    between atoms: C_5  and  C_13 
REMARK    4  A    between atoms: C_7  and  O_11 
REMARK    5  A    between atoms: C_8  and  O_9 
REMARK    6  A    between atoms: O_9  and  C_10 
REMARK    7  A    between atoms: O_11  and  C_12 
REMARK    8  A    between atoms: C_20  and  O_24 
REMARK    9  A    between atoms: O_24  and  C_25 
REMARK   10  A    between atoms: C_25  and  C_26 
ROOT
ATOM      1  C   LIG d   1       5.655  -9.522  -5.149  0.00  0.00    -0.008 C 
ATOM      2  C   LIG d   1       5.314  -8.286  -5.595  0.00  0.00     0.176 A 
ATOM      3  C   LIG d   1       4.599  -7.980  -6.843  0.00  0.00     0.232 A 
ATOM      4  O   LIG d   1       4.195  -8.766  -7.682  0.00  0.00    -0.283 OA
ATOM      5  C   LIG d   1       4.488  -6.511  -6.854  0.00  0.00     0.068 A 
ATOM      6  C   LIG d   1       3.917  -5.604  -7.748  0.00  0.00    -0.044 A 
ATOM      7  C   LIG d   1       3.962  -4.265  -7.481  0.00  0.00    -0.019 A 
ATOM      8  C   LIG d   1       4.571  -3.803  -6.317  0.00  0.00     0.124 A 
ATOM      9  C   LIG d   1       5.138  -4.693  -5.418  0.00  0.00     0.023 A 
ATOM     10  C   LIG d   1       5.100  -6.058  -5.674  0.00  0.00     0.143 A 
ATOM     11  O   LIG d   1       5.569  -7.111  -4.972  0.00  0.00    -0.451 OA
ATOM     12  H   LIG d   1       5.327 -10.400  -5.685  0.00  0.00     0.066 H 
ATOM     13  H   LIG d   1       3.444  -5.959  -8.651  0.00  0.00     0.063 H 
ATOM     14  H   LIG d   1       3.523  -3.562  -8.174  0.00  0.00     0.065 H 
ATOM     15  H   LIG d   1       5.607  -4.325  -4.519  0.00  0.00     0.069 H 
ENDROOT
BRANCH   1  16
ATOM     16  C   LIG d   1       6.470  -9.665  -3.936  0.00  0.00    -0.014 A 
ATOM     17  C   LIG d   1       7.797  -9.218  -3.926  0.00  0.00    -0.009 A 
ATOM     18  C   LIG d   1       8.561  -9.354  -2.782  0.00  0.00     0.166 A 
ATOM     19  H   LIG d   1       8.223  -8.768  -4.810  0.00  0.00     0.066 H 
ATOM     20  C   LIG d   1       8.013  -9.935  -1.641  0.00  0.00     0.203 A 
ATOM     21  C   LIG d   1       6.693 -10.382  -1.648  0.00  0.00     0.166 A 
ATOM     22  C   LIG d   1       5.921 -10.244  -2.786  0.00  0.00    -0.009 A 
ATOM     23  H   LIG d   1       4.897 -10.586  -2.788  0.00  0.00     0.066 H 
BRANCH  18  24
ATOM     24  O   LIG d   1       9.850  -8.920  -2.770  0.00  0.00    -0.491 OA
BRANCH  24  25
ATOM     25  C   LIG d   1      10.409  -8.516  -4.022  0.00  0.00     0.079 C 
ATOM     26  H   LIG d   1      10.787  -7.497  -3.938  0.00  0.00     0.066 H 
ATOM     27  H   LIG d   1      11.228  -9.185  -4.287  0.00  0.00     0.066 H 
ATOM     28  H   LIG d   1       9.641  -8.557  -4.793  0.00  0.00     0.066 H 
ENDBRANCH  24  25
ENDBRANCH  18  24
BRANCH  20  29
ATOM     29  O   LIG d   1       8.767 -10.069  -0.519  0.00  0.00    -0.488 OA
BRANCH  29  30
ATOM     30  C   LIG d   1       9.584 -11.238  -0.421  0.00  0.00     0.079 C 
ATOM     31  H   LIG d   1      10.442 -11.030   0.218  0.00  0.00     0.066 H 
ATOM     32  H   LIG d   1       9.001 -12.053   0.007  0.00  0.00     0.066 H 
ATOM     33  H   LIG d   1       9.932 -11.523  -1.414  0.00  0.00     0.066 H 
ENDBRANCH  29  30
ENDBRANCH  20  29
BRANCH  21  34
ATOM     34  O   LIG d   1       6.163 -10.948  -0.531  0.00  0.00    -0.491 OA
BRANCH  34  35
ATOM     35  C   LIG d   1       6.105 -12.376  -0.492  0.00  0.00     0.079 C 
ATOM     36  H   LIG d   1       6.878 -12.753   0.177  0.00  0.00     0.066 H 
ATOM     37  H   LIG d   1       5.126 -12.690  -0.130  0.00  0.00     0.066 H 
ATOM     38  H   LIG d   1       6.267 -12.773  -1.495  0.00  0.00     0.066 H 
ENDBRANCH  34  35
ENDBRANCH  21  34
ENDBRANCH   1  16
BRANCH   8  39
ATOM     39  O   LIG d   1       4.611  -2.471  -6.061  0.00  0.00    -0.487 OA
BRANCH  39  40
ATOM     40  C   LIG d   1       5.818  -1.955  -5.494  0.00  0.00     0.115 C 
ATOM     41  H   LIG d   1       6.466  -2.782  -5.205  0.00  0.00     0.075 H 
ATOM     42  H   LIG d   1       6.328  -1.333  -6.229  0.00  0.00     0.075 H 
BRANCH  40  43
ATOM     43  C   LIG d   1       5.487  -1.128  -4.278  0.00  0.00    -0.010 A 
ATOM     44  C   LIG d   1       5.996   0.151  -4.153  0.00  0.00    -0.053 A 
ATOM     45  C   LIG d   1       5.693   0.911  -3.040  0.00  0.00    -0.026 A 
ATOM     46  H   LIG d   1       6.629   0.557  -4.928  0.00  0.00     0.062 H 
ATOM     47  C   LIG d   1       4.880   0.390  -2.047  0.00  0.00     0.123 A 
ATOM     48  H   LIG d   1       6.091   1.910  -2.943  0.00  0.00     0.065 H 
ATOM     49  C   LIG d   1       4.372  -0.892  -2.172  0.00  0.00    -0.026 A 
ATOM     50  F   LIG d   1       4.585   1.131  -0.957  0.00  0.00    -0.205 F 
ATOM     51  C   LIG d   1       4.671  -1.648  -3.290  0.00  0.00    -0.053 A 
ATOM     52  H   LIG d   1       3.738  -1.300  -1.398  0.00  0.00     0.065 H 
ATOM     53  H   LIG d   1       4.272  -2.647  -3.390  0.00  0.00     0.062 H 
ENDBRANCH  40  43
ENDBRANCH  39  40
ENDBRANCH   8  39
TORSDOF 10
ENDMDL
MODEL 7
REMARK VINA RESULT:      -6.4      1.774      2.563
REMARK  10 active torsions:
REMARK  status: ('A' for Active; 'I' for Inactive)
REMARK    1  A    between atoms: C_1  and  O_2 
REMARK    2  A    between atoms: O_2  and  C_3 
REMARK    3  A    between atoms: C_5  and  C_13 
REMARK    4  A    between atoms: C_7  and  O_11 
REMARK    5  A    between atoms: C_8  and  O_9 
REMARK    6  A    between atoms: O_9  and  C_10 
REMARK    7  A    between atoms: O_11  and  C_12 
REMARK    8  A    between atoms: C_20  and  O_24 
REMARK    9  A    between atoms: O_24  and  C_25 
REMARK   10  A    between atoms: C_25  and  C_26 
ROOT
ATOM      1  C   LIG d   1       1.382  -1.957 -13.091  0.00  0.00    -0.008 C 
ATOM      2  C   LIG d   1       1.969  -1.300 -12.058  0.00  0.00     0.176 A 
ATOM      3  C   LIG d   1       3.270  -0.616 -12.092  0.00  0.00     0.232 A 
ATOM      4  O   LIG d   1       4.037  -0.518 -13.035  0.00  0.00    -0.283 OA
ATOM      5  C   LIG d   1       3.441  -0.079 -10.731  0.00  0.00     0.068 A 
ATOM      6  C   LIG d   1       4.447   0.669 -10.119  0.00  0.00    -0.044 A 
ATOM      7  C   LIG d   1       4.322   1.037  -8.809  0.00  0.00    -0.019 A 
ATOM      8  C   LIG d   1       3.190   0.672  -8.085  0.00  0.00     0.124 A 
ATOM      9  C   LIG d   1       2.180  -0.067  -8.681  0.00  0.00     0.023 A 
ATOM     10  C   LIG d   1       2.292  -0.449 -10.012  0.00  0.00     0.143 A 
ATOM     11  O   LIG d   1       1.464  -1.156 -10.810  0.00  0.00    -0.451 OA
ATOM     12  H   LIG d   1       1.835  -1.939 -14.071  0.00  0.00     0.066 H 
ATOM     13  H   LIG d   1       5.326   0.953 -10.678  0.00  0.00     0.063 H 
ATOM     14  H   LIG d   1       5.103   1.614  -8.334  0.00  0.00     0.065 H 
ATOM     15  H   LIG d   1       1.307  -0.345  -8.110  0.00  0.00     0.069 H 
ENDROOT
BRANCH   1  16
ATOM     16  C   LIG d   1       0.129  -2.693 -12.875  0.00  0.00    -0.014 A 
ATOM     17  C   LIG d   1      -1.078  -2.182 -13.369  0.00  0.00    -0.009 A 
ATOM     18  C   LIG d   1      -2.255  -2.878 -13.165  0.00  0.00     0.166 A 
ATOM     19  H   LIG d   1      -1.089  -1.247 -13.909  0.00  0.00     0.066 H 
ATOM     20  C   LIG d   1      -2.241  -4.085 -12.468  0.00  0.00     0.203 A 
ATOM     21  C   LIG d   1      -1.042  -4.594 -11.975  0.00  0.00     0.166 A 
ATOM     22  C   LIG d   1       0.140  -3.908 -12.180  0.00  0.00    -0.009 A 
ATOM     23  H   LIG d   1       1.069  -4.306 -11.802  0.00  0.00     0.066 H 
BRANCH  18  24
ATOM     24  O   LIG d   1      -3.427  -2.384 -13.644  0.00  0.00    -0.491 OA
BRANCH  24  25
ATOM     25  C   LIG d   1      -4.021  -1.306 -12.919  0.00  0.00     0.079 C 
ATOM     26  H   LIG d   1      -4.934  -1.653 -12.435  0.00  0.00     0.066 H 
ATOM     27  H   LIG d   1      -3.323  -0.948 -12.162  0.00  0.00     0.066 H 
ATOM     28  H   LIG d   1      -4.260  -0.494 -13.605  0.00  0.00     0.066 H 
ENDBRANCH  24  25
ENDBRANCH  18  24
BRANCH  20  29
ATOM     29  O   LIG d   1      -3.400  -4.765 -12.268  0.00  0.00    -0.488 OA
BRANCH  29  30
ATOM     30  C   LIG d   1      -3.764  -5.730 -13.258  0.00  0.00     0.079 C 
ATOM     31  H   LIG d   1      -3.896  -5.233 -14.220  0.00  0.00     0.066 H 
ATOM     32  H   LIG d   1      -2.977  -6.479 -13.342  0.00  0.00     0.066 H 
ATOM     33  H   LIG d   1      -4.697  -6.213 -12.969  0.00  0.00     0.066 H 
ENDBRANCH  29  30
ENDBRANCH  20  29
BRANCH  21  34
ATOM     34  O   LIG d   1      -1.034  -5.773 -11.296  0.00  0.00    -0.491 OA
BRANCH  34  35
ATOM     35  C   LIG d   1      -1.124  -5.701  -9.871  0.00  0.00     0.079 C 
ATOM     36  H   LIG d   1      -1.699  -6.549  -9.501  0.00  0.00     0.066 H 
ATOM     37  H   LIG d   1      -0.122  -5.726  -9.443  0.00  0.00     0.066 H 
ATOM     38  H   LIG d   1      -1.619  -4.773  -9.585  0.00  0.00     0.066 H 
ENDBRANCH  34  35
ENDBRANCH  21  34
ENDBRANCH   1  16
BRANCH   8  39
ATOM     39  O   LIG d   1       3.075   1.042  -6.784  0.00  0.00    -0.487 OA
BRANCH  39  40
ATOM     40  C   LIG d   1       2.439   0.116  -5.900  0.00  0.00     0.115 C 
ATOM     41  H   LIG d   1       1.375   0.345  -5.840  0.00  0.00     0.075 H 
ATOM     42  H   LIG d   1       2.572  -0.898  -6.278  0.00  0.00     0.075 H 
BRANCH  40  43
ATOM     43  C   LIG d   1       3.055   0.226  -4.529  0.00  0.00    -0.010 A 
ATOM     44  C   LIG d   1       3.204   1.465  -3.936  0.00  0.00    -0.053 A 
ATOM     45  C   LIG d   1       3.768   1.568  -2.679  0.00  0.00    -0.026 A 
ATOM     46  H   LIG d   1       2.877   2.355  -4.455  0.00  0.00     0.062 H 
ATOM     47  C   LIG d   1       4.186   0.428  -2.013  0.00  0.00     0.123 A 
ATOM     48  H   LIG d   1       3.883   2.536  -2.215  0.00  0.00     0.065 H 
ATOM     49  C   LIG d   1       4.038  -0.814  -2.609  0.00  0.00    -0.026 A 
ATOM     50  F   LIG d   1       4.739   0.526  -0.784  0.00  0.00    -0.205 F 
ATOM     51  C   LIG d   1       3.468  -0.914  -3.864  0.00  0.00    -0.053 A 
ATOM     52  H   LIG d   1       4.363  -1.704  -2.091  0.00  0.00     0.065 H 
ATOM     53  H   LIG d   1       3.348  -1.883  -4.327  0.00  0.00     0.062 H 
ENDBRANCH  40  43
ENDBRANCH  39  40
ENDBRANCH   8  39
TORSDOF 10
ENDMDL
MODEL 8
REMARK VINA RESULT:      -6.4      8.319     14.099
REMARK  10 active torsions:
REMARK  status: ('A' for Active; 'I' for Inactive)
REMARK    1  A    between atoms: C_1  and  O_2 
REMARK    2  A    between atoms: O_2  and  C_3 
REMARK    3  A    between atoms: C_5  and  C_13 
REMARK    4  A    between atoms: C_7  and  O_11 
REMARK    5  A    between atoms: C_8  and  O_9 
REMARK    6  A    between atoms: O_9  and  C_10 
REMARK    7  A    between atoms: O_11  and  C_12 
REMARK    8  A    between atoms: C_20  and  O_24 
REMARK    9  A    between atoms: O_24  and  C_25 
REMARK   10  A    between atoms: C_25  and  C_26 
ROOT
ATOM      1  C   LIG d   1      10.822   7.321  -6.282  0.00  0.00    -0.008 C 
ATOM      2  C   LIG d   1      10.380   6.038  -6.258  0.00  0.00     0.176 A 
ATOM      3  C   LIG d   1      10.540   5.044  -7.330  0.00  0.00     0.232 A 
ATOM      4  O   LIG d   1      11.087   5.193  -8.409  0.00  0.00    -0.283 OA
ATOM      5  C   LIG d   1       9.885   3.830  -6.810  0.00  0.00     0.068 A 
ATOM      6  C   LIG d   1       9.700   2.549  -7.329  0.00  0.00    -0.044 A 
ATOM      7  C   LIG d   1       9.044   1.603  -6.593  0.00  0.00    -0.019 A 
ATOM      8  C   LIG d   1       8.563   1.915  -5.323  0.00  0.00     0.124 A 
ATOM      9  C   LIG d   1       8.744   3.183  -4.793  0.00  0.00     0.023 A 
ATOM     10  C   LIG d   1       9.410   4.155  -5.528  0.00  0.00     0.143 A 
ATOM     11  O   LIG d   1       9.711   5.440  -5.244  0.00  0.00    -0.451 OA
ATOM     12  H   LIG d   1      11.419   7.671  -7.110  0.00  0.00     0.066 H 
ATOM     13  H   LIG d   1      10.072   2.305  -8.313  0.00  0.00     0.063 H 
ATOM     14  H   LIG d   1       8.898   0.612  -6.995  0.00  0.00     0.065 H 
ATOM     15  H   LIG d   1       8.368   3.414  -3.808  0.00  0.00     0.069 H 
ENDROOT
BRANCH   1  16
ATOM     16  C   LIG d   1      10.487   8.233  -5.181  0.00  0.00    -0.014 A 
ATOM     17  C   LIG d   1      10.829   7.899  -3.865  0.00  0.00    -0.009 A 
ATOM     18  C   LIG d   1      10.513   8.761  -2.831  0.00  0.00     0.166 A 
ATOM     19  H   LIG d   1      11.339   6.970  -3.658  0.00  0.00     0.066 H 
ATOM     20  C   LIG d   1       9.855   9.959  -3.098  0.00  0.00     0.203 A 
ATOM     21  C   LIG d   1       9.513  10.294  -4.406  0.00  0.00     0.166 A 
ATOM     22  C   LIG d   1       9.830   9.441  -5.446  0.00  0.00    -0.009 A 
ATOM     23  H   LIG d   1       9.568   9.704  -6.459  0.00  0.00     0.066 H 
BRANCH  18  24
ATOM     24  O   LIG d   1      10.845   8.438  -1.553  0.00  0.00    -0.491 OA
BRANCH  24  25
ATOM     25  C   LIG d   1      10.684   7.072  -1.166  0.00  0.00     0.079 C 
ATOM     26  H   LIG d   1      10.711   6.997  -0.079  0.00  0.00     0.066 H 
ATOM     27  H   LIG d   1       9.725   6.701  -1.531  0.00  0.00     0.066 H 
ATOM     28  H   LIG d   1      11.490   6.475  -1.592  0.00  0.00     0.066 H 
ENDBRANCH  24  25
ENDBRANCH  18  24
BRANCH  20  29
ATOM     29  O   LIG d   1       9.545  10.803  -2.079  0.00  0.00    -0.488 OA
BRANCH  29  30
ATOM     30  C   LIG d   1      10.512  11.802  -1.748  0.00  0.00     0.079 C 
ATOM     31  H   LIG d   1      11.250  11.383  -1.065  0.00  0.00     0.066 H 
ATOM     32  H   LIG d   1      11.010  12.141  -2.657  0.00  0.00     0.066 H 
ATOM     33  H   LIG d   1      10.014  12.646  -1.271  0.00  0.00     0.066 H 
ENDBRANCH  29  30
ENDBRANCH  20  29
BRANCH  21  34
ATOM     34  O   LIG d   1       8.870  11.466  -4.661  0.00  0.00    -0.491 OA
BRANCH  34  35
ATOM     35  C   LIG d   1       9.583  12.444  -5.421  0.00  0.00     0.079 C 
ATOM     36  H   LIG d   1      10.653  12.323  -5.256  0.00  0.00     0.066 H 
ATOM     37  H   LIG d   1       9.362  12.312  -6.480  0.00  0.00     0.066 H 
ATOM     38  H   LIG d   1       9.277  13.442  -5.107  0.00  0.00     0.066 H 
ENDBRANCH  34  35
ENDBRANCH  21  34
ENDBRANCH   1  16
BRANCH   8  39
ATOM     39  O   LIG d   1       7.912   0.970  -4.599  0.00  0.00    -0.487 OA
BRANCH  39  40
ATOM     40  C   LIG d   1       7.084   1.429  -3.529  0.00  0.00     0.115 C 
ATOM     41  H   LIG d   1       7.708   1.704  -2.679  0.00  0.00     0.075 H 
ATOM     42  H   LIG d   1       6.513   2.297  -3.858  0.00  0.00     0.075 H 
BRANCH  40  43
ATOM     43  C   LIG d   1       6.136   0.330  -3.120  0.00  0.00    -0.010 A 
ATOM     44  C   LIG d   1       5.051   0.618  -2.315  0.00  0.00    -0.053 A 
ATOM     45  C   LIG d   1       4.181  -0.388  -1.940  0.00  0.00    -0.026 A 
ATOM     46  H   LIG d   1       4.881   1.631  -1.980  0.00  0.00     0.062 H 
ATOM     47  C   LIG d   1       4.397  -1.686  -2.371  0.00  0.00     0.123 A 
ATOM     48  H   LIG d   1       3.332  -0.163  -1.311  0.00  0.00     0.065 H 
ATOM     49  C   LIG d   1       5.486  -1.974  -3.177  0.00  0.00    -0.026 A 
ATOM     50  F   LIG d   1       3.548  -2.671  -2.004  0.00  0.00    -0.205 F 
ATOM     51  C   LIG d   1       6.351  -0.965  -3.555  0.00  0.00    -0.053 A 
ATOM     52  H   LIG d   1       5.657  -2.986  -3.514  0.00  0.00     0.065 H 
ATOM     53  H   LIG d   1       7.199  -1.188  -4.187  0.00  0.00     0.062 H 
ENDBRANCH  40  43
ENDBRANCH  39  40
ENDBRANCH   8  39
TORSDOF 10
ENDMDL
MODEL 9
REMARK VINA RESULT:      -6.3      8.235     13.725
REMARK  10 active torsions:
REMARK  status: ('A' for Active; 'I' for Inactive)
REMARK    1  A    between atoms: C_1  and  O_2 
REMARK    2  A    between atoms: O_2  and  C_3 
REMARK    3  A    between atoms: C_5  and  C_13 
REMARK    4  A    between atoms: C_7  and  O_11 
REMARK    5  A    between atoms: C_8  and  O_9 
REMARK    6  A    between atoms: O_9  and  C_10 
REMARK    7  A    between atoms: O_11  and  C_12 
REMARK    8  A    between atoms: C_20  and  O_24 
REMARK    9  A    between atoms: O_24  and  C_25 
REMARK   10  A    between atoms: C_25  and  C_26 
ROOT
ATOM      1  C   LIG d   1      10.603   7.115  -6.924  0.00  0.00    -0.008 C 
ATOM      2  C   LIG d   1      10.143   5.843  -6.802  0.00  0.00     0.176 A 
ATOM      3  C   LIG d   1      10.051   4.846  -7.878  0.00  0.00     0.232 A 
ATOM      4  O   LIG d   1      10.363   4.982  -9.049  0.00  0.00    -0.283 OA
ATOM      5  C   LIG d   1       9.489   3.650  -7.227  0.00  0.00     0.068 A 
ATOM      6  C   LIG d   1       9.167   2.373  -7.689  0.00  0.00    -0.044 A 
ATOM      7  C   LIG d   1       8.657   1.445  -6.828  0.00  0.00    -0.019 A 
ATOM      8  C   LIG d   1       8.460   1.768  -5.487  0.00  0.00     0.124 A 
ATOM      9  C   LIG d   1       8.780   3.030  -5.012  0.00  0.00     0.023 A 
ATOM     10  C   LIG d   1       9.301   3.986  -5.876  0.00  0.00     0.143 A 
ATOM     11  O   LIG d   1       9.687   5.262  -5.667  0.00  0.00    -0.451 OA
ATOM     12  H   LIG d   1      11.022   7.450  -7.860  0.00  0.00     0.066 H 
ATOM     13  H   LIG d   1       9.319   2.121  -8.728  0.00  0.00     0.063 H 
ATOM     14  H   LIG d   1       8.404   0.457  -7.186  0.00  0.00     0.065 H 
ATOM     15  H   LIG d   1       8.624   3.270  -3.972  0.00  0.00     0.069 H 
ENDROOT
BRANCH   1  16
ATOM     16  C   LIG d   1      10.530   8.035  -5.782  0.00  0.00    -0.014 A 
ATOM     17  C   LIG d   1       9.715   9.172  -5.848  0.00  0.00    -0.009 A 
ATOM     18  C   LIG d   1       9.648  10.035  -4.771  0.00  0.00     0.166 A 
ATOM     19  H   LIG d   1       9.140   9.375  -6.740  0.00  0.00     0.066 H 
ATOM     20  C   LIG d   1      10.390   9.775  -3.620  0.00  0.00     0.203 A 
ATOM     21  C   LIG d   1      11.201   8.645  -3.552  0.00  0.00     0.166 A 
ATOM     22  C   LIG d   1      11.270   7.774  -4.622  0.00  0.00    -0.009 A 
ATOM     23  H   LIG d   1      11.895   6.896  -4.566  0.00  0.00     0.066 H 
BRANCH  18  24
ATOM     24  O   LIG d   1       8.857  11.140  -4.833  0.00  0.00    -0.491 OA
BRANCH  24  25
ATOM     25  C   LIG d   1       9.406  12.294  -5.472  0.00  0.00     0.079 C 
ATOM     26  H   LIG d   1       9.183  12.260  -6.538  0.00  0.00     0.066 H 
ATOM     27  H   LIG d   1       8.966  13.193  -5.038  0.00  0.00     0.066 H 
ATOM     28  H   LIG d   1      10.486  12.312  -5.327  0.00  0.00     0.066 H 
ENDBRANCH  24  25
ENDBRANCH  18  24
BRANCH  20  29
ATOM     29  O   LIG d   1      10.322  10.627  -2.564  0.00  0.00    -0.488 OA
BRANCH  29  30
ATOM     30  C   LIG d   1       9.286  10.393  -1.608  0.00  0.00     0.079 C 
ATOM     31  H   LIG d   1       8.317  10.431  -2.106  0.00  0.00     0.066 H 
ATOM     32  H   LIG d   1       9.423   9.411  -1.156  0.00  0.00     0.066 H 
ATOM     33  H   LIG d   1       9.326  11.158  -0.833  0.00  0.00     0.066 H 
ENDBRANCH  29  30
ENDBRANCH  20  29
BRANCH  21  34
ATOM     34  O   LIG d   1      11.923   8.396  -2.426  0.00  0.00    -0.491 OA
BRANCH  34  35
ATOM     35  C   LIG d   1      11.501   7.297  -1.615  0.00  0.00     0.079 C 
ATOM     36  H   LIG d   1      11.962   7.373  -0.631  0.00  0.00     0.066 H 
ATOM     37  H   LIG d   1      10.415   7.320  -1.511  0.00  0.00     0.066 H 
ATOM     38  H   LIG d   1      11.801   6.361  -2.086  0.00  0.00     0.066 H 
ENDBRANCH  34  35
ENDBRANCH  21  34
ENDBRANCH   1  16
BRANCH   8  39
ATOM     39  O   LIG d   1       7.952   0.839  -4.639  0.00  0.00    -0.487 OA
BRANCH  39  40
ATOM     40  C   LIG d   1       7.161   1.320  -3.549  0.00  0.00     0.115 C 
ATOM     41  H   LIG d   1       7.811   1.563  -2.709  0.00  0.00     0.075 H 
ATOM     42  H   LIG d   1       6.619   2.213  -3.860  0.00  0.00     0.075 H 
BRANCH  40  43
ATOM     43  C   LIG d   1       6.179   0.255  -3.133  0.00  0.00    -0.010 A 
ATOM     44  C   LIG d   1       6.332  -1.042  -3.586  0.00  0.00    -0.053 A 
ATOM     45  C   LIG d   1       5.433  -2.019  -3.205  0.00  0.00    -0.026 A 
ATOM     46  H   LIG d   1       7.158  -1.292  -4.236  0.00  0.00     0.062 H 
ATOM     47  C   LIG d   1       4.376  -1.699  -2.370  0.00  0.00     0.123 A 
ATOM     48  H   LIG d   1       5.554  -3.032  -3.558  0.00  0.00     0.065 H 
ATOM     49  C   LIG d   1       4.222  -0.399  -1.917  0.00  0.00    -0.026 A 
ATOM     50  F   LIG d   1       3.495  -2.653  -1.997  0.00  0.00    -0.205 F 
ATOM     51  C   LIG d   1       5.126   0.576  -2.295  0.00  0.00    -0.053 A 
ATOM     52  H   LIG d   1       3.398  -0.147  -1.266  0.00  0.00     0.065 H 
ATOM     53  H   LIG d   1       5.009   1.589  -1.940  0.00  0.00     0.062 H 
ENDBRANCH  40  43
ENDBRANCH  39  40
ENDBRANCH   8  39
TORSDOF 10
ENDMDL
