MODEL 1
REMARK VINA RESULT:      -6.6      0.000      0.000
REMARK  12 active torsions:
REMARK  status: ('A' for Active; 'I' for Inactive)
REMARK    1  A    between atoms: C_1  and  C_2 
REMARK    2  A    between atoms: C_11  and  O_14 
REMARK    3  A    between atoms: C_12  and  C_13 
REMARK    4  A    between atoms: O_14  and  C_15 
REMARK    5  A    between atoms: C_15  and  C_17 
REMARK    6  A    between atoms: C_17  and  C_19 
REMARK    7  A    between atoms: C_17  and  N_25 
REMARK       I    between atoms: N_25  and  C_26 
REMARK    8  A    between atoms: C_26  and  O_28 
REMARK    9  A    between atoms: O_28  and  C_29 
REMARK   10  A    between atoms: C_29  and  C_30 
REMARK   11  A    between atoms: C_29  and  C_31 
REMARK   12  A    between atoms: C_29  and  C_32 
ROOT
ATOM      1  C   LIG d   1       4.303  -0.745  -5.863  0.00  0.00     0.149 C 
ATOM      2  H   LIG d   1       5.273  -0.460  -6.269  0.00  0.00     0.067 H 
ENDROOT
BRANCH   1   3
ATOM      3  C   LIG d   1       3.263   0.257  -6.294  0.00  0.00     0.338 C 
ATOM      4  O   LIG d   1       2.240   0.376  -5.662  0.00  0.00    -0.248 OA
BRANCH   3   5
ATOM      5  O   LIG d   1       3.474   1.017  -7.381  0.00  0.00    -0.424 OA
BRANCH   5   6
ATOM      6  C   LIG d   1       3.208   0.454  -8.588  0.00  0.00     0.138 A 
ATOM      7  C   LIG d   1       1.979  -0.163  -8.807  0.00  0.00    -0.018 A 
ATOM      8  C   LIG d   1       1.695  -0.729 -10.017  0.00  0.00    -0.047 A 
ATOM      9  H   LIG d   1       1.245  -0.191  -8.016  0.00  0.00     0.066 H 
ATOM     10  C   LIG d   1       2.650  -0.698 -11.040  0.00  0.00     0.021 A 
ATOM     11  H   LIG d   1       0.739  -1.202 -10.182  0.00  0.00     0.063 H 
ATOM     12  C   LIG d   1       2.375  -1.302 -12.345  0.00  0.00    -0.033 A 
ATOM     13  C   LIG d   1       3.896  -0.080 -10.822  0.00  0.00     0.146 A 
ATOM     14  C   LIG d   1       3.341  -1.239 -13.297  0.00  0.00     0.026 A 
ATOM     15  C   LIG d   1       4.568  -0.605 -13.011  0.00  0.00     0.338 A 
ATOM     16  H   LIG d   1       3.172  -1.675 -14.271  0.00  0.00     0.069 H 
ATOM     17  O   LIG d   1       5.426  -0.556 -13.874  0.00  0.00    -0.245 OA
ATOM     18  O   LIG d   1       4.813  -0.053 -11.813  0.00  0.00    -0.422 OA
ATOM     19  C   LIG d   1       4.165   0.494  -9.589  0.00  0.00     0.035 A 
BRANCH  12  20
ATOM     20  C   LIG d   1       1.056  -1.975 -12.625  0.00  0.00    -0.039 C 
ATOM     21  H   LIG d   1       0.427  -1.310 -13.218  0.00  0.00     0.028 H 
ATOM     22  H   LIG d   1       1.229  -2.899 -13.176  0.00  0.00     0.028 H 
ATOM     23  H   LIG d   1       0.557  -2.202 -11.682  0.00  0.00     0.028 H 
ENDBRANCH  12  20
BRANCH  19  24
ATOM     24  C   LIG d   1       5.494   1.159  -9.339  0.00  0.00    -0.033 C 
ATOM     25  H   LIG d   1       6.297   0.441  -9.505  0.00  0.00     0.028 H 
ATOM     26  H   LIG d   1       5.613   2.001 -10.022  0.00  0.00     0.028 H 
ATOM     27  H   LIG d   1       5.533   1.518  -8.311  0.00  0.00     0.028 H 
ENDBRANCH  19  24
ENDBRANCH   5   6
ENDBRANCH   3   5
ENDBRANCH   1   3
BRANCH   1  28
ATOM     28  C   LIG d   1       4.377  -0.775  -4.358  0.00  0.00    -0.016 A 
ATOM     29  C   LIG d   1       3.909  -1.876  -3.665  0.00  0.00    -0.056 A 
ATOM     30  C   LIG d   1       3.977  -1.904  -2.284  0.00  0.00    -0.061 A 
ATOM     31  H   LIG d   1       3.490  -2.714  -4.202  0.00  0.00     0.062 H 
ATOM     32  C   LIG d   1       4.513  -0.832  -1.597  0.00  0.00    -0.062 A 
ATOM     33  H   LIG d   1       3.611  -2.764  -1.743  0.00  0.00     0.062 H 
ATOM     34  C   LIG d   1       4.982   0.269  -2.290  0.00  0.00    -0.061 A 
ATOM     35  H   LIG d   1       4.566  -0.854  -0.519  0.00  0.00     0.062 H 
ATOM     36  C   LIG d   1       4.918   0.295  -3.671  0.00  0.00    -0.056 A 
ATOM     37  H   LIG d   1       5.400   1.107  -1.753  0.00  0.00     0.062 H 
ATOM     38  H   LIG d   1       5.288   1.154  -4.212  0.00  0.00     0.062 H 
ENDBRANCH   1  28
BRANCH   1  39
ATOM     39  N   LIG d   1       3.936  -2.073  -6.360  0.00  0.00    -0.264 N 
ATOM     40  C   LIG d   1       4.710  -2.686  -7.279  0.00  0.00     0.402 C 
ATOM     41  O   LIG d   1       5.711  -2.136  -7.693  0.00  0.00    -0.226 OA
ATOM     42  H   LIG d   1       3.137  -2.512  -6.029  0.00  0.00     0.153 HD
BRANCH  40  43
ATOM     43  O   LIG d   1       4.373  -3.907  -7.735  0.00  0.00    -0.445 OA
BRANCH  43  44
ATOM     44  C   LIG d   1       5.035  -5.045  -7.121  0.00  0.00     0.107 C 
BRANCH  44  45
ATOM     45  C   LIG d   1       5.038  -4.873  -5.601  0.00  0.00    -0.025 C 
ATOM     46  H   LIG d   1       6.052  -4.998  -5.223  0.00  0.00     0.027 H 
ATOM     47  H   LIG d   1       4.674  -3.878  -5.346  0.00  0.00     0.027 H 
ATOM     48  H   LIG d   1       4.388  -5.624  -5.149  0.00  0.00     0.027 H 
ENDBRANCH  44  45
BRANCH  44  49
ATOM     49  C   LIG d   1       4.285  -6.328  -7.488  0.00  0.00    -0.025 C 
ATOM     50  H   LIG d   1       3.634  -6.137  -8.340  0.00  0.00     0.027 H 
ATOM     51  H   LIG d   1       5.004  -7.106  -7.746  0.00  0.00     0.027 H 
ATOM     52  H   LIG d   1       3.687  -6.654  -6.638  0.00  0.00     0.027 H 
ENDBRANCH  44  49
BRANCH  44  53
ATOM     53  C   LIG d   1       6.475  -5.133  -7.628  0.00  0.00    -0.025 C 
ATOM     54  H   LIG d   1       6.653  -6.122  -8.047  0.00  0.00     0.027 H 
ATOM     55  H   LIG d   1       6.635  -4.379  -8.399  0.00  0.00     0.027 H 
ATOM     56  H   LIG d   1       7.163  -4.959  -6.801  0.00  0.00     0.027 H 
ENDBRANCH  44  53
ENDBRANCH  43  44
ENDBRANCH  40  43
ENDBRANCH   1  39
TORSDOF 12
ENDMDL
MODEL 2
REMARK VINA RESULT:      -6.5      2.368      7.082
REMARK  12 active torsions:
REMARK  status: ('A' for Active; 'I' for Inactive)
REMARK    1  A    between atoms: C_1  and  C_2 
REMARK    2  A    between atoms: C_11  and  O_14 
REMARK    3  A    between atoms: C_12  and  C_13 
REMARK    4  A    between atoms: O_14  and  C_15 
REMARK    5  A    between atoms: C_15  and  C_17 
REMARK    6  A    between atoms: C_17  and  C_19 
REMARK    7  A    between atoms: C_17  and  N_25 
REMARK       I    between atoms: N_25  and  C_26 
REMARK    8  A    between atoms: C_26  and  O_28 
REMARK    9  A    between atoms: O_28  and  C_29 
REMARK   10  A    between atoms: C_29  and  C_30 
REMARK   11  A    between atoms: C_29  and  C_31 
REMARK   12  A    between atoms: C_29  and  C_32 
ROOT
ATOM      1  C   LIG d   1       4.373  -1.361  -5.846  0.00  0.00     0.149 C 
ATOM      2  H   LIG d   1       3.614  -2.103  -6.089  0.00  0.00     0.067 H 
ENDROOT
BRANCH   1   3
ATOM      3  C   LIG d   1       5.729  -1.875  -6.258  0.00  0.00     0.338 C 
ATOM      4  O   LIG d   1       6.729  -1.331  -5.853  0.00  0.00    -0.248 OA
BRANCH   3   5
ATOM      5  O   LIG d   1       5.825  -2.936  -7.075  0.00  0.00    -0.424 OA
BRANCH   5   6
ATOM      6  C   LIG d   1       6.160  -4.123  -6.506  0.00  0.00     0.138 A 
ATOM      7  C   LIG d   1       7.469  -4.340  -6.081  0.00  0.00    -0.018 A 
ATOM      8  C   LIG d   1       7.820  -5.526  -5.503  0.00  0.00    -0.047 A 
ATOM      9  H   LIG d   1       8.209  -3.564  -6.207  0.00  0.00     0.066 H 
ATOM     10  C   LIG d   1       6.862  -6.534  -5.347  0.00  0.00     0.021 A 
ATOM     11  H   LIG d   1       8.835  -5.687  -5.172  0.00  0.00     0.063 H 
ATOM     12  C   LIG d   1       7.212  -7.818  -4.736  0.00  0.00    -0.033 A 
ATOM     13  C   LIG d   1       5.540  -6.322  -5.779  0.00  0.00     0.146 A 
ATOM     14  C   LIG d   1       6.238  -8.756  -4.611  0.00  0.00     0.026 A 
ATOM     15  C   LIG d   1       4.933  -8.477  -5.066  0.00  0.00     0.338 A 
ATOM     16  H   LIG d   1       6.462  -9.714  -4.165  0.00  0.00     0.069 H 
ATOM     17  O   LIG d   1       4.069  -9.327  -4.949  0.00  0.00    -0.245 OA
ATOM     18  O   LIG d   1       4.618  -7.298  -5.625  0.00  0.00    -0.422 OA
ATOM     19  C   LIG d   1       5.199  -5.109  -6.359  0.00  0.00     0.035 A 
BRANCH  12  20
ATOM     20  C   LIG d   1       8.615  -8.091  -4.258  0.00  0.00    -0.039 C 
ATOM     21  H   LIG d   1       8.625  -8.143  -3.168  0.00  0.00     0.028 H 
ATOM     22  H   LIG d   1       8.961  -9.039  -4.669  0.00  0.00     0.028 H 
ATOM     23  H   LIG d   1       9.275  -7.289  -4.589  0.00  0.00     0.028 H 
ENDBRANCH  12  20
BRANCH  19  24
ATOM     24  C   LIG d   1       3.788  -4.866  -6.827  0.00  0.00    -0.033 C 
ATOM     25  H   LIG d   1       3.096  -5.437  -6.209  0.00  0.00     0.028 H 
ATOM     26  H   LIG d   1       3.556  -3.803  -6.746  0.00  0.00     0.028 H 
ATOM     27  H   LIG d   1       3.690  -5.180  -7.867  0.00  0.00     0.028 H 
ENDBRANCH  19  24
ENDBRANCH   5   6
ENDBRANCH   3   5
ENDBRANCH   1   3
BRANCH   1  28
ATOM     28  C   LIG d   1       4.365  -1.099  -4.363  0.00  0.00    -0.016 A 
ATOM     29  C   LIG d   1       4.278  -2.155  -3.475  0.00  0.00    -0.056 A 
ATOM     30  C   LIG d   1       4.271  -1.914  -2.113  0.00  0.00    -0.061 A 
ATOM     31  H   LIG d   1       4.215  -3.167  -3.844  0.00  0.00     0.062 H 
ATOM     32  C   LIG d   1       4.351  -0.618  -1.640  0.00  0.00    -0.062 A 
ATOM     33  H   LIG d   1       4.201  -2.740  -1.420  0.00  0.00     0.062 H 
ATOM     34  C   LIG d   1       4.440   0.437  -2.527  0.00  0.00    -0.061 A 
ATOM     35  H   LIG d   1       4.346  -0.431  -0.576  0.00  0.00     0.062 H 
ATOM     36  C   LIG d   1       4.452   0.197  -3.889  0.00  0.00    -0.056 A 
ATOM     37  H   LIG d   1       4.502   1.450  -2.157  0.00  0.00     0.062 H 
ATOM     38  H   LIG d   1       4.524   1.022  -4.582  0.00  0.00     0.062 H 
ENDBRANCH   1  28
BRANCH   1  39
ATOM     39  N   LIG d   1       4.085  -0.116  -6.563  0.00  0.00    -0.264 N 
ATOM     40  C   LIG d   1       3.420  -0.153  -7.736  0.00  0.00     0.402 C 
ATOM     41  O   LIG d   1       3.060  -1.218  -8.196  0.00  0.00    -0.226 OA
ATOM     42  H   LIG d   1       4.373   0.734  -6.195  0.00  0.00     0.153 HD
BRANCH  40  43
ATOM     43  O   LIG d   1       3.154   0.991  -8.394  0.00  0.00    -0.445 OA
BRANCH  43  44
ATOM     44  C   LIG d   1       4.148   1.446  -9.352  0.00  0.00     0.107 C 
BRANCH  44  45
ATOM     45  C   LIG d   1       3.717   1.044 -10.763  0.00  0.00    -0.025 C 
ATOM     46  H   LIG d   1       2.995   0.229 -10.705  0.00  0.00     0.027 H 
ATOM     47  H   LIG d   1       3.260   1.899 -11.262  0.00  0.00     0.027 H 
ATOM     48  H   LIG d   1       4.589   0.716 -11.330  0.00  0.00     0.027 H 
ENDBRANCH  44  45
BRANCH  44  49
ATOM     49  C   LIG d   1       4.274   2.969  -9.271  0.00  0.00    -0.025 C 
ATOM     50  H   LIG d   1       3.778   3.327  -8.370  0.00  0.00     0.027 H 
ATOM     51  H   LIG d   1       5.328   3.244  -9.240  0.00  0.00     0.027 H 
ATOM     52  H   LIG d   1       3.807   3.418 -10.146  0.00  0.00     0.027 H 
ENDBRANCH  44  49
BRANCH  44  53
ATOM     53  C   LIG d   1       5.498   0.804  -9.028  0.00  0.00    -0.025 C 
ATOM     54  H   LIG d   1       5.727   0.043  -9.773  0.00  0.00     0.027 H 
ATOM     55  H   LIG d   1       6.276   1.569  -9.041  0.00  0.00     0.027 H 
ATOM     56  H   LIG d   1       5.456   0.346  -8.040  0.00  0.00     0.027 H 
ENDBRANCH  44  53
ENDBRANCH  43  44
ENDBRANCH  40  43
ENDBRANCH   1  39
TORSDOF 12
ENDMDL
MODEL 3
REMARK VINA RESULT:      -6.5      4.259      7.356
REMARK  12 active torsions:
REMARK  status: ('A' for Active; 'I' for Inactive)
REMARK    1  A    between atoms: C_1  and  C_2 
REMARK    2  A    between atoms: C_11  and  O_14 
REMARK    3  A    between atoms: C_12  and  C_13 
REMARK    4  A    between atoms: O_14  and  C_15 
REMARK    5  A    between atoms: C_15  and  C_17 
REMARK    6  A    between atoms: C_17  and  C_19 
REMARK    7  A    between atoms: C_17  and  N_25 
REMARK       I    between atoms: N_25  and  C_26 
REMARK    8  A    between atoms: C_26  and  O_28 
REMARK    9  A    between atoms: O_28  and  C_29 
REMARK   10  A    between atoms: C_29  and  C_30 
REMARK   11  A    between atoms: C_29  and  C_31 
REMARK   12  A    between atoms: C_29  and  C_32 
ROOT
ATOM      1  C   LIG d   1       6.201  -0.979  -5.309  0.00  0.00     0.149 C 
ATOM      2  H   LIG d   1       5.965  -2.009  -5.574  0.00  0.00     0.067 H 
ENDROOT
BRANCH   1   3
ATOM      3  C   LIG d   1       7.696  -0.813  -5.216  0.00  0.00     0.338 C 
ATOM      4  O   LIG d   1       8.325  -1.453  -4.406  0.00  0.00    -0.248 OA
BRANCH   3   5
ATOM      5  O   LIG d   1       8.328   0.044  -6.033  0.00  0.00    -0.424 OA
BRANCH   5   6
ATOM      6  C   LIG d   1       8.697   1.240  -5.506  0.00  0.00     0.138 A 
ATOM      7  C   LIG d   1       8.847   1.371  -4.127  0.00  0.00    -0.018 A 
ATOM      8  C   LIG d   1       9.222   2.565  -3.583  0.00  0.00    -0.047 A 
ATOM      9  H   LIG d   1       8.669   0.521  -3.486  0.00  0.00     0.066 H 
ATOM     10  C   LIG d   1       9.445   3.669  -4.414  0.00  0.00     0.021 A 
ATOM     11  H   LIG d   1       9.342   2.659  -2.514  0.00  0.00     0.063 H 
ATOM     12  C   LIG d   1       9.843   4.963  -3.858  0.00  0.00    -0.033 A 
ATOM     13  C   LIG d   1       9.290   3.544  -5.808  0.00  0.00     0.146 A 
ATOM     14  C   LIG d   1      10.045   5.996  -4.716  0.00  0.00     0.026 A 
ATOM     15  C   LIG d   1       9.871   5.801  -6.102  0.00  0.00     0.338 A 
ATOM     16  H   LIG d   1      10.339   6.965  -4.339  0.00  0.00     0.069 H 
ATOM     17  O   LIG d   1      10.055   6.735  -6.861  0.00  0.00    -0.245 OA
ATOM     18  O   LIG d   1       9.507   4.611  -6.606  0.00  0.00    -0.422 OA
ATOM     19  C   LIG d   1       8.914   2.321  -6.344  0.00  0.00     0.035 A 
BRANCH  12  20
ATOM     20  C   LIG d   1      10.022   5.146  -2.373  0.00  0.00    -0.039 C 
ATOM     21  H   LIG d   1      10.080   4.169  -1.890  0.00  0.00     0.028 H 
ATOM     22  H   LIG d   1      10.940   5.701  -2.182  0.00  0.00     0.028 H 
ATOM     23  H   LIG d   1       9.172   5.699  -1.970  0.00  0.00     0.028 H 
ENDBRANCH  12  20
BRANCH  19  24
ATOM     24  C   LIG d   1       8.742   2.171  -7.833  0.00  0.00    -0.033 C 
ATOM     25  H   LIG d   1       9.694   1.887  -8.282  0.00  0.00     0.028 H 
ATOM     26  H   LIG d   1       8.000   1.398  -8.038  0.00  0.00     0.028 H 
ATOM     27  H   LIG d   1       8.407   3.117  -8.259  0.00  0.00     0.028 H 
ENDBRANCH  19  24
ENDBRANCH   5   6
ENDBRANCH   3   5
ENDBRANCH   1   3
BRANCH   1  28
ATOM     28  C   LIG d   1       5.575  -0.647  -3.979  0.00  0.00    -0.016 A 
ATOM     29  C   LIG d   1       5.558   0.661  -3.531  0.00  0.00    -0.056 A 
ATOM     30  C   LIG d   1       4.984   0.967  -2.311  0.00  0.00    -0.061 A 
ATOM     31  H   LIG d   1       5.993   1.444  -4.134  0.00  0.00     0.062 H 
ATOM     32  C   LIG d   1       4.427  -0.035  -1.539  0.00  0.00    -0.062 A 
ATOM     33  H   LIG d   1       4.971   1.988  -1.962  0.00  0.00     0.062 H 
ATOM     34  C   LIG d   1       4.443  -1.342  -1.987  0.00  0.00    -0.061 A 
ATOM     35  H   LIG d   1       3.978   0.204  -0.587  0.00  0.00     0.062 H 
ATOM     36  C   LIG d   1       5.013  -1.648  -3.209  0.00  0.00    -0.056 A 
ATOM     37  H   LIG d   1       4.008  -2.125  -1.384  0.00  0.00     0.062 H 
ATOM     38  H   LIG d   1       5.023  -2.669  -3.561  0.00  0.00     0.062 H 
ENDBRANCH   1  28
BRANCH   1  39
ATOM     39  N   LIG d   1       5.673  -0.078  -6.336  0.00  0.00    -0.264 N 
ATOM     40  C   LIG d   1       4.961  -0.575  -7.367  0.00  0.00     0.402 C 
ATOM     41  O   LIG d   1       4.758  -1.771  -7.444  0.00  0.00    -0.226 OA
ATOM     42  H   LIG d   1       5.835   0.876  -6.274  0.00  0.00     0.153 HD
BRANCH  40  43
ATOM     43  O   LIG d   1       4.475   0.253  -8.311  0.00  0.00    -0.445 OA
BRANCH  43  44
ATOM     44  C   LIG d   1       3.085   0.656  -8.181  0.00  0.00     0.107 C 
BRANCH  44  45
ATOM     45  C   LIG d   1       2.636   0.478  -6.729  0.00  0.00    -0.025 C 
ATOM     46  H   LIG d   1       1.893  -0.317  -6.674  0.00  0.00     0.027 H 
ATOM     47  H   LIG d   1       3.496   0.216  -6.112  0.00  0.00     0.027 H 
ATOM     48  H   LIG d   1       2.200   1.409  -6.367  0.00  0.00     0.027 H 
ENDBRANCH  44  45
BRANCH  44  49
ATOM     49  C   LIG d   1       2.942   2.126  -8.582  0.00  0.00    -0.025 C 
ATOM     50  H   LIG d   1       3.880   2.647  -8.393  0.00  0.00     0.027 H 
ATOM     51  H   LIG d   1       2.697   2.190  -9.642  0.00  0.00     0.027 H 
ATOM     52  H   LIG d   1       2.147   2.586  -7.997  0.00  0.00     0.027 H 
ENDBRANCH  44  49
BRANCH  44  53
ATOM     53  C   LIG d   1       2.216  -0.209  -9.095  0.00  0.00    -0.025 C 
ATOM     54  H   LIG d   1       2.564  -0.114 -10.123  0.00  0.00     0.027 H 
ATOM     55  H   LIG d   1       2.286  -1.252  -8.783  0.00  0.00     0.027 H 
ATOM     56  H   LIG d   1       1.179   0.121  -9.029  0.00  0.00     0.027 H 
ENDBRANCH  44  53
ENDBRANCH  43  44
ENDBRANCH  40  43
ENDBRANCH   1  39
TORSDOF 12
ENDMDL
MODEL 4
REMARK VINA RESULT:      -6.5      3.424      7.928
REMARK  12 active torsions:
REMARK  status: ('A' for Active; 'I' for Inactive)
REMARK    1  A    between atoms: C_1  and  C_2 
REMARK    2  A    between atoms: C_11  and  O_14 
REMARK    3  A    between atoms: C_12  and  C_13 
REMARK    4  A    between atoms: O_14  and  C_15 
REMARK    5  A    between atoms: C_15  and  C_17 
REMARK    6  A    between atoms: C_17  and  C_19 
REMARK    7  A    between atoms: C_17  and  N_25 
REMARK       I    between atoms: N_25  and  C_26 
REMARK    8  A    between atoms: C_26  and  O_28 
REMARK    9  A    between atoms: O_28  and  C_29 
REMARK   10  A    between atoms: C_29  and  C_30 
REMARK   11  A    between atoms: C_29  and  C_31 
REMARK   12  A    between atoms: C_29  and  C_32 
ROOT
ATOM      1  C   LIG d   1       8.037   1.486  -7.353  0.00  0.00     0.149 C 
ATOM      2  H   LIG d   1       7.436   1.643  -6.458  0.00  0.00     0.067 H 
ENDROOT
BRANCH   1   3
ATOM      3  C   LIG d   1       9.100   0.455  -7.070  0.00  0.00     0.338 C 
ATOM      4  O   LIG d   1       9.762   0.007  -7.977  0.00  0.00    -0.248 OA
BRANCH   3   5
ATOM      5  O   LIG d   1       9.311   0.036  -5.813  0.00  0.00    -0.424 OA
BRANCH   5   6
ATOM      6  C   LIG d   1       8.237   0.013  -4.981  0.00  0.00     0.138 A 
ATOM      7  C   LIG d   1       7.917   1.145  -4.236  0.00  0.00    -0.018 A 
ATOM      8  C   LIG d   1       6.837   1.140  -3.400  0.00  0.00    -0.047 A 
ATOM      9  H   LIG d   1       8.524   2.034  -4.322  0.00  0.00     0.066 H 
ATOM     10  C   LIG d   1       6.054  -0.014  -3.283  0.00  0.00     0.021 A 
ATOM     11  H   LIG d   1       6.591   2.022  -2.828  0.00  0.00     0.063 H 
ATOM     12  C   LIG d   1       4.894  -0.050  -2.391  0.00  0.00    -0.033 A 
ATOM     13  C   LIG d   1       6.376  -1.163  -4.031  0.00  0.00     0.146 A 
ATOM     14  C   LIG d   1       4.173  -1.199  -2.322  0.00  0.00     0.026 A 
ATOM     15  C   LIG d   1       4.553  -2.313  -3.098  0.00  0.00     0.338 A 
ATOM     16  H   LIG d   1       3.312  -1.260  -1.673  0.00  0.00     0.069 H 
ATOM     17  O   LIG d   1       3.898  -3.338  -3.026  0.00  0.00    -0.245 OA
ATOM     18  O   LIG d   1       5.617  -2.274  -3.915  0.00  0.00    -0.422 OA
ATOM     19  C   LIG d   1       7.473  -1.137  -4.879  0.00  0.00     0.035 A 
BRANCH  12  20
ATOM     20  C   LIG d   1       4.510   1.154  -1.570  0.00  0.00    -0.039 C 
ATOM     21  H   LIG d   1       3.551   1.541  -1.919  0.00  0.00     0.028 H 
ATOM     22  H   LIG d   1       4.427   0.869  -0.522  0.00  0.00     0.028 H 
ATOM     23  H   LIG d   1       5.273   1.926  -1.678  0.00  0.00     0.028 H 
ENDBRANCH  12  20
BRANCH  19  24
ATOM     24  C   LIG d   1       7.832  -2.358  -5.686  0.00  0.00    -0.033 C 
ATOM     25  H   LIG d   1       8.645  -2.893  -5.195  0.00  0.00     0.028 H 
ATOM     26  H   LIG d   1       6.962  -3.011  -5.764  0.00  0.00     0.028 H 
ATOM     27  H   LIG d   1       8.148  -2.055  -6.684  0.00  0.00     0.028 H 
ENDBRANCH  19  24
ENDBRANCH   5   6
ENDBRANCH   3   5
ENDBRANCH   1   3
BRANCH   1  28
ATOM     28  C   LIG d   1       8.689   2.783  -7.755  0.00  0.00    -0.016 A 
ATOM     29  C   LIG d   1       9.525   3.440  -6.870  0.00  0.00    -0.056 A 
ATOM     30  C   LIG d   1      10.124   4.630  -7.240  0.00  0.00    -0.061 A 
ATOM     31  H   LIG d   1       9.710   3.023  -5.891  0.00  0.00     0.062 H 
ATOM     32  C   LIG d   1       9.888   5.163  -8.493  0.00  0.00    -0.062 A 
ATOM     33  H   LIG d   1      10.776   5.143  -6.548  0.00  0.00     0.062 H 
ATOM     34  C   LIG d   1       9.054   4.506  -9.377  0.00  0.00    -0.061 A 
ATOM     35  H   LIG d   1      10.356   6.093  -8.781  0.00  0.00     0.062 H 
ATOM     36  C   LIG d   1       8.458   3.313  -9.010  0.00  0.00    -0.056 A 
ATOM     37  H   LIG d   1       8.869   4.923 -10.356  0.00  0.00     0.062 H 
ATOM     38  H   LIG d   1       7.809   2.799  -9.703  0.00  0.00     0.062 H 
ENDBRANCH   1  28
BRANCH   1  39
ATOM     39  N   LIG d   1       7.177   1.014  -8.441  0.00  0.00    -0.264 N 
ATOM     40  C   LIG d   1       5.915   0.618  -8.178  0.00  0.00     0.402 C 
ATOM     41  O   LIG d   1       5.492   0.652  -7.040  0.00  0.00    -0.226 OA
ATOM     42  H   LIG d   1       7.515   0.987  -9.350  0.00  0.00     0.153 HD
BRANCH  40  43
ATOM     43  O   LIG d   1       5.125   0.185  -9.179  0.00  0.00    -0.445 OA
BRANCH  43  44
ATOM     44  C   LIG d   1       4.097   1.098  -9.649  0.00  0.00     0.107 C 
BRANCH  44  45
ATOM     45  C   LIG d   1       2.763   0.749  -8.986  0.00  0.00    -0.025 C 
ATOM     46  H   LIG d   1       2.563  -0.315  -9.109  0.00  0.00     0.027 H 
ATOM     47  H   LIG d   1       2.811   0.990  -7.923  0.00  0.00     0.027 H 
ATOM     48  H   LIG d   1       1.964   1.326  -9.453  0.00  0.00     0.027 H 
ENDBRANCH  44  45
BRANCH  44  49
ATOM     49  C   LIG d   1       4.487   2.533  -9.286  0.00  0.00    -0.025 C 
ATOM     50  H   LIG d   1       4.732   2.586  -8.226  0.00  0.00     0.027 H 
ATOM     51  H   LIG d   1       5.355   2.832  -9.875  0.00  0.00     0.027 H 
ATOM     52  H   LIG d   1       3.654   3.201  -9.502  0.00  0.00     0.027 H 
ENDBRANCH  44  49
BRANCH  44  53
ATOM     53  C   LIG d   1       3.961   0.974 -11.167  0.00  0.00    -0.025 C 
ATOM     54  H   LIG d   1       3.096   1.545 -11.502  0.00  0.00     0.027 H 
ATOM     55  H   LIG d   1       4.860   1.364 -11.646  0.00  0.00     0.027 H 
ATOM     56  H   LIG d   1       3.832  -0.074 -11.436  0.00  0.00     0.027 H 
ENDBRANCH  44  53
ENDBRANCH  43  44
ENDBRANCH  40  43
ENDBRANCH   1  39
TORSDOF 12
ENDMDL
MODEL 5
REMARK VINA RESULT:      -6.3      3.407      6.401
REMARK  12 active torsions:
REMARK  status: ('A' for Active; 'I' for Inactive)
REMARK    1  A    between atoms: C_1  and  C_2 
REMARK    2  A    between atoms: C_11  and  O_14 
REMARK    3  A    between atoms: C_12  and  C_13 
REMARK    4  A    between atoms: O_14  and  C_15 
REMARK    5  A    between atoms: C_15  and  C_17 
REMARK    6  A    between atoms: C_17  and  C_19 
REMARK    7  A    between atoms: C_17  and  N_25 
REMARK       I    between atoms: N_25  and  C_26 
REMARK    8  A    between atoms: C_26  and  O_28 
REMARK    9  A    between atoms: O_28  and  C_29 
REMARK   10  A    between atoms: C_29  and  C_30 
REMARK   11  A    between atoms: C_29  and  C_31 
REMARK   12  A    between atoms: C_29  and  C_32 
ROOT
ATOM      1  C   LIG d   1       4.647  -1.099  -5.608  0.00  0.00     0.149 C 
ATOM      2  H   LIG d   1       3.927  -1.895  -5.795  0.00  0.00     0.067 H 
ENDROOT
BRANCH   1   3
ATOM      3  C   LIG d   1       6.044  -1.626  -5.814  0.00  0.00     0.338 C 
ATOM      4  O   LIG d   1       6.232  -2.568  -6.547  0.00  0.00    -0.248 OA
BRANCH   3   5
ATOM      5  O   LIG d   1       7.079  -1.049  -5.183  0.00  0.00    -0.424 OA
BRANCH   5   6
ATOM      6  C   LIG d   1       7.669   0.007  -5.803  0.00  0.00     0.138 A 
ATOM      7  C   LIG d   1       7.958  -0.066  -7.164  0.00  0.00    -0.018 A 
ATOM      8  C   LIG d   1       8.545   0.988  -7.802  0.00  0.00    -0.047 A 
ATOM      9  H   LIG d   1       7.713  -0.960  -7.717  0.00  0.00     0.066 H 
ATOM     10  C   LIG d   1       8.869   2.144  -7.083  0.00  0.00     0.021 A 
ATOM     11  H   LIG d   1       8.763   0.928  -8.858  0.00  0.00     0.063 H 
ATOM     12  C   LIG d   1       9.504   3.288  -7.741  0.00  0.00    -0.033 A 
ATOM     13  C   LIG d   1       8.583   2.221  -5.707  0.00  0.00     0.146 A 
ATOM     14  C   LIG d   1       9.793   4.381  -6.989  0.00  0.00     0.026 A 
ATOM     15  C   LIG d   1       9.480   4.390  -5.614  0.00  0.00     0.338 A 
ATOM     16  H   LIG d   1      10.262   5.242  -7.443  0.00  0.00     0.069 H 
ATOM     17  O   LIG d   1       9.745   5.377  -4.952  0.00  0.00    -0.245 OA
ATOM     18  O   LIG d   1       8.897   3.339  -5.017  0.00  0.00    -0.422 OA
ATOM     19  C   LIG d   1       7.981   1.143  -5.076  0.00  0.00     0.035 A 
BRANCH  12  20
ATOM     20  C   LIG d   1       9.830   3.253  -9.212  0.00  0.00    -0.039 C 
ATOM     21  H   LIG d   1       9.181   3.950  -9.745  0.00  0.00     0.028 H 
ATOM     22  H   LIG d   1      10.870   3.538  -9.361  0.00  0.00     0.028 H 
ATOM     23  H   LIG d   1       9.671   2.244  -9.595  0.00  0.00     0.028 H 
ENDBRANCH  12  20
BRANCH  19  24
ATOM     24  C   LIG d   1       7.669   1.208  -3.603  0.00  0.00    -0.033 C 
ATOM     25  H   LIG d   1       7.443   2.237  -3.324  0.00  0.00     0.028 H 
ATOM     26  H   LIG d   1       6.807   0.575  -3.386  0.00  0.00     0.028 H 
ATOM     27  H   LIG d   1       8.529   0.857  -3.033  0.00  0.00     0.028 H 
ENDBRANCH  19  24
ENDBRANCH   5   6
ENDBRANCH   3   5
ENDBRANCH   1   3
BRANCH   1  28
ATOM     28  C   LIG d   1       4.499  -0.609  -4.191  0.00  0.00    -0.016 A 
ATOM     29  C   LIG d   1       4.712  -1.474  -3.134  0.00  0.00    -0.056 A 
ATOM     30  C   LIG d   1       4.576  -1.024  -1.834  0.00  0.00    -0.061 A 
ATOM     31  H   LIG d   1       4.985  -2.502  -3.325  0.00  0.00     0.062 H 
ATOM     32  C   LIG d   1       4.227   0.291  -1.591  0.00  0.00    -0.062 A 
ATOM     33  H   LIG d   1       4.742  -1.701  -1.009  0.00  0.00     0.062 H 
ATOM     34  C   LIG d   1       4.015   1.156  -2.647  0.00  0.00    -0.061 A 
ATOM     35  H   LIG d   1       4.121   0.641  -0.575  0.00  0.00     0.062 H 
ATOM     36  C   LIG d   1       4.155   0.708  -3.948  0.00  0.00    -0.056 A 
ATOM     37  H   LIG d   1       3.742   2.183  -2.457  0.00  0.00     0.062 H 
ATOM     38  H   LIG d   1       3.993   1.385  -4.773  0.00  0.00     0.062 H 
ENDBRANCH   1  28
BRANCH   1  39
ATOM     39  N   LIG d   1       4.402   0.008  -6.536  0.00  0.00    -0.264 N 
ATOM     40  C   LIG d   1       3.711  -0.206  -7.673  0.00  0.00     0.402 C 
ATOM     41  O   LIG d   1       3.291  -1.318  -7.928  0.00  0.00    -0.226 OA
ATOM     42  H   LIG d   1       4.737   0.896  -6.332  0.00  0.00     0.153 HD
BRANCH  40  43
ATOM     43  O   LIG d   1       3.485   0.811  -8.525  0.00  0.00    -0.445 OA
BRANCH  43  44
ATOM     44  C   LIG d   1       4.490   1.050  -9.546  0.00  0.00     0.107 C 
BRANCH  44  45
ATOM     45  C   LIG d   1       3.802   1.360 -10.877  0.00  0.00    -0.025 C 
ATOM     46  H   LIG d   1       2.771   1.661 -10.692  0.00  0.00     0.027 H 
ATOM     47  H   LIG d   1       4.332   2.168 -11.382  0.00  0.00     0.027 H 
ATOM     48  H   LIG d   1       3.811   0.470 -11.507  0.00  0.00     0.027 H 
ENDBRANCH  44  45
BRANCH  44  49
ATOM     49  C   LIG d   1       5.362   2.239  -9.135  0.00  0.00    -0.025 C 
ATOM     50  H   LIG d   1       6.314   2.191  -9.663  0.00  0.00     0.027 H 
ATOM     51  H   LIG d   1       4.851   3.168  -9.389  0.00  0.00     0.027 H 
ATOM     52  H   LIG d   1       5.539   2.204  -8.061  0.00  0.00     0.027 H 
ENDBRANCH  44  49
BRANCH  44  53
ATOM     53  C   LIG d   1       5.365  -0.195  -9.702  0.00  0.00    -0.025 C 
ATOM     54  H   LIG d   1       4.901  -0.879 -10.412  0.00  0.00     0.027 H 
ATOM     55  H   LIG d   1       6.350   0.096 -10.070  0.00  0.00     0.027 H 
ATOM     56  H   LIG d   1       5.469  -0.689  -8.736  0.00  0.00     0.027 H 
ENDBRANCH  44  53
ENDBRANCH  43  44
ENDBRANCH  40  43
ENDBRANCH   1  39
TORSDOF 12
ENDMDL
MODEL 6
REMARK VINA RESULT:      -6.3      3.789      6.951
REMARK  12 active torsions:
REMARK  status: ('A' for Active; 'I' for Inactive)
REMARK    1  A    between atoms: C_1  and  C_2 
REMARK    2  A    between atoms: C_11  and  O_14 
REMARK    3  A    between atoms: C_12  and  C_13 
REMARK    4  A    between atoms: O_14  and  C_15 
REMARK    5  A    between atoms: C_15  and  C_17 
REMARK    6  A    between atoms: C_17  and  C_19 
REMARK    7  A    between atoms: C_17  and  N_25 
REMARK       I    between atoms: N_25  and  C_26 
REMARK    8  A    between atoms: C_26  and  O_28 
REMARK    9  A    between atoms: O_28  and  C_29 
REMARK   10  A    between atoms: C_29  and  C_30 
REMARK   11  A    between atoms: C_29  and  C_31 
REMARK   12  A    between atoms: C_29  and  C_32 
ROOT
ATOM      1  C   LIG d   1       4.711  -1.454  -6.403  0.00  0.00     0.149 C 
ATOM      2  H   LIG d   1       5.185  -2.422  -6.559  0.00  0.00     0.067 H 
ENDROOT
BRANCH   1   3
ATOM      3  C   LIG d   1       5.704  -0.356  -6.687  0.00  0.00     0.338 C 
ATOM      4  O   LIG d   1       5.353   0.636  -7.281  0.00  0.00    -0.248 OA
BRANCH   3   5
ATOM      5  O   LIG d   1       6.976  -0.481  -6.278  0.00  0.00    -0.424 OA
BRANCH   5   6
ATOM      6  C   LIG d   1       7.695   0.664  -6.141  0.00  0.00     0.138 A 
ATOM      7  C   LIG d   1       8.223   1.287  -7.269  0.00  0.00    -0.018 A 
ATOM      8  C   LIG d   1       8.942   2.441  -7.148  0.00  0.00    -0.047 A 
ATOM      9  H   LIG d   1       8.058   0.857  -8.246  0.00  0.00     0.066 H 
ATOM     10  C   LIG d   1       9.161   2.995  -5.882  0.00  0.00     0.021 A 
ATOM     11  H   LIG d   1       9.345   2.922  -8.027  0.00  0.00     0.063 H 
ATOM     12  C   LIG d   1       9.934   4.228  -5.722  0.00  0.00    -0.033 A 
ATOM     13  C   LIG d   1       8.634   2.366  -4.738  0.00  0.00     0.146 A 
ATOM     14  C   LIG d   1      10.111   4.716  -4.467  0.00  0.00     0.026 A 
ATOM     15  C   LIG d   1       9.556   4.034  -3.364  0.00  0.00     0.338 A 
ATOM     16  H   LIG d   1      10.676   5.623  -4.313  0.00  0.00     0.069 H 
ATOM     17  O   LIG d   1       9.722   4.482  -2.244  0.00  0.00    -0.245 OA
ATOM     18  O   LIG d   1       8.847   2.904  -3.518  0.00  0.00    -0.422 OA
ATOM     19  C   LIG d   1       7.901   1.197  -4.880  0.00  0.00     0.035 A 
BRANCH  12  20
ATOM     20  C   LIG d   1      10.518   4.937  -6.916  0.00  0.00    -0.039 C 
ATOM     21  H   LIG d   1      11.603   4.825  -6.911  0.00  0.00     0.028 H 
ATOM     22  H   LIG d   1      10.112   4.504  -7.830  0.00  0.00     0.028 H 
ATOM     23  H   LIG d   1      10.262   5.996  -6.871  0.00  0.00     0.028 H 
ENDBRANCH  12  20
BRANCH  19  24
ATOM     24  C   LIG d   1       7.331   0.512  -3.666  0.00  0.00    -0.033 C 
ATOM     25  H   LIG d   1       8.139   0.242  -2.986  0.00  0.00     0.028 H 
ATOM     26  H   LIG d   1       6.639   1.186  -3.158  0.00  0.00     0.028 H 
ATOM     27  H   LIG d   1       6.799  -0.389  -3.973  0.00  0.00     0.028 H 
ENDBRANCH  19  24
ENDBRANCH   5   6
ENDBRANCH   3   5
ENDBRANCH   1   3
BRANCH   1  28
ATOM     28  C   LIG d   1       4.239  -1.348  -4.976  0.00  0.00    -0.016 A 
ATOM     29  C   LIG d   1       3.482  -0.263  -4.577  0.00  0.00    -0.056 A 
ATOM     30  C   LIG d   1       3.049  -0.166  -3.268  0.00  0.00    -0.061 A 
ATOM     31  H   LIG d   1       3.229   0.510  -5.288  0.00  0.00     0.062 H 
ATOM     32  C   LIG d   1       3.372  -1.155  -2.357  0.00  0.00    -0.062 A 
ATOM     33  H   LIG d   1       2.458   0.683  -2.956  0.00  0.00     0.062 H 
ATOM     34  C   LIG d   1       4.128  -2.241  -2.757  0.00  0.00    -0.061 A 
ATOM     35  H   LIG d   1       3.034  -1.079  -1.335  0.00  0.00     0.062 H 
ATOM     36  C   LIG d   1       4.557  -2.341  -4.067  0.00  0.00    -0.056 A 
ATOM     37  H   LIG d   1       4.381  -3.013  -2.046  0.00  0.00     0.062 H 
ATOM     38  H   LIG d   1       5.145  -3.191  -4.380  0.00  0.00     0.062 H 
ENDBRANCH   1  28
BRANCH   1  39
ATOM     39  N   LIG d   1       3.565  -1.321  -7.307  0.00  0.00    -0.264 N 
ATOM     40  C   LIG d   1       3.510  -2.054  -8.437  0.00  0.00     0.402 C 
ATOM     41  O   LIG d   1       4.410  -2.825  -8.705  0.00  0.00    -0.226 OA
ATOM     42  H   LIG d   1       2.847  -0.705  -7.092  0.00  0.00     0.153 HD
BRANCH  40  43
ATOM     43  O   LIG d   1       2.457  -1.932  -9.267  0.00  0.00    -0.445 OA
BRANCH  43  44
ATOM     44  C   LIG d   1       2.463  -0.799 -10.176  0.00  0.00     0.107 C 
BRANCH  44  45
ATOM     45  C   LIG d   1       3.792  -0.760 -10.933  0.00  0.00    -0.025 C 
ATOM     46  H   LIG d   1       3.612  -0.477 -11.970  0.00  0.00     0.027 H 
ATOM     47  H   LIG d   1       4.455  -0.030 -10.467  0.00  0.00     0.027 H 
ATOM     48  H   LIG d   1       4.257  -1.746 -10.902  0.00  0.00     0.027 H 
ENDBRANCH  44  45
BRANCH  44  49
ATOM     49  C   LIG d   1       1.312  -0.940 -11.174  0.00  0.00    -0.025 C 
ATOM     50  H   LIG d   1       1.706  -0.915 -12.190  0.00  0.00     0.027 H 
ATOM     51  H   LIG d   1       0.801  -1.889 -11.006  0.00  0.00     0.027 H 
ATOM     52  H   LIG d   1       0.609  -0.120 -11.036  0.00  0.00     0.027 H 
ENDBRANCH  44  49
BRANCH  44  53
ATOM     53  C   LIG d   1       2.291   0.495  -9.379  0.00  0.00    -0.025 C 
ATOM     54  H   LIG d   1       2.540   0.314  -8.334  0.00  0.00     0.027 H 
ATOM     55  H   LIG d   1       2.954   1.261  -9.782  0.00  0.00     0.027 H 
ATOM     56  H   LIG d   1       1.258   0.833  -9.453  0.00  0.00     0.027 H 
ENDBRANCH  44  53
ENDBRANCH  43  44
ENDBRANCH  40  43
ENDBRANCH   1  39
TORSDOF 12
ENDMDL
MODEL 7
REMARK VINA RESULT:      -6.2      4.829      8.061
REMARK  12 active torsions:
REMARK  status: ('A' for Active; 'I' for Inactive)
REMARK    1  A    between atoms: C_1  and  C_2 
REMARK    2  A    between atoms: C_11  and  O_14 
REMARK    3  A    between atoms: C_12  and  C_13 
REMARK    4  A    between atoms: O_14  and  C_15 
REMARK    5  A    between atoms: C_15  and  C_17 
REMARK    6  A    between atoms: C_17  and  C_19 
REMARK    7  A    between atoms: C_17  and  N_25 
REMARK       I    between atoms: N_25  and  C_26 
REMARK    8  A    between atoms: C_26  and  O_28 
REMARK    9  A    between atoms: O_28  and  C_29 
REMARK   10  A    between atoms: C_29  and  C_30 
REMARK   11  A    between atoms: C_29  and  C_31 
REMARK   12  A    between atoms: C_29  and  C_32 
ROOT
ATOM      1  C   LIG d   1       6.241  -1.057  -5.319  0.00  0.00     0.149 C 
ATOM      2  H   LIG d   1       6.044  -2.080  -5.637  0.00  0.00     0.067 H 
ENDROOT
BRANCH   1   3
ATOM      3  C   LIG d   1       7.729  -0.850  -5.187  0.00  0.00     0.338 C 
ATOM      4  O   LIG d   1       8.373  -1.559  -4.450  0.00  0.00    -0.248 OA
BRANCH   3   5
ATOM      5  O   LIG d   1       8.336   0.121  -5.887  0.00  0.00    -0.424 OA
BRANCH   5   6
ATOM      6  C   LIG d   1       9.025   1.053  -5.179  0.00  0.00     0.138 A 
ATOM      7  C   LIG d   1       8.336   1.953  -4.369  0.00  0.00    -0.018 A 
ATOM      8  C   LIG d   1       9.014   2.892  -3.647  0.00  0.00    -0.047 A 
ATOM      9  H   LIG d   1       7.259   1.905  -4.309  0.00  0.00     0.066 H 
ATOM     10  C   LIG d   1      10.409   2.959  -3.730  0.00  0.00     0.021 A 
ATOM     11  H   LIG d   1       8.475   3.584  -3.017  0.00  0.00     0.063 H 
ATOM     12  C   LIG d   1      11.162   3.960  -2.971  0.00  0.00    -0.033 A 
ATOM     13  C   LIG d   1      11.110   2.056  -4.550  0.00  0.00     0.146 A 
ATOM     14  C   LIG d   1      12.515   3.973  -3.093  0.00  0.00     0.026 A 
ATOM     15  C   LIG d   1      13.153   3.039  -3.934  0.00  0.00     0.338 A 
ATOM     16  H   LIG d   1      13.101   4.699  -2.548  0.00  0.00     0.069 H 
ATOM     17  O   LIG d   1      14.366   3.062  -4.035  0.00  0.00    -0.245 OA
ATOM     18  O   LIG d   1      12.457   2.123  -4.627  0.00  0.00    -0.422 OA
ATOM     19  C   LIG d   1      10.405   1.104  -5.273  0.00  0.00     0.035 A 
BRANCH  12  20
ATOM     20  C   LIG d   1      10.456   4.949  -2.079  0.00  0.00    -0.039 C 
ATOM     21  H   LIG d   1       9.385   4.741  -2.082  0.00  0.00     0.028 H 
ATOM     22  H   LIG d   1      10.841   4.862  -1.064  0.00  0.00     0.028 H 
ATOM     23  H   LIG d   1      10.630   5.960  -2.449  0.00  0.00     0.028 H 
ENDBRANCH  12  20
BRANCH  19  24
ATOM     24  C   LIG d   1      11.140   0.130  -6.156  0.00  0.00    -0.033 C 
ATOM     25  H   LIG d   1      10.467  -0.677  -6.447  0.00  0.00     0.028 H 
ATOM     26  H   LIG d   1      11.496   0.645  -7.049  0.00  0.00     0.028 H 
ATOM     27  H   LIG d   1      11.990  -0.284  -5.613  0.00  0.00     0.028 H 
ENDBRANCH  19  24
ENDBRANCH   5   6
ENDBRANCH   3   5
ENDBRANCH   1   3
BRANCH   1  28
ATOM     28  C   LIG d   1       5.579  -0.808  -3.989  0.00  0.00    -0.016 A 
ATOM     29  C   LIG d   1       5.544   0.471  -3.463  0.00  0.00    -0.056 A 
ATOM     30  C   LIG d   1       4.936   0.700  -2.243  0.00  0.00    -0.061 A 
ATOM     31  H   LIG d   1       5.991   1.290  -4.006  0.00  0.00     0.062 H 
ATOM     32  C   LIG d   1       4.364  -0.349  -1.548  0.00  0.00    -0.062 A 
ATOM     33  H   LIG d   1       4.909   1.698  -1.832  0.00  0.00     0.062 H 
ATOM     34  C   LIG d   1       4.398  -1.627  -2.073  0.00  0.00    -0.061 A 
ATOM     35  H   LIG d   1       3.889  -0.170  -0.595  0.00  0.00     0.062 H 
ATOM     36  C   LIG d   1       5.002  -1.856  -3.296  0.00  0.00    -0.056 A 
ATOM     37  H   LIG d   1       3.951  -2.446  -1.531  0.00  0.00     0.062 H 
ATOM     38  H   LIG d   1       5.026  -2.854  -3.709  0.00  0.00     0.062 H 
ENDBRANCH   1  28
BRANCH   1  39
ATOM     39  N   LIG d   1       5.705  -0.124  -6.313  0.00  0.00    -0.264 N 
ATOM     40  C   LIG d   1       4.993  -0.590  -7.359  0.00  0.00     0.402 C 
ATOM     41  O   LIG d   1       4.796  -1.783  -7.476  0.00  0.00    -0.226 OA
ATOM     42  H   LIG d   1       5.863   0.828  -6.220  0.00  0.00     0.153 HD
BRANCH  40  43
ATOM     43  O   LIG d   1       4.500   0.267  -8.272  0.00  0.00    -0.445 OA
BRANCH  43  44
ATOM     44  C   LIG d   1       3.105   0.647  -8.134  0.00  0.00     0.107 C 
BRANCH  44  45
ATOM     45  C   LIG d   1       2.667   0.459  -6.680  0.00  0.00    -0.025 C 
ATOM     46  H   LIG d   1       2.425   1.428  -6.245  0.00  0.00     0.027 H 
ATOM     47  H   LIG d   1       1.788  -0.186  -6.645  0.00  0.00     0.027 H 
ATOM     48  H   LIG d   1       3.478  -0.001  -6.113  0.00  0.00     0.027 H 
ENDBRANCH  44  45
BRANCH  44  49
ATOM     49  C   LIG d   1       2.934   2.114  -8.532  0.00  0.00    -0.025 C 
ATOM     50  H   LIG d   1       1.952   2.465  -8.215  0.00  0.00     0.027 H 
ATOM     51  H   LIG d   1       3.708   2.713  -8.050  0.00  0.00     0.027 H 
ATOM     52  H   LIG d   1       3.022   2.210  -9.613  0.00  0.00     0.027 H 
ENDBRANCH  44  49
BRANCH  44  53
ATOM     53  C   LIG d   1       2.245  -0.232  -9.044  0.00  0.00    -0.025 C 
ATOM     54  H   LIG d   1       1.972  -1.145  -8.516  0.00  0.00     0.027 H 
ATOM     55  H   LIG d   1       1.341   0.309  -9.324  0.00  0.00     0.027 H 
ATOM     56  H   LIG d   1       2.809  -0.486  -9.942  0.00  0.00     0.027 H 
ENDBRANCH  44  53
ENDBRANCH  43  44
ENDBRANCH  40  43
ENDBRANCH   1  39
TORSDOF 12
ENDMDL
MODEL 8
REMARK VINA RESULT:      -6.1      2.945      3.650
REMARK  12 active torsions:
REMARK  status: ('A' for Active; 'I' for Inactive)
REMARK    1  A    between atoms: C_1  and  C_2 
REMARK    2  A    between atoms: C_11  and  O_14 
REMARK    3  A    between atoms: C_12  and  C_13 
REMARK    4  A    between atoms: O_14  and  C_15 
REMARK    5  A    between atoms: C_15  and  C_17 
REMARK    6  A    between atoms: C_17  and  C_19 
REMARK    7  A    between atoms: C_17  and  N_25 
REMARK       I    between atoms: N_25  and  C_26 
REMARK    8  A    between atoms: C_26  and  O_28 
REMARK    9  A    between atoms: O_28  and  C_29 
REMARK   10  A    between atoms: C_29  and  C_30 
REMARK   11  A    between atoms: C_29  and  C_31 
REMARK   12  A    between atoms: C_29  and  C_32 
ROOT
ATOM      1  C   LIG d   1       6.890  -0.259  -5.024  0.00  0.00     0.149 C 
ATOM      2  H   LIG d   1       7.690   0.453  -4.827  0.00  0.00     0.067 H 
ENDROOT
BRANCH   1   3
ATOM      3  C   LIG d   1       6.089   0.200  -6.215  0.00  0.00     0.338 C 
ATOM      4  O   LIG d   1       6.653   0.668  -7.177  0.00  0.00    -0.248 OA
BRANCH   3   5
ATOM      5  O   LIG d   1       4.751   0.090  -6.208  0.00  0.00    -0.424 OA
BRANCH   5   6
ATOM      6  C   LIG d   1       4.197  -0.754  -7.117  0.00  0.00     0.138 A 
ATOM      7  C   LIG d   1       4.486  -2.116  -7.060  0.00  0.00    -0.018 A 
ATOM      8  C   LIG d   1       3.932  -2.977  -7.963  0.00  0.00    -0.047 A 
ATOM      9  H   LIG d   1       5.148  -2.492  -6.295  0.00  0.00     0.066 H 
ATOM     10  C   LIG d   1       3.079  -2.488  -8.959  0.00  0.00     0.021 A 
ATOM     11  H   LIG d   1       4.156  -4.032  -7.912  0.00  0.00     0.063 H 
ATOM     12  C   LIG d   1       2.476  -3.388  -9.944  0.00  0.00    -0.033 A 
ATOM     13  C   LIG d   1       2.788  -1.113  -9.024  0.00  0.00     0.146 A 
ATOM     14  C   LIG d   1       1.656  -2.853 -10.885  0.00  0.00     0.026 A 
ATOM     15  C   LIG d   1       1.409  -1.465 -10.892  0.00  0.00     0.338 A 
ATOM     16  H   LIG d   1       1.195  -3.489 -11.627  0.00  0.00     0.069 H 
ATOM     17  O   LIG d   1       0.672  -0.998 -11.742  0.00  0.00    -0.245 OA
ATOM     18  O   LIG d   1       1.964  -0.645  -9.986  0.00  0.00    -0.422 OA
ATOM     19  C   LIG d   1       3.355  -0.252  -8.095  0.00  0.00     0.035 A 
BRANCH  12  20
ATOM     20  C   LIG d   1       2.758  -4.869  -9.915  0.00  0.00    -0.039 C 
ATOM     21  H   LIG d   1       2.144  -5.341  -9.146  0.00  0.00     0.028 H 
ATOM     22  H   LIG d   1       2.521  -5.303 -10.886  0.00  0.00     0.028 H 
ATOM     23  H   LIG d   1       3.812  -5.034  -9.689  0.00  0.00     0.028 H 
ENDBRANCH  12  20
BRANCH  19  24
ATOM     24  C   LIG d   1       3.055   1.223  -8.151  0.00  0.00    -0.033 C 
ATOM     25  H   LIG d   1       3.614   1.738  -7.370  0.00  0.00     0.028 H 
ATOM     26  H   LIG d   1       3.345   1.617  -9.126  0.00  0.00     0.028 H 
ATOM     27  H   LIG d   1       1.987   1.383  -7.998  0.00  0.00     0.028 H 
ENDBRANCH  19  24
ENDBRANCH   5   6
ENDBRANCH   3   5
ENDBRANCH   1   3
BRANCH   1  28
ATOM     28  C   LIG d   1       5.990  -0.348  -3.819  0.00  0.00    -0.016 A 
ATOM     29  C   LIG d   1       5.469  -1.570  -3.434  0.00  0.00    -0.056 A 
ATOM     30  C   LIG d   1       4.644  -1.653  -2.328  0.00  0.00    -0.061 A 
ATOM     31  H   LIG d   1       5.708  -2.460  -3.997  0.00  0.00     0.062 H 
ATOM     32  C   LIG d   1       4.339  -0.514  -1.606  0.00  0.00    -0.062 A 
ATOM     33  H   LIG d   1       4.237  -2.607  -2.028  0.00  0.00     0.062 H 
ATOM     34  C   LIG d   1       4.860   0.707  -1.990  0.00  0.00    -0.061 A 
ATOM     35  H   LIG d   1       3.695  -0.579  -0.743  0.00  0.00     0.062 H 
ATOM     36  C   LIG d   1       5.690   0.790  -3.093  0.00  0.00    -0.056 A 
ATOM     37  H   LIG d   1       4.622   1.597  -1.427  0.00  0.00     0.062 H 
ATOM     38  H   LIG d   1       6.099   1.744  -3.391  0.00  0.00     0.062 H 
ENDBRANCH   1  28
BRANCH   1  39
ATOM     39  N   LIG d   1       7.466  -1.577  -5.301  0.00  0.00    -0.264 N 
ATOM     40  C   LIG d   1       8.805  -1.729  -5.355  0.00  0.00     0.402 C 
ATOM     41  O   LIG d   1       9.532  -0.773  -5.173  0.00  0.00    -0.226 OA
ATOM     42  H   LIG d   1       6.885  -2.340  -5.447  0.00  0.00     0.153 HD
BRANCH  40  43
ATOM     43  O   LIG d   1       9.334  -2.940  -5.610  0.00  0.00    -0.445 OA
BRANCH  43  44
ATOM     44  C   LIG d   1       9.691  -3.757  -4.464  0.00  0.00     0.107 C 
BRANCH  44  45
ATOM     45  C   LIG d   1       8.688  -3.515  -3.334  0.00  0.00    -0.025 C 
ATOM     46  H   LIG d   1       9.172  -3.694  -2.374  0.00  0.00     0.027 H 
ATOM     47  H   LIG d   1       8.334  -2.485  -3.376  0.00  0.00     0.027 H 
ATOM     48  H   LIG d   1       7.842  -4.195  -3.446  0.00  0.00     0.027 H 
ENDBRANCH  44  45
BRANCH  44  49
ATOM     49  C   LIG d   1       9.662  -5.234  -4.863  0.00  0.00    -0.025 C 
ATOM     50  H   LIG d   1      10.051  -5.840  -4.044  0.00  0.00     0.027 H 
ATOM     51  H   LIG d   1       8.635  -5.532  -5.078  0.00  0.00     0.027 H 
ATOM     52  H   LIG d   1      10.276  -5.383  -5.750  0.00  0.00     0.027 H 
ENDBRANCH  44  49
BRANCH  44  53
ATOM     53  C   LIG d   1      11.096  -3.385  -3.988  0.00  0.00    -0.025 C 
ATOM     54  H   LIG d   1      11.492  -2.588  -4.617  0.00  0.00     0.027 H 
ATOM     55  H   LIG d   1      11.051  -3.042  -2.954  0.00  0.00     0.027 H 
ATOM     56  H   LIG d   1      11.745  -4.257  -4.055  0.00  0.00     0.027 H 
ENDBRANCH  44  53
ENDBRANCH  43  44
ENDBRANCH  40  43
ENDBRANCH   1  39
TORSDOF 12
ENDMDL
MODEL 9
REMARK VINA RESULT:      -6.1      3.030      7.274
REMARK  12 active torsions:
REMARK  status: ('A' for Active; 'I' for Inactive)
REMARK    1  A    between atoms: C_1  and  C_2 
REMARK    2  A    between atoms: C_11  and  O_14 
REMARK    3  A    between atoms: C_12  and  C_13 
REMARK    4  A    between atoms: O_14  and  C_15 
REMARK    5  A    between atoms: C_15  and  C_17 
REMARK    6  A    between atoms: C_17  and  C_19 
REMARK    7  A    between atoms: C_17  and  N_25 
REMARK       I    between atoms: N_25  and  C_26 
REMARK    8  A    between atoms: C_26  and  O_28 
REMARK    9  A    between atoms: O_28  and  C_29 
REMARK   10  A    between atoms: C_29  and  C_30 
REMARK   11  A    between atoms: C_29  and  C_31 
REMARK   12  A    between atoms: C_29  and  C_32 
ROOT
ATOM      1  C   LIG d   1       4.996  -1.237  -6.209  0.00  0.00     0.149 C 
ATOM      2  H   LIG d   1       4.996  -2.234  -6.647  0.00  0.00     0.067 H 
ENDROOT
BRANCH   1   3
ATOM      3  C   LIG d   1       6.415  -0.753  -6.057  0.00  0.00     0.338 C 
ATOM      4  O   LIG d   1       6.638   0.302  -5.513  0.00  0.00    -0.248 OA
BRANCH   3   5
ATOM      5  O   LIG d   1       7.431  -1.495  -6.527  0.00  0.00    -0.424 OA
BRANCH   5   6
ATOM      6  C   LIG d   1       7.842  -2.535  -5.756  0.00  0.00     0.138 A 
ATOM      7  C   LIG d   1       8.447  -2.287  -4.526  0.00  0.00    -0.018 A 
ATOM      8  C   LIG d   1       8.860  -3.321  -3.738  0.00  0.00    -0.047 A 
ATOM      9  H   LIG d   1       8.586  -1.269  -4.192  0.00  0.00     0.066 H 
ATOM     10  C   LIG d   1       8.687  -4.640  -4.173  0.00  0.00     0.021 A 
ATOM     11  H   LIG d   1       9.325  -3.123  -2.783  0.00  0.00     0.063 H 
ATOM     12  C   LIG d   1       9.126  -5.769  -3.351  0.00  0.00    -0.033 A 
ATOM     13  C   LIG d   1       8.081  -4.897  -5.417  0.00  0.00     0.146 A 
ATOM     14  C   LIG d   1       8.929  -7.025  -3.828  0.00  0.00     0.026 A 
ATOM     15  C   LIG d   1       8.317  -7.211  -5.085  0.00  0.00     0.338 A 
ATOM     16  H   LIG d   1       9.242  -7.881  -3.247  0.00  0.00     0.069 H 
ATOM     17  O   LIG d   1       8.146  -8.342  -5.501  0.00  0.00    -0.245 OA
ATOM     18  O   LIG d   1       7.915  -6.171  -5.833  0.00  0.00    -0.422 OA
ATOM     19  C   LIG d   1       7.662  -3.834  -6.203  0.00  0.00     0.035 A 
BRANCH  12  20
ATOM     20  C   LIG d   1       9.780  -5.545  -2.012  0.00  0.00    -0.039 C 
ATOM     21  H   LIG d   1       9.449  -4.590  -1.601  0.00  0.00     0.028 H 
ATOM     22  H   LIG d   1       9.502  -6.349  -1.332  0.00  0.00     0.028 H 
ATOM     23  H   LIG d   1      10.864  -5.530  -2.134  0.00  0.00     0.028 H 
ENDBRANCH  12  20
BRANCH  19  24
ATOM     24  C   LIG d   1       7.012  -4.091  -7.538  0.00  0.00    -0.033 C 
ATOM     25  H   LIG d   1       7.121  -5.143  -7.799  0.00  0.00     0.028 H 
ATOM     26  H   LIG d   1       5.952  -3.839  -7.481  0.00  0.00     0.028 H 
ATOM     27  H   LIG d   1       7.491  -3.476  -8.300  0.00  0.00     0.028 H 
ENDBRANCH  19  24
ENDBRANCH   5   6
ENDBRANCH   3   5
ENDBRANCH   1   3
BRANCH   1  28
ATOM     28  C   LIG d   1       4.334  -1.283  -4.856  0.00  0.00    -0.016 A 
ATOM     29  C   LIG d   1       3.354  -0.362  -4.534  0.00  0.00    -0.056 A 
ATOM     30  C   LIG d   1       2.746  -0.404  -3.293  0.00  0.00    -0.061 A 
ATOM     31  H   LIG d   1       3.064   0.390  -5.253  0.00  0.00     0.062 H 
ATOM     32  C   LIG d   1       3.118  -1.367  -2.374  0.00  0.00    -0.062 A 
ATOM     33  H   LIG d   1       1.982   0.316  -3.042  0.00  0.00     0.062 H 
ATOM     34  C   LIG d   1       4.096  -2.289  -2.696  0.00  0.00    -0.061 A 
ATOM     35  H   LIG d   1       2.643  -1.400  -1.405  0.00  0.00     0.062 H 
ATOM     36  C   LIG d   1       4.701  -2.250  -3.939  0.00  0.00    -0.056 A 
ATOM     37  H   LIG d   1       4.387  -3.041  -1.978  0.00  0.00     0.062 H 
ATOM     38  H   LIG d   1       5.464  -2.972  -4.191  0.00  0.00     0.062 H 
ENDBRANCH   1  28
BRANCH   1  39
ATOM     39  N   LIG d   1       4.258  -0.321  -7.082  0.00  0.00    -0.264 N 
ATOM     40  C   LIG d   1       4.017  -0.660  -8.365  0.00  0.00     0.402 C 
ATOM     41  O   LIG d   1       4.410  -1.726  -8.795  0.00  0.00    -0.226 OA
ATOM     42  H   LIG d   1       3.944   0.530  -6.738  0.00  0.00     0.153 HD
BRANCH  40  43
ATOM     43  O   LIG d   1       3.339   0.182  -9.167  0.00  0.00    -0.445 OA
BRANCH  43  44
ATOM     44  C   LIG d   1       4.125   1.100  -9.972  0.00  0.00     0.107 C 
BRANCH  44  45
ATOM     45  C   LIG d   1       4.080   0.661 -11.437  0.00  0.00    -0.025 C 
ATOM     46  H   LIG d   1       4.716  -0.212 -11.574  0.00  0.00     0.027 H 
ATOM     47  H   LIG d   1       3.054   0.412 -11.710  0.00  0.00     0.027 H 
ATOM     48  H   LIG d   1       4.438   1.474 -12.070  0.00  0.00     0.027 H 
ENDBRANCH  44  45
BRANCH  44  49
ATOM     49  C   LIG d   1       3.547   2.512  -9.845  0.00  0.00    -0.025 C 
ATOM     50  H   LIG d   1       3.671   2.864  -8.821  0.00  0.00     0.027 H 
ATOM     51  H   LIG d   1       4.072   3.181 -10.526  0.00  0.00     0.027 H 
ATOM     52  H   LIG d   1       2.487   2.494 -10.098  0.00  0.00     0.027 H 
ENDBRANCH  44  49
BRANCH  44  53
ATOM     53  C   LIG d   1       5.574   1.097  -9.481  0.00  0.00    -0.025 C 
ATOM     54  H   LIG d   1       5.835   0.099  -9.128  0.00  0.00     0.027 H 
ATOM     55  H   LIG d   1       6.236   1.376 -10.301  0.00  0.00     0.027 H 
ATOM     56  H   LIG d   1       5.683   1.811  -8.666  0.00  0.00     0.027 H 
ENDBRANCH  44  53
ENDBRANCH  43  44
ENDBRANCH  40  43
ENDBRANCH   1  39
TORSDOF 12
ENDMDL
