MODEL 1
REMARK VINA RESULT:      -5.8      0.000      0.000
REMARK  7 active torsions:
REMARK  status: ('A' for Active; 'I' for Inactive)
REMARK    1  A    between atoms: C_1  and  N_2 
REMARK    2  A    between atoms: C_7  and  O_25 
REMARK    3  A    between atoms: C_8  and  O_23 
REMARK    4  A    between atoms: C_17  and  O_21 
REMARK    5  A    between atoms: C_18  and  O_20 
REMARK    6  A    between atoms: O_21  and  C_22 
REMARK    7  A    between atoms: O_23  and  C_24 
ROOT
ATOM      1  N   LIG d   1       9.754   5.577  -2.608  0.00  0.00     0.239 N 
ATOM      2  C   LIG d   1      10.653   5.543  -1.455  0.00  0.00    -0.028 C 
ATOM      3  C   LIG d   1      10.446   6.763  -0.572  0.00  0.00     0.013 C 
ATOM      4  C   LIG d   1      10.212   8.010  -1.375  0.00  0.00    -0.030 A 
ATOM      5  C   LIG d   1      10.154   9.224  -0.701  0.00  0.00    -0.013 A 
ATOM      6  C   LIG d   1       9.966  10.409  -1.388  0.00  0.00     0.159 A 
ATOM      7  C   LIG d   1       9.828  10.389  -2.772  0.00  0.00     0.169 A 
ATOM      8  C   LIG d   1       9.865   9.172  -3.448  0.00  0.00     0.037 A 
ATOM      9  C   LIG d   1      10.066   7.980  -2.746  0.00  0.00     0.015 A 
ATOM     10  C   LIG d   1      10.138   6.679  -3.501  0.00  0.00     0.010 C 
ATOM     11  H   LIG d   1      11.159   6.523  -3.851  0.00  0.00     0.091 H 
ATOM     12  C   LIG d   1       9.195   6.690  -4.702  0.00  0.00     0.021 C 
ATOM     13  C   LIG d   1       9.407   7.921  -5.540  0.00  0.00    -0.030 A 
ATOM     14  C   LIG d   1       9.718   9.130  -4.922  0.00  0.00    -0.007 A 
ATOM     15  C   LIG d   1       9.889  10.281  -5.686  0.00  0.00    -0.008 A 
ATOM     16  C   LIG d   1       9.764  10.216  -7.063  0.00  0.00     0.162 A 
ATOM     17  C   LIG d   1       9.471   9.001  -7.677  0.00  0.00     0.159 A 
ATOM     18  C   LIG d   1       9.293   7.858  -6.913  0.00  0.00    -0.013 A 
ATOM     19  H   LIG d   1      10.456   4.642  -0.873  0.00  0.00     0.082 H 
ATOM     20  H   LIG d   1      11.685   5.525  -1.805  0.00  0.00     0.082 H 
ATOM     21  H   LIG d   1       9.586   6.591   0.074  0.00  0.00     0.036 H 
ATOM     22  H   LIG d   1      11.330   6.903   0.050  0.00  0.00     0.036 H 
ATOM     23  H   LIG d   1      10.258   9.242   0.374  0.00  0.00     0.066 H 
ATOM     24  H   LIG d   1       9.380   5.805  -5.310  0.00  0.00     0.037 H 
ATOM     25  H   LIG d   1       8.164   6.671  -4.347  0.00  0.00     0.037 H 
ATOM     26  H   LIG d   1      10.117  11.221  -5.206  0.00  0.00     0.066 H 
ATOM     27  H   LIG d   1       9.065   6.918  -7.394  0.00  0.00     0.066 H 
ATOM     28  H   LIG d   1       8.806   5.716  -2.292  0.00  0.00     0.204 HD
ENDROOT
BRANCH   1  29
ATOM     29  C   LIG d   1       9.843   4.304  -3.336  0.00  0.00    -0.043 C 
ATOM     30  H   LIG d   1      10.660   3.708  -2.926  0.00  0.00     0.078 H 
ATOM     31  H   LIG d   1       8.906   3.758  -3.230  0.00  0.00     0.078 H 
ATOM     32  H   LIG d   1      10.032   4.501  -4.391  0.00  0.00     0.078 H 
ENDBRANCH   1  29
BRANCH   7  33
ATOM     33  O   LIG d   1       9.659  11.550  -3.460  0.00  0.00    -0.491 OA
BRANCH  33  34
ATOM     34  C   LIG d   1       8.393  12.200  -3.334  0.00  0.00     0.079 C 
ATOM     35  H   LIG d   1       7.733  11.870  -4.136  0.00  0.00     0.066 H 
ATOM     36  H   LIG d   1       7.949  11.948  -2.371  0.00  0.00     0.066 H 
ATOM     37  H   LIG d   1       8.531  13.280  -3.398  0.00  0.00     0.066 H 
ENDBRANCH  33  34
ENDBRANCH   7  33
BRANCH   6  38
ATOM     38  O   LIG d   1       9.915  11.589  -0.714  0.00  0.00    -0.503 OA
ATOM     39  H   LIG d   1      10.628  12.203  -0.941  0.00  0.00     0.292 HD
ENDBRANCH   6  38
BRANCH  17  40
ATOM     40  O   LIG d   1       9.358   8.938  -9.031  0.00  0.00    -0.503 OA
ATOM     41  H   LIG d   1      10.082   9.368  -9.507  0.00  0.00     0.292 HD
ENDBRANCH  17  40
BRANCH  16  42
ATOM     42  O   LIG d   1       9.928  11.338  -7.814  0.00  0.00    -0.491 OA
BRANCH  42  43
ATOM     43  C   LIG d   1       9.633  12.588  -7.187  0.00  0.00     0.079 C 
ATOM     44  H   LIG d   1      10.370  12.787  -6.410  0.00  0.00     0.066 H 
ATOM     45  H   LIG d   1       9.664  13.384  -7.931  0.00  0.00     0.066 H 
ATOM     46  H   LIG d   1       8.638  12.544  -6.743  0.00  0.00     0.066 H 
ENDBRANCH  42  43
ENDBRANCH  16  42
TORSDOF 7
ENDMDL
MODEL 2
REMARK VINA RESULT:      -5.6      2.451      5.658
REMARK  7 active torsions:
REMARK  status: ('A' for Active; 'I' for Inactive)
REMARK    1  A    between atoms: C_1  and  N_2 
REMARK    2  A    between atoms: C_7  and  O_25 
REMARK    3  A    between atoms: C_8  and  O_23 
REMARK    4  A    between atoms: C_17  and  O_21 
REMARK    5  A    between atoms: C_18  and  O_20 
REMARK    6  A    between atoms: O_21  and  C_22 
REMARK    7  A    between atoms: O_23  and  C_24 
ROOT
ATOM      1  N   LIG d   1      10.406   3.814  -6.862  0.00  0.00     0.239 N 
ATOM      2  C   LIG d   1       9.503   3.928  -8.006  0.00  0.00    -0.028 C 
ATOM      3  C   LIG d   1       9.515   5.342  -8.566  0.00  0.00     0.013 C 
ATOM      4  C   LIG d   1       9.578   6.379  -7.482  0.00  0.00    -0.030 A 
ATOM      5  C   LIG d   1       9.448   7.714  -7.844  0.00  0.00    -0.013 A 
ATOM      6  C   LIG d   1       9.473   8.714  -6.889  0.00  0.00     0.159 A 
ATOM      7  C   LIG d   1       9.635   8.382  -5.548  0.00  0.00     0.169 A 
ATOM      8  C   LIG d   1       9.787   7.046  -5.185  0.00  0.00     0.037 A 
ATOM      9  C   LIG d   1       9.750   6.042  -6.157  0.00  0.00     0.015 A 
ATOM     10  C   LIG d   1       9.880   4.601  -5.738  0.00  0.00     0.010 C 
ATOM     11  H   LIG d   1       8.899   4.219  -5.455  0.00  0.00     0.091 H 
ATOM     12  C   LIG d   1      10.831   4.460  -4.552  0.00  0.00     0.021 C 
ATOM     13  C   LIG d   1      10.456   5.409  -3.447  0.00  0.00    -0.030 A 
ATOM     14  C   LIG d   1       9.962   6.672  -3.761  0.00  0.00    -0.007 A 
ATOM     15  C   LIG d   1       9.638   7.569  -2.747  0.00  0.00    -0.008 A 
ATOM     16  C   LIG d   1       9.793   7.194  -1.424  0.00  0.00     0.162 A 
ATOM     17  C   LIG d   1      10.270   5.922  -1.114  0.00  0.00     0.159 A 
ATOM     18  C   LIG d   1      10.600   5.035  -2.127  0.00  0.00    -0.013 A 
ATOM     19  H   LIG d   1       9.819   3.233  -8.784  0.00  0.00     0.082 H 
ATOM     20  H   LIG d   1       8.490   3.677  -7.692  0.00  0.00     0.082 H 
ATOM     21  H   LIG d   1      10.381   5.457  -9.218  0.00  0.00     0.036 H 
ATOM     22  H   LIG d   1       8.610   5.497  -9.153  0.00  0.00     0.036 H 
ATOM     23  H   LIG d   1       9.326   7.975  -8.885  0.00  0.00     0.066 H 
ATOM     24  H   LIG d   1      10.787   3.437  -4.178  0.00  0.00     0.037 H 
ATOM     25  H   LIG d   1      11.848   4.677  -4.881  0.00  0.00     0.037 H 
ATOM     26  H   LIG d   1       9.268   8.554  -2.992  0.00  0.00     0.066 H 
ATOM     27  H   LIG d   1      10.971   4.050  -1.882  0.00  0.00     0.066 H 
ATOM     28  H   LIG d   1      11.318   4.162  -7.117  0.00  0.00     0.204 HD
ENDROOT
BRANCH   1  29
ATOM     29  C   LIG d   1      10.515   2.404  -6.463  0.00  0.00    -0.043 C 
ATOM     30  H   LIG d   1       9.700   2.156  -5.782  0.00  0.00     0.078 H 
ATOM     31  H   LIG d   1      10.456   1.771  -7.348  0.00  0.00     0.078 H 
ATOM     32  H   LIG d   1      11.469   2.241  -5.963  0.00  0.00     0.078 H 
ENDBRANCH   1  29
BRANCH   7  33
ATOM     33  O   LIG d   1       9.645   9.356  -4.598  0.00  0.00    -0.491 OA
BRANCH  33  34
ATOM     34  C   LIG d   1      10.812  10.176  -4.522  0.00  0.00     0.079 C 
ATOM     35  H   LIG d   1      11.698   9.563  -4.682  0.00  0.00     0.066 H 
ATOM     36  H   LIG d   1      10.762  10.950  -5.287  0.00  0.00     0.066 H 
ATOM     37  H   LIG d   1      10.864  10.642  -3.537  0.00  0.00     0.066 H 
ENDBRANCH  33  34
ENDBRANCH   7  33
BRANCH   6  38
ATOM     38  O   LIG d   1       9.340  10.016  -7.259  0.00  0.00    -0.503 OA
ATOM     39  H   LIG d   1      10.087  10.357  -7.770  0.00  0.00     0.292 HD
ENDBRANCH   6  38
BRANCH  17  40
ATOM     40  O   LIG d   1      10.413   5.552   0.187  0.00  0.00    -0.503 OA
ATOM     41  H   LIG d   1      11.333   5.496   0.481  0.00  0.00     0.292 HD
ENDBRANCH  17  40
BRANCH  16  42
ATOM     42  O   LIG d   1       9.480   8.065  -0.428  0.00  0.00    -0.491 OA
BRANCH  42  43
ATOM     43  C   LIG d   1       8.928   9.324  -0.818  0.00  0.00     0.079 C 
ATOM     44  H   LIG d   1       8.054   9.158  -1.448  0.00  0.00     0.066 H 
ATOM     45  H   LIG d   1       8.635   9.884   0.070  0.00  0.00     0.066 H 
ATOM     46  H   LIG d   1       9.675   9.891  -1.374  0.00  0.00     0.066 H 
ENDBRANCH  42  43
ENDBRANCH  16  42
TORSDOF 7
ENDMDL
MODEL 3
REMARK VINA RESULT:      -5.5      2.973      6.838
REMARK  7 active torsions:
REMARK  status: ('A' for Active; 'I' for Inactive)
REMARK    1  A    between atoms: C_1  and  N_2 
REMARK    2  A    between atoms: C_7  and  O_25 
REMARK    3  A    between atoms: C_8  and  O_23 
REMARK    4  A    between atoms: C_17  and  O_21 
REMARK    5  A    between atoms: C_18  and  O_20 
REMARK    6  A    between atoms: O_21  and  C_22 
REMARK    7  A    between atoms: O_23  and  C_24 
ROOT
ATOM      1  N   LIG d   1       9.308  10.344  -4.930  0.00  0.00     0.239 N 
ATOM      2  C   LIG d   1       9.733   9.937  -6.268  0.00  0.00    -0.028 C 
ATOM      3  C   LIG d   1       9.323   8.500  -6.553  0.00  0.00     0.013 C 
ATOM      4  C   LIG d   1       9.489   7.616  -5.350  0.00  0.00    -0.030 A 
ATOM      5  C   LIG d   1       9.291   6.250  -5.508  0.00  0.00    -0.013 A 
ATOM      6  C   LIG d   1       9.453   5.381  -4.445  0.00  0.00     0.159 A 
ATOM      7  C   LIG d   1       9.815   5.879  -3.198  0.00  0.00     0.169 A 
ATOM      8  C   LIG d   1       9.993   7.250  -3.031  0.00  0.00     0.037 A 
ATOM      9  C   LIG d   1       9.837   8.119  -4.115  0.00  0.00     0.015 A 
ATOM     10  C   LIG d   1      10.070   9.594  -3.921  0.00  0.00     0.010 C 
ATOM     11  H   LIG d   1      11.133   9.809  -4.036  0.00  0.00     0.091 H 
ATOM     12  C   LIG d   1       9.618  10.042  -2.533  0.00  0.00     0.021 C 
ATOM     13  C   LIG d   1      10.211   9.162  -1.466  0.00  0.00    -0.030 A 
ATOM     14  C   LIG d   1      10.377   7.801  -1.709  0.00  0.00    -0.007 A 
ATOM     15  C   LIG d   1      10.898   6.972  -0.719  0.00  0.00    -0.008 A 
ATOM     16  C   LIG d   1      11.266   7.509   0.502  0.00  0.00     0.162 A 
ATOM     17  C   LIG d   1      11.115   8.874   0.734  0.00  0.00     0.159 A 
ATOM     18  C   LIG d   1      10.588   9.695  -0.251  0.00  0.00    -0.013 A 
ATOM     19  H   LIG d   1       9.272  10.593  -7.007  0.00  0.00     0.082 H 
ATOM     20  H   LIG d   1      10.817  10.021  -6.342  0.00  0.00     0.082 H 
ATOM     21  H   LIG d   1       8.279   8.485  -6.863  0.00  0.00     0.036 H 
ATOM     22  H   LIG d   1       9.937   8.111  -7.365  0.00  0.00     0.036 H 
ATOM     23  H   LIG d   1       9.007   5.860  -6.475  0.00  0.00     0.066 H 
ATOM     24  H   LIG d   1       9.937  11.071  -2.367  0.00  0.00     0.037 H 
ATOM     25  H   LIG d   1       8.531   9.991  -2.476  0.00  0.00     0.037 H 
ATOM     26  H   LIG d   1      11.014   5.914  -0.904  0.00  0.00     0.066 H 
ATOM     27  H   LIG d   1      10.472  10.753  -0.066  0.00  0.00     0.066 H 
ATOM     28  H   LIG d   1       8.324  10.153  -4.817  0.00  0.00     0.204 HD
ENDROOT
BRANCH   1  29
ATOM     29  C   LIG d   1       9.549  11.782  -4.756  0.00  0.00    -0.043 C 
ATOM     30  H   LIG d   1       8.906  12.343  -5.436  0.00  0.00     0.078 H 
ATOM     31  H   LIG d   1       9.328  12.067  -3.728  0.00  0.00     0.078 H 
ATOM     32  H   LIG d   1      10.593  12.005  -4.979  0.00  0.00     0.078 H 
ENDBRANCH   1  29
BRANCH   7  33
ATOM     33  O   LIG d   1       9.993   5.033  -2.147  0.00  0.00    -0.491 OA
BRANCH  33  34
ATOM     34  C   LIG d   1      11.073   4.102  -2.240  0.00  0.00     0.079 C 
ATOM     35  H   LIG d   1      11.459   3.893  -1.244  0.00  0.00     0.066 H 
ATOM     36  H   LIG d   1      10.717   3.177  -2.693  0.00  0.00     0.066 H 
ATOM     37  H   LIG d   1      11.866   4.527  -2.857  0.00  0.00     0.066 H 
ENDBRANCH  33  34
ENDBRANCH   7  33
BRANCH   6  38
ATOM     38  O   LIG d   1       9.259   4.046  -4.617  0.00  0.00    -0.503 OA
ATOM     39  H   LIG d   1       8.598   3.828  -5.288  0.00  0.00     0.292 HD
ENDBRANCH   6  38
BRANCH  17  40
ATOM     40  O   LIG d   1      11.486   9.402   1.931  0.00  0.00    -0.503 OA
ATOM     41  H   LIG d   1      12.036  10.194   1.859  0.00  0.00     0.292 HD
ENDBRANCH  17  40
BRANCH  16  42
ATOM     42  O   LIG d   1      11.774   6.705   1.474  0.00  0.00    -0.491 OA
BRANCH  42  43
ATOM     43  C   LIG d   1      10.983   5.580   1.864  0.00  0.00     0.079 C 
ATOM     44  H   LIG d   1      11.301   4.701   1.305  0.00  0.00     0.066 H 
ATOM     45  H   LIG d   1      11.111   5.399   2.931  0.00  0.00     0.066 H 
ATOM     46  H   LIG d   1       9.933   5.786   1.654  0.00  0.00     0.066 H 
ENDBRANCH  42  43
ENDBRANCH  16  42
TORSDOF 7
ENDMDL
MODEL 4
REMARK VINA RESULT:      -5.4     10.316     11.855
REMARK  7 active torsions:
REMARK  status: ('A' for Active; 'I' for Inactive)
REMARK    1  A    between atoms: C_1  and  N_2 
REMARK    2  A    between atoms: C_7  and  O_25 
REMARK    3  A    between atoms: C_8  and  O_23 
REMARK    4  A    between atoms: C_17  and  O_21 
REMARK    5  A    between atoms: C_18  and  O_20 
REMARK    6  A    between atoms: O_21  and  C_22 
REMARK    7  A    between atoms: O_23  and  C_24 
ROOT
ATOM      1  N   LIG d   1       7.132  -4.617  -5.303  0.00  0.00     0.239 N 
ATOM      2  C   LIG d   1       8.398  -4.202  -4.700  0.00  0.00    -0.028 C 
ATOM      3  C   LIG d   1       8.161  -3.195  -3.585  0.00  0.00     0.013 C 
ATOM      4  C   LIG d   1       7.072  -2.218  -3.926  0.00  0.00    -0.030 A 
ATOM      5  C   LIG d   1       6.851  -1.154  -3.062  0.00  0.00    -0.013 A 
ATOM      6  C   LIG d   1       5.880  -0.208  -3.334  0.00  0.00     0.159 A 
ATOM      7  C   LIG d   1       5.109  -0.324  -4.486  0.00  0.00     0.169 A 
ATOM      8  C   LIG d   1       5.314  -1.401  -5.344  0.00  0.00     0.037 A 
ATOM      9  C   LIG d   1       6.306  -2.347  -5.065  0.00  0.00     0.015 A 
ATOM     10  C   LIG d   1       6.535  -3.484  -6.026  0.00  0.00     0.010 C 
ATOM     11  H   LIG d   1       7.214  -3.159  -6.814  0.00  0.00     0.091 H 
ATOM     12  C   LIG d   1       5.222  -3.942  -6.656  0.00  0.00     0.021 C 
ATOM     13  C   LIG d   1       4.466  -2.774  -7.228  0.00  0.00    -0.030 A 
ATOM     14  C   LIG d   1       4.502  -1.543  -6.576  0.00  0.00    -0.007 A 
ATOM     15  C   LIG d   1       3.784  -0.463  -7.081  0.00  0.00    -0.008 A 
ATOM     16  C   LIG d   1       3.046  -0.612  -8.242  0.00  0.00     0.162 A 
ATOM     17  C   LIG d   1       3.027  -1.839  -8.900  0.00  0.00     0.159 A 
ATOM     18  C   LIG d   1       3.736  -2.915  -8.390  0.00  0.00    -0.013 A 
ATOM     19  H   LIG d   1       8.904  -5.076  -4.290  0.00  0.00     0.082 H 
ATOM     20  H   LIG d   1       9.029  -3.748  -5.464  0.00  0.00     0.082 H 
ATOM     21  H   LIG d   1       7.885  -3.730  -2.677  0.00  0.00     0.036 H 
ATOM     22  H   LIG d   1       9.085  -2.646  -3.403  0.00  0.00     0.036 H 
ATOM     23  H   LIG d   1       7.446  -1.063  -2.164  0.00  0.00     0.066 H 
ATOM     24  H   LIG d   1       5.436  -4.655  -7.451  0.00  0.00     0.037 H 
ATOM     25  H   LIG d   1       4.610  -4.427  -5.896  0.00  0.00     0.037 H 
ATOM     26  H   LIG d   1       3.802   0.487  -6.567  0.00  0.00     0.066 H 
ATOM     27  H   LIG d   1       3.718  -3.866  -8.903  0.00  0.00     0.066 H 
ATOM     28  H   LIG d   1       6.499  -4.925  -4.580  0.00  0.00     0.204 HD
ENDROOT
BRANCH   1  29
ATOM     29  C   LIG d   1       7.376  -5.721  -6.241  0.00  0.00    -0.043 C 
ATOM     30  H   LIG d   1       6.725  -5.610  -7.109  0.00  0.00     0.078 H 
ATOM     31  H   LIG d   1       8.417  -5.702  -6.562  0.00  0.00     0.078 H 
ATOM     32  H   LIG d   1       7.165  -6.670  -5.748  0.00  0.00     0.078 H 
ENDBRANCH   1  29
BRANCH   7  33
ATOM     33  O   LIG d   1       4.162   0.609  -4.773  0.00  0.00    -0.491 OA
BRANCH  33  34
ATOM     34  C   LIG d   1       2.946   0.550  -4.026  0.00  0.00     0.079 C 
ATOM     35  H   LIG d   1       2.637   1.558  -3.752  0.00  0.00     0.066 H 
ATOM     36  H   LIG d   1       2.169   0.084  -4.633  0.00  0.00     0.066 H 
ATOM     37  H   LIG d   1       3.103  -0.041  -3.122  0.00  0.00     0.066 H 
ENDBRANCH  33  34
ENDBRANCH   7  33
BRANCH   6  38
ATOM     38  O   LIG d   1       5.678   0.830  -2.479  0.00  0.00    -0.503 OA
ATOM     39  H   LIG d   1       5.635   0.570  -1.548  0.00  0.00     0.292 HD
ENDBRANCH   6  38
BRANCH  17  40
ATOM     40  O   LIG d   1       2.308  -1.981 -10.046  0.00  0.00    -0.503 OA
ATOM     41  H   LIG d   1       2.539  -1.345 -10.736  0.00  0.00     0.292 HD
ENDBRANCH  17  40
BRANCH  16  42
ATOM     42  O   LIG d   1       2.340   0.439  -8.739  0.00  0.00    -0.491 OA
BRANCH  42  43
ATOM     43  C   LIG d   1       2.854   1.747  -8.478  0.00  0.00     0.079 C 
ATOM     44  H   LIG d   1       3.654   1.682  -7.741  0.00  0.00     0.066 H 
ATOM     45  H   LIG d   1       3.243   2.175  -9.401  0.00  0.00     0.066 H 
ATOM     46  H   LIG d   1       2.054   2.380  -8.093  0.00  0.00     0.066 H 
ENDBRANCH  42  43
ENDBRANCH  16  42
TORSDOF 7
ENDMDL
MODEL 5
REMARK VINA RESULT:      -5.4      1.642      2.694
REMARK  7 active torsions:
REMARK  status: ('A' for Active; 'I' for Inactive)
REMARK    1  A    between atoms: C_1  and  N_2 
REMARK    2  A    between atoms: C_7  and  O_25 
REMARK    3  A    between atoms: C_8  and  O_23 
REMARK    4  A    between atoms: C_17  and  O_21 
REMARK    5  A    between atoms: C_18  and  O_20 
REMARK    6  A    between atoms: O_21  and  C_22 
REMARK    7  A    between atoms: O_23  and  C_24 
ROOT
ATOM      1  N   LIG d   1       9.964   3.997  -4.807  0.00  0.00     0.239 N 
ATOM      2  C   LIG d   1      10.904   3.225  -3.996  0.00  0.00    -0.028 C 
ATOM      3  C   LIG d   1      10.778   3.589  -2.526  0.00  0.00     0.013 C 
ATOM      4  C   LIG d   1      10.560   5.062  -2.325  0.00  0.00    -0.030 A 
ATOM      5  C   LIG d   1      10.573   5.556  -1.026  0.00  0.00    -0.013 A 
ATOM      6  C   LIG d   1      10.403   6.905  -0.777  0.00  0.00     0.159 A 
ATOM      7  C   LIG d   1      10.212   7.782  -1.840  0.00  0.00     0.169 A 
ATOM      8  C   LIG d   1      10.177   7.287  -3.141  0.00  0.00     0.037 A 
ATOM      9  C   LIG d   1      10.360   5.923  -3.383  0.00  0.00     0.015 A 
ATOM     10  C   LIG d   1      10.355   5.414  -4.800  0.00  0.00     0.010 C 
ATOM     11  H   LIG d   1      11.355   5.516  -5.223  0.00  0.00     0.091 H 
ATOM     12  C   LIG d   1       9.368   6.200  -5.660  0.00  0.00     0.021 C 
ATOM     13  C   LIG d   1       9.594   7.680  -5.520  0.00  0.00    -0.030 A 
ATOM     14  C   LIG d   1       9.973   8.206  -4.287  0.00  0.00    -0.007 A 
ATOM     15  C   LIG d   1      10.158   9.578  -4.138  0.00  0.00    -0.008 A 
ATOM     16  C   LIG d   1       9.978  10.416  -5.225  0.00  0.00     0.162 A 
ATOM     17  C   LIG d   1       9.617   9.884  -6.460  0.00  0.00     0.159 A 
ATOM     18  C   LIG d   1       9.425   8.518  -6.603  0.00  0.00    -0.013 A 
ATOM     19  H   LIG d   1      10.696   2.162  -4.120  0.00  0.00     0.082 H 
ATOM     20  H   LIG d   1      11.921   3.432  -4.330  0.00  0.00     0.082 H 
ATOM     21  H   LIG d   1       9.936   3.045  -2.097  0.00  0.00     0.036 H 
ATOM     22  H   LIG d   1      11.689   3.292  -2.007  0.00  0.00     0.036 H 
ATOM     23  H   LIG d   1      10.717   4.876  -0.199  0.00  0.00     0.066 H 
ATOM     24  H   LIG d   1       9.496   5.915  -6.704  0.00  0.00     0.037 H 
ATOM     25  H   LIG d   1       8.351   5.961  -5.347  0.00  0.00     0.037 H 
ATOM     26  H   LIG d   1      10.439   9.986  -3.179  0.00  0.00     0.066 H 
ATOM     27  H   LIG d   1       9.144   8.110  -7.562  0.00  0.00     0.066 H 
ATOM     28  H   LIG d   1       9.035   3.904  -4.425  0.00  0.00     0.204 HD
ENDROOT
BRANCH   1  29
ATOM     29  C   LIG d   1       9.978   3.493  -6.187  0.00  0.00    -0.043 C 
ATOM     30  H   LIG d   1      10.283   4.292  -6.863  0.00  0.00     0.078 H 
ATOM     31  H   LIG d   1      10.681   2.664  -6.264  0.00  0.00     0.078 H 
ATOM     32  H   LIG d   1       8.980   3.148  -6.458  0.00  0.00     0.078 H 
ENDBRANCH   1  29
BRANCH   7  33
ATOM     33  O   LIG d   1      10.060   9.114  -1.610  0.00  0.00    -0.491 OA
BRANCH  33  34
ATOM     34  C   LIG d   1       8.861   9.526  -0.950  0.00  0.00     0.079 C 
ATOM     35  H   LIG d   1       9.077   9.742   0.096  0.00  0.00     0.066 H 
ATOM     36  H   LIG d   1       8.471  10.422  -1.433  0.00  0.00     0.066 H 
ATOM     37  H   LIG d   1       8.120   8.728  -1.012  0.00  0.00     0.066 H 
ENDBRANCH  33  34
ENDBRANCH   7  33
BRANCH   6  38
ATOM     38  O   LIG d   1      10.422   7.373   0.499  0.00  0.00    -0.503 OA
ATOM     39  H   LIG d   1      10.176   6.714   1.163  0.00  0.00     0.292 HD
ENDBRANCH   6  38
BRANCH  17  40
ATOM     40  O   LIG d   1       9.450  10.708  -7.529  0.00  0.00    -0.503 OA
ATOM     41  H   LIG d   1       8.572  11.110  -7.583  0.00  0.00     0.292 HD
ENDBRANCH  17  40
BRANCH  16  42
ATOM     42  O   LIG d   1      10.155  11.757  -5.086  0.00  0.00    -0.491 OA
BRANCH  42  43
ATOM     43  C   LIG d   1       9.291  12.434  -4.171  0.00  0.00     0.079 C 
ATOM     44  H   LIG d   1       9.750  13.374  -3.867  0.00  0.00     0.066 H 
ATOM     45  H   LIG d   1       8.336  12.635  -4.655  0.00  0.00     0.066 H 
ATOM     46  H   LIG d   1       9.129  11.807  -3.294  0.00  0.00     0.066 H 
ENDBRANCH  42  43
ENDBRANCH  16  42
TORSDOF 7
ENDMDL
MODEL 6
REMARK VINA RESULT:      -5.3      2.420      4.211
REMARK  7 active torsions:
REMARK  status: ('A' for Active; 'I' for Inactive)
REMARK    1  A    between atoms: C_1  and  N_2 
REMARK    2  A    between atoms: C_7  and  O_25 
REMARK    3  A    between atoms: C_8  and  O_23 
REMARK    4  A    between atoms: C_17  and  O_21 
REMARK    5  A    between atoms: C_18  and  O_20 
REMARK    6  A    between atoms: O_21  and  C_22 
REMARK    7  A    between atoms: O_23  and  C_24 
ROOT
ATOM      1  N   LIG d   1      11.350   9.912  -0.930  0.00  0.00     0.239 N 
ATOM      2  C   LIG d   1      10.713   9.403   0.284  0.00  0.00    -0.028 C 
ATOM      3  C   LIG d   1      10.711   7.883   0.296  0.00  0.00     0.013 C 
ATOM      4  C   LIG d   1      10.435   7.306  -1.063  0.00  0.00    -0.030 A 
ATOM      5  C   LIG d   1      10.259   5.932  -1.169  0.00  0.00    -0.013 A 
ATOM      6  C   LIG d   1       9.976   5.344  -2.388  0.00  0.00     0.159 A 
ATOM      7  C   LIG d   1       9.872   6.136  -3.526  0.00  0.00     0.169 A 
ATOM      8  C   LIG d   1      10.069   7.511  -3.427  0.00  0.00     0.037 A 
ATOM      9  C   LIG d   1      10.344   8.097  -2.188  0.00  0.00     0.015 A 
ATOM     10  C   LIG d   1      10.517   9.590  -2.097  0.00  0.00     0.010 C 
ATOM     11  H   LIG d   1       9.540  10.060  -1.985  0.00  0.00     0.091 H 
ATOM     12  C   LIG d   1      11.195  10.140  -3.350  0.00  0.00     0.021 C 
ATOM     13  C   LIG d   1      10.496   9.659  -4.593  0.00  0.00    -0.030 A 
ATOM     14  C   LIG d   1       9.964   8.372  -4.629  0.00  0.00    -0.007 A 
ATOM     15  C   LIG d   1       9.340   7.906  -5.783  0.00  0.00    -0.008 A 
ATOM     16  C   LIG d   1       9.237   8.732  -6.889  0.00  0.00     0.162 A 
ATOM     17  C   LIG d   1       9.755  10.024  -6.841  0.00  0.00     0.159 A 
ATOM     18  C   LIG d   1      10.383  10.482  -5.694  0.00  0.00    -0.013 A 
ATOM     19  H   LIG d   1      11.258   9.767   1.155  0.00  0.00     0.082 H 
ATOM     20  H   LIG d   1       9.685   9.763   0.328  0.00  0.00     0.082 H 
ATOM     21  H   LIG d   1      11.684   7.530   0.640  0.00  0.00     0.036 H 
ATOM     22  H   LIG d   1       9.946   7.536   0.991  0.00  0.00     0.036 H 
ATOM     23  H   LIG d   1      10.342   5.314  -0.287  0.00  0.00     0.066 H 
ATOM     24  H   LIG d   1      11.169  11.229  -3.323  0.00  0.00     0.037 H 
ATOM     25  H   LIG d   1      12.233   9.807  -3.371  0.00  0.00     0.037 H 
ATOM     26  H   LIG d   1       8.939   6.904  -5.816  0.00  0.00     0.066 H 
ATOM     27  H   LIG d   1      10.784  11.484  -5.661  0.00  0.00     0.066 H 
ATOM     28  H   LIG d   1      12.258   9.486  -1.038  0.00  0.00     0.204 HD
ENDROOT
BRANCH   1  29
ATOM     29  C   LIG d   1      11.505  11.370  -0.826  0.00  0.00    -0.043 C 
ATOM     30  H   LIG d   1      11.043  11.846  -1.692  0.00  0.00     0.078 H 
ATOM     31  H   LIG d   1      11.022  11.723   0.084  0.00  0.00     0.078 H 
ATOM     32  H   LIG d   1      12.565  11.622  -0.796  0.00  0.00     0.078 H 
ENDBRANCH   1  29
BRANCH   7  33
ATOM     33  O   LIG d   1       9.579   5.571  -4.729  0.00  0.00    -0.491 OA
BRANCH  33  34
ATOM     34  C   LIG d   1      10.615   4.817  -5.361  0.00  0.00     0.079 C 
ATOM     35  H   LIG d   1      11.036   4.108  -4.648  0.00  0.00     0.066 H 
ATOM     36  H   LIG d   1      10.202   4.274  -6.211  0.00  0.00     0.066 H 
ATOM     37  H   LIG d   1      11.398   5.493  -5.707  0.00  0.00     0.066 H 
ENDBRANCH  33  34
ENDBRANCH   7  33
BRANCH   6  38
ATOM     38  O   LIG d   1       9.803   3.998  -2.475  0.00  0.00    -0.503 OA
ATOM     39  H   LIG d   1       9.828   3.656  -3.379  0.00  0.00     0.292 HD
ENDBRANCH   6  38
BRANCH  17  40
ATOM     40  O   LIG d   1       9.645  10.837  -7.926  0.00  0.00    -0.503 OA
ATOM     41  H   LIG d   1       8.763  11.215  -8.046  0.00  0.00     0.292 HD
ENDBRANCH  17  40
BRANCH  16  42
ATOM     42  O   LIG d   1       8.631   8.282  -8.020  0.00  0.00    -0.491 OA
BRANCH  42  43
ATOM     43  C   LIG d   1       9.341   7.314  -8.796  0.00  0.00     0.079 C 
ATOM     44  H   LIG d   1       8.697   6.945  -9.594  0.00  0.00     0.066 H 
ATOM     45  H   LIG d   1      10.228   7.775  -9.228  0.00  0.00     0.066 H 
ATOM     46  H   LIG d   1       9.639   6.484  -8.155  0.00  0.00     0.066 H 
ENDBRANCH  42  43
ENDBRANCH  16  42
TORSDOF 7
ENDMDL
MODEL 7
REMARK VINA RESULT:      -5.2      3.868      7.776
REMARK  7 active torsions:
REMARK  status: ('A' for Active; 'I' for Inactive)
REMARK    1  A    between atoms: C_1  and  N_2 
REMARK    2  A    between atoms: C_7  and  O_25 
REMARK    3  A    between atoms: C_8  and  O_23 
REMARK    4  A    between atoms: C_17  and  O_21 
REMARK    5  A    between atoms: C_18  and  O_20 
REMARK    6  A    between atoms: O_21  and  C_22 
REMARK    7  A    between atoms: O_23  and  C_24 
ROOT
ATOM      1  N   LIG d   1       9.251   8.722  -6.308  0.00  0.00     0.239 N 
ATOM      2  C   LIG d   1       9.743   9.234  -7.586  0.00  0.00    -0.028 C 
ATOM      3  C   LIG d   1       9.321   8.327  -8.731  0.00  0.00     0.013 C 
ATOM      4  C   LIG d   1       9.400   6.873  -8.360  0.00  0.00    -0.030 A 
ATOM      5  C   LIG d   1       9.183   5.929  -9.356  0.00  0.00    -0.013 A 
ATOM      6  C   LIG d   1       9.267   4.576  -9.082  0.00  0.00     0.159 A 
ATOM      7  C   LIG d   1       9.567   4.152  -7.792  0.00  0.00     0.169 A 
ATOM      8  C   LIG d   1       9.764   5.096  -6.787  0.00  0.00     0.037 A 
ATOM      9  C   LIG d   1       9.687   6.461  -7.076  0.00  0.00     0.015 A 
ATOM     10  C   LIG d   1       9.940   7.465  -5.982  0.00  0.00     0.010 C 
ATOM     11  H   LIG d   1      11.011   7.649  -5.902  0.00  0.00     0.091 H 
ATOM     12  C   LIG d   1       9.419   6.954  -4.640  0.00  0.00     0.021 C 
ATOM     13  C   LIG d   1       9.932   5.569  -4.358  0.00  0.00    -0.030 A 
ATOM     14  C   LIG d   1      10.083   4.663  -5.405  0.00  0.00    -0.007 A 
ATOM     15  C   LIG d   1      10.530   3.369  -5.152  0.00  0.00    -0.008 A 
ATOM     16  C   LIG d   1      10.839   2.991  -3.857  0.00  0.00     0.162 A 
ATOM     17  C   LIG d   1      10.704   3.906  -2.815  0.00  0.00     0.159 A 
ATOM     18  C   LIG d   1      10.250   5.191  -3.070  0.00  0.00    -0.013 A 
ATOM     19  H   LIG d   1       9.338  10.232  -7.753  0.00  0.00     0.082 H 
ATOM     20  H   LIG d   1      10.832   9.289  -7.556  0.00  0.00     0.082 H 
ATOM     21  H   LIG d   1       8.296   8.565  -9.012  0.00  0.00     0.036 H 
ATOM     22  H   LIG d   1       9.972   8.510  -9.586  0.00  0.00     0.036 H 
ATOM     23  H   LIG d   1       8.947   6.256 -10.358  0.00  0.00     0.066 H 
ATOM     24  H   LIG d   1       9.749   7.627  -3.849  0.00  0.00     0.037 H 
ATOM     25  H   LIG d   1       8.329   6.936  -4.662  0.00  0.00     0.037 H 
ATOM     26  H   LIG d   1      10.635   2.664  -5.963  0.00  0.00     0.066 H 
ATOM     27  H   LIG d   1      10.146   5.896  -2.259  0.00  0.00     0.066 H 
ATOM     28  H   LIG d   1       8.259   8.554  -6.372  0.00  0.00     0.204 HD
ENDROOT
BRANCH   1  29
ATOM     29  C   LIG d   1       9.512   9.710  -5.252  0.00  0.00    -0.043 C 
ATOM     30  H   LIG d   1       8.617  10.313  -5.090  0.00  0.00     0.078 H 
ATOM     31  H   LIG d   1       9.776   9.196  -4.329  0.00  0.00     0.078 H 
ATOM     32  H   LIG d   1      10.335  10.358  -5.556  0.00  0.00     0.078 H 
ENDBRANCH   1  29
BRANCH   7  33
ATOM     33  O   LIG d   1       9.668   2.824  -7.514  0.00  0.00    -0.491 OA
BRANCH  33  34
ATOM     34  C   LIG d   1       8.453   2.073  -7.485  0.00  0.00     0.079 C 
ATOM     35  H   LIG d   1       7.716   2.549  -8.131  0.00  0.00     0.066 H 
ATOM     36  H   LIG d   1       8.644   1.059  -7.837  0.00  0.00     0.066 H 
ATOM     37  H   LIG d   1       8.073   2.036  -6.463  0.00  0.00     0.066 H 
ENDBRANCH  33  34
ENDBRANCH   7  33
BRANCH   6  38
ATOM     38  O   LIG d   1       9.056   3.665 -10.069  0.00  0.00    -0.503 OA
ATOM     39  H   LIG d   1       8.894   4.057 -10.938  0.00  0.00     0.292 HD
ENDBRANCH   6  38
BRANCH  17  40
ATOM     40  O   LIG d   1      11.017   3.535  -1.545  0.00  0.00    -0.503 OA
ATOM     41  H   LIG d   1      10.843   4.218  -0.882  0.00  0.00     0.292 HD
ENDBRANCH  17  40
BRANCH  16  42
ATOM     42  O   LIG d   1      11.275   1.728  -3.603  0.00  0.00    -0.491 OA
BRANCH  42  43
ATOM     43  C   LIG d   1      12.640   1.439  -3.909  0.00  0.00     0.079 C 
ATOM     44  H   LIG d   1      12.828   1.644  -4.963  0.00  0.00     0.066 H 
ATOM     45  H   LIG d   1      13.290   2.063  -3.296  0.00  0.00     0.066 H 
ATOM     46  H   LIG d   1      12.844   0.388  -3.701  0.00  0.00     0.066 H 
ENDBRANCH  42  43
ENDBRANCH  16  42
TORSDOF 7
ENDMDL
MODEL 8
REMARK VINA RESULT:      -5.2      1.808      5.404
REMARK  7 active torsions:
REMARK  status: ('A' for Active; 'I' for Inactive)
REMARK    1  A    between atoms: C_1  and  N_2 
REMARK    2  A    between atoms: C_7  and  O_25 
REMARK    3  A    between atoms: C_8  and  O_23 
REMARK    4  A    between atoms: C_17  and  O_21 
REMARK    5  A    between atoms: C_18  and  O_20 
REMARK    6  A    between atoms: O_21  and  C_22 
REMARK    7  A    between atoms: O_23  and  C_24 
ROOT
ATOM      1  N   LIG d   1      10.542   4.182  -3.520  0.00  0.00     0.239 N 
ATOM      2  C   LIG d   1       9.461   3.920  -4.469  0.00  0.00    -0.028 C 
ATOM      3  C   LIG d   1       9.368   5.032  -5.502  0.00  0.00     0.013 C 
ATOM      4  C   LIG d   1       9.601   6.387  -4.899  0.00  0.00    -0.030 A 
ATOM      5  C   LIG d   1       9.401   7.505  -5.699  0.00  0.00    -0.013 A 
ATOM      6  C   LIG d   1       9.574   8.780  -5.194  0.00  0.00     0.159 A 
ATOM      7  C   LIG d   1       9.959   8.949  -3.868  0.00  0.00     0.169 A 
ATOM      8  C   LIG d   1      10.181   7.830  -3.069  0.00  0.00     0.037 A 
ATOM      9  C   LIG d   1       9.992   6.545  -3.587  0.00  0.00     0.015 A 
ATOM     10  C   LIG d   1      10.202   5.350  -2.694  0.00  0.00     0.010 C 
ATOM     11  H   LIG d   1       9.285   5.148  -2.141  0.00  0.00     0.091 H 
ATOM     12  C   LIG d   1      11.338   5.598  -1.705  0.00  0.00     0.021 C 
ATOM     13  C   LIG d   1      11.143   6.901  -0.980  0.00  0.00    -0.030 A 
ATOM     14  C   LIG d   1      10.593   7.989  -1.654  0.00  0.00    -0.007 A 
ATOM     15  C   LIG d   1      10.433   9.209  -1.001  0.00  0.00    -0.008 A 
ATOM     16  C   LIG d   1      10.809   9.331   0.325  0.00  0.00     0.162 A 
ATOM     17  C   LIG d   1      11.342   8.236   1.000  0.00  0.00     0.159 A 
ATOM     18  C   LIG d   1      11.507   7.025   0.345  0.00  0.00    -0.013 A 
ATOM     19  H   LIG d   1       9.650   2.974  -4.977  0.00  0.00     0.082 H 
ATOM     20  H   LIG d   1       8.516   3.854  -3.929  0.00  0.00     0.082 H 
ATOM     21  H   LIG d   1      10.113   4.857  -6.278  0.00  0.00     0.036 H 
ATOM     22  H   LIG d   1       8.377   5.011  -5.956  0.00  0.00     0.036 H 
ATOM     23  H   LIG d   1       9.105   7.377  -6.730  0.00  0.00     0.066 H 
ATOM     24  H   LIG d   1      11.365   4.785  -0.980  0.00  0.00     0.037 H 
ATOM     25  H   LIG d   1      12.284   5.627  -2.245  0.00  0.00     0.037 H 
ATOM     26  H   LIG d   1      10.019  10.055  -1.528  0.00  0.00     0.066 H 
ATOM     27  H   LIG d   1      11.921   6.178   0.872  0.00  0.00     0.066 H 
ATOM     28  H   LIG d   1      11.396   4.364  -4.024  0.00  0.00     0.204 HD
ENDROOT
BRANCH   1  29
ATOM     29  C   LIG d   1      10.727   3.009  -2.655  0.00  0.00    -0.043 C 
ATOM     30  H   LIG d   1      11.604   3.159  -2.023  0.00  0.00     0.078 H 
ATOM     31  H   LIG d   1       9.846   2.876  -2.028  0.00  0.00     0.078 H 
ATOM     32  H   LIG d   1      10.871   2.122  -3.271  0.00  0.00     0.078 H 
ENDBRANCH   1  29
BRANCH   7  33
ATOM     33  O   LIG d   1      10.118  10.199  -3.355  0.00  0.00    -0.491 OA
BRANCH  33  34
ATOM     34  C   LIG d   1      11.273  10.929  -3.771  0.00  0.00     0.079 C 
ATOM     35  H   LIG d   1      11.771  10.394  -4.579  0.00  0.00     0.066 H 
ATOM     36  H   LIG d   1      10.972  11.917  -4.120  0.00  0.00     0.066 H 
ATOM     37  H   LIG d   1      11.958  11.036  -2.928  0.00  0.00     0.066 H 
ENDBRANCH  33  34
ENDBRANCH   7  33
BRANCH   6  38
ATOM     38  O   LIG d   1       9.372   9.864  -5.989  0.00  0.00    -0.503 OA
ATOM     39  H   LIG d   1       9.402  10.709  -5.518  0.00  0.00     0.292 HD
ENDBRANCH   6  38
BRANCH  17  40
ATOM     40  O   LIG d   1      11.701   8.355   2.307  0.00  0.00    -0.503 OA
ATOM     41  H   LIG d   1      11.166   7.824   2.912  0.00  0.00     0.292 HD
ENDBRANCH  17  40
BRANCH  16  42
ATOM     42  O   LIG d   1      10.657  10.520   0.968  0.00  0.00    -0.491 OA
BRANCH  42  43
ATOM     43  C   LIG d   1      10.517  11.685   0.152  0.00  0.00     0.079 C 
ATOM     44  H   LIG d   1      11.502  12.040  -0.147  0.00  0.00     0.066 H 
ATOM     45  H   LIG d   1       9.934  11.439  -0.735  0.00  0.00     0.066 H 
ATOM     46  H   LIG d   1      10.005  12.464   0.719  0.00  0.00     0.066 H 
ENDBRANCH  42  43
ENDBRANCH  16  42
TORSDOF 7
ENDMDL
MODEL 9
REMARK VINA RESULT:      -5.1      2.759      6.489
REMARK  7 active torsions:
REMARK  status: ('A' for Active; 'I' for Inactive)
REMARK    1  A    between atoms: C_1  and  N_2 
REMARK    2  A    between atoms: C_7  and  O_25 
REMARK    3  A    between atoms: C_8  and  O_23 
REMARK    4  A    between atoms: C_17  and  O_21 
REMARK    5  A    between atoms: C_18  and  O_20 
REMARK    6  A    between atoms: O_21  and  C_22 
REMARK    7  A    between atoms: O_23  and  C_24 
ROOT
ATOM      1  N   LIG d   1       9.746  11.697  -3.325  0.00  0.00     0.239 N 
ATOM      2  C   LIG d   1      10.378  12.363  -4.464  0.00  0.00    -0.028 C 
ATOM      3  C   LIG d   1       9.927  11.738  -5.774  0.00  0.00     0.013 C 
ATOM      4  C   LIG d   1       9.810  10.244  -5.678  0.00  0.00    -0.030 A 
ATOM      5  C   LIG d   1       9.549   9.530  -6.841  0.00  0.00    -0.013 A 
ATOM      6  C   LIG d   1       9.455   8.150  -6.821  0.00  0.00     0.159 A 
ATOM      7  C   LIG d   1       9.617   7.466  -5.622  0.00  0.00     0.169 A 
ATOM      8  C   LIG d   1       9.857   8.181  -4.451  0.00  0.00     0.037 A 
ATOM      9  C   LIG d   1       9.962   9.574  -4.483  0.00  0.00     0.015 A 
ATOM     10  C   LIG d   1      10.258  10.324  -3.211  0.00  0.00     0.010 C 
ATOM     11  H   LIG d   1      11.337  10.352  -3.052  0.00  0.00     0.091 H 
ATOM     12  C   LIG d   1       9.594   9.652  -2.011  0.00  0.00     0.021 C 
ATOM     13  C   LIG d   1       9.921   8.184  -1.971  0.00  0.00    -0.030 A 
ATOM     14  C   LIG d   1      10.032   7.470  -3.162  0.00  0.00    -0.007 A 
ATOM     15  C   LIG d   1      10.306   6.105  -3.135  0.00  0.00    -0.008 A 
ATOM     16  C   LIG d   1      10.483   5.464  -1.922  0.00  0.00     0.162 A 
ATOM     17  C   LIG d   1      10.388   6.185  -0.734  0.00  0.00     0.159 A 
ATOM     18  C   LIG d   1      10.107   7.543  -0.764  0.00  0.00    -0.013 A 
ATOM     19  H   LIG d   1      10.105  13.419  -4.459  0.00  0.00     0.082 H 
ATOM     20  H   LIG d   1      11.461  12.273  -4.378  0.00  0.00     0.082 H 
ATOM     21  H   LIG d   1       8.958  12.153  -6.049  0.00  0.00     0.036 H 
ATOM     22  H   LIG d   1      10.650  11.987  -6.552  0.00  0.00     0.036 H 
ATOM     23  H   LIG d   1       9.419  10.059  -7.774  0.00  0.00     0.066 H 
ATOM     24  H   LIG d   1       9.949  10.123  -1.095  0.00  0.00     0.037 H 
ATOM     25  H   LIG d   1       8.514   9.777  -2.083  0.00  0.00     0.037 H 
ATOM     26  H   LIG d   1      10.380   5.549  -4.058  0.00  0.00     0.066 H 
ATOM     27  H   LIG d   1      10.033   8.098   0.159  0.00  0.00     0.066 H 
ATOM     28  H   LIG d   1       8.747  11.672  -3.462  0.00  0.00     0.204 HD
ENDROOT
BRANCH   1  29
ATOM     29  C   LIG d   1      10.052  12.438  -2.094  0.00  0.00    -0.043 C 
ATOM     30  H   LIG d   1      10.442  13.423  -2.351  0.00  0.00     0.078 H 
ATOM     31  H   LIG d   1       9.144  12.549  -1.502  0.00  0.00     0.078 H 
ATOM     32  H   LIG d   1      10.798  11.891  -1.517  0.00  0.00     0.078 H 
ENDBRANCH   1  29
BRANCH   7  33
ATOM     33  O   LIG d   1       9.543   6.108  -5.592  0.00  0.00    -0.491 OA
BRANCH  33  34
ATOM     34  C   LIG d   1      10.565   5.387  -6.282  0.00  0.00     0.079 C 
ATOM     35  H   LIG d   1      11.523   5.555  -5.791  0.00  0.00     0.066 H 
ATOM     36  H   LIG d   1      10.331   4.322  -6.267  0.00  0.00     0.066 H 
ATOM     37  H   LIG d   1      10.619   5.732  -7.315  0.00  0.00     0.066 H 
ENDBRANCH  33  34
ENDBRANCH   7  33
BRANCH   6  38
ATOM     38  O   LIG d   1       9.203   7.466  -7.969  0.00  0.00    -0.503 OA
ATOM     39  H   LIG d   1       8.338   7.032  -7.986  0.00  0.00     0.292 HD
ENDBRANCH   6  38
BRANCH  17  40
ATOM     40  O   LIG d   1      10.571   5.555   0.457  0.00  0.00    -0.503 OA
ATOM     41  H   LIG d   1      11.452   5.174   0.568  0.00  0.00     0.292 HD
ENDBRANCH  17  40
BRANCH  16  42
ATOM     42  O   LIG d   1      10.749   4.130  -1.889  0.00  0.00    -0.491 OA
BRANCH  42  43
ATOM     43  C   LIG d   1      10.255   3.344  -2.975  0.00  0.00     0.079 C 
ATOM     44  H   LIG d   1       9.167   3.298  -2.926  0.00  0.00     0.066 H 
ATOM     45  H   LIG d   1      10.557   3.796  -3.919  0.00  0.00     0.066 H 
ATOM     46  H   LIG d   1      10.665   2.336  -2.908  0.00  0.00     0.066 H 
ENDBRANCH  42  43
ENDBRANCH  16  42
TORSDOF 7
ENDMDL
MODEL 10
REMARK VINA RESULT:      -5.1      2.783      5.700
REMARK  7 active torsions:
REMARK  status: ('A' for Active; 'I' for Inactive)
REMARK    1  A    between atoms: C_1  and  N_2 
REMARK    2  A    between atoms: C_7  and  O_25 
REMARK    3  A    between atoms: C_8  and  O_23 
REMARK    4  A    between atoms: C_17  and  O_21 
REMARK    5  A    between atoms: C_18  and  O_20 
REMARK    6  A    between atoms: O_21  and  C_22 
REMARK    7  A    between atoms: O_23  and  C_24 
ROOT
ATOM      1  N   LIG d   1       9.583  10.769  -1.096  0.00  0.00     0.239 N 
ATOM      2  C   LIG d   1      10.139  12.020  -1.611  0.00  0.00    -0.028 C 
ATOM      3  C   LIG d   1       9.726  12.241  -3.057  0.00  0.00     0.013 C 
ATOM      4  C   LIG d   1       9.739  10.966  -3.851  0.00  0.00    -0.030 A 
ATOM      5  C   LIG d   1       9.525  11.044  -5.221  0.00  0.00    -0.013 A 
ATOM      6  C   LIG d   1       9.550   9.909  -6.010  0.00  0.00     0.159 A 
ATOM      7  C   LIG d   1       9.788   8.670  -5.425  0.00  0.00     0.169 A 
ATOM      8  C   LIG d   1       9.982   8.585  -4.049  0.00  0.00     0.037 A 
ATOM      9  C   LIG d   1       9.965   9.741  -3.262  0.00  0.00     0.015 A 
ATOM     10  C   LIG d   1      10.214   9.631  -1.780  0.00  0.00     0.010 C 
ATOM     11  H   LIG d   1      11.288   9.645  -1.593  0.00  0.00     0.091 H 
ATOM     12  C   LIG d   1       9.628   8.336  -1.221  0.00  0.00     0.021 C 
ATOM     13  C   LIG d   1      10.080   7.150  -2.028  0.00  0.00    -0.030 A 
ATOM     14  C   LIG d   1      10.236   7.274  -3.407  0.00  0.00    -0.007 A 
ATOM     15  C   LIG d   1      10.627   6.175  -4.167  0.00  0.00    -0.008 A 
ATOM     16  C   LIG d   1      10.875   4.963  -3.546  0.00  0.00     0.162 A 
ATOM     17  C   LIG d   1      10.735   4.850  -2.165  0.00  0.00     0.159 A 
ATOM     18  C   LIG d   1      10.338   5.943  -1.411  0.00  0.00    -0.013 A 
ATOM     19  H   LIG d   1       9.776  12.850  -1.004  0.00  0.00     0.082 H 
ATOM     20  H   LIG d   1      11.227  11.981  -1.551  0.00  0.00     0.082 H 
ATOM     21  H   LIG d   1       8.720  12.661  -3.078  0.00  0.00     0.036 H 
ATOM     22  H   LIG d   1      10.413  12.951  -3.517  0.00  0.00     0.036 H 
ATOM     23  H   LIG d   1       9.336  12.005  -5.678  0.00  0.00     0.066 H 
ATOM     24  H   LIG d   1       9.953   8.213  -0.188  0.00  0.00     0.037 H 
ATOM     25  H   LIG d   1       8.539   8.395  -1.249  0.00  0.00     0.037 H 
ATOM     26  H   LIG d   1      10.735   6.268  -5.238  0.00  0.00     0.066 H 
ATOM     27  H   LIG d   1      10.230   5.850  -0.341  0.00  0.00     0.066 H 
ATOM     28  H   LIG d   1       8.588  10.750  -1.261  0.00  0.00     0.204 HD
ENDROOT
BRANCH   1  29
ATOM     29  C   LIG d   1       9.841  10.676   0.347  0.00  0.00    -0.043 C 
ATOM     30  H   LIG d   1       9.134  11.309   0.883  0.00  0.00     0.078 H 
ATOM     31  H   LIG d   1       9.724   9.643   0.672  0.00  0.00     0.078 H 
ATOM     32  H   LIG d   1      10.858  11.010   0.557  0.00  0.00     0.078 H 
ENDBRANCH   1  29
BRANCH   7  33
ATOM     33  O   LIG d   1       9.831   7.547  -6.193  0.00  0.00    -0.491 OA
BRANCH  33  34
ATOM     34  C   LIG d   1      10.908   7.440  -7.126  0.00  0.00     0.079 C 
ATOM     35  H   LIG d   1      11.226   6.400  -7.197  0.00  0.00     0.066 H 
ATOM     36  H   LIG d   1      10.577   7.786  -8.104  0.00  0.00     0.066 H 
ATOM     37  H   LIG d   1      11.744   8.054  -6.787  0.00  0.00     0.066 H 
ENDBRANCH  33  34
ENDBRANCH   7  33
BRANCH   6  38
ATOM     38  O   LIG d   1       9.342  10.002  -7.351  0.00  0.00    -0.503 OA
ATOM     39  H   LIG d   1       8.565   9.517  -7.662  0.00  0.00     0.292 HD
ENDBRANCH   6  38
BRANCH  17  40
ATOM     40  O   LIG d   1      10.989   3.661  -1.555  0.00  0.00    -0.503 OA
ATOM     41  H   LIG d   1      10.204   3.113  -1.420  0.00  0.00     0.292 HD
ENDBRANCH  17  40
BRANCH  16  42
ATOM     42  O   LIG d   1      11.256   3.886  -4.283  0.00  0.00    -0.491 OA
BRANCH  42  43
ATOM     43  C   LIG d   1      10.732   3.790  -5.609  0.00  0.00     0.079 C 
ATOM     44  H   LIG d   1       9.694   3.462  -5.567  0.00  0.00     0.066 H 
ATOM     45  H   LIG d   1      10.786   4.765  -6.093  0.00  0.00     0.066 H 
ATOM     46  H   LIG d   1      11.319   3.069  -6.179  0.00  0.00     0.066 H 
ENDBRANCH  42  43
ENDBRANCH  16  42
TORSDOF 7
ENDMDL
