MODEL 1
REMARK VINA RESULT:      -7.5      0.000      0.000
REMARK  6 active torsions:
REMARK  status: ('A' for Active; 'I' for Inactive)
REMARK    1  A    between atoms: C_1  and  C_2 
REMARK    2  A    between atoms: C_5  and  C_8 
REMARK    3  A    between atoms: C_8  and  C_9 
REMARK    4  A    between atoms: C_9  and  C_24 
REMARK    5  A    between atoms: N_15  and  C_18 
REMARK    6  A    between atoms: C_24  and  N_25 
ROOT
ATOM      1  C   LIG d   1       4.718  -2.423  -7.336  0.00  0.00     0.117 A 
ATOM      2  C   LIG d   1       4.571  -3.851  -6.845  0.00  0.00    -0.022 A 
ATOM      3  O   LIG d   1       4.589  -4.786  -7.617  0.00  0.00    -0.864 OA
ATOM      4  N   LIG d   1       4.416  -4.046  -5.522  0.00  0.00    -0.182 NA
ATOM      5  C   LIG d   1       4.396  -3.029  -4.655  0.00  0.00     0.336 A 
ATOM      6  O   LIG d   1       4.255  -3.294  -3.478  0.00  0.00    -0.250 OA
ATOM      7  N   LIG d   1       4.520  -1.739  -4.988  0.00  0.00    -0.192 N 
ATOM      8  C   LIG d   1       4.681  -1.345  -6.269  0.00  0.00     0.243 A 
ATOM      9  O   LIG d   1       4.791  -0.172  -6.556  0.00  0.00    -0.274 OA
ENDROOT
BRANCH   1  10
ATOM     10  C   LIG d   1       6.050  -2.310  -8.080  0.00  0.00    -0.004 C 
ATOM     11  H   LIG d   1       6.130  -1.314  -8.540  0.00  0.00     0.033 H 
ATOM     12  H   LIG d   1       6.098  -3.081  -8.864  0.00  0.00     0.033 H 
BRANCH  10  13
ATOM     13  C   LIG d   1       7.186  -2.508  -7.110  0.00  0.00    -0.046 A 
ATOM     14  C   LIG d   1       7.662  -3.780  -6.853  0.00  0.00    -0.058 A 
ATOM     15  C   LIG d   1       8.703  -3.962  -5.963  0.00  0.00    -0.059 A 
ATOM     16  H   LIG d   1       7.220  -4.633  -7.348  0.00  0.00     0.062 H 
ATOM     17  C   LIG d   1       9.270  -2.871  -5.329  0.00  0.00    -0.050 A 
ATOM     18  H   LIG d   1       9.075  -4.956  -5.761  0.00  0.00     0.062 H 
ATOM     19  C   LIG d   1       8.794  -1.599  -5.586  0.00  0.00    -0.059 A 
ATOM     20  C   LIG d   1       7.752  -1.417  -6.477  0.00  0.00    -0.058 A 
ATOM     21  H   LIG d   1       9.236  -0.747  -5.092  0.00  0.00     0.062 H 
ATOM     22  H   LIG d   1       7.380  -0.423  -6.677  0.00  0.00     0.062 H 
BRANCH  17  23
ATOM     23  C   LIG d   1      10.410  -3.068  -4.364  0.00  0.00    -0.040 C 
ATOM     24  H   LIG d   1      10.774  -2.088  -4.022  0.00  0.00     0.028 H 
ATOM     25  H   LIG d   1      11.226  -3.607  -4.867  0.00  0.00     0.028 H 
ATOM     26  H   LIG d   1      10.062  -3.653  -3.500  0.00  0.00     0.028 H 
ENDBRANCH  17  23
ENDBRANCH  10  13
ENDBRANCH   1  10
BRANCH   1  27
ATOM     27  C   LIG d   1       3.593  -2.144  -8.334  0.00  0.00    -0.013 C 
ATOM     28  H   LIG d   1       3.274  -3.088  -8.800  0.00  0.00     0.083 H 
ATOM     29  H   LIG d   1       2.741  -1.689  -7.808  0.00  0.00     0.083 H 
BRANCH  27  30
ATOM     30  N   LIG d   1       4.076  -1.224  -9.373  0.00  0.00     0.237 N 
ATOM     31  C   LIG d   1       3.318   0.036  -9.355  0.00  0.00    -0.024 C 
ATOM     32  C   LIG d   1       3.988   1.006 -10.342  0.00  0.00     0.040 C 
ATOM     33  H   LIG d   1       2.279  -0.157  -9.659  0.00  0.00     0.082 H 
ATOM     34  H   LIG d   1       3.331   0.458  -8.339  0.00  0.00     0.082 H 
ATOM     35  C   LIG d   1       3.851   0.419 -11.752  0.00  0.00    -0.031 C 
ATOM     36  H   LIG d   1       3.540   2.011 -10.303  0.00  0.00     0.042 H 
ATOM     37  C   LIG d   1       5.453   1.087  -9.978  0.00  0.00     0.030 A 
ATOM     38  C   LIG d   1       4.584  -0.925 -11.765  0.00  0.00     0.018 C 
ATOM     39  H   LIG d   1       4.305   1.092 -12.494  0.00  0.00     0.028 H 
ATOM     40  H   LIG d   1       2.790   0.262 -12.000  0.00  0.00     0.028 H 
ATOM     41  C   LIG d   1       4.027  -1.853 -10.696  0.00  0.00    -0.027 C 
ATOM     42  H   LIG d   1       4.431  -1.430 -12.730  0.00  0.00     0.037 H 
ATOM     43  C   LIG d   1       6.072  -0.679 -11.583  0.00  0.00     0.034 C 
ATOM     44  H   LIG d   1       4.626  -2.776 -10.685  0.00  0.00     0.082 H 
ATOM     45  H   LIG d   1       2.985  -2.095 -10.949  0.00  0.00     0.082 H 
ATOM     46  N   LIG d   1       6.368   0.232 -10.492  0.00  0.00    -0.311 N 
ATOM     47  H   LIG d   1       6.577  -1.631 -11.367  0.00  0.00     0.050 H 
ATOM     48  H   LIG d   1       6.487  -0.242 -12.502  0.00  0.00     0.050 H 
ATOM     49  C   LIG d   1       7.640   0.243 -10.024  0.00  0.00     0.252 A 
ATOM     50  C   LIG d   1       8.062   1.234  -9.127  0.00  0.00     0.003 A 
ATOM     51  O   LIG d   1       8.425  -0.618 -10.387  0.00  0.00    -0.268 OA
ATOM     52  C   LIG d   1       7.159   2.150  -8.674  0.00  0.00    -0.055 A 
ATOM     53  H   LIG d   1       9.013   1.275  -8.819  0.00  0.00     0.067 H 
ATOM     54  C   LIG d   1       5.830   2.057  -9.104  0.00  0.00    -0.042 A 
ATOM     55  H   LIG d   1       7.449   2.871  -8.046  0.00  0.00     0.062 H 
ATOM     56  H   LIG d   1       5.155   2.712  -8.763  0.00  0.00     0.064 H 
ATOM     57  H   LIG d   1       5.128  -0.989  -9.154  0.00  0.00     0.203 HD
ENDBRANCH  27  30
ENDBRANCH   1  27
BRANCH   7  58
ATOM     58  C   LIG d   1       4.481  -0.768  -3.977  0.00  0.00     0.045 A 
ATOM     59  C   LIG d   1       5.664  -0.249  -3.467  0.00  0.00    -0.040 A 
ATOM     60  C   LIG d   1       5.623   0.706  -2.469  0.00  0.00    -0.060 A 
ATOM     61  H   LIG d   1       6.614  -0.592  -3.849  0.00  0.00     0.064 H 
ATOM     62  C   LIG d   1       4.407   1.146  -1.981  0.00  0.00    -0.062 A 
ATOM     63  H   LIG d   1       6.542   1.111  -2.073  0.00  0.00     0.062 H 
ATOM     64  C   LIG d   1       3.228   0.630  -2.487  0.00  0.00    -0.060 A 
ATOM     65  H   LIG d   1       4.377   1.894  -1.202  0.00  0.00     0.062 H 
ATOM     66  C   LIG d   1       3.262  -0.322  -3.487  0.00  0.00    -0.040 A 
ATOM     67  H   LIG d   1       2.279   0.976  -2.103  0.00  0.00     0.062 H 
ATOM     68  H   LIG d   1       2.341  -0.721  -3.885  0.00  0.00     0.064 H 
ENDBRANCH   7  58
TORSDOF 6
ENDMDL
MODEL 2
REMARK VINA RESULT:      -7.4      1.853      2.778
REMARK  6 active torsions:
REMARK  status: ('A' for Active; 'I' for Inactive)
REMARK    1  A    between atoms: C_1  and  C_2 
REMARK    2  A    between atoms: C_5  and  C_8 
REMARK    3  A    between atoms: C_8  and  C_9 
REMARK    4  A    between atoms: C_9  and  C_24 
REMARK    5  A    between atoms: N_15  and  C_18 
REMARK    6  A    between atoms: C_24  and  N_25 
ROOT
ATOM      1  C   LIG d   1       6.282  -2.320  -7.067  0.00  0.00     0.117 A 
ATOM      2  C   LIG d   1       7.334  -3.227  -6.457  0.00  0.00    -0.022 A 
ATOM      3  O   LIG d   1       7.981  -3.989  -7.143  0.00  0.00    -0.864 OA
ATOM      4  N   LIG d   1       7.523  -3.161  -5.126  0.00  0.00    -0.182 NA
ATOM      5  C   LIG d   1       6.820  -2.326  -4.352  0.00  0.00     0.336 A 
ATOM      6  O   LIG d   1       7.056  -2.329  -3.161  0.00  0.00    -0.250 OA
ATOM      7  N   LIG d   1       5.876  -1.488  -4.795  0.00  0.00    -0.192 N 
ATOM      8  C   LIG d   1       5.543  -1.413  -6.101  0.00  0.00     0.243 A 
ATOM      9  O   LIG d   1       4.685  -0.648  -6.488  0.00  0.00    -0.274 OA
ENDROOT
BRANCH   1  10
ATOM     10  C   LIG d   1       6.963  -1.442  -8.118  0.00  0.00    -0.004 C 
ATOM     11  H   LIG d   1       6.198  -0.908  -8.702  0.00  0.00     0.033 H 
ATOM     12  H   LIG d   1       7.563  -2.072  -8.790  0.00  0.00     0.033 H 
BRANCH  10  13
ATOM     13  C   LIG d   1       7.860  -0.442  -7.434  0.00  0.00    -0.046 A 
ATOM     14  C   LIG d   1       9.160  -0.786  -7.113  0.00  0.00    -0.058 A 
ATOM     15  C   LIG d   1       9.982   0.130  -6.484  0.00  0.00    -0.059 A 
ATOM     16  H   LIG d   1       9.533  -1.771  -7.353  0.00  0.00     0.062 H 
ATOM     17  C   LIG d   1       9.504   1.391  -6.177  0.00  0.00    -0.050 A 
ATOM     18  H   LIG d   1      10.998  -0.139  -6.233  0.00  0.00     0.062 H 
ATOM     19  C   LIG d   1       8.205   1.735  -6.498  0.00  0.00    -0.059 A 
ATOM     20  C   LIG d   1       7.382   0.818  -7.126  0.00  0.00    -0.058 A 
ATOM     21  H   LIG d   1       7.831   2.719  -6.257  0.00  0.00     0.062 H 
ATOM     22  H   LIG d   1       6.366   1.086  -7.376  0.00  0.00     0.062 H 
BRANCH  17  23
ATOM     23  C   LIG d   1      10.403   2.392  -5.498  0.00  0.00    -0.040 C 
ATOM     24  H   LIG d   1      11.369   2.433  -6.023  0.00  0.00     0.028 H 
ATOM     25  H   LIG d   1      10.566   2.089  -4.454  0.00  0.00     0.028 H 
ATOM     26  H   LIG d   1       9.930   3.385  -5.522  0.00  0.00     0.028 H 
ENDBRANCH  17  23
ENDBRANCH  10  13
ENDBRANCH   1  10
BRANCH   1  27
ATOM     27  C   LIG d   1       5.251  -3.197  -7.779  0.00  0.00    -0.013 C 
ATOM     28  H   LIG d   1       5.744  -4.102  -8.165  0.00  0.00     0.083 H 
ATOM     29  H   LIG d   1       4.462  -3.484  -7.070  0.00  0.00     0.083 H 
BRANCH  27  30
ATOM     30  N   LIG d   1       4.658  -2.448  -8.896  0.00  0.00     0.237 N 
ATOM     31  C   LIG d   1       3.196  -2.604  -8.917  0.00  0.00    -0.024 C 
ATOM     32  C   LIG d   1       2.635  -1.661  -9.995  0.00  0.00     0.040 C 
ATOM     33  H   LIG d   1       2.942  -3.647  -9.155  0.00  0.00     0.082 H 
ATOM     34  H   LIG d   1       2.784  -2.342  -7.931  0.00  0.00     0.082 H 
ATOM     35  C   LIG d   1       3.156  -2.134 -11.357  0.00  0.00    -0.031 C 
ATOM     36  H   LIG d   1       1.534  -1.642  -9.995  0.00  0.00     0.042 H 
ATOM     37  C   LIG d   1       3.169  -0.276  -9.711  0.00  0.00     0.030 A 
ATOM     38  C   LIG d   1       4.684  -2.036 -11.325  0.00  0.00     0.018 C 
ATOM     39  H   LIG d   1       2.764  -1.494 -12.161  0.00  0.00     0.028 H 
ATOM     40  H   LIG d   1       2.859  -3.177 -11.541  0.00  0.00     0.028 H 
ATOM     41  C   LIG d   1       5.253  -2.852 -10.174  0.00  0.00    -0.027 C 
ATOM     42  H   LIG d   1       5.110  -2.455 -12.248  0.00  0.00     0.037 H 
ATOM     43  C   LIG d   1       5.084  -0.573 -11.234  0.00  0.00     0.034 C 
ATOM     44  H   LIG d   1       6.342  -2.697 -10.137  0.00  0.00     0.082 H 
ATOM     45  H   LIG d   1       5.040  -3.915 -10.358  0.00  0.00     0.082 H 
ATOM     46  N   LIG d   1       4.347   0.156 -10.218  0.00  0.00    -0.311 N 
ATOM     47  H   LIG d   1       6.153  -0.500 -10.986  0.00  0.00     0.050 H 
ATOM     48  H   LIG d   1       4.896  -0.081 -12.199  0.00  0.00     0.050 H 
ATOM     49  C   LIG d   1       4.859   1.345  -9.816  0.00  0.00     0.252 A 
ATOM     50  C   LIG d   1       4.110   2.208  -9.004  0.00  0.00     0.003 A 
ATOM     51  O   LIG d   1       5.984   1.668 -10.165  0.00  0.00    -0.268 OA
ATOM     52  C   LIG d   1       2.883   1.807  -8.564  0.00  0.00    -0.055 A 
ATOM     53  H   LIG d   1       4.464   3.107  -8.748  0.00  0.00     0.067 H 
ATOM     54  C   LIG d   1       2.420   0.535  -8.919  0.00  0.00    -0.042 A 
ATOM     55  H   LIG d   1       2.331   2.418  -7.996  0.00  0.00     0.062 H 
ATOM     56  H   LIG d   1       1.530   0.224  -8.585  0.00  0.00     0.064 H 
ATOM     57  H   LIG d   1       4.883  -1.382  -8.746  0.00  0.00     0.203 HD
ENDBRANCH  27  30
ENDBRANCH   1  27
BRANCH   7  58
ATOM     58  C   LIG d   1       5.213  -0.663  -3.875  0.00  0.00     0.045 A 
ATOM     59  C   LIG d   1       3.987  -1.052  -3.351  0.00  0.00    -0.040 A 
ATOM     60  C   LIG d   1       3.335  -0.237  -2.445  0.00  0.00    -0.060 A 
ATOM     61  H   LIG d   1       3.543  -1.990  -3.652  0.00  0.00     0.064 H 
ATOM     62  C   LIG d   1       3.903   0.963  -2.060  0.00  0.00    -0.062 A 
ATOM     63  H   LIG d   1       2.382  -0.539  -2.038  0.00  0.00     0.062 H 
ATOM     64  C   LIG d   1       5.123   1.352  -2.580  0.00  0.00    -0.060 A 
ATOM     65  H   LIG d   1       3.393   1.598  -1.351  0.00  0.00     0.062 H 
ATOM     66  C   LIG d   1       5.782   0.540  -3.483  0.00  0.00    -0.040 A 
ATOM     67  H   LIG d   1       5.565   2.290  -2.277  0.00  0.00     0.062 H 
ATOM     68  H   LIG d   1       6.737   0.842  -3.885  0.00  0.00     0.064 H 
ENDBRANCH   7  58
TORSDOF 6
ENDMDL
MODEL 3
REMARK VINA RESULT:      -7.3      2.188      6.544
REMARK  6 active torsions:
REMARK  status: ('A' for Active; 'I' for Inactive)
REMARK    1  A    between atoms: C_1  and  C_2 
REMARK    2  A    between atoms: C_5  and  C_8 
REMARK    3  A    between atoms: C_8  and  C_9 
REMARK    4  A    between atoms: C_9  and  C_24 
REMARK    5  A    between atoms: N_15  and  C_18 
REMARK    6  A    between atoms: C_24  and  N_25 
ROOT
ATOM      1  C   LIG d   1       3.725  -0.236  -7.083  0.00  0.00     0.117 A 
ATOM      2  C   LIG d   1       3.137   0.889  -7.914  0.00  0.00    -0.022 A 
ATOM      3  O   LIG d   1       3.003   2.005  -7.457  0.00  0.00    -0.864 OA
ATOM      4  N   LIG d   1       2.764   0.608  -9.177  0.00  0.00    -0.182 NA
ATOM      5  C   LIG d   1       2.905  -0.615  -9.699  0.00  0.00     0.336 A 
ATOM      6  O   LIG d   1       2.546  -0.782 -10.848  0.00  0.00    -0.250 OA
ATOM      7  N   LIG d   1       3.414  -1.669  -9.050  0.00  0.00    -0.192 N 
ATOM      8  C   LIG d   1       3.840  -1.583  -7.772  0.00  0.00     0.243 A 
ATOM      9  O   LIG d   1       4.298  -2.546  -7.196  0.00  0.00    -0.274 OA
ENDROOT
BRANCH   1  10
ATOM     10  C   LIG d   1       5.123   0.188  -6.630  0.00  0.00    -0.004 C 
ATOM     11  H   LIG d   1       5.463  -0.475  -5.821  0.00  0.00     0.033 H 
ATOM     12  H   LIG d   1       5.092   1.226  -6.266  0.00  0.00     0.033 H 
BRANCH  10  13
ATOM     13  C   LIG d   1       6.078   0.093  -7.792  0.00  0.00    -0.046 A 
ATOM     14  C   LIG d   1       6.190   1.143  -8.684  0.00  0.00    -0.058 A 
ATOM     15  C   LIG d   1       7.065   1.055  -9.749  0.00  0.00    -0.059 A 
ATOM     16  H   LIG d   1       5.592   2.033  -8.548  0.00  0.00     0.062 H 
ATOM     17  C   LIG d   1       7.830  -0.083  -9.924  0.00  0.00    -0.050 A 
ATOM     18  H   LIG d   1       7.152   1.876 -10.447  0.00  0.00     0.062 H 
ATOM     19  C   LIG d   1       7.720  -1.134  -9.032  0.00  0.00    -0.059 A 
ATOM     20  C   LIG d   1       6.844  -1.046  -7.966  0.00  0.00    -0.058 A 
ATOM     21  H   LIG d   1       8.317  -2.023  -9.168  0.00  0.00     0.062 H 
ATOM     22  H   LIG d   1       6.756  -1.867  -7.269  0.00  0.00     0.062 H 
BRANCH  17  23
ATOM     23  C   LIG d   1       8.790  -0.176 -11.081  0.00  0.00    -0.040 C 
ATOM     24  H   LIG d   1       9.625  -0.841 -10.813  0.00  0.00     0.028 H 
ATOM     25  H   LIG d   1       9.180   0.825 -11.315  0.00  0.00     0.028 H 
ATOM     26  H   LIG d   1       8.267  -0.580 -11.960  0.00  0.00     0.028 H 
ENDBRANCH  17  23
ENDBRANCH  10  13
ENDBRANCH   1  10
BRANCH   1  27
ATOM     27  C   LIG d   1       2.857  -0.412  -5.837  0.00  0.00    -0.013 C 
ATOM     28  H   LIG d   1       2.114   0.399  -5.789  0.00  0.00     0.083 H 
ATOM     29  H   LIG d   1       2.339  -1.380  -5.885  0.00  0.00     0.083 H 
BRANCH  27  30
ATOM     30  N   LIG d   1       3.705  -0.369  -4.638  0.00  0.00     0.237 N 
ATOM     31  C   LIG d   1       3.831  -1.703  -4.033  0.00  0.00    -0.024 C 
ATOM     32  C   LIG d   1       4.864  -1.613  -2.897  0.00  0.00     0.040 C 
ATOM     33  H   LIG d   1       2.855  -2.018  -3.635  0.00  0.00     0.082 H 
ATOM     34  H   LIG d   1       4.165  -2.422  -4.795  0.00  0.00     0.082 H 
ATOM     35  C   LIG d   1       4.302  -0.682  -1.817  0.00  0.00    -0.031 C 
ATOM     36  H   LIG d   1       5.092  -2.601  -2.467  0.00  0.00     0.042 H 
ATOM     37  C   LIG d   1       6.122  -1.005  -3.473  0.00  0.00     0.030 A 
ATOM     38  C   LIG d   1       4.107   0.698  -2.453  0.00  0.00     0.018 C 
ATOM     39  H   LIG d   1       5.005  -0.601  -0.975  0.00  0.00     0.028 H 
ATOM     40  H   LIG d   1       3.334  -1.057  -1.452  0.00  0.00     0.028 H 
ATOM     41  C   LIG d   1       3.197   0.607  -3.669  0.00  0.00    -0.027 C 
ATOM     42  H   LIG d   1       3.615   1.377  -1.742  0.00  0.00     0.037 H 
ATOM     43  C   LIG d   1       5.467   1.276  -2.807  0.00  0.00     0.034 C 
ATOM     44  H   LIG d   1       3.142   1.599  -4.142  0.00  0.00     0.082 H 
ATOM     45  H   LIG d   1       2.194   0.304  -3.335  0.00  0.00     0.082 H 
ATOM     46  N   LIG d   1       6.322   0.333  -3.505  0.00  0.00    -0.311 N 
ATOM     47  H   LIG d   1       5.335   2.151  -3.459  0.00  0.00     0.050 H 
ATOM     48  H   LIG d   1       5.987   1.578  -1.886  0.00  0.00     0.050 H 
ATOM     49  C   LIG d   1       7.391   0.841  -4.165  0.00  0.00     0.252 A 
ATOM     50  C   LIG d   1       8.380  -0.008  -4.681  0.00  0.00     0.003 A 
ATOM     51  O   LIG d   1       7.495   2.048  -4.311  0.00  0.00    -0.268 OA
ATOM     52  C   LIG d   1       8.221  -1.358  -4.572  0.00  0.00    -0.055 A 
ATOM     53  H   LIG d   1       9.196   0.365  -5.124  0.00  0.00     0.067 H 
ATOM     54  C   LIG d   1       7.060  -1.855  -3.968  0.00  0.00    -0.042 A 
ATOM     55  H   LIG d   1       8.925  -1.975  -4.923  0.00  0.00     0.062 H 
ATOM     56  H   LIG d   1       6.924  -2.843  -3.901  0.00  0.00     0.064 H 
ATOM     57  H   LIG d   1       4.709  -0.041  -4.945  0.00  0.00     0.203 HD
ENDBRANCH  27  30
ENDBRANCH   1  27
BRANCH   7  58
ATOM     58  C   LIG d   1       3.506  -2.899  -9.717  0.00  0.00     0.045 A 
ATOM     59  C   LIG d   1       4.686  -3.255 -10.357  0.00  0.00    -0.040 A 
ATOM     60  C   LIG d   1       4.774  -4.467 -11.014  0.00  0.00    -0.060 A 
ATOM     61  H   LIG d   1       5.533  -2.586 -10.341  0.00  0.00     0.064 H 
ATOM     62  C   LIG d   1       3.689  -5.325 -11.034  0.00  0.00    -0.062 A 
ATOM     63  H   LIG d   1       5.691  -4.745 -11.511  0.00  0.00     0.062 H 
ATOM     64  C   LIG d   1       2.514  -4.972 -10.398  0.00  0.00    -0.060 A 
ATOM     65  H   LIG d   1       3.761  -6.272 -11.548  0.00  0.00     0.062 H 
ATOM     66  C   LIG d   1       2.421  -3.763  -9.735  0.00  0.00    -0.040 A 
ATOM     67  H   LIG d   1       1.668  -5.644 -10.416  0.00  0.00     0.062 H 
ATOM     68  H   LIG d   1       1.504  -3.490  -9.235  0.00  0.00     0.064 H 
ENDBRANCH   7  58
TORSDOF 6
ENDMDL
MODEL 4
REMARK VINA RESULT:      -7.1      2.005      7.074
REMARK  6 active torsions:
REMARK  status: ('A' for Active; 'I' for Inactive)
REMARK    1  A    between atoms: C_1  and  C_2 
REMARK    2  A    between atoms: C_5  and  C_8 
REMARK    3  A    between atoms: C_8  and  C_9 
REMARK    4  A    between atoms: C_9  and  C_24 
REMARK    5  A    between atoms: N_15  and  C_18 
REMARK    6  A    between atoms: C_24  and  N_25 
ROOT
ATOM      1  C   LIG d   1       5.169   0.040  -8.054  0.00  0.00     0.117 A 
ATOM      2  C   LIG d   1       4.190  -0.318  -6.952  0.00  0.00    -0.022 A 
ATOM      3  O   LIG d   1       3.720   0.533  -6.227  0.00  0.00    -0.864 OA
ATOM      4  N   LIG d   1       3.861  -1.615  -6.803  0.00  0.00    -0.182 NA
ATOM      5  C   LIG d   1       4.367  -2.568  -7.593  0.00  0.00     0.336 A 
ATOM      6  O   LIG d   1       4.015  -3.713  -7.391  0.00  0.00    -0.250 OA
ATOM      7  N   LIG d   1       5.232  -2.352  -8.591  0.00  0.00    -0.192 N 
ATOM      8  C   LIG d   1       5.681  -1.115  -8.893  0.00  0.00     0.243 A 
ATOM      9  O   LIG d   1       6.465  -0.936  -9.800  0.00  0.00    -0.274 OA
ENDROOT
BRANCH   1  10
ATOM     10  C   LIG d   1       4.486   1.041  -8.990  0.00  0.00    -0.004 C 
ATOM     11  H   LIG d   1       5.242   1.519  -9.630  0.00  0.00     0.033 H 
ATOM     12  H   LIG d   1       3.971   1.808  -8.393  0.00  0.00     0.033 H 
BRANCH  10  13
ATOM     13  C   LIG d   1       3.483   0.319  -9.852  0.00  0.00    -0.046 A 
ATOM     14  C   LIG d   1       2.242  -0.010  -9.341  0.00  0.00    -0.058 A 
ATOM     15  C   LIG d   1       1.322  -0.674 -10.131  0.00  0.00    -0.059 A 
ATOM     16  H   LIG d   1       1.990   0.250  -8.323  0.00  0.00     0.062 H 
ATOM     17  C   LIG d   1       1.644  -1.007 -11.434  0.00  0.00    -0.050 A 
ATOM     18  H   LIG d   1       0.352  -0.931  -9.732  0.00  0.00     0.062 H 
ATOM     19  C   LIG d   1       2.885  -0.678 -11.946  0.00  0.00    -0.059 A 
ATOM     20  C   LIG d   1       3.804  -0.015 -11.155  0.00  0.00    -0.058 A 
ATOM     21  H   LIG d   1       3.136  -0.939 -12.963  0.00  0.00     0.062 H 
ATOM     22  H   LIG d   1       4.775   0.241 -11.554  0.00  0.00     0.062 H 
BRANCH  17  23
ATOM     23  C   LIG d   1       0.638  -1.723 -12.299  0.00  0.00    -0.040 C 
ATOM     24  H   LIG d   1       0.788  -2.810 -12.212  0.00  0.00     0.028 H 
ATOM     25  H   LIG d   1       0.772  -1.417 -13.346  0.00  0.00     0.028 H 
ATOM     26  H   LIG d   1      -0.379  -1.466 -11.968  0.00  0.00     0.028 H 
ENDBRANCH  17  23
ENDBRANCH  10  13
ENDBRANCH   1  10
BRANCH   1  27
ATOM     27  C   LIG d   1       6.372   0.735  -7.416  0.00  0.00    -0.013 C 
ATOM     28  H   LIG d   1       7.265   0.564  -8.035  0.00  0.00     0.083 H 
ATOM     29  H   LIG d   1       6.176   1.815  -7.345  0.00  0.00     0.083 H 
BRANCH  27  30
ATOM     30  N   LIG d   1       6.597   0.189  -6.070  0.00  0.00     0.237 N 
ATOM     31  C   LIG d   1       7.330   1.146  -5.229  0.00  0.00    -0.024 C 
ATOM     32  C   LIG d   1       7.374   0.583  -3.799  0.00  0.00     0.040 C 
ATOM     33  H   LIG d   1       8.351   1.271  -5.619  0.00  0.00     0.082 H 
ATOM     34  H   LIG d   1       6.813   2.117  -5.240  0.00  0.00     0.082 H 
ATOM     35  C   LIG d   1       8.193  -0.712  -3.823  0.00  0.00    -0.031 C 
ATOM     36  H   LIG d   1       7.814   1.298  -3.086  0.00  0.00     0.042 H 
ATOM     37  C   LIG d   1       5.954   0.266  -3.390  0.00  0.00     0.030 A 
ATOM     38  C   LIG d   1       7.471  -1.697  -4.748  0.00  0.00     0.018 C 
ATOM     39  H   LIG d   1       8.263  -1.142  -2.813  0.00  0.00     0.028 H 
ATOM     40  H   LIG d   1       9.205  -0.519  -4.211  0.00  0.00     0.028 H 
ATOM     41  C   LIG d   1       7.292  -1.100  -6.136  0.00  0.00    -0.027 C 
ATOM     42  H   LIG d   1       8.073  -2.609  -4.873  0.00  0.00     0.037 H 
ATOM     43  C   LIG d   1       6.142  -2.081  -4.120  0.00  0.00     0.034 C 
ATOM     44  H   LIG d   1       6.705  -1.802  -6.747  0.00  0.00     0.082 H 
ATOM     45  H   LIG d   1       8.283  -0.960  -6.589  0.00  0.00     0.082 H 
ATOM     46  N   LIG d   1       5.387  -0.937  -3.643  0.00  0.00    -0.311 N 
ATOM     47  H   LIG d   1       5.522  -2.602  -4.864  0.00  0.00     0.050 H 
ATOM     48  H   LIG d   1       6.320  -2.744  -3.261  0.00  0.00     0.050 H 
ATOM     49  C   LIG d   1       4.068  -1.126  -3.397  0.00  0.00     0.252 A 
ATOM     50  C   LIG d   1       3.316  -0.145  -2.736  0.00  0.00     0.003 A 
ATOM     51  O   LIG d   1       3.528  -2.162  -3.753  0.00  0.00    -0.268 OA
ATOM     52  C   LIG d   1       3.912   1.036  -2.404  0.00  0.00    -0.055 A 
ATOM     53  H   LIG d   1       2.355  -0.302  -2.508  0.00  0.00     0.067 H 
ATOM     54  C   LIG d   1       5.251   1.240  -2.754  0.00  0.00    -0.042 A 
ATOM     55  H   LIG d   1       3.391   1.740  -1.919  0.00  0.00     0.062 H 
ATOM     56  H   LIG d   1       5.691   2.110  -2.532  0.00  0.00     0.064 H 
ATOM     57  H   LIG d   1       5.614   0.015  -5.607  0.00  0.00     0.203 HD
ENDBRANCH  27  30
ENDBRANCH   1  27
BRANCH   7  58
ATOM     58  C   LIG d   1       5.685  -3.444  -9.346  0.00  0.00     0.045 A 
ATOM     59  C   LIG d   1       5.014  -3.813 -10.505  0.00  0.00    -0.040 A 
ATOM     60  C   LIG d   1       5.462  -4.890 -11.246  0.00  0.00    -0.060 A 
ATOM     61  H   LIG d   1       4.145  -3.260 -10.826  0.00  0.00     0.064 H 
ATOM     62  C   LIG d   1       6.576  -5.598 -10.836  0.00  0.00    -0.062 A 
ATOM     63  H   LIG d   1       4.942  -5.177 -12.148  0.00  0.00     0.062 H 
ATOM     64  C   LIG d   1       7.245  -5.232  -9.682  0.00  0.00    -0.060 A 
ATOM     65  H   LIG d   1       6.925  -6.438 -11.417  0.00  0.00     0.062 H 
ATOM     66  C   LIG d   1       6.805  -4.154  -8.939  0.00  0.00    -0.040 A 
ATOM     67  H   LIG d   1       8.115  -5.788  -9.364  0.00  0.00     0.062 H 
ATOM     68  H   LIG d   1       7.330  -3.866  -8.041  0.00  0.00     0.064 H 
ENDBRANCH   7  58
TORSDOF 6
ENDMDL
MODEL 5
REMARK VINA RESULT:      -6.8      2.183      5.707
REMARK  6 active torsions:
REMARK  status: ('A' for Active; 'I' for Inactive)
REMARK    1  A    between atoms: C_1  and  C_2 
REMARK    2  A    between atoms: C_5  and  C_8 
REMARK    3  A    between atoms: C_8  and  C_9 
REMARK    4  A    between atoms: C_9  and  C_24 
REMARK    5  A    between atoms: N_15  and  C_18 
REMARK    6  A    between atoms: C_24  and  N_25 
ROOT
ATOM      1  C   LIG d   1       4.965  -1.356  -7.688  0.00  0.00     0.117 A 
ATOM      2  C   LIG d   1       6.392  -1.845  -7.854  0.00  0.00    -0.022 A 
ATOM      3  O   LIG d   1       6.802  -2.237  -8.925  0.00  0.00    -0.864 OA
ATOM      4  N   LIG d   1       7.189  -1.831  -6.769  0.00  0.00    -0.182 NA
ATOM      5  C   LIG d   1       6.756  -1.401  -5.579  0.00  0.00     0.336 A 
ATOM      6  O   LIG d   1       7.543  -1.421  -4.653  0.00  0.00    -0.250 OA
ATOM      7  N   LIG d   1       5.521  -0.950  -5.333  0.00  0.00    -0.192 N 
ATOM      8  C   LIG d   1       4.578  -0.890  -6.297  0.00  0.00     0.243 A 
ATOM      9  O   LIG d   1       3.462  -0.479  -6.060  0.00  0.00    -0.274 OA
ENDROOT
BRANCH   1  10
ATOM     10  C   LIG d   1       4.745  -0.193  -8.658  0.00  0.00    -0.004 C 
ATOM     11  H   LIG d   1       5.674   0.002  -9.214  0.00  0.00     0.033 H 
ATOM     12  H   LIG d   1       4.460   0.707  -8.094  0.00  0.00     0.033 H 
BRANCH  10  13
ATOM     13  C   LIG d   1       3.646  -0.548  -9.626  0.00  0.00    -0.046 A 
ATOM     14  C   LIG d   1       2.326  -0.325  -9.286  0.00  0.00    -0.058 A 
ATOM     15  C   LIG d   1       1.318  -0.651 -10.173  0.00  0.00    -0.059 A 
ATOM     16  H   LIG d   1       2.081   0.105  -8.325  0.00  0.00     0.062 H 
ATOM     17  C   LIG d   1       1.630  -1.201 -11.403  0.00  0.00    -0.050 A 
ATOM     18  H   LIG d   1       0.285  -0.477  -9.907  0.00  0.00     0.062 H 
ATOM     19  C   LIG d   1       2.951  -1.424 -11.744  0.00  0.00    -0.059 A 
ATOM     20  C   LIG d   1       3.959  -1.098 -10.856  0.00  0.00    -0.058 A 
ATOM     21  H   LIG d   1       3.196  -1.854 -12.704  0.00  0.00     0.062 H 
ATOM     22  H   LIG d   1       4.991  -1.273 -11.122  0.00  0.00     0.062 H 
BRANCH  17  23
ATOM     23  C   LIG d   1       0.532  -1.549 -12.374  0.00  0.00    -0.040 C 
ATOM     24  H   LIG d   1       0.280  -2.616 -12.275  0.00  0.00     0.028 H 
ATOM     25  H   LIG d   1       0.872  -1.347 -13.400  0.00  0.00     0.028 H 
ATOM     26  H   LIG d   1      -0.357  -0.941 -12.155  0.00  0.00     0.028 H 
ENDBRANCH  17  23
ENDBRANCH  10  13
ENDBRANCH   1  10
BRANCH   1  27
ATOM     27  C   LIG d   1       4.023  -2.491  -8.089  0.00  0.00    -0.013 C 
ATOM     28  H   LIG d   1       3.053  -2.357  -7.590  0.00  0.00     0.083 H 
ATOM     29  H   LIG d   1       3.879  -2.480  -9.180  0.00  0.00     0.083 H 
BRANCH  27  30
ATOM     30  N   LIG d   1       4.607  -3.779  -7.686  0.00  0.00     0.237 N 
ATOM     31  C   LIG d   1       4.217  -4.849  -8.616  0.00  0.00    -0.024 C 
ATOM     32  C   LIG d   1       4.998  -6.117  -8.235  0.00  0.00     0.040 C 
ATOM     33  H   LIG d   1       3.135  -5.030  -8.534  0.00  0.00     0.082 H 
ATOM     34  H   LIG d   1       4.460  -4.547  -9.646  0.00  0.00     0.082 H 
ATOM     35  C   LIG d   1       4.545  -6.550  -6.836  0.00  0.00    -0.031 C 
ATOM     36  H   LIG d   1       4.840  -6.933  -8.957  0.00  0.00     0.042 H 
ATOM     37  C   LIG d   1       6.465  -5.752  -8.192  0.00  0.00     0.030 A 
ATOM     38  C   LIG d   1       4.890  -5.416  -5.867  0.00  0.00     0.018 C 
ATOM     39  H   LIG d   1       5.070  -7.467  -6.530  0.00  0.00     0.028 H 
ATOM     40  H   LIG d   1       3.459  -6.728  -6.822  0.00  0.00     0.028 H 
ATOM     41  C   LIG d   1       4.238  -4.114  -6.308  0.00  0.00    -0.027 C 
ATOM     42  H   LIG d   1       4.496  -5.641  -4.865  0.00  0.00     0.037 H 
ATOM     43  C   LIG d   1       6.401  -5.288  -5.772  0.00  0.00     0.034 C 
ATOM     44  H   LIG d   1       4.568  -3.309  -5.633  0.00  0.00     0.082 H 
ATOM     45  H   LIG d   1       3.146  -4.226  -6.237  0.00  0.00     0.082 H 
ATOM     46  N   LIG d   1       7.053  -5.280  -7.069  0.00  0.00    -0.311 N 
ATOM     47  H   LIG d   1       6.658  -4.348  -5.265  0.00  0.00     0.050 H 
ATOM     48  H   LIG d   1       6.805  -6.137  -5.202  0.00  0.00     0.050 H 
ATOM     49  C   LIG d   1       8.329  -4.824  -7.116  0.00  0.00     0.252 A 
ATOM     50  C   LIG d   1       9.101  -4.980  -8.275  0.00  0.00     0.003 A 
ATOM     51  O   LIG d   1       8.810  -4.272  -6.139  0.00  0.00    -0.268 OA
ATOM     52  C   LIG d   1       8.531  -5.536  -9.383  0.00  0.00    -0.055 A 
ATOM     53  H   LIG d   1      10.058  -4.691  -8.297  0.00  0.00     0.067 H 
ATOM     54  C   LIG d   1       7.185  -5.913  -9.334  0.00  0.00    -0.042 A 
ATOM     55  H   LIG d   1       9.074  -5.667 -10.212  0.00  0.00     0.062 H 
ATOM     56  H   LIG d   1       6.752  -6.303 -10.147  0.00  0.00     0.064 H 
ATOM     57  H   LIG d   1       5.702  -3.680  -7.724  0.00  0.00     0.203 HD
ENDBRANCH  27  30
ENDBRANCH   1  27
BRANCH   7  58
ATOM     58  C   LIG d   1       5.197  -0.527  -4.036  0.00  0.00     0.045 A 
ATOM     59  C   LIG d   1       4.653  -1.426  -3.128  0.00  0.00    -0.040 A 
ATOM     60  C   LIG d   1       4.333  -1.006  -1.851  0.00  0.00    -0.060 A 
ATOM     61  H   LIG d   1       4.480  -2.451  -3.419  0.00  0.00     0.064 H 
ATOM     62  C   LIG d   1       4.555   0.306  -1.477  0.00  0.00    -0.062 A 
ATOM     63  H   LIG d   1       3.911  -1.705  -1.144  0.00  0.00     0.062 H 
ATOM     64  C   LIG d   1       5.096   1.203  -2.380  0.00  0.00    -0.060 A 
ATOM     65  H   LIG d   1       4.306   0.632  -0.478  0.00  0.00     0.062 H 
ATOM     66  C   LIG d   1       5.422   0.788  -3.657  0.00  0.00    -0.040 A 
ATOM     67  H   LIG d   1       5.269   2.227  -2.085  0.00  0.00     0.062 H 
ATOM     68  H   LIG d   1       5.849   1.488  -4.360  0.00  0.00     0.064 H 
ENDBRANCH   7  58
TORSDOF 6
ENDMDL
MODEL 6
REMARK VINA RESULT:      -6.5      1.871      2.718
REMARK  6 active torsions:
REMARK  status: ('A' for Active; 'I' for Inactive)
REMARK    1  A    between atoms: C_1  and  C_2 
REMARK    2  A    between atoms: C_5  and  C_8 
REMARK    3  A    between atoms: C_8  and  C_9 
REMARK    4  A    between atoms: C_9  and  C_24 
REMARK    5  A    between atoms: N_15  and  C_18 
REMARK    6  A    between atoms: C_24  and  N_25 
ROOT
ATOM      1  C   LIG d   1       4.141  -1.402  -7.920  0.00  0.00     0.117 A 
ATOM      2  C   LIG d   1       4.415  -2.883  -7.742  0.00  0.00    -0.022 A 
ATOM      3  O   LIG d   1       4.425  -3.639  -8.690  0.00  0.00    -0.864 OA
ATOM      4  N   LIG d   1       4.644  -3.333  -6.494  0.00  0.00    -0.182 NA
ATOM      5  C   LIG d   1       4.639  -2.515  -5.436  0.00  0.00     0.336 A 
ATOM      6  O   LIG d   1       4.858  -3.004  -4.346  0.00  0.00    -0.250 OA
ATOM      7  N   LIG d   1       4.411  -1.198  -5.490  0.00  0.00    -0.192 N 
ATOM      8  C   LIG d   1       4.159  -0.564  -6.655  0.00  0.00     0.243 A 
ATOM      9  O   LIG d   1       3.954   0.631  -6.689  0.00  0.00    -0.274 OA
ENDROOT
BRANCH   1  10
ATOM     10  C   LIG d   1       5.190  -0.836  -8.880  0.00  0.00    -0.004 C 
ATOM     11  H   LIG d   1       4.990   0.232  -9.054  0.00  0.00     0.033 H 
ATOM     12  H   LIG d   1       5.143  -1.378  -9.836  0.00  0.00     0.033 H 
BRANCH  10  13
ATOM     13  C   LIG d   1       6.562  -0.998  -8.278  0.00  0.00    -0.046 A 
ATOM     14  C   LIG d   1       7.062  -0.031  -7.426  0.00  0.00    -0.058 A 
ATOM     15  C   LIG d   1       8.320  -0.179  -6.875  0.00  0.00    -0.059 A 
ATOM     16  H   LIG d   1       6.469   0.841  -7.192  0.00  0.00     0.062 H 
ATOM     17  C   LIG d   1       9.080  -1.295  -7.174  0.00  0.00    -0.050 A 
ATOM     18  H   LIG d   1       8.711   0.578  -6.209  0.00  0.00     0.062 H 
ATOM     19  C   LIG d   1       8.580  -2.263  -8.025  0.00  0.00    -0.059 A 
ATOM     20  C   LIG d   1       7.321  -2.114  -8.577  0.00  0.00    -0.058 A 
ATOM     21  H   LIG d   1       9.173  -3.134  -8.260  0.00  0.00     0.062 H 
ATOM     22  H   LIG d   1       6.930  -2.870  -9.244  0.00  0.00     0.062 H 
BRANCH  17  23
ATOM     23  C   LIG d   1      10.449  -1.460  -6.567  0.00  0.00    -0.040 C 
ATOM     24  H   LIG d   1      11.210  -1.411  -7.359  0.00  0.00     0.028 H 
ATOM     25  H   LIG d   1      10.509  -2.435  -6.061  0.00  0.00     0.028 H 
ATOM     26  H   LIG d   1      10.626  -0.656  -5.837  0.00  0.00     0.028 H 
ENDBRANCH  17  23
ENDBRANCH  10  13
ENDBRANCH   1  10
BRANCH   1  27
ATOM     27  C   LIG d   1       2.768  -1.246  -8.575  0.00  0.00    -0.013 C 
ATOM     28  H   LIG d   1       2.047  -1.911  -8.077  0.00  0.00     0.083 H 
ATOM     29  H   LIG d   1       2.432  -0.203  -8.478  0.00  0.00     0.083 H 
BRANCH  27  30
ATOM     30  N   LIG d   1       2.860  -1.601  -9.998  0.00  0.00     0.237 N 
ATOM     31  C   LIG d   1       2.700  -0.413 -10.849  0.00  0.00    -0.024 C 
ATOM     32  C   LIG d   1       2.980  -0.830 -12.302  0.00  0.00     0.040 C 
ATOM     33  H   LIG d   1       1.673  -0.030 -10.755  0.00  0.00     0.082 H 
ATOM     34  H   LIG d   1       3.411   0.364 -10.532  0.00  0.00     0.082 H 
ATOM     35  C   LIG d   1       1.900  -1.833 -12.724  0.00  0.00    -0.031 C 
ATOM     36  H   LIG d   1       2.986   0.033 -12.986  0.00  0.00     0.042 H 
ATOM     37  C   LIG d   1       4.329  -1.511 -12.329  0.00  0.00     0.030 A 
ATOM     38  C   LIG d   1       2.016  -3.051 -11.803  0.00  0.00     0.018 C 
ATOM     39  H   LIG d   1       2.054  -2.147 -13.767  0.00  0.00     0.028 H 
ATOM     40  H   LIG d   1       0.900  -1.387 -12.620  0.00  0.00     0.028 H 
ATOM     41  C   LIG d   1       1.882  -2.637 -10.345  0.00  0.00    -0.027 C 
ATOM     42  H   LIG d   1       1.199  -3.758 -12.005  0.00  0.00     0.037 H 
ATOM     43  C   LIG d   1       3.336  -3.752 -12.073  0.00  0.00     0.034 C 
ATOM     44  H   LIG d   1       2.046  -3.523  -9.712  0.00  0.00     0.082 H 
ATOM     45  H   LIG d   1       0.866  -2.252 -10.180  0.00  0.00     0.082 H 
ATOM     46  N   LIG d   1       4.465  -2.841 -12.121  0.00  0.00    -0.311 N 
ATOM     47  H   LIG d   1       3.533  -4.484 -11.277  0.00  0.00     0.050 H 
ATOM     48  H   LIG d   1       3.284  -4.269 -13.043  0.00  0.00     0.050 H 
ATOM     49  C   LIG d   1       5.702  -3.383 -12.003  0.00  0.00     0.252 A 
ATOM     50  C   LIG d   1       6.846  -2.612 -12.251  0.00  0.00     0.003 A 
ATOM     51  O   LIG d   1       5.821  -4.554 -11.678  0.00  0.00    -0.268 OA
ATOM     52  C   LIG d   1       6.704  -1.288 -12.546  0.00  0.00    -0.055 A 
ATOM     53  H   LIG d   1       7.758  -3.021 -12.215  0.00  0.00     0.067 H 
ATOM     54  C   LIG d   1       5.419  -0.735 -12.570  0.00  0.00    -0.042 A 
ATOM     55  H   LIG d   1       7.511  -0.730 -12.739  0.00  0.00     0.062 H 
ATOM     56  H   LIG d   1       5.306   0.239 -12.765  0.00  0.00     0.064 H 
ATOM     57  H   LIG d   1       3.863  -2.015 -10.179  0.00  0.00     0.203 HD
ENDBRANCH  27  30
ENDBRANCH   1  27
BRANCH   7  58
ATOM     58  C   LIG d   1       4.436  -0.454  -4.302  0.00  0.00     0.045 A 
ATOM     59  C   LIG d   1       5.624   0.113  -3.861  0.00  0.00    -0.040 A 
ATOM     60  C   LIG d   1       5.646   0.845  -2.690  0.00  0.00    -0.060 A 
ATOM     61  H   LIG d   1       6.530  -0.017  -4.434  0.00  0.00     0.064 H 
ATOM     62  C   LIG d   1       4.485   1.013  -1.957  0.00  0.00    -0.062 A 
ATOM     63  H   LIG d   1       6.569   1.287  -2.347  0.00  0.00     0.062 H 
ATOM     64  C   LIG d   1       3.301   0.448  -2.393  0.00  0.00    -0.060 A 
ATOM     65  H   LIG d   1       4.504   1.586  -1.041  0.00  0.00     0.062 H 
ATOM     66  C   LIG d   1       3.272  -0.280  -3.566  0.00  0.00    -0.040 A 
ATOM     67  H   LIG d   1       2.396   0.581  -1.818  0.00  0.00     0.062 H 
ATOM     68  H   LIG d   1       2.346  -0.717  -3.909  0.00  0.00     0.064 H 
ENDBRANCH   7  58
TORSDOF 6
ENDMDL
MODEL 7
REMARK VINA RESULT:      -6.5      1.653      3.310
REMARK  6 active torsions:
REMARK  status: ('A' for Active; 'I' for Inactive)
REMARK    1  A    between atoms: C_1  and  C_2 
REMARK    2  A    between atoms: C_5  and  C_8 
REMARK    3  A    between atoms: C_8  and  C_9 
REMARK    4  A    between atoms: C_9  and  C_24 
REMARK    5  A    between atoms: N_15  and  C_18 
REMARK    6  A    between atoms: C_24  and  N_25 
ROOT
ATOM      1  C   LIG d   1       6.825  -0.658  -7.489  0.00  0.00     0.117 A 
ATOM      2  C   LIG d   1       6.353  -1.736  -8.447  0.00  0.00    -0.022 A 
ATOM      3  O   LIG d   1       6.849  -1.860  -9.547  0.00  0.00    -0.864 OA
ATOM      4  N   LIG d   1       5.363  -2.550  -8.036  0.00  0.00    -0.182 NA
ATOM      5  C   LIG d   1       4.805  -2.430  -6.827  0.00  0.00     0.336 A 
ATOM      6  O   LIG d   1       3.918  -3.208  -6.536  0.00  0.00    -0.250 OA
ATOM      7  N   LIG d   1       5.152  -1.516  -5.913  0.00  0.00    -0.192 N 
ATOM      8  C   LIG d   1       6.125  -0.610  -6.144  0.00  0.00     0.243 A 
ATOM      9  O   LIG d   1       6.429   0.213  -5.306  0.00  0.00    -0.274 OA
ENDROOT
BRANCH   1  10
ATOM     10  C   LIG d   1       8.320  -0.864  -7.240  0.00  0.00    -0.004 C 
ATOM     11  H   LIG d   1       8.731   0.016  -6.723  0.00  0.00     0.033 H 
ATOM     12  H   LIG d   1       8.837  -0.998  -8.202  0.00  0.00     0.033 H 
BRANCH  10  13
ATOM     13  C   LIG d   1       8.524  -2.088  -6.386  0.00  0.00    -0.046 A 
ATOM     14  C   LIG d   1       8.646  -1.963  -5.015  0.00  0.00    -0.058 A 
ATOM     15  C   LIG d   1       8.834  -3.085  -4.231  0.00  0.00    -0.059 A 
ATOM     16  H   LIG d   1       8.595  -0.986  -4.555  0.00  0.00     0.062 H 
ATOM     17  C   LIG d   1       8.899  -4.335  -4.819  0.00  0.00    -0.050 A 
ATOM     18  H   LIG d   1       8.929  -2.987  -3.159  0.00  0.00     0.062 H 
ATOM     19  C   LIG d   1       8.777  -4.462  -6.190  0.00  0.00    -0.059 A 
ATOM     20  C   LIG d   1       8.590  -3.338  -6.973  0.00  0.00    -0.058 A 
ATOM     21  H   LIG d   1       8.829  -5.438  -6.649  0.00  0.00     0.062 H 
ATOM     22  H   LIG d   1       8.495  -3.436  -8.045  0.00  0.00     0.062 H 
BRANCH  17  23
ATOM     23  C   LIG d   1       9.096  -5.560  -3.964  0.00  0.00    -0.040 C 
ATOM     24  H   LIG d   1      10.168  -5.690  -3.751  0.00  0.00     0.028 H 
ATOM     25  H   LIG d   1       8.719  -6.444  -4.498  0.00  0.00     0.028 H 
ATOM     26  H   LIG d   1       8.546  -5.441  -3.019  0.00  0.00     0.028 H 
ENDBRANCH  17  23
ENDBRANCH  10  13
ENDBRANCH   1  10
BRANCH   1  27
ATOM     27  C   LIG d   1       6.641   0.698  -8.170  0.00  0.00    -0.013 C 
ATOM     28  H   LIG d   1       6.770   1.502  -7.429  0.00  0.00     0.083 H 
ATOM     29  H   LIG d   1       7.389   0.812  -8.968  0.00  0.00     0.083 H 
BRANCH  27  30
ATOM     30  N   LIG d   1       5.292   0.778  -8.749  0.00  0.00     0.237 N 
ATOM     31  C   LIG d   1       5.233   1.792  -9.812  0.00  0.00    -0.024 C 
ATOM     32  C   LIG d   1       3.853   1.697 -10.482  0.00  0.00     0.040 C 
ATOM     33  H   LIG d   1       5.375   2.791  -9.374  0.00  0.00     0.082 H 
ATOM     34  H   LIG d   1       6.028   1.599 -10.548  0.00  0.00     0.082 H 
ATOM     35  C   LIG d   1       2.793   2.076  -9.442  0.00  0.00    -0.031 C 
ATOM     36  H   LIG d   1       3.775   2.353 -11.363  0.00  0.00     0.042 H 
ATOM     37  C   LIG d   1       3.648   0.258 -10.900  0.00  0.00     0.030 A 
ATOM     38  C   LIG d   1       2.886   1.062  -8.298  0.00  0.00     0.018 C 
ATOM     39  H   LIG d   1       1.787   2.035  -9.886  0.00  0.00     0.028 H 
ATOM     40  H   LIG d   1       2.982   3.087  -9.053  0.00  0.00     0.028 H 
ATOM     41  C   LIG d   1       4.290   1.040  -7.711  0.00  0.00    -0.027 C 
ATOM     42  H   LIG d   1       2.209   1.350  -7.481  0.00  0.00     0.037 H 
ATOM     43  C   LIG d   1       2.466  -0.304  -8.812  0.00  0.00     0.034 C 
ATOM     44  H   LIG d   1       4.339   0.250  -6.946  0.00  0.00     0.082 H 
ATOM     45  H   LIG d   1       4.491   2.015  -7.244  0.00  0.00     0.082 H 
ATOM     46  N   LIG d   1       3.098  -0.658 -10.070  0.00  0.00    -0.311 N 
ATOM     47  H   LIG d   1       2.739  -1.073  -8.075  0.00  0.00     0.050 H 
ATOM     48  H   LIG d   1       1.378  -0.317  -8.971  0.00  0.00     0.050 H 
ATOM     49  C   LIG d   1       3.072  -1.965 -10.429  0.00  0.00     0.252 A 
ATOM     50  C   LIG d   1       3.464  -2.360 -11.715  0.00  0.00     0.003 A 
ATOM     51  O   LIG d   1       2.704  -2.806  -9.624  0.00  0.00    -0.268 OA
ATOM     52  C   LIG d   1       3.939  -1.421 -12.583  0.00  0.00    -0.055 A 
ATOM     53  H   LIG d   1       3.398  -3.316 -12.000  0.00  0.00     0.067 H 
ATOM     54  C   LIG d   1       4.041  -0.094 -12.153  0.00  0.00    -0.042 A 
ATOM     55  H   LIG d   1       4.209  -1.687 -13.509  0.00  0.00     0.062 H 
ATOM     56  H   LIG d   1       4.407   0.599 -12.775  0.00  0.00     0.064 H 
ATOM     57  H   LIG d   1       5.059  -0.198  -9.198  0.00  0.00     0.203 HD
ENDBRANCH  27  30
ENDBRANCH   1  27
BRANCH   7  58
ATOM     58  C   LIG d   1       4.484  -1.500  -4.680  0.00  0.00     0.045 A 
ATOM     59  C   LIG d   1       4.888  -2.352  -3.661  0.00  0.00    -0.040 A 
ATOM     60  C   LIG d   1       4.228  -2.335  -2.447  0.00  0.00    -0.060 A 
ATOM     61  H   LIG d   1       5.716  -3.027  -3.816  0.00  0.00     0.064 H 
ATOM     62  C   LIG d   1       3.168  -1.470  -2.247  0.00  0.00    -0.062 A 
ATOM     63  H   LIG d   1       4.542  -2.997  -1.654  0.00  0.00     0.062 H 
ATOM     64  C   LIG d   1       2.764  -0.622  -3.261  0.00  0.00    -0.060 A 
ATOM     65  H   LIG d   1       2.654  -1.457  -1.297  0.00  0.00     0.062 H 
ATOM     66  C   LIG d   1       3.423  -0.630  -4.475  0.00  0.00    -0.040 A 
ATOM     67  H   LIG d   1       1.936   0.053  -3.102  0.00  0.00     0.062 H 
ATOM     68  H   LIG d   1       3.110   0.036  -5.265  0.00  0.00     0.064 H 
ENDBRANCH   7  58
TORSDOF 6
ENDMDL
MODEL 8
REMARK VINA RESULT:      -6.4      2.373      5.687
REMARK  6 active torsions:
REMARK  status: ('A' for Active; 'I' for Inactive)
REMARK    1  A    between atoms: C_1  and  C_2 
REMARK    2  A    between atoms: C_5  and  C_8 
REMARK    3  A    between atoms: C_8  and  C_9 
REMARK    4  A    between atoms: C_9  and  C_24 
REMARK    5  A    between atoms: N_15  and  C_18 
REMARK    6  A    between atoms: C_24  and  N_25 
ROOT
ATOM      1  C   LIG d   1       7.986  -1.417  -6.386  0.00  0.00     0.117 A 
ATOM      2  C   LIG d   1       8.782  -0.150  -6.133  0.00  0.00    -0.022 A 
ATOM      3  O   LIG d   1       9.840   0.050  -6.690  0.00  0.00    -0.864 OA
ATOM      4  N   LIG d   1       8.274   0.746  -5.266  0.00  0.00    -0.182 NA
ATOM      5  C   LIG d   1       7.108   0.545  -4.643  0.00  0.00     0.336 A 
ATOM      6  O   LIG d   1       6.722   1.406  -3.878  0.00  0.00    -0.250 OA
ATOM      7  N   LIG d   1       6.335  -0.535  -4.802  0.00  0.00    -0.192 N 
ATOM      8  C   LIG d   1       6.678  -1.545  -5.630  0.00  0.00     0.243 A 
ATOM      9  O   LIG d   1       5.967  -2.518  -5.762  0.00  0.00    -0.274 OA
ENDROOT
BRANCH   1  10
ATOM     10  C   LIG d   1       7.680  -1.495  -7.883  0.00  0.00    -0.004 C 
ATOM     11  H   LIG d   1       7.238  -2.475  -8.117  0.00  0.00     0.033 H 
ATOM     12  H   LIG d   1       8.610  -1.366  -8.456  0.00  0.00     0.033 H 
BRANCH  10  13
ATOM     13  C   LIG d   1       6.707  -0.405  -8.254  0.00  0.00    -0.046 A 
ATOM     14  C   LIG d   1       7.172   0.854  -8.584  0.00  0.00    -0.058 A 
ATOM     15  C   LIG d   1       6.280   1.854  -8.924  0.00  0.00    -0.059 A 
ATOM     16  H   LIG d   1       8.233   1.057  -8.576  0.00  0.00     0.062 H 
ATOM     17  C   LIG d   1       4.922   1.594  -8.934  0.00  0.00    -0.050 A 
ATOM     18  H   LIG d   1       6.644   2.838  -9.181  0.00  0.00     0.062 H 
ATOM     19  C   LIG d   1       4.456   0.335  -8.605  0.00  0.00    -0.059 A 
ATOM     20  C   LIG d   1       5.349  -0.665  -8.265  0.00  0.00    -0.058 A 
ATOM     21  H   LIG d   1       3.396   0.132  -8.612  0.00  0.00     0.062 H 
ATOM     22  H   LIG d   1       4.986  -1.649  -8.007  0.00  0.00     0.062 H 
BRANCH  17  23
ATOM     23  C   LIG d   1       3.950   2.682  -9.312  0.00  0.00    -0.040 C 
ATOM     24  H   LIG d   1       2.975   2.234  -9.556  0.00  0.00     0.028 H 
ATOM     25  H   LIG d   1       4.333   3.227 -10.187  0.00  0.00     0.028 H 
ATOM     26  H   LIG d   1       3.833   3.378  -8.468  0.00  0.00     0.028 H 
ENDBRANCH  17  23
ENDBRANCH  10  13
ENDBRANCH   1  10
BRANCH   1  27
ATOM     27  C   LIG d   1       8.867  -2.613  -6.021  0.00  0.00    -0.013 C 
ATOM     28  H   LIG d   1       9.903  -2.414  -6.333  0.00  0.00     0.083 H 
ATOM     29  H   LIG d   1       8.835  -2.772  -4.934  0.00  0.00     0.083 H 
BRANCH  27  30
ATOM     30  N   LIG d   1       8.371  -3.814  -6.707  0.00  0.00     0.237 N 
ATOM     31  C   LIG d   1       8.297  -4.956  -5.783  0.00  0.00    -0.024 C 
ATOM     32  C   LIG d   1       7.612  -6.118  -6.520  0.00  0.00     0.040 C 
ATOM     33  H   LIG d   1       9.312  -5.246  -5.477  0.00  0.00     0.082 H 
ATOM     34  H   LIG d   1       7.713  -4.672  -4.895  0.00  0.00     0.082 H 
ATOM     35  C   LIG d   1       8.515  -6.541  -7.684  0.00  0.00    -0.031 C 
ATOM     36  H   LIG d   1       7.421  -6.975  -5.855  0.00  0.00     0.042 H 
ATOM     37  C   LIG d   1       6.302  -5.600  -7.070  0.00  0.00     0.030 A 
ATOM     38  C   LIG d   1       8.652  -5.339  -8.622  0.00  0.00     0.018 C 
ATOM     39  H   LIG d   1       8.068  -7.384  -8.231  0.00  0.00     0.028 H 
ATOM     40  H   LIG d   1       9.510  -6.831  -7.312  0.00  0.00     0.028 H 
ATOM     41  C   LIG d   1       9.198  -4.131  -7.875  0.00  0.00    -0.027 C 
ATOM     42  H   LIG d   1       9.370  -5.564  -9.424  0.00  0.00     0.037 H 
ATOM     43  C   LIG d   1       7.301  -5.049  -9.255  0.00  0.00     0.034 C 
ATOM     44  H   LIG d   1       9.210  -3.270  -8.560  0.00  0.00     0.082 H 
ATOM     45  H   LIG d   1      10.224  -4.355  -7.549  0.00  0.00     0.082 H 
ATOM     46  N   LIG d   1       6.216  -5.025  -8.292  0.00  0.00    -0.311 N 
ATOM     47  H   LIG d   1       7.330  -4.067  -9.749  0.00  0.00     0.050 H 
ATOM     48  H   LIG d   1       7.070  -5.827  -9.997  0.00  0.00     0.050 H 
ATOM     49  C   LIG d   1       5.057  -4.439  -8.682  0.00  0.00     0.252 A 
ATOM     50  C   LIG d   1       3.898  -4.560  -7.902  0.00  0.00     0.003 A 
ATOM     51  O   LIG d   1       5.021  -3.801  -9.722  0.00  0.00    -0.268 OA
ATOM     52  C   LIG d   1       3.966  -5.216  -6.708  0.00  0.00    -0.055 A 
ATOM     53  H   LIG d   1       3.030  -4.173  -8.211  0.00  0.00     0.067 H 
ATOM     54  C   LIG d   1       5.198  -5.730  -6.288  0.00  0.00    -0.042 A 
ATOM     55  H   LIG d   1       3.144  -5.322  -6.148  0.00  0.00     0.062 H 
ATOM     56  H   LIG d   1       5.262  -6.195  -5.405  0.00  0.00     0.064 H 
ATOM     57  H   LIG d   1       7.353  -3.603  -7.067  0.00  0.00     0.203 HD
ENDBRANCH  27  30
ENDBRANCH   1  27
BRANCH   7  58
ATOM     58  C   LIG d   1       5.131  -0.621  -4.086  0.00  0.00     0.045 A 
ATOM     59  C   LIG d   1       5.110  -1.214  -2.831  0.00  0.00    -0.040 A 
ATOM     60  C   LIG d   1       3.923  -1.298  -2.128  0.00  0.00    -0.060 A 
ATOM     61  H   LIG d   1       6.020  -1.610  -2.404  0.00  0.00     0.064 H 
ATOM     62  C   LIG d   1       2.758  -0.791  -2.674  0.00  0.00    -0.062 A 
ATOM     63  H   LIG d   1       3.906  -1.759  -1.152  0.00  0.00     0.062 H 
ATOM     64  C   LIG d   1       2.777  -0.201  -3.924  0.00  0.00    -0.060 A 
ATOM     65  H   LIG d   1       1.832  -0.857  -2.123  0.00  0.00     0.062 H 
ATOM     66  C   LIG d   1       3.961  -0.109  -4.629  0.00  0.00    -0.040 A 
ATOM     67  H   LIG d   1       1.866   0.195  -4.348  0.00  0.00     0.062 H 
ATOM     68  H   LIG d   1       3.976   0.356  -5.603  0.00  0.00     0.064 H 
ENDBRANCH   7  58
TORSDOF 6
ENDMDL
MODEL 9
REMARK VINA RESULT:      -6.4      2.058      4.169
REMARK  6 active torsions:
REMARK  status: ('A' for Active; 'I' for Inactive)
REMARK    1  A    between atoms: C_1  and  C_2 
REMARK    2  A    between atoms: C_5  and  C_8 
REMARK    3  A    between atoms: C_8  and  C_9 
REMARK    4  A    between atoms: C_9  and  C_24 
REMARK    5  A    between atoms: N_15  and  C_18 
REMARK    6  A    between atoms: C_24  and  N_25 
ROOT
ATOM      1  C   LIG d   1       6.847  -0.191  -7.426  0.00  0.00     0.117 A 
ATOM      2  C   LIG d   1       6.533  -1.352  -8.350  0.00  0.00    -0.022 A 
ATOM      3  O   LIG d   1       7.025  -1.427  -9.456  0.00  0.00    -0.864 OA
ATOM      4  N   LIG d   1       5.687  -2.299  -7.902  0.00  0.00    -0.182 NA
ATOM      5  C   LIG d   1       5.136  -2.236  -6.685  0.00  0.00     0.336 A 
ATOM      6  O   LIG d   1       4.386  -3.134  -6.359  0.00  0.00    -0.250 OA
ATOM      7  N   LIG d   1       5.352  -1.257  -5.799  0.00  0.00    -0.192 N 
ATOM      8  C   LIG d   1       6.169  -0.217  -6.069  0.00  0.00     0.243 A 
ATOM      9  O   LIG d   1       6.354   0.664  -5.256  0.00  0.00    -0.274 OA
ENDROOT
BRANCH   1  10
ATOM     10  C   LIG d   1       8.360  -0.156  -7.202  0.00  0.00    -0.004 C 
ATOM     11  H   LIG d   1       8.842  -0.916  -7.833  0.00  0.00     0.033 H 
ATOM     12  H   LIG d   1       8.579  -0.365  -6.144  0.00  0.00     0.033 H 
BRANCH  10  13
ATOM     13  C   LIG d   1       8.890   1.208  -7.564  0.00  0.00    -0.046 A 
ATOM     14  C   LIG d   1       9.211   1.498  -8.877  0.00  0.00    -0.058 A 
ATOM     15  C   LIG d   1       9.698   2.748  -9.210  0.00  0.00    -0.059 A 
ATOM     16  H   LIG d   1       9.082   0.747  -9.643  0.00  0.00     0.062 H 
ATOM     17  C   LIG d   1       9.864   3.708  -8.229  0.00  0.00    -0.050 A 
ATOM     18  H   LIG d   1       9.950   2.974 -10.236  0.00  0.00     0.062 H 
ATOM     19  C   LIG d   1       9.543   3.419  -6.916  0.00  0.00    -0.059 A 
ATOM     20  C   LIG d   1       9.056   2.168  -6.584  0.00  0.00    -0.058 A 
ATOM     21  H   LIG d   1       9.673   4.169  -6.150  0.00  0.00     0.062 H 
ATOM     22  H   LIG d   1       8.806   1.941  -5.558  0.00  0.00     0.062 H 
BRANCH  17  23
ATOM     23  C   LIG d   1      10.388   5.074  -8.593  0.00  0.00    -0.040 C 
ATOM     24  H   LIG d   1       9.550   5.721  -8.890  0.00  0.00     0.028 H 
ATOM     25  H   LIG d   1      11.096   4.983  -9.429  0.00  0.00     0.028 H 
ATOM     26  H   LIG d   1      10.901   5.513  -7.725  0.00  0.00     0.028 H 
ENDBRANCH  17  23
ENDBRANCH  10  13
ENDBRANCH   1  10
BRANCH   1  27
ATOM     27  C   LIG d   1       6.444   1.103  -8.134  0.00  0.00    -0.013 C 
ATOM     28  H   LIG d   1       6.430   1.930  -7.408  0.00  0.00     0.083 H 
ATOM     29  H   LIG d   1       7.169   1.326  -8.930  0.00  0.00     0.083 H 
BRANCH  27  30
ATOM     30  N   LIG d   1       5.106   0.946  -8.721  0.00  0.00     0.237 N 
ATOM     31  C   LIG d   1       4.882   1.925  -9.794  0.00  0.00    -0.024 C 
ATOM     32  C   LIG d   1       3.543   1.589 -10.471  0.00  0.00     0.040 C 
ATOM     33  H   LIG d   1       4.846   2.938  -9.364  0.00  0.00     0.082 H 
ATOM     34  H   LIG d   1       5.703   1.865 -10.523  0.00  0.00     0.082 H 
ATOM     35  C   LIG d   1       2.426   1.789  -9.440  0.00  0.00    -0.031 C 
ATOM     36  H   LIG d   1       3.359   2.215 -11.358  0.00  0.00     0.042 H 
ATOM     37  C   LIG d   1       3.590   0.133 -10.876  0.00  0.00     0.030 A 
ATOM     38  C   LIG d   1       2.684   0.816  -8.286  0.00  0.00     0.018 C 
ATOM     39  H   LIG d   1       1.446   1.573  -9.889  0.00  0.00     0.028 H 
ATOM     40  H   LIG d   1       2.436   2.821  -9.059  0.00  0.00     0.028 H 
ATOM     41  C   LIG d   1       4.066   1.040  -7.691  0.00  0.00    -0.027 C 
ATOM     42  H   LIG d   1       1.961   0.990  -7.476  0.00  0.00     0.037 H 
ATOM     43  C   LIG d   1       2.508  -0.606  -8.789  0.00  0.00     0.034 C 
ATOM     44  H   LIG d   1       4.244   0.276  -6.919  0.00  0.00     0.082 H 
ATOM     45  H   LIG d   1       4.094   2.039  -7.232  0.00  0.00     0.082 H 
ATOM     46  N   LIG d   1       3.200  -0.857 -10.040  0.00  0.00    -0.311 N 
ATOM     47  H   LIG d   1       2.904  -1.311  -8.044  0.00  0.00     0.050 H 
ATOM     48  H   LIG d   1       1.439  -0.807  -8.954  0.00  0.00     0.050 H 
ATOM     49  C   LIG d   1       3.401  -2.151 -10.387  0.00  0.00     0.252 A 
ATOM     50  C   LIG d   1       3.865  -2.484 -11.668  0.00  0.00     0.003 A 
ATOM     51  O   LIG d   1       3.177  -3.037  -9.577  0.00  0.00    -0.268 OA
ATOM     52  C   LIG d   1       4.177  -1.485 -12.542  0.00  0.00    -0.055 A 
ATOM     53  H   LIG d   1       3.966  -3.440 -11.944  0.00  0.00     0.067 H 
ATOM     54  C   LIG d   1       4.047  -0.156 -12.123  0.00  0.00    -0.042 A 
ATOM     55  H   LIG d   1       4.495  -1.708 -13.463  0.00  0.00     0.062 H 
ATOM     56  H   LIG d   1       4.293   0.584 -12.750  0.00  0.00     0.064 H 
ATOM     57  H   LIG d   1       5.047  -0.060  -9.162  0.00  0.00     0.203 HD
ENDBRANCH  27  30
ENDBRANCH   1  27
BRANCH   7  58
ATOM     58  C   LIG d   1       4.709  -1.313  -4.554  0.00  0.00     0.045 A 
ATOM     59  C   LIG d   1       5.344  -1.905  -3.470  0.00  0.00    -0.040 A 
ATOM     60  C   LIG d   1       4.709  -1.960  -2.245  0.00  0.00    -0.060 A 
ATOM     61  H   LIG d   1       6.334  -2.323  -3.585  0.00  0.00     0.064 H 
ATOM     62  C   LIG d   1       3.443  -1.425  -2.097  0.00  0.00    -0.062 A 
ATOM     63  H   LIG d   1       5.202  -2.420  -1.402  0.00  0.00     0.062 H 
ATOM     64  C   LIG d   1       2.808  -0.835  -3.174  0.00  0.00    -0.060 A 
ATOM     65  H   LIG d   1       2.948  -1.468  -1.138  0.00  0.00     0.062 H 
ATOM     66  C   LIG d   1       3.440  -0.773  -4.401  0.00  0.00    -0.040 A 
ATOM     67  H   LIG d   1       1.819  -0.418  -3.056  0.00  0.00     0.062 H 
ATOM     68  H   LIG d   1       2.946  -0.308  -5.241  0.00  0.00     0.064 H 
ENDBRANCH   7  58
TORSDOF 6
ENDMDL
