MODEL 1
REMARK VINA RESULT:      -8.2      0.000      0.000
REMARK  2 active torsions:
REMARK  status: ('A' for Active; 'I' for Inactive)
REMARK    1  A    between atoms: C_1  and  C_2 
REMARK    2  A    between atoms: C_4  and  N_9 
ROOT
ATOM      1  N   LIG d   1       9.731   3.686  -4.322  0.00  0.00    -0.293 NA
ATOM      2  C   LIG d   1       8.391   3.219  -3.940  0.00  0.00     0.047 C 
ATOM      3  C   LIG d   1       8.187   1.809  -4.434  0.00  0.00     0.054 A 
ATOM      4  C   LIG d   1       9.002   1.277  -5.415  0.00  0.00     0.131 A 
ATOM      5  C   LIG d   1       8.800  -0.026  -5.866  0.00  0.00    -0.019 A 
ATOM      6  C   LIG d   1       7.788  -0.794  -5.336  0.00  0.00    -0.047 A 
ATOM      7  C   LIG d   1       6.962  -0.266  -4.346  0.00  0.00     0.026 A 
ATOM      8  C   LIG d   1       7.161   1.045  -3.889  0.00  0.00     0.148 A 
ATOM      9  O   LIG d   1       6.371   1.578  -2.929  0.00  0.00    -0.421 OA
ATOM     10  C   LIG d   1       5.361   0.902  -2.359  0.00  0.00     0.345 A 
ATOM     11  O   LIG d   1       4.686   1.435  -1.499  0.00  0.00    -0.244 OA
ATOM     12  C   LIG d   1       5.068  -0.479  -2.766  0.00  0.00     0.067 A 
ATOM     13  C   LIG d   1       5.870  -1.071  -3.765  0.00  0.00    -0.000 A 
ATOM     14  C   LIG d   1       5.620  -2.375  -4.172  0.00  0.00    -0.053 A 
ATOM     15  C   LIG d   1       4.583  -3.081  -3.596  0.00  0.00    -0.061 A 
ATOM     16  C   LIG d   1       3.794  -2.502  -2.614  0.00  0.00    -0.061 A 
ATOM     17  C   LIG d   1       4.027  -1.208  -2.196  0.00  0.00    -0.047 A 
ATOM     18  O   LIG d   1      10.012   2.011  -5.955  0.00  0.00    -0.473 OA
ATOM     19  C   LIG d   1       9.970   3.425  -5.751  0.00  0.00     0.157 C 
ATOM     20  H   LIG d   1       8.294   3.241  -2.845  0.00  0.00     0.052 H 
ATOM     21  H   LIG d   1       7.632   3.878  -4.388  0.00  0.00     0.052 H 
ATOM     22  H   LIG d   1       9.441  -0.436  -6.633  0.00  0.00     0.065 H 
ATOM     23  H   LIG d   1       7.634  -1.804  -5.688  0.00  0.00     0.063 H 
ATOM     24  H   LIG d   1       6.230  -2.833  -4.936  0.00  0.00     0.062 H 
ATOM     25  H   LIG d   1       4.386  -4.095  -3.912  0.00  0.00     0.062 H 
ATOM     26  H   LIG d   1       2.987  -3.068  -2.173  0.00  0.00     0.062 H 
ATOM     27  H   LIG d   1       3.407  -0.764  -1.431  0.00  0.00     0.063 H 
ATOM     28  H   LIG d   1       9.156   3.866  -6.346  0.00  0.00     0.091 H 
ATOM     29  H   LIG d   1      10.927   3.876  -6.051  0.00  0.00     0.091 H 
ENDROOT
BRANCH   1  30
ATOM     30  C   LIG d   1       9.892   5.042  -4.026  0.00  0.00     0.033 A 
ATOM     31  C   LIG d   1       9.899   5.469  -2.704  0.00  0.00    -0.037 A 
ATOM     32  C   LIG d   1      10.064   6.809  -2.414  0.00  0.00    -0.035 A 
ATOM     33  H   LIG d   1       9.780   4.753  -1.904  0.00  0.00     0.064 H 
ATOM     34  C   LIG d   1      10.211   7.727  -3.439  0.00  0.00     0.021 A 
ATOM     35  C   LIG d   1      10.199   7.305  -4.756  0.00  0.00    -0.046 A 
ATOM     36 BR   LIG d   1      10.429   9.562  -3.037  0.00  0.00    -0.050 Br
ATOM     37  C   LIG d   1      10.040   5.966  -5.053  0.00  0.00    -0.040 A 
ATOM     38  H   LIG d   1      10.315   8.024  -5.554  0.00  0.00     0.063 H 
ATOM     39  H   LIG d   1      10.030   5.637  -6.081  0.00  0.00     0.064 H 
BRANCH  32  40
ATOM     40  C   LIG d   1      10.078   7.273  -0.981  0.00  0.00    -0.039 C 
ATOM     41  H   LIG d   1       9.871   8.353  -0.944  0.00  0.00     0.028 H 
ATOM     42  H   LIG d   1      11.065   7.073  -0.539  0.00  0.00     0.028 H 
ATOM     43  H   LIG d   1       9.306   6.733  -0.413  0.00  0.00     0.028 H 
ENDBRANCH  32  40
ENDBRANCH   1  30
TORSDOF 2
ENDMDL
MODEL 2
REMARK VINA RESULT:      -6.9      6.898      9.704
REMARK  2 active torsions:
REMARK  status: ('A' for Active; 'I' for Inactive)
REMARK    1  A    between atoms: C_1  and  C_2 
REMARK    2  A    between atoms: C_4  and  N_9 
ROOT
ATOM      1  N   LIG d   1       4.423  -3.300  -9.668  0.00  0.00    -0.293 NA
ATOM      2  C   LIG d   1       3.791  -2.418  -8.676  0.00  0.00     0.047 C 
ATOM      3  C   LIG d   1       4.291  -2.768  -7.298  0.00  0.00     0.054 A 
ATOM      4  C   LIG d   1       4.913  -3.979  -7.055  0.00  0.00     0.131 A 
ATOM      5  C   LIG d   1       5.367  -4.293  -5.776  0.00  0.00    -0.019 A 
ATOM      6  C   LIG d   1       5.202  -3.398  -4.743  0.00  0.00    -0.047 A 
ATOM      7  C   LIG d   1       4.578  -2.174  -4.978  0.00  0.00     0.026 A 
ATOM      8  C   LIG d   1       4.119  -1.854  -6.264  0.00  0.00     0.148 A 
ATOM      9  O   LIG d   1       3.510  -0.673  -6.515  0.00  0.00    -0.421 OA
ATOM     10  C   LIG d   1       3.308   0.257  -5.569  0.00  0.00     0.345 A 
ATOM     11  O   LIG d   1       2.755   1.302  -5.856  0.00  0.00    -0.244 OA
ATOM     12  C   LIG d   1       3.751   0.021  -4.187  0.00  0.00     0.067 A 
ATOM     13  C   LIG d   1       4.391  -1.201  -3.885  0.00  0.00    -0.000 A 
ATOM     14  C   LIG d   1       4.822  -1.455  -2.590  0.00  0.00    -0.053 A 
ATOM     15  C   LIG d   1       4.618  -0.508  -1.606  0.00  0.00    -0.061 A 
ATOM     16  C   LIG d   1       3.990   0.692  -1.900  0.00  0.00    -0.061 A 
ATOM     17  C   LIG d   1       3.555   0.964  -3.181  0.00  0.00    -0.047 A 
ATOM     18  O   LIG d   1       5.091  -4.882  -8.056  0.00  0.00    -0.473 OA
ATOM     19  C   LIG d   1       4.312  -4.704  -9.241  0.00  0.00     0.157 C 
ATOM     20  H   LIG d   1       4.043  -1.372  -8.902  0.00  0.00     0.052 H 
ATOM     21  H   LIG d   1       2.699  -2.548  -8.713  0.00  0.00     0.052 H 
ATOM     22  H   LIG d   1       5.851  -5.241  -5.594  0.00  0.00     0.065 H 
ATOM     23  H   LIG d   1       5.556  -3.644  -3.752  0.00  0.00     0.063 H 
ATOM     24  H   LIG d   1       5.313  -2.387  -2.353  0.00  0.00     0.062 H 
ATOM     25  H   LIG d   1       4.952  -0.704  -0.598  0.00  0.00     0.062 H 
ATOM     26  H   LIG d   1       3.839   1.422  -1.119  0.00  0.00     0.062 H 
ATOM     27  H   LIG d   1       3.066   1.901  -3.402  0.00  0.00     0.063 H 
ATOM     28  H   LIG d   1       3.258  -4.944  -9.036  0.00  0.00     0.091 H 
ATOM     29  H   LIG d   1       4.688  -5.360 -10.040  0.00  0.00     0.091 H 
ENDROOT
BRANCH   1  30
ATOM     30  C   LIG d   1       3.859  -3.114 -10.933  0.00  0.00     0.033 A 
ATOM     31  C   LIG d   1       2.614  -2.509 -11.058  0.00  0.00    -0.037 A 
ATOM     32  C   LIG d   1       2.063  -2.321 -12.309  0.00  0.00    -0.035 A 
ATOM     33  H   LIG d   1       2.082  -2.182 -10.176  0.00  0.00     0.064 H 
ATOM     34  C   LIG d   1       2.741  -2.745 -13.437  0.00  0.00     0.021 A 
ATOM     35  C   LIG d   1       3.978  -3.353 -13.315  0.00  0.00    -0.046 A 
ATOM     36 BR   LIG d   1       1.977  -2.493 -15.149  0.00  0.00    -0.050 Br
ATOM     37  C   LIG d   1       4.539  -3.539 -12.067  0.00  0.00    -0.040 A 
ATOM     38  H   LIG d   1       4.507  -3.682 -14.198  0.00  0.00     0.063 H 
ATOM     39  H   LIG d   1       5.504  -4.013 -11.973  0.00  0.00     0.064 H 
BRANCH  32  40
ATOM     40  C   LIG d   1       0.715  -1.660 -12.446  0.00  0.00    -0.039 C 
ATOM     41  H   LIG d   1       0.853  -0.600 -12.708  0.00  0.00     0.028 H 
ATOM     42  H   LIG d   1       0.171  -1.734 -11.493  0.00  0.00     0.028 H 
ATOM     43  H   LIG d   1       0.139  -2.161 -13.238  0.00  0.00     0.028 H 
ENDBRANCH  32  40
ENDBRANCH   1  30
TORSDOF 2
ENDMDL
MODEL 3
REMARK VINA RESULT:      -6.8      7.242      9.305
REMARK  2 active torsions:
REMARK  status: ('A' for Active; 'I' for Inactive)
REMARK    1  A    between atoms: C_1  and  C_2 
REMARK    2  A    between atoms: C_4  and  N_9 
ROOT
ATOM      1  N   LIG d   1       4.022  -0.406 -11.029  0.00  0.00    -0.293 NA
ATOM      2  C   LIG d   1       4.616  -0.921  -9.788  0.00  0.00     0.047 C 
ATOM      3  C   LIG d   1       3.977  -0.241  -8.603  0.00  0.00     0.054 A 
ATOM      4  C   LIG d   1       3.268   0.935  -8.758  0.00  0.00     0.131 A 
ATOM      5  C   LIG d   1       2.686   1.556  -7.655  0.00  0.00    -0.019 A 
ATOM      6  C   LIG d   1       2.812   1.001  -6.401  0.00  0.00    -0.047 A 
ATOM      7  C   LIG d   1       3.525  -0.185  -6.235  0.00  0.00     0.026 A 
ATOM      8  C   LIG d   1       4.112  -0.813  -7.343  0.00  0.00     0.148 A 
ATOM      9  O   LIG d   1       4.808  -1.964  -7.205  0.00  0.00    -0.421 OA
ATOM     10  C   LIG d   1       4.982  -2.573  -6.022  0.00  0.00     0.345 A 
ATOM     11  O   LIG d   1       5.617  -3.608  -5.961  0.00  0.00    -0.244 OA
ATOM     12  C   LIG d   1       4.407  -1.996  -4.797  0.00  0.00     0.067 A 
ATOM     13  C   LIG d   1       3.672  -0.795  -4.900  0.00  0.00    -0.000 A 
ATOM     14  C   LIG d   1       3.116  -0.225  -3.763  0.00  0.00    -0.053 A 
ATOM     15  C   LIG d   1       3.288  -0.839  -2.539  0.00  0.00    -0.061 A 
ATOM     16  C   LIG d   1       4.008  -2.020  -2.436  0.00  0.00    -0.061 A 
ATOM     17  C   LIG d   1       4.569  -2.602  -3.554  0.00  0.00    -0.047 A 
ATOM     18  O   LIG d   1       3.125   1.505  -9.985  0.00  0.00    -0.473 OA
ATOM     19  C   LIG d   1       4.013   1.066 -11.014  0.00  0.00     0.157 C 
ATOM     20  H   LIG d   1       4.446  -2.005  -9.722  0.00  0.00     0.052 H 
ATOM     21  H   LIG d   1       5.697  -0.719  -9.786  0.00  0.00     0.052 H 
ATOM     22  H   LIG d   1       2.133   2.476  -7.783  0.00  0.00     0.065 H 
ATOM     23  H   LIG d   1       2.359   1.485  -5.547  0.00  0.00     0.063 H 
ATOM     24  H   LIG d   1       2.553   0.694  -3.835  0.00  0.00     0.062 H 
ATOM     25  H   LIG d   1       2.856  -0.397  -1.653  0.00  0.00     0.062 H 
ATOM     26  H   LIG d   1       4.134  -2.487  -1.470  0.00  0.00     0.062 H 
ATOM     27  H   LIG d   1       5.129  -3.521  -3.465  0.00  0.00     0.063 H 
ATOM     28  H   LIG d   1       5.030   1.438 -10.816  0.00  0.00     0.091 H 
ATOM     29  H   LIG d   1       3.671   1.440 -11.990  0.00  0.00     0.091 H 
ENDROOT
BRANCH   1  30
ATOM     30  C   LIG d   1       4.704  -0.892 -12.148  0.00  0.00     0.033 A 
ATOM     31  C   LIG d   1       4.339  -0.472 -13.422  0.00  0.00    -0.037 A 
ATOM     32  C   LIG d   1       5.018  -0.949 -14.525  0.00  0.00    -0.035 A 
ATOM     33  H   LIG d   1       3.527   0.230 -13.547  0.00  0.00     0.064 H 
ATOM     34  C   LIG d   1       6.054  -1.852 -14.365  0.00  0.00     0.021 A 
ATOM     35  C   LIG d   1       6.416  -2.275 -13.098  0.00  0.00    -0.046 A 
ATOM     36 BR   LIG d   1       6.976  -2.508 -15.880  0.00  0.00    -0.050 Br
ATOM     37  C   LIG d   1       5.745  -1.798 -11.990  0.00  0.00    -0.040 A 
ATOM     38  H   LIG d   1       7.226  -2.980 -12.976  0.00  0.00     0.063 H 
ATOM     39  H   LIG d   1       6.028  -2.129 -11.002  0.00  0.00     0.064 H 
BRANCH  32  40
ATOM     40  C   LIG d   1       4.627  -0.490 -15.906  0.00  0.00    -0.039 C 
ATOM     41  H   LIG d   1       5.508  -0.074 -16.417  0.00  0.00     0.028 H 
ATOM     42  H   LIG d   1       3.849   0.283 -15.830  0.00  0.00     0.028 H 
ATOM     43  H   LIG d   1       4.241  -1.345 -16.481  0.00  0.00     0.028 H 
ENDBRANCH  32  40
ENDBRANCH   1  30
TORSDOF 2
ENDMDL
MODEL 4
REMARK VINA RESULT:      -6.8      7.864     11.469
REMARK  2 active torsions:
REMARK  status: ('A' for Active; 'I' for Inactive)
REMARK    1  A    between atoms: C_1  and  C_2 
REMARK    2  A    between atoms: C_4  and  N_9 
ROOT
ATOM      1  N   LIG d   1       4.337  -7.335  -6.444  0.00  0.00    -0.293 NA
ATOM      2  C   LIG d   1       4.731  -5.922  -6.514  0.00  0.00     0.047 C 
ATOM      3  C   LIG d   1       3.991  -5.246  -7.640  0.00  0.00     0.054 A 
ATOM      4  C   LIG d   1       3.385  -5.989  -8.636  0.00  0.00     0.131 A 
ATOM      5  C   LIG d   1       2.708  -5.352  -9.675  0.00  0.00    -0.019 A 
ATOM      6  C   LIG d   1       2.635  -3.978  -9.715  0.00  0.00    -0.047 A 
ATOM      7  C   LIG d   1       3.243  -3.221  -8.715  0.00  0.00     0.026 A 
ATOM      8  C   LIG d   1       3.926  -3.857  -7.668  0.00  0.00     0.148 A 
ATOM      9  O   LIG d   1       4.523  -3.142  -6.687  0.00  0.00    -0.421 OA
ATOM     10  C   LIG d   1       4.503  -1.801  -6.648  0.00  0.00     0.345 A 
ATOM     11  O   LIG d   1       5.058  -1.214  -5.739  0.00  0.00    -0.244 OA
ATOM     12  C   LIG d   1       3.814  -1.037  -7.699  0.00  0.00     0.067 A 
ATOM     13  C   LIG d   1       3.178  -1.747  -8.740  0.00  0.00    -0.000 A 
ATOM     14  C   LIG d   1       2.518  -1.056  -9.747  0.00  0.00    -0.053 A 
ATOM     15  C   LIG d   1       2.492   0.324  -9.721  0.00  0.00    -0.061 A 
ATOM     16  C   LIG d   1       3.115   1.024  -8.699  0.00  0.00    -0.061 A 
ATOM     17  C   LIG d   1       3.776   0.355  -7.689  0.00  0.00    -0.047 A 
ATOM     18  O   LIG d   1       3.438  -7.347  -8.621  0.00  0.00    -0.473 OA
ATOM     19  C   LIG d   1       4.421  -7.952  -7.778  0.00  0.00     0.157 C 
ATOM     20  H   LIG d   1       4.485  -5.424  -5.564  0.00  0.00     0.052 H 
ATOM     21  H   LIG d   1       5.815  -5.851  -6.694  0.00  0.00     0.052 H 
ATOM     22  H   LIG d   1       2.236  -5.939 -10.450  0.00  0.00     0.065 H 
ATOM     23  H   LIG d   1       2.109  -3.487 -10.521  0.00  0.00     0.063 H 
ATOM     24  H   LIG d   1       2.030  -1.593 -10.546  0.00  0.00     0.062 H 
ATOM     25  H   LIG d   1       1.979   0.864 -10.504  0.00  0.00     0.062 H 
ATOM     26  H   LIG d   1       3.085   2.103  -8.694  0.00  0.00     0.062 H 
ATOM     27  H   LIG d   1       4.259   0.907  -6.897  0.00  0.00     0.063 H 
ATOM     28  H   LIG d   1       5.425  -7.787  -8.196  0.00  0.00     0.091 H 
ATOM     29  H   LIG d   1       4.231  -9.032  -7.695  0.00  0.00     0.091 H 
ENDROOT
BRANCH   1  30
ATOM     30  C   LIG d   1       5.124  -8.029  -5.521  0.00  0.00     0.033 A 
ATOM     31  C   LIG d   1       4.569  -9.056  -4.766  0.00  0.00    -0.037 A 
ATOM     32  C   LIG d   1       5.351  -9.743  -3.859  0.00  0.00    -0.035 A 
ATOM     33  H   LIG d   1       3.529  -9.318  -4.893  0.00  0.00     0.064 H 
ATOM     34  C   LIG d   1       6.682  -9.404  -3.693  0.00  0.00     0.021 A 
ATOM     35  C   LIG d   1       7.235  -8.378  -4.439  0.00  0.00    -0.046 A 
ATOM     36 BR   LIG d   1       7.746 -10.344  -2.443  0.00  0.00    -0.050 Br
ATOM     37  C   LIG d   1       6.460  -7.690  -5.352  0.00  0.00    -0.040 A 
ATOM     38  H   LIG d   1       8.275  -8.116  -4.308  0.00  0.00     0.063 H 
ATOM     39  H   LIG d   1       6.893  -6.890  -5.934  0.00  0.00     0.064 H 
BRANCH  32  40
ATOM     40  C   LIG d   1       4.752 -10.861  -3.044  0.00  0.00    -0.039 C 
ATOM     41  H   LIG d   1       3.697 -10.996  -3.328  0.00  0.00     0.028 H 
ATOM     42  H   LIG d   1       4.816 -10.610  -1.975  0.00  0.00     0.028 H 
ATOM     43  H   LIG d   1       5.305 -11.792  -3.237  0.00  0.00     0.028 H 
ENDBRANCH  32  40
ENDBRANCH   1  30
TORSDOF 2
ENDMDL
MODEL 5
REMARK VINA RESULT:      -6.7      3.369      8.575
REMARK  2 active torsions:
REMARK  status: ('A' for Active; 'I' for Inactive)
REMARK    1  A    between atoms: C_1  and  C_2 
REMARK    2  A    between atoms: C_4  and  N_9 
ROOT
ATOM      1  N   LIG d   1       8.846   3.706  -4.530  0.00  0.00    -0.293 NA
ATOM      2  C   LIG d   1       9.576   4.119  -3.323  0.00  0.00     0.047 C 
ATOM      3  C   LIG d   1       9.936   5.580  -3.426  0.00  0.00     0.054 A 
ATOM      4  C   LIG d   1       9.911   6.232  -4.645  0.00  0.00     0.131 A 
ATOM      5  C   LIG d   1      10.251   7.581  -4.728  0.00  0.00    -0.019 A 
ATOM      6  C   LIG d   1      10.612   8.275  -3.595  0.00  0.00    -0.047 A 
ATOM      7  C   LIG d   1      10.639   7.627  -2.362  0.00  0.00     0.026 A 
ATOM      8  C   LIG d   1      10.299   6.269  -2.274  0.00  0.00     0.148 A 
ATOM      9  O   LIG d   1      10.318   5.619  -1.088  0.00  0.00    -0.421 OA
ATOM     10  C   LIG d   1      10.658   6.217   0.064  0.00  0.00     0.345 A 
ATOM     11  O   LIG d   1      10.656   5.581   1.100  0.00  0.00    -0.244 OA
ATOM     12  C   LIG d   1      11.033   7.639   0.081  0.00  0.00     0.067 A 
ATOM     13  C   LIG d   1      11.024   8.352  -1.137  0.00  0.00    -0.000 A 
ATOM     14  C   LIG d   1      11.372   9.696  -1.155  0.00  0.00    -0.053 A 
ATOM     15  C   LIG d   1      11.726  10.324   0.023  0.00  0.00    -0.061 A 
ATOM     16  C   LIG d   1      11.735   9.626   1.221  0.00  0.00    -0.061 A 
ATOM     17  C   LIG d   1      11.392   8.290   1.259  0.00  0.00    -0.047 A 
ATOM     18  O   LIG d   1       9.556   5.572  -5.780  0.00  0.00    -0.473 OA
ATOM     19  C   LIG d   1       9.570   4.144  -5.735  0.00  0.00     0.157 C 
ATOM     20  H   LIG d   1       8.942   3.961  -2.439  0.00  0.00     0.052 H 
ATOM     21  H   LIG d   1      10.495   3.522  -3.227  0.00  0.00     0.052 H 
ATOM     22  H   LIG d   1      10.230   8.084  -5.684  0.00  0.00     0.065 H 
ATOM     23  H   LIG d   1      10.874   9.321  -3.663  0.00  0.00     0.063 H 
ATOM     24  H   LIG d   1      11.367  10.247  -2.083  0.00  0.00     0.062 H 
ATOM     25  H   LIG d   1      11.998  11.369   0.011  0.00  0.00     0.062 H 
ATOM     26  H   LIG d   1      12.015  10.132   2.133  0.00  0.00     0.062 H 
ATOM     27  H   LIG d   1      11.402   7.753   2.196  0.00  0.00     0.063 H 
ATOM     28  H   LIG d   1      10.608   3.780  -5.692  0.00  0.00     0.091 H 
ATOM     29  H   LIG d   1       9.076   3.735  -6.628  0.00  0.00     0.091 H 
ENDROOT
BRANCH   1  30
ATOM     30  C   LIG d   1       8.643   2.323  -4.542  0.00  0.00     0.033 A 
ATOM     31  C   LIG d   1       7.577   1.772  -3.841  0.00  0.00    -0.037 A 
ATOM     32  C   LIG d   1       7.374   0.406  -3.860  0.00  0.00    -0.035 A 
ATOM     33  H   LIG d   1       6.905   2.411  -3.288  0.00  0.00     0.064 H 
ATOM     34  C   LIG d   1       8.237  -0.414  -4.565  0.00  0.00     0.021 A 
ATOM     35  C   LIG d   1       9.303   0.133  -5.259  0.00  0.00    -0.046 A 
ATOM     36 BR   LIG d   1       7.960  -2.284  -4.581  0.00  0.00    -0.050 Br
ATOM     37  C   LIG d   1       9.508   1.499  -5.249  0.00  0.00    -0.040 A 
ATOM     38  H   LIG d   1       9.975  -0.509  -5.809  0.00  0.00     0.063 H 
ATOM     39  H   LIG d   1      10.339   1.924  -5.790  0.00  0.00     0.064 H 
BRANCH  32  40
ATOM     40  C   LIG d   1       6.215  -0.194  -3.106  0.00  0.00    -0.039 C 
ATOM     41  H   LIG d   1       6.527  -0.419  -2.075  0.00  0.00     0.028 H 
ATOM     42  H   LIG d   1       5.895  -1.121  -3.603  0.00  0.00     0.028 H 
ATOM     43  H   LIG d   1       5.380   0.521  -3.088  0.00  0.00     0.028 H 
ENDBRANCH  32  40
ENDBRANCH   1  30
TORSDOF 2
ENDMDL
MODEL 6
REMARK VINA RESULT:      -6.6      2.100      2.878
REMARK  2 active torsions:
REMARK  status: ('A' for Active; 'I' for Inactive)
REMARK    1  A    between atoms: C_1  and  C_2 
REMARK    2  A    between atoms: C_4  and  N_9 
ROOT
ATOM      1  N   LIG d   1      11.371   3.988  -2.351  0.00  0.00    -0.293 NA
ATOM      2  C   LIG d   1      10.021   3.598  -2.781  0.00  0.00     0.047 C 
ATOM      3  C   LIG d   1      10.111   2.427  -3.727  0.00  0.00     0.054 A 
ATOM      4  C   LIG d   1      11.304   2.106  -4.346  0.00  0.00     0.131 A 
ATOM      5  C   LIG d   1      11.373   1.025  -5.222  0.00  0.00    -0.019 A 
ATOM      6  C   LIG d   1      10.253   0.265  -5.475  0.00  0.00    -0.047 A 
ATOM      7  C   LIG d   1       9.046   0.580  -4.854  0.00  0.00     0.026 A 
ATOM      8  C   LIG d   1       8.972   1.669  -3.973  0.00  0.00     0.148 A 
ATOM      9  O   LIG d   1       7.810   1.993  -3.359  0.00  0.00    -0.421 OA
ATOM     10  C   LIG d   1       6.671   1.309  -3.548  0.00  0.00     0.345 A 
ATOM     11  O   LIG d   1       5.659   1.648  -2.967  0.00  0.00    -0.244 OA
ATOM     12  C   LIG d   1       6.641   0.150  -4.454  0.00  0.00     0.067 A 
ATOM     13  C   LIG d   1       7.834  -0.220  -5.112  0.00  0.00    -0.000 A 
ATOM     14  C   LIG d   1       7.839  -1.309  -5.973  0.00  0.00    -0.053 A 
ATOM     15  C   LIG d   1       6.674  -2.021  -6.179  0.00  0.00    -0.061 A 
ATOM     16  C   LIG d   1       5.502  -1.659  -5.533  0.00  0.00    -0.061 A 
ATOM     17  C   LIG d   1       5.476  -0.580  -4.673  0.00  0.00    -0.047 A 
ATOM     18  O   LIG d   1      12.428   2.837  -4.114  0.00  0.00    -0.473 OA
ATOM     19  C   LIG d   1      12.255   4.125  -3.520  0.00  0.00     0.157 C 
ATOM     20  H   LIG d   1       9.424   3.312  -1.902  0.00  0.00     0.052 H 
ATOM     21  H   LIG d   1       9.540   4.445  -3.292  0.00  0.00     0.052 H 
ATOM     22  H   LIG d   1      12.309   0.780  -5.703  0.00  0.00     0.065 H 
ATOM     23  H   LIG d   1      10.310  -0.573  -6.154  0.00  0.00     0.063 H 
ATOM     24  H   LIG d   1       8.748  -1.598  -6.480  0.00  0.00     0.062 H 
ATOM     25  H   LIG d   1       6.676  -2.868  -6.849  0.00  0.00     0.062 H 
ATOM     26  H   LIG d   1       4.599  -2.226  -5.705  0.00  0.00     0.062 H 
ATOM     27  H   LIG d   1       4.559  -0.305  -4.174  0.00  0.00     0.063 H 
ATOM     28  H   LIG d   1      11.799   4.815  -4.246  0.00  0.00     0.091 H 
ATOM     29  H   LIG d   1      13.229   4.523  -3.198  0.00  0.00     0.091 H 
ENDROOT
BRANCH   1  30
ATOM     30  C   LIG d   1      11.336   5.170  -1.607  0.00  0.00     0.033 A 
ATOM     31  C   LIG d   1      10.236   6.014  -1.693  0.00  0.00    -0.037 A 
ATOM     32  C   LIG d   1      10.202   7.179  -0.952  0.00  0.00    -0.035 A 
ATOM     33  H   LIG d   1       9.406   5.756  -2.335  0.00  0.00     0.064 H 
ATOM     34  C   LIG d   1      11.266   7.512  -0.134  0.00  0.00     0.021 A 
ATOM     35  C   LIG d   1      12.366   6.676  -0.050  0.00  0.00    -0.046 A 
ATOM     36 BR   LIG d   1      11.218   9.112   0.873  0.00  0.00    -0.050 Br
ATOM     37  C   LIG d   1      12.404   5.507  -0.784  0.00  0.00    -0.040 A 
ATOM     38  H   LIG d   1      13.195   6.938   0.590  0.00  0.00     0.063 H 
ATOM     39  H   LIG d   1      13.262   4.855  -0.719  0.00  0.00     0.064 H 
BRANCH  32  40
ATOM     40  C   LIG d   1       9.006   8.092  -1.040  0.00  0.00    -0.039 C 
ATOM     41  H   LIG d   1       8.254   7.783  -0.298  0.00  0.00     0.028 H 
ATOM     42  H   LIG d   1       8.572   8.033  -2.048  0.00  0.00     0.028 H 
ATOM     43  H   LIG d   1       9.319   9.126  -0.834  0.00  0.00     0.028 H 
ENDBRANCH  32  40
ENDBRANCH   1  30
TORSDOF 2
ENDMDL
MODEL 7
REMARK VINA RESULT:      -6.5      6.221      9.096
REMARK  2 active torsions:
REMARK  status: ('A' for Active; 'I' for Inactive)
REMARK    1  A    between atoms: C_1  and  C_2 
REMARK    2  A    between atoms: C_4  and  N_9 
ROOT
ATOM      1  N   LIG d   1       3.866  -1.404  -7.157  0.00  0.00    -0.293 NA
ATOM      2  C   LIG d   1       4.953  -2.392  -7.113  0.00  0.00     0.047 C 
ATOM      3  C   LIG d   1       5.814  -2.143  -5.901  0.00  0.00     0.054 A 
ATOM      4  C   LIG d   1       5.764  -0.934  -5.233  0.00  0.00     0.131 A 
ATOM      5  C   LIG d   1       6.568  -0.714  -4.116  0.00  0.00    -0.019 A 
ATOM      6  C   LIG d   1       7.417  -1.701  -3.668  0.00  0.00    -0.047 A 
ATOM      7  C   LIG d   1       7.473  -2.924  -4.334  0.00  0.00     0.026 A 
ATOM      8  C   LIG d   1       6.666  -3.149  -5.459  0.00  0.00     0.148 A 
ATOM      9  O   LIG d   1       6.704  -4.328  -6.122  0.00  0.00    -0.421 OA
ATOM     10  C   LIG d   1       7.501  -5.344  -5.755  0.00  0.00     0.345 A 
ATOM     11  O   LIG d   1       7.490  -6.380  -6.390  0.00  0.00    -0.244 OA
ATOM     12  C   LIG d   1       8.387  -5.210  -4.590  0.00  0.00     0.067 A 
ATOM     13  C   LIG d   1       8.376  -3.995  -3.871  0.00  0.00    -0.000 A 
ATOM     14  C   LIG d   1       9.200  -3.837  -2.765  0.00  0.00    -0.053 A 
ATOM     15  C   LIG d   1      10.027  -4.872  -2.378  0.00  0.00    -0.061 A 
ATOM     16  C   LIG d   1      10.039  -6.067  -3.082  0.00  0.00    -0.061 A 
ATOM     17  C   LIG d   1       9.228  -6.243  -4.184  0.00  0.00    -0.047 A 
ATOM     18  O   LIG d   1       4.934   0.059  -5.651  0.00  0.00    -0.473 OA
ATOM     19  C   LIG d   1       4.407  -0.047  -6.975  0.00  0.00     0.157 C 
ATOM     20  H   LIG d   1       4.526  -3.404  -7.057  0.00  0.00     0.052 H 
ATOM     21  H   LIG d   1       5.566  -2.303  -8.022  0.00  0.00     0.052 H 
ATOM     22  H   LIG d   1       6.525   0.233  -3.599  0.00  0.00     0.065 H 
ATOM     23  H   LIG d   1       8.038  -1.528  -2.801  0.00  0.00     0.063 H 
ATOM     24  H   LIG d   1       9.196  -2.910  -2.212  0.00  0.00     0.062 H 
ATOM     25  H   LIG d   1      10.670  -4.751  -1.519  0.00  0.00     0.062 H 
ATOM     26  H   LIG d   1      10.692  -6.867  -2.766  0.00  0.00     0.062 H 
ATOM     27  H   LIG d   1       9.243  -7.177  -4.726  0.00  0.00     0.063 H 
ATOM     28  H   LIG d   1       5.205   0.132  -7.711  0.00  0.00     0.091 H 
ATOM     29  H   LIG d   1       3.603   0.690  -7.119  0.00  0.00     0.091 H 
ENDROOT
BRANCH   1  30
ATOM     30  C   LIG d   1       3.149  -1.502  -8.352  0.00  0.00     0.033 A 
ATOM     31  C   LIG d   1       3.204  -2.670  -9.103  0.00  0.00    -0.037 A 
ATOM     32  C   LIG d   1       2.490  -2.766 -10.280  0.00  0.00    -0.035 A 
ATOM     33  H   LIG d   1       3.802  -3.503  -8.762  0.00  0.00     0.064 H 
ATOM     34  C   LIG d   1       1.729  -1.698 -10.720  0.00  0.00     0.021 A 
ATOM     35  C   LIG d   1       1.677  -0.531  -9.977  0.00  0.00    -0.046 A 
ATOM     36 BR   LIG d   1       0.759  -1.831 -12.338  0.00  0.00    -0.050 Br
ATOM     37  C   LIG d   1       2.385  -0.430  -8.795  0.00  0.00    -0.040 A 
ATOM     38  H   LIG d   1       1.082   0.302 -10.322  0.00  0.00     0.063 H 
ATOM     39  H   LIG d   1       2.343   0.480  -8.216  0.00  0.00     0.064 H 
BRANCH  32  40
ATOM     40  C   LIG d   1       2.544  -4.035 -11.092  0.00  0.00    -0.039 C 
ATOM     41  H   LIG d   1       2.000  -4.832 -10.563  0.00  0.00     0.028 H 
ATOM     42  H   LIG d   1       3.592  -4.337 -11.232  0.00  0.00     0.028 H 
ATOM     43  H   LIG d   1       2.078  -3.863 -12.074  0.00  0.00     0.028 H 
ENDBRANCH  32  40
ENDBRANCH   1  30
TORSDOF 2
ENDMDL
MODEL 8
REMARK VINA RESULT:      -6.5     11.646     13.632
REMARK  2 active torsions:
REMARK  status: ('A' for Active; 'I' for Inactive)
REMARK    1  A    between atoms: C_1  and  C_2 
REMARK    2  A    between atoms: C_4  and  N_9 
ROOT
ATOM      1  N   LIG d   1      11.687  -9.508   0.177  0.00  0.00    -0.293 NA
ATOM      2  C   LIG d   1      10.241  -9.761   0.135  0.00  0.00     0.047 C 
ATOM      3  C   LIG d   1       9.665  -9.192  -1.137  0.00  0.00     0.054 A 
ATOM      4  C   LIG d   1      10.366  -8.258  -1.876  0.00  0.00     0.131 A 
ATOM      5  C   LIG d   1       9.821  -7.736  -3.048  0.00  0.00    -0.019 A 
ATOM      6  C   LIG d   1       8.581  -8.150  -3.480  0.00  0.00    -0.047 A 
ATOM      7  C   LIG d   1       7.868  -9.092  -2.742  0.00  0.00     0.026 A 
ATOM      8  C   LIG d   1       8.411  -9.619  -1.561  0.00  0.00     0.148 A 
ATOM      9  O   LIG d   1       7.737 -10.535  -0.829  0.00  0.00    -0.421 OA
ATOM     10  C   LIG d   1       6.524 -10.993  -1.174  0.00  0.00     0.345 A 
ATOM     11  O   LIG d   1       5.967 -11.817  -0.475  0.00  0.00    -0.244 OA
ATOM     12  C   LIG d   1       5.864 -10.504  -2.394  0.00  0.00     0.067 A 
ATOM     13  C   LIG d   1       6.537  -9.549  -3.186  0.00  0.00    -0.000 A 
ATOM     14  C   LIG d   1       5.942  -9.067  -4.345  0.00  0.00    -0.053 A 
ATOM     15  C   LIG d   1       4.693  -9.528  -4.711  0.00  0.00    -0.061 A 
ATOM     16  C   LIG d   1       4.031 -10.467  -3.935  0.00  0.00    -0.061 A 
ATOM     17  C   LIG d   1       4.605 -10.957  -2.781  0.00  0.00    -0.047 A 
ATOM     18  O   LIG d   1      11.594  -7.833  -1.476  0.00  0.00    -0.473 OA
ATOM     19  C   LIG d   1      11.963  -8.093  -0.120  0.00  0.00     0.157 C 
ATOM     20  H   LIG d   1      10.056 -10.845   0.167  0.00  0.00     0.052 H 
ATOM     21  H   LIG d   1       9.759  -9.282   1.001  0.00  0.00     0.052 H 
ATOM     22  H   LIG d   1      10.374  -7.006  -3.621  0.00  0.00     0.065 H 
ATOM     23  H   LIG d   1       8.162  -7.744  -4.389  0.00  0.00     0.063 H 
ATOM     24  H   LIG d   1       6.451  -8.336  -4.955  0.00  0.00     0.062 H 
ATOM     25  H   LIG d   1       4.228  -9.154  -5.611  0.00  0.00     0.062 H 
ATOM     26  H   LIG d   1       3.054 -10.817  -4.236  0.00  0.00     0.062 H 
ATOM     27  H   LIG d   1       4.083 -11.689  -2.182  0.00  0.00     0.063 H 
ATOM     28  H   LIG d   1      11.377  -7.454   0.558  0.00  0.00     0.091 H 
ATOM     29  H   LIG d   1      13.035  -7.891   0.022  0.00  0.00     0.091 H 
ENDROOT
BRANCH   1  30
ATOM     30  C   LIG d   1      12.223  -9.874   1.415  0.00  0.00     0.033 A 
ATOM     31  C   LIG d   1      11.488 -10.672   2.283  0.00  0.00    -0.037 A 
ATOM     32  C   LIG d   1      12.022 -11.037   3.502  0.00  0.00    -0.035 A 
ATOM     33  H   LIG d   1      10.501 -11.011   2.000  0.00  0.00     0.064 H 
ATOM     34  C   LIG d   1      13.283 -10.599   3.866  0.00  0.00     0.021 A 
ATOM     35  C   LIG d   1      14.015  -9.800   3.007  0.00  0.00    -0.046 A 
ATOM     36 BR   LIG d   1      14.007 -11.095   5.542  0.00  0.00    -0.050 Br
ATOM     37  C   LIG d   1      13.488  -9.436   1.783  0.00  0.00    -0.040 A 
ATOM     38  H   LIG d   1      14.999  -9.460   3.293  0.00  0.00     0.063 H 
ATOM     39  H   LIG d   1      14.061  -8.811   1.112  0.00  0.00     0.064 H 
BRANCH  32  40
ATOM     40  C   LIG d   1      11.228 -11.908   4.442  0.00  0.00    -0.039 C 
ATOM     41  H   LIG d   1      10.413 -12.397   3.887  0.00  0.00     0.028 H 
ATOM     42  H   LIG d   1      10.804 -11.289   5.246  0.00  0.00     0.028 H 
ATOM     43  H   LIG d   1      11.886 -12.675   4.876  0.00  0.00     0.028 H 
ENDBRANCH  32  40
ENDBRANCH   1  30
TORSDOF 2
ENDMDL
MODEL 9
REMARK VINA RESULT:      -6.5      7.234      9.952
REMARK  2 active torsions:
REMARK  status: ('A' for Active; 'I' for Inactive)
REMARK    1  A    between atoms: C_1  and  C_2 
REMARK    2  A    between atoms: C_4  and  N_9 
ROOT
ATOM      1  N   LIG d   1       3.352  -1.817 -10.591  0.00  0.00    -0.293 NA
ATOM      2  C   LIG d   1       4.030  -2.071  -9.313  0.00  0.00     0.047 C 
ATOM      3  C   LIG d   1       3.667  -0.993  -8.324  0.00  0.00     0.054 A 
ATOM      4  C   LIG d   1       3.120   0.204  -8.750  0.00  0.00     0.131 A 
ATOM      5  C   LIG d   1       2.793   1.195  -7.827  0.00  0.00    -0.019 A 
ATOM      6  C   LIG d   1       3.009   0.989  -6.483  0.00  0.00    -0.047 A 
ATOM      7  C   LIG d   1       3.558  -0.215  -6.044  0.00  0.00     0.026 A 
ATOM      8  C   LIG d   1       3.890  -1.215  -6.970  0.00  0.00     0.148 A 
ATOM      9  O   LIG d   1       4.425  -2.390  -6.567  0.00  0.00    -0.421 OA
ATOM     10  C   LIG d   1       4.670  -2.675  -5.279  0.00  0.00     0.345 A 
ATOM     11  O   LIG d   1       5.152  -3.750  -4.978  0.00  0.00    -0.244 OA
ATOM     12  C   LIG d   1       4.359  -1.694  -4.228  0.00  0.00     0.067 A 
ATOM     13  C   LIG d   1       3.799  -0.455  -4.609  0.00  0.00    -0.000 A 
ATOM     14  C   LIG d   1       3.493   0.493  -3.641  0.00  0.00    -0.053 A 
ATOM     15  C   LIG d   1       3.742   0.214  -2.312  0.00  0.00    -0.061 A 
ATOM     16  C   LIG d   1       4.291  -1.002  -1.936  0.00  0.00    -0.061 A 
ATOM     17  C   LIG d   1       4.602  -1.957  -2.883  0.00  0.00    -0.047 A 
ATOM     18  O   LIG d   1       2.893   0.434 -10.071  0.00  0.00    -0.473 OA
ATOM     19  C   LIG d   1       3.558  -0.419 -11.005  0.00  0.00     0.157 C 
ATOM     20  H   LIG d   1       3.716  -3.049  -8.919  0.00  0.00     0.052 H 
ATOM     21  H   LIG d   1       5.120  -2.072  -9.469  0.00  0.00     0.052 H 
ATOM     22  H   LIG d   1       2.366   2.127  -8.166  0.00  0.00     0.065 H 
ATOM     23  H   LIG d   1       2.753   1.759  -5.769  0.00  0.00     0.063 H 
ATOM     24  H   LIG d   1       3.064   1.442  -3.926  0.00  0.00     0.062 H 
ATOM     25  H   LIG d   1       3.505   0.950  -1.558  0.00  0.00     0.062 H 
ATOM     26  H   LIG d   1       4.480  -1.204  -0.892  0.00  0.00     0.062 H 
ATOM     27  H   LIG d   1       5.030  -2.902  -2.581  0.00  0.00     0.063 H 
ATOM     28  H   LIG d   1       4.635  -0.194 -11.016  0.00  0.00     0.091 H 
ATOM     29  H   LIG d   1       3.142  -0.270 -12.012  0.00  0.00     0.091 H 
ENDROOT
BRANCH   1  30
ATOM     30  C   LIG d   1       3.796  -2.702 -11.578  0.00  0.00     0.033 A 
ATOM     31  C   LIG d   1       4.411  -3.894 -11.216  0.00  0.00    -0.037 A 
ATOM     32  C   LIG d   1       4.843  -4.769 -12.193  0.00  0.00    -0.035 A 
ATOM     33  H   LIG d   1       4.547  -4.137 -10.172  0.00  0.00     0.064 H 
ATOM     34  C   LIG d   1       4.674  -4.456 -13.529  0.00  0.00     0.021 A 
ATOM     35  C   LIG d   1       4.067  -3.266 -13.892  0.00  0.00    -0.046 A 
ATOM     36 BR   LIG d   1       5.274  -5.654 -14.863  0.00  0.00    -0.050 Br
ATOM     37  C   LIG d   1       3.627  -2.389 -12.920  0.00  0.00    -0.040 A 
ATOM     38  H   LIG d   1       3.935  -3.024 -14.936  0.00  0.00     0.063 H 
ATOM     39  H   LIG d   1       3.153  -1.461 -13.204  0.00  0.00     0.064 H 
BRANCH  32  40
ATOM     40  C   LIG d   1       5.505  -6.066 -11.803  0.00  0.00    -0.039 C 
ATOM     41  H   LIG d   1       6.439  -6.186 -12.373  0.00  0.00     0.028 H 
ATOM     42  H   LIG d   1       4.829  -6.905 -12.025  0.00  0.00     0.028 H 
ATOM     43  H   LIG d   1       5.732  -6.052 -10.727  0.00  0.00     0.028 H 
ENDBRANCH  32  40
ENDBRANCH   1  30
TORSDOF 2
ENDMDL
MODEL 10
REMARK VINA RESULT:      -6.5      4.914      7.699
REMARK  2 active torsions:
REMARK  status: ('A' for Active; 'I' for Inactive)
REMARK    1  A    between atoms: C_1  and  C_2 
REMARK    2  A    between atoms: C_4  and  N_9 
ROOT
ATOM      1  N   LIG d   1       9.802   5.917  -3.584  0.00  0.00    -0.293 NA
ATOM      2  C   LIG d   1      10.242   6.610  -4.802  0.00  0.00     0.047 C 
ATOM      3  C   LIG d   1       9.967   5.743  -6.005  0.00  0.00     0.054 A 
ATOM      4  C   LIG d   1       9.724   4.389  -5.862  0.00  0.00     0.131 A 
ATOM      5  C   LIG d   1       9.476   3.598  -6.981  0.00  0.00    -0.019 A 
ATOM      6  C   LIG d   1       9.468   4.158  -8.238  0.00  0.00    -0.047 A 
ATOM      7  C   LIG d   1       9.711   5.522  -8.392  0.00  0.00     0.026 A 
ATOM      8  C   LIG d   1       9.963   6.323  -7.268  0.00  0.00     0.148 A 
ATOM      9  O   LIG d   1      10.201   7.648  -7.394  0.00  0.00    -0.421 OA
ATOM     10  C   LIG d   1      10.213   8.277  -8.580  0.00  0.00     0.345 A 
ATOM     11  O   LIG d   1      10.433   9.471  -8.629  0.00  0.00    -0.244 OA
ATOM     12  C   LIG d   1       9.962   7.528  -9.820  0.00  0.00     0.067 A 
ATOM     13  C   LIG d   1       9.709   6.143  -9.731  0.00  0.00    -0.000 A 
ATOM     14  C   LIG d   1       9.467   5.407 -10.883  0.00  0.00    -0.053 A 
ATOM     15  C   LIG d   1       9.479   6.040 -12.110  0.00  0.00    -0.061 A 
ATOM     16  C   LIG d   1       9.728   7.401 -12.200  0.00  0.00    -0.061 A 
ATOM     17  C   LIG d   1       9.970   8.149 -11.067  0.00  0.00    -0.047 A 
ATOM     18  O   LIG d   1       9.723   3.809  -4.632  0.00  0.00    -0.473 OA
ATOM     19  C   LIG d   1      10.327   4.542  -3.564  0.00  0.00     0.157 C 
ATOM     20  H   LIG d   1       9.695   7.559  -4.903  0.00  0.00     0.052 H 
ATOM     21  H   LIG d   1      11.322   6.815  -4.738  0.00  0.00     0.052 H 
ATOM     22  H   LIG d   1       9.287   2.541  -6.862  0.00  0.00     0.065 H 
ATOM     23  H   LIG d   1       9.275   3.542  -9.104  0.00  0.00     0.063 H 
ATOM     24  H   LIG d   1       9.272   4.347 -10.822  0.00  0.00     0.062 H 
ATOM     25  H   LIG d   1       9.292   5.470 -13.008  0.00  0.00     0.062 H 
ATOM     26  H   LIG d   1       9.734   7.881 -13.168  0.00  0.00     0.062 H 
ATOM     27  H   LIG d   1      10.163   9.209 -11.146  0.00  0.00     0.063 H 
ATOM     28  H   LIG d   1      11.420   4.565  -3.697  0.00  0.00     0.091 H 
ATOM     29  H   LIG d   1      10.085   4.071  -2.601  0.00  0.00     0.091 H 
ENDROOT
BRANCH   1  30
ATOM     30  C   LIG d   1      10.191   6.619  -2.440  0.00  0.00     0.033 A 
ATOM     31  C   LIG d   1      10.430   5.937  -1.253  0.00  0.00    -0.037 A 
ATOM     32  C   LIG d   1      10.821   6.632  -0.127  0.00  0.00    -0.035 A 
ATOM     33  H   LIG d   1      10.315   4.863  -1.214  0.00  0.00     0.064 H 
ATOM     34  C   LIG d   1      10.964   8.007  -0.175  0.00  0.00     0.021 A 
ATOM     35  C   LIG d   1      10.722   8.689  -1.354  0.00  0.00    -0.046 A 
ATOM     36 BR   LIG d   1      11.492   8.956   1.374  0.00  0.00    -0.050 Br
ATOM     37  C   LIG d   1      10.336   7.999  -2.486  0.00  0.00    -0.040 A 
ATOM     38  H   LIG d   1      10.835   9.763  -1.389  0.00  0.00     0.063 H 
ATOM     39  H   LIG d   1      10.147   8.532  -3.406  0.00  0.00     0.064 H 
BRANCH  32  40
ATOM     40  C   LIG d   1      11.087   5.893   1.160  0.00  0.00    -0.039 C 
ATOM     41  H   LIG d   1      11.992   5.278   1.049  0.00  0.00     0.028 H 
ATOM     42  H   LIG d   1      10.230   5.245   1.394  0.00  0.00     0.028 H 
ATOM     43  H   LIG d   1      11.234   6.617   1.975  0.00  0.00     0.028 H 
ENDBRANCH  32  40
ENDBRANCH   1  30
TORSDOF 2
ENDMDL
