MODEL 1
REMARK VINA RESULT:      -5.4      0.000      0.000
REMARK  8 active torsions:
REMARK  status: ('A' for Active; 'I' for Inactive)
REMARK    1  A    between atoms: C_1  and  C_2 
REMARK    2  A    between atoms: C_2  and  C_3 
REMARK    3  A    between atoms: C_2  and  N_4 
REMARK       I    between atoms: N_4  and  C_5 
REMARK    4  A    between atoms: C_5  and  C_7 
REMARK    5  A    between atoms: C_20  and  O_24 
REMARK    6  A    between atoms: C_21  and  O_22 
REMARK    7  A    between atoms: O_22  and  C_23 
REMARK    8  A    between atoms: O_24  and  C_25 
ROOT
ATOM      1  C   LIG d   1       4.065  -0.211  -6.437  0.00  0.00     0.113 C 
ATOM      2  H   LIG d   1       5.035   0.285  -6.471  0.00  0.00     0.060 H 
ATOM      3  C   LIG d   1       3.077   0.566  -7.341  0.00  0.00     0.023 C 
ATOM      4  S   LIG d   1       2.775  -0.653  -8.695  0.00  0.00    -0.131 SA
ATOM      5  C   LIG d   1       4.211  -1.747  -8.326  0.00  0.00     0.100 C 
ATOM      6  H   LIG d   1       5.130  -1.430  -8.819  0.00  0.00     0.067 H 
ATOM      7  N   LIG d   1       4.259  -1.615  -6.842  0.00  0.00    -0.269 N 
ATOM      8  C   LIG d   1       4.375  -2.863  -6.347  0.00  0.00     0.252 C 
ATOM      9  O   LIG d   1       4.724  -3.133  -5.214  0.00  0.00    -0.270 OA
ATOM     10  C   LIG d   1       4.020  -3.854  -7.377  0.00  0.00     0.088 A 
ATOM     11  C   LIG d   1       3.868  -3.182  -8.597  0.00  0.00    -0.001 A 
ATOM     12  C   LIG d   1       3.498  -3.872  -9.726  0.00  0.00    -0.052 A 
ATOM     13  C   LIG d   1       3.298  -5.243  -9.674  0.00  0.00    -0.016 A 
ATOM     14  C   LIG d   1       3.459  -5.926  -8.480  0.00  0.00     0.162 A 
ATOM     15  C   LIG d   1       3.821  -5.238  -7.326  0.00  0.00     0.174 A 
ATOM     16  H   LIG d   1       3.535   1.475  -7.729  0.00  0.00     0.040 H 
ATOM     17  H   LIG d   1       2.154   0.792  -6.807  0.00  0.00     0.040 H 
ATOM     18  H   LIG d   1       3.367  -3.345 -10.660  0.00  0.00     0.062 H 
ATOM     19  H   LIG d   1       3.013  -5.780 -10.566  0.00  0.00     0.066 H 
ENDROOT
BRANCH   1  20
ATOM     20  C   LIG d   1       3.555  -0.177  -5.020  0.00  0.00     0.235 C 
ATOM     21  N   LIG d   1       4.414  -0.314  -3.990  0.00  0.00    -0.311 N 
ATOM     22  H   LIG d   1       5.361  -0.434  -4.162  0.00  0.00     0.149 HD
ATOM     23  O   LIG d   1       2.371  -0.026  -4.805  0.00  0.00    -0.274 OA
BRANCH  21  24
ATOM     24  C   LIG d   1       3.917  -0.281  -2.612  0.00  0.00     0.018 C 
ATOM     25  H   LIG d   1       2.834  -0.157  -2.620  0.00  0.00     0.049 H 
BRANCH  24  26
ATOM     26  C   LIG d   1       4.274  -1.593  -1.911  0.00  0.00    -0.047 C 
ATOM     27  H   LIG d   1       4.211  -1.456  -0.831  0.00  0.00     0.025 H 
ATOM     28  H   LIG d   1       3.578  -2.372  -2.219  0.00  0.00     0.025 H 
ATOM     29  H   LIG d   1       5.289  -1.885  -2.180  0.00  0.00     0.025 H 
ENDBRANCH  24  26
BRANCH  24  30
ATOM     30  C   LIG d   1       4.561   0.889  -1.866  0.00  0.00    -0.047 C 
ATOM     31  H   LIG d   1       3.926   1.178  -1.029  0.00  0.00     0.025 H 
ATOM     32  H   LIG d   1       5.540   0.587  -1.493  0.00  0.00     0.025 H 
ATOM     33  H   LIG d   1       4.675   1.734  -2.544  0.00  0.00     0.025 H 
ENDBRANCH  24  30
ENDBRANCH  21  24
ENDBRANCH   1  20
BRANCH  15  34
ATOM     34  O   LIG d   1       3.982  -5.907  -6.157  0.00  0.00    -0.491 OA
BRANCH  34  35
ATOM     35  C   LIG d   1       5.272  -6.468  -5.901  0.00  0.00     0.079 C 
ATOM     36  H   LIG d   1       5.668  -6.900  -6.821  0.00  0.00     0.066 H 
ATOM     37  H   LIG d   1       5.944  -5.686  -5.549  0.00  0.00     0.066 H 
ATOM     38  H   LIG d   1       5.187  -7.245  -5.142  0.00  0.00     0.066 H 
ENDBRANCH  34  35
ENDBRANCH  15  34
BRANCH  14  39
ATOM     39  O   LIG d   1       3.266  -7.272  -8.437  0.00  0.00    -0.491 OA
BRANCH  39  40
ATOM     40  C   LIG d   1       3.049  -7.937  -9.682  0.00  0.00     0.079 C 
ATOM     41  H   LIG d   1       2.829  -8.989  -9.499  0.00  0.00     0.066 H 
ATOM     42  H   LIG d   1       2.207  -7.475 -10.200  0.00  0.00     0.066 H 
ATOM     43  H   LIG d   1       3.943  -7.856 -10.299  0.00  0.00     0.066 H 
ENDBRANCH  39  40
ENDBRANCH  14  39
TORSDOF 8
ENDMDL
MODEL 2
REMARK VINA RESULT:      -5.0     10.959     12.803
REMARK  8 active torsions:
REMARK  status: ('A' for Active; 'I' for Inactive)
REMARK    1  A    between atoms: C_1  and  C_2 
REMARK    2  A    between atoms: C_2  and  C_3 
REMARK    3  A    between atoms: C_2  and  N_4 
REMARK       I    between atoms: N_4  and  C_5 
REMARK    4  A    between atoms: C_5  and  C_7 
REMARK    5  A    between atoms: C_20  and  O_24 
REMARK    6  A    between atoms: C_21  and  O_22 
REMARK    7  A    between atoms: O_22  and  C_23 
REMARK    8  A    between atoms: O_24  and  C_25 
ROOT
ATOM      1  C   LIG d   1      10.426   4.328  -2.495  0.00  0.00     0.113 C 
ATOM      2  H   LIG d   1       9.563   3.827  -2.057  0.00  0.00     0.060 H 
ATOM      3  C   LIG d   1      11.314   3.268  -3.192  0.00  0.00     0.023 C 
ATOM      4  S   LIG d   1      11.126   3.737  -4.969  0.00  0.00    -0.131 SA
ATOM      5  C   LIG d   1       9.644   4.810  -4.755  0.00  0.00     0.100 C 
ATOM      6  H   LIG d   1       8.705   4.258  -4.802  0.00  0.00     0.067 H 
ATOM      7  N   LIG d   1       9.929   5.375  -3.405  0.00  0.00    -0.269 N 
ATOM      8  C   LIG d   1       9.720   6.704  -3.492  0.00  0.00     0.252 C 
ATOM      9  O   LIG d   1       9.578   7.450  -2.542  0.00  0.00    -0.270 OA
ATOM     10  C   LIG d   1       9.689   7.123  -4.904  0.00  0.00     0.088 A 
ATOM     11  C   LIG d   1       9.687   5.971  -5.702  0.00  0.00    -0.001 A 
ATOM     12  C   LIG d   1       9.697   6.079  -7.072  0.00  0.00    -0.052 A 
ATOM     13  C   LIG d   1       9.681   7.327  -7.675  0.00  0.00    -0.016 A 
ATOM     14  C   LIG d   1       9.666   8.475  -6.902  0.00  0.00     0.162 A 
ATOM     15  C   LIG d   1       9.669   8.382  -5.514  0.00  0.00     0.174 A 
ATOM     16  H   LIG d   1      10.937   2.262  -3.012  0.00  0.00     0.040 H 
ATOM     17  H   LIG d   1      12.352   3.358  -2.873  0.00  0.00     0.040 H 
ATOM     18  H   LIG d   1       9.712   5.187  -7.682  0.00  0.00     0.062 H 
ATOM     19  H   LIG d   1       9.683   7.404  -8.753  0.00  0.00     0.066 H 
ENDROOT
BRANCH   1  20
ATOM     20  C   LIG d   1      11.221   4.976  -1.392  0.00  0.00     0.235 C 
ATOM     21  N   LIG d   1      10.588   5.486  -0.316  0.00  0.00    -0.311 N 
ATOM     22  H   LIG d   1       9.622   5.436  -0.252  0.00  0.00     0.149 HD
ATOM     23  O   LIG d   1      12.429   5.039  -1.470  0.00  0.00    -0.274 OA
BRANCH  21  24
ATOM     24  C   LIG d   1      11.361   6.117   0.757  0.00  0.00     0.018 C 
ATOM     25  H   LIG d   1      12.418   5.881   0.631  0.00  0.00     0.049 H 
BRANCH  24  26
ATOM     26  C   LIG d   1      11.168   7.633   0.702  0.00  0.00    -0.047 C 
ATOM     27  H   LIG d   1      10.124   7.874   0.900  0.00  0.00     0.025 H 
ATOM     28  H   LIG d   1      11.799   8.108   1.454  0.00  0.00     0.025 H 
ATOM     29  H   LIG d   1      11.444   7.999  -0.287  0.00  0.00     0.025 H 
ENDBRANCH  24  26
BRANCH  24  30
ATOM     30  C   LIG d   1      10.879   5.590   2.111  0.00  0.00    -0.047 C 
ATOM     31  H   LIG d   1      10.052   4.898   1.957  0.00  0.00     0.025 H 
ATOM     32  H   LIG d   1      11.697   5.074   2.612  0.00  0.00     0.025 H 
ATOM     33  H   LIG d   1      10.543   6.425   2.726  0.00  0.00     0.025 H 
ENDBRANCH  24  30
ENDBRANCH  21  24
ENDBRANCH   1  20
BRANCH  15  34
ATOM     34  O   LIG d   1       9.652   9.507  -4.756  0.00  0.00    -0.491 OA
BRANCH  34  35
ATOM     35  C   LIG d   1      10.917  10.054  -4.377  0.00  0.00     0.079 C 
ATOM     36  H   LIG d   1      11.717   9.451  -4.808  0.00  0.00     0.066 H 
ATOM     37  H   LIG d   1      10.995  11.077  -4.745  0.00  0.00     0.066 H 
ATOM     38  H   LIG d   1      11.003  10.050  -3.291  0.00  0.00     0.066 H 
ENDBRANCH  34  35
ENDBRANCH  15  34
BRANCH  14  39
ATOM     39  O   LIG d   1       9.646   9.696  -7.501  0.00  0.00    -0.491 OA
BRANCH  39  40
ATOM     40  C   LIG d   1      10.866  10.152  -8.089  0.00  0.00     0.079 C 
ATOM     41  H   LIG d   1      10.674  11.055  -8.671  0.00  0.00     0.066 H 
ATOM     42  H   LIG d   1      11.588  10.374  -7.302  0.00  0.00     0.066 H 
ATOM     43  H   LIG d   1      11.267   9.378  -8.742  0.00  0.00     0.066 H 
ENDBRANCH  39  40
ENDBRANCH  14  39
TORSDOF 8
ENDMDL
MODEL 3
REMARK VINA RESULT:      -4.9      2.623      6.605
REMARK  8 active torsions:
REMARK  status: ('A' for Active; 'I' for Inactive)
REMARK    1  A    between atoms: C_1  and  C_2 
REMARK    2  A    between atoms: C_2  and  C_3 
REMARK    3  A    between atoms: C_2  and  N_4 
REMARK       I    between atoms: N_4  and  C_5 
REMARK    4  A    between atoms: C_5  and  C_7 
REMARK    5  A    between atoms: C_20  and  O_24 
REMARK    6  A    between atoms: C_21  and  O_22 
REMARK    7  A    between atoms: O_22  and  C_23 
REMARK    8  A    between atoms: O_24  and  C_25 
ROOT
ATOM      1  C   LIG d   1       4.987  -3.852  -8.395  0.00  0.00     0.113 C 
ATOM      2  H   LIG d   1       6.011  -3.959  -8.752  0.00  0.00     0.060 H 
ATOM      3  C   LIG d   1       4.415  -5.260  -8.097  0.00  0.00     0.023 C 
ATOM      4  S   LIG d   1       4.229  -5.203  -6.260  0.00  0.00    -0.131 SA
ATOM      5  C   LIG d   1       5.297  -3.729  -5.979  0.00  0.00     0.100 C 
ATOM      6  H   LIG d   1       6.351  -3.979  -5.863  0.00  0.00     0.067 H 
ATOM      7  N   LIG d   1       5.006  -2.960  -7.223  0.00  0.00    -0.269 N 
ATOM      8  C   LIG d   1       4.760  -1.690  -6.842  0.00  0.00     0.252 C 
ATOM      9  O   LIG d   1       4.763  -0.728  -7.586  0.00  0.00    -0.270 OA
ATOM     10  C   LIG d   1       4.486  -1.636  -5.396  0.00  0.00     0.088 A 
ATOM     11  C   LIG d   1       4.767  -2.896  -4.850  0.00  0.00    -0.001 A 
ATOM     12  C   LIG d   1       4.561  -3.132  -3.512  0.00  0.00    -0.052 A 
ATOM     13  C   LIG d   1       4.099  -2.119  -2.687  0.00  0.00    -0.016 A 
ATOM     14  C   LIG d   1       3.831  -0.863  -3.206  0.00  0.00     0.162 A 
ATOM     15  C   LIG d   1       4.024  -0.613  -4.561  0.00  0.00     0.174 A 
ATOM     16  H   LIG d   1       5.116  -6.038  -8.394  0.00  0.00     0.040 H 
ATOM     17  H   LIG d   1       3.449  -5.400  -8.582  0.00  0.00     0.040 H 
ATOM     18  H   LIG d   1       4.764  -4.110  -3.101  0.00  0.00     0.062 H 
ATOM     19  H   LIG d   1       3.944  -2.310  -1.635  0.00  0.00     0.066 H 
ENDROOT
BRANCH   1  20
ATOM     20  C   LIG d   1       4.161  -3.214  -9.482  0.00  0.00     0.235 C 
ATOM     21  N   LIG d   1       2.867  -2.911  -9.256  0.00  0.00    -0.311 N 
ATOM     22  H   LIG d   1       2.468  -3.103  -8.393  0.00  0.00     0.149 HD
ATOM     23  O   LIG d   1       4.660  -2.973 -10.561  0.00  0.00    -0.274 OA
BRANCH  21  24
ATOM     24  C   LIG d   1       2.064  -2.291 -10.313  0.00  0.00     0.018 C 
ATOM     25  H   LIG d   1       2.685  -2.136 -11.196  0.00  0.00     0.049 H 
BRANCH  24  26
ATOM     26  C   LIG d   1       0.893  -3.208 -10.667  0.00  0.00    -0.047 C 
ATOM     27  H   LIG d   1       1.090  -4.211 -10.291  0.00  0.00     0.025 H 
ATOM     28  H   LIG d   1      -0.021  -2.824 -10.213  0.00  0.00     0.025 H 
ATOM     29  H   LIG d   1       0.772  -3.243 -11.750  0.00  0.00     0.025 H 
ENDBRANCH  24  26
BRANCH  24  30
ATOM     30  C   LIG d   1       1.528  -0.944  -9.822  0.00  0.00    -0.047 C 
ATOM     31  H   LIG d   1       0.485  -1.054  -9.529  0.00  0.00     0.025 H 
ATOM     32  H   LIG d   1       2.114  -0.610  -8.967  0.00  0.00     0.025 H 
ATOM     33  H   LIG d   1       1.603  -0.210 -10.624  0.00  0.00     0.025 H 
ENDBRANCH  24  30
ENDBRANCH  21  24
ENDBRANCH   1  20
BRANCH  15  34
ATOM     34  O   LIG d   1       3.765   0.618  -5.070  0.00  0.00    -0.491 OA
BRANCH  34  35
ATOM     35  C   LIG d   1       2.416   0.888  -5.460  0.00  0.00     0.079 C 
ATOM     36  H   LIG d   1       1.927   1.483  -4.687  0.00  0.00     0.066 H 
ATOM     37  H   LIG d   1       2.413   1.441  -6.398  0.00  0.00     0.066 H 
ATOM     38  H   LIG d   1       1.880  -0.052  -5.589  0.00  0.00     0.066 H 
ENDBRANCH  34  35
ENDBRANCH  15  34
BRANCH  14  39
ATOM     39  O   LIG d   1       3.384   0.128  -2.389  0.00  0.00    -0.491 OA
BRANCH  39  40
ATOM     40  C   LIG d   1       4.372   0.927  -1.736  0.00  0.00     0.079 C 
ATOM     41  H   LIG d   1       5.148   1.202  -2.452  0.00  0.00     0.066 H 
ATOM     42  H   LIG d   1       3.906   1.831  -1.342  0.00  0.00     0.066 H 
ATOM     43  H   LIG d   1       4.816   0.361  -0.918  0.00  0.00     0.066 H 
ENDBRANCH  39  40
ENDBRANCH  14  39
TORSDOF 8
ENDMDL
MODEL 4
REMARK VINA RESULT:      -4.9     12.285     14.418
REMARK  8 active torsions:
REMARK  status: ('A' for Active; 'I' for Inactive)
REMARK    1  A    between atoms: C_1  and  C_2 
REMARK    2  A    between atoms: C_2  and  C_3 
REMARK    3  A    between atoms: C_2  and  N_4 
REMARK       I    between atoms: N_4  and  C_5 
REMARK    4  A    between atoms: C_5  and  C_7 
REMARK    5  A    between atoms: C_20  and  O_24 
REMARK    6  A    between atoms: C_21  and  O_22 
REMARK    7  A    between atoms: O_22  and  C_23 
REMARK    8  A    between atoms: O_24  and  C_25 
ROOT
ATOM      1  C   LIG d   1      10.817   6.957   0.173  0.00  0.00     0.113 C 
ATOM      2  H   LIG d   1       9.996   6.879   0.885  0.00  0.00     0.060 H 
ATOM      3  C   LIG d   1      11.485   5.568   0.029  0.00  0.00     0.023 C 
ATOM      4  S   LIG d   1      11.054   5.127  -1.712  0.00  0.00    -0.131 SA
ATOM      5  C   LIG d   1       9.725   6.384  -1.932  0.00  0.00     0.100 C 
ATOM      6  H   LIG d   1       8.746   6.035  -1.602  0.00  0.00     0.067 H 
ATOM      7  N   LIG d   1      10.273   7.486  -1.090  0.00  0.00    -0.269 N 
ATOM      8  C   LIG d   1      10.170   8.616  -1.820  0.00  0.00     0.252 C 
ATOM      9  O   LIG d   1      10.249   9.743  -1.371  0.00  0.00    -0.270 OA
ATOM     10  C   LIG d   1       9.947   8.287  -3.238  0.00  0.00     0.088 A 
ATOM     11  C   LIG d   1       9.716   6.908  -3.337  0.00  0.00    -0.001 A 
ATOM     12  C   LIG d   1       9.513   6.327  -4.565  0.00  0.00    -0.052 A 
ATOM     13  C   LIG d   1       9.509   7.102  -5.714  0.00  0.00    -0.016 A 
ATOM     14  C   LIG d   1       9.720   8.469  -5.633  0.00  0.00     0.162 A 
ATOM     15  C   LIG d   1       9.939   9.069  -4.398  0.00  0.00     0.174 A 
ATOM     16  H   LIG d   1      11.056   4.853   0.730  0.00  0.00     0.040 H 
ATOM     17  H   LIG d   1      12.565   5.638   0.157  0.00  0.00     0.040 H 
ATOM     18  H   LIG d   1       9.352   5.261  -4.636  0.00  0.00     0.062 H 
ATOM     19  H   LIG d   1       9.344   6.640  -6.676  0.00  0.00     0.066 H 
ENDROOT
BRANCH   1  20
ATOM     20  C   LIG d   1      11.833   7.930   0.712  0.00  0.00     0.235 C 
ATOM     21  N   LIG d   1      11.436   8.958   1.488  0.00  0.00    -0.311 N 
ATOM     22  H   LIG d   1      10.497   9.072   1.699  0.00  0.00     0.149 HD
ATOM     23  O   LIG d   1      13.009   7.788   0.450  0.00  0.00    -0.274 OA
BRANCH  21  24
ATOM     24  C   LIG d   1      12.425   9.904   2.013  0.00  0.00     0.018 C 
ATOM     25  H   LIG d   1      13.402   9.684   1.582  0.00  0.00     0.049 H 
BRANCH  24  26
ATOM     26  C   LIG d   1      12.013  11.330   1.642  0.00  0.00    -0.047 C 
ATOM     27  H   LIG d   1      12.898  11.903   1.367  0.00  0.00     0.025 H 
ATOM     28  H   LIG d   1      11.323  11.302   0.799  0.00  0.00     0.025 H 
ATOM     29  H   LIG d   1      11.525  11.801   2.495  0.00  0.00     0.025 H 
ENDBRANCH  24  26
BRANCH  24  30
ATOM     30  C   LIG d   1      12.497   9.774   3.536  0.00  0.00    -0.047 C 
ATOM     31  H   LIG d   1      11.729  10.399   3.990  0.00  0.00     0.025 H 
ATOM     32  H   LIG d   1      12.336   8.735   3.819  0.00  0.00     0.025 H 
ATOM     33  H   LIG d   1      13.479  10.097   3.882  0.00  0.00     0.025 H 
ENDBRANCH  24  30
ENDBRANCH  21  24
ENDBRANCH   1  20
BRANCH  15  34
ATOM     34  O   LIG d   1      10.143  10.409  -4.318  0.00  0.00    -0.491 OA
BRANCH  34  35
ATOM     35  C   LIG d   1       8.982  11.237  -4.214  0.00  0.00     0.079 C 
ATOM     36  H   LIG d   1       9.094  11.913  -3.365  0.00  0.00     0.066 H 
ATOM     37  H   LIG d   1       8.868  11.818  -5.128  0.00  0.00     0.066 H 
ATOM     38  H   LIG d   1       8.102  10.612  -4.067  0.00  0.00     0.066 H 
ENDBRANCH  34  35
ENDBRANCH  15  34
BRANCH  14  39
ATOM     39  O   LIG d   1       9.710   9.225  -6.764  0.00  0.00    -0.491 OA
BRANCH  39  40
ATOM     40  C   LIG d   1       9.144   8.633  -7.935  0.00  0.00     0.079 C 
ATOM     41  H   LIG d   1       9.931   8.461  -8.671  0.00  0.00     0.066 H 
ATOM     42  H   LIG d   1       8.678   7.683  -7.674  0.00  0.00     0.066 H 
ATOM     43  H   LIG d   1       8.395   9.302  -8.356  0.00  0.00     0.066 H 
ENDBRANCH  39  40
ENDBRANCH  14  39
TORSDOF 8
ENDMDL
MODEL 5
REMARK VINA RESULT:      -4.9      3.870      6.591
REMARK  8 active torsions:
REMARK  status: ('A' for Active; 'I' for Inactive)
REMARK    1  A    between atoms: C_1  and  C_2 
REMARK    2  A    between atoms: C_2  and  C_3 
REMARK    3  A    between atoms: C_2  and  N_4 
REMARK       I    between atoms: N_4  and  C_5 
REMARK    4  A    between atoms: C_5  and  C_7 
REMARK    5  A    between atoms: C_20  and  O_24 
REMARK    6  A    between atoms: C_21  and  O_22 
REMARK    7  A    between atoms: O_22  and  C_23 
REMARK    8  A    between atoms: O_24  and  C_25 
ROOT
ATOM      1  C   LIG d   1       4.441   0.265  -9.786  0.00  0.00     0.113 C 
ATOM      2  H   LIG d   1       4.014  -0.500 -10.434  0.00  0.00     0.060 H 
ATOM      3  C   LIG d   1       3.718   1.607 -10.057  0.00  0.00     0.023 C 
ATOM      4  S   LIG d   1       2.820   1.872  -8.465  0.00  0.00    -0.131 SA
ATOM      5  C   LIG d   1       2.986   0.150  -7.832  0.00  0.00     0.100 C 
ATOM      6  H   LIG d   1       2.188  -0.510  -8.170  0.00  0.00     0.067 H 
ATOM      7  N   LIG d   1       4.322  -0.202  -8.393  0.00  0.00    -0.269 N 
ATOM      8  C   LIG d   1       5.027  -0.761  -7.389  0.00  0.00     0.252 C 
ATOM      9  O   LIG d   1       6.038  -1.421  -7.533  0.00  0.00    -0.270 OA
ATOM     10  C   LIG d   1       4.395  -0.458  -6.094  0.00  0.00     0.088 A 
ATOM     11  C   LIG d   1       3.155   0.146  -6.341  0.00  0.00    -0.001 A 
ATOM     12  C   LIG d   1       2.369   0.566  -5.296  0.00  0.00    -0.052 A 
ATOM     13  C   LIG d   1       2.783   0.371  -3.987  0.00  0.00    -0.016 A 
ATOM     14  C   LIG d   1       3.998  -0.239  -3.724  0.00  0.00     0.162 A 
ATOM     15  C   LIG d   1       4.810  -0.658  -4.773  0.00  0.00     0.174 A 
ATOM     16  H   LIG d   1       3.019   1.514 -10.888  0.00  0.00     0.040 H 
ATOM     17  H   LIG d   1       4.434   2.408 -10.238  0.00  0.00     0.040 H 
ATOM     18  H   LIG d   1       1.421   1.046  -5.494  0.00  0.00     0.062 H 
ATOM     19  H   LIG d   1       2.157   0.699  -3.170  0.00  0.00     0.066 H 
ENDROOT
BRANCH   1  20
ATOM     20  C   LIG d   1       5.901   0.425 -10.124  0.00  0.00     0.235 C 
ATOM     21  N   LIG d   1       6.579  -0.597 -10.683  0.00  0.00    -0.311 N 
ATOM     22  H   LIG d   1       6.127  -1.435 -10.868  0.00  0.00     0.149 HD
ATOM     23  O   LIG d   1       6.466   1.473  -9.894  0.00  0.00    -0.274 OA
BRANCH  21  24
ATOM     24  C   LIG d   1       7.998  -0.441 -11.012  0.00  0.00     0.018 C 
ATOM     25  H   LIG d   1       8.296   0.596 -10.855  0.00  0.00     0.049 H 
BRANCH  24  26
ATOM     26  C   LIG d   1       8.833  -1.352 -10.111  0.00  0.00    -0.047 C 
ATOM     27  H   LIG d   1       8.805  -2.371 -10.498  0.00  0.00     0.025 H 
ATOM     28  H   LIG d   1       9.864  -1.000 -10.092  0.00  0.00     0.025 H 
ATOM     29  H   LIG d   1       8.426  -1.337  -9.100  0.00  0.00     0.025 H 
ENDBRANCH  24  26
BRANCH  24  30
ATOM     30  C   LIG d   1       8.228  -0.823 -12.476  0.00  0.00    -0.047 C 
ATOM     31  H   LIG d   1       9.277  -1.077 -12.625  0.00  0.00     0.025 H 
ATOM     32  H   LIG d   1       7.606  -1.681 -12.729  0.00  0.00     0.025 H 
ATOM     33  H   LIG d   1       7.965   0.019 -13.116  0.00  0.00     0.025 H 
ENDBRANCH  24  30
ENDBRANCH  21  24
ENDBRANCH   1  20
BRANCH  15  34
ATOM     34  O   LIG d   1       6.000  -1.258  -4.515  0.00  0.00    -0.491 OA
BRANCH  34  35
ATOM     35  C   LIG d   1       7.134  -0.405  -4.344  0.00  0.00     0.079 C 
ATOM     36  H   LIG d   1       7.798  -0.831  -3.592  0.00  0.00     0.066 H 
ATOM     37  H   LIG d   1       7.667  -0.315  -5.290  0.00  0.00     0.066 H 
ATOM     38  H   LIG d   1       6.801   0.580  -4.018  0.00  0.00     0.066 H 
ENDBRANCH  34  35
ENDBRANCH  15  34
BRANCH  14  39
ATOM     39  O   LIG d   1       4.395  -0.431  -2.437  0.00  0.00    -0.491 OA
BRANCH  39  40
ATOM     40  C   LIG d   1       4.635   0.737  -1.650  0.00  0.00     0.079 C 
ATOM     41  H   LIG d   1       5.653   0.708  -1.258  0.00  0.00     0.066 H 
ATOM     42  H   LIG d   1       4.511   1.625  -2.270  0.00  0.00     0.066 H 
ATOM     43  H   LIG d   1       3.929   0.769  -0.822  0.00  0.00     0.066 H 
ENDBRANCH  39  40
ENDBRANCH  14  39
TORSDOF 8
ENDMDL
MODEL 6
REMARK VINA RESULT:      -4.7      6.221      8.978
REMARK  8 active torsions:
REMARK  status: ('A' for Active; 'I' for Inactive)
REMARK    1  A    between atoms: C_1  and  C_2 
REMARK    2  A    between atoms: C_2  and  C_3 
REMARK    3  A    between atoms: C_2  and  N_4 
REMARK       I    between atoms: N_4  and  C_5 
REMARK    4  A    between atoms: C_5  and  C_7 
REMARK    5  A    between atoms: C_20  and  O_24 
REMARK    6  A    between atoms: C_21  and  O_22 
REMARK    7  A    between atoms: O_22  and  C_23 
REMARK    8  A    between atoms: O_24  and  C_25 
ROOT
ATOM      1  C   LIG d   1       7.324  -0.656  -5.224  0.00  0.00     0.113 C 
ATOM      2  H   LIG d   1       6.594  -0.316  -5.959  0.00  0.00     0.060 H 
ATOM      3  C   LIG d   1       7.953  -1.979  -5.725  0.00  0.00     0.023 C 
ATOM      4  S   LIG d   1       9.695  -1.461  -6.054  0.00  0.00    -0.131 SA
ATOM      5  C   LIG d   1       9.386   0.356  -6.044  0.00  0.00     0.100 C 
ATOM      6  H   LIG d   1       9.087   0.745  -7.018  0.00  0.00     0.067 H 
ATOM      7  N   LIG d   1       8.303   0.426  -5.022  0.00  0.00    -0.269 N 
ATOM      8  C   LIG d   1       8.634   1.423  -4.177  0.00  0.00     0.252 C 
ATOM      9  O   LIG d   1       7.870   1.957  -3.397  0.00  0.00    -0.270 OA
ATOM     10  C   LIG d   1      10.057   1.772  -4.336  0.00  0.00     0.088 A 
ATOM     11  C   LIG d   1      10.553   1.090  -5.455  0.00  0.00    -0.001 A 
ATOM     12  C   LIG d   1      11.875   1.211  -5.809  0.00  0.00    -0.052 A 
ATOM     13  C   LIG d   1      12.722   2.030  -5.079  0.00  0.00    -0.016 A 
ATOM     14  C   LIG d   1      12.245   2.724  -3.980  0.00  0.00     0.162 A 
ATOM     15  C   LIG d   1      10.912   2.602  -3.602  0.00  0.00     0.174 A 
ATOM     16  H   LIG d   1       7.469  -2.322  -6.638  0.00  0.00     0.040 H 
ATOM     17  H   LIG d   1       7.914  -2.747  -4.952  0.00  0.00     0.040 H 
ATOM     18  H   LIG d   1      12.255   0.669  -6.663  0.00  0.00     0.062 H 
ATOM     19  H   LIG d   1      13.759   2.124  -5.365  0.00  0.00     0.066 H 
ENDROOT
BRANCH   1  20
ATOM     20  C   LIG d   1       6.611  -0.920  -3.923  0.00  0.00     0.235 C 
ATOM     21  N   LIG d   1       5.506  -0.217  -3.605  0.00  0.00    -0.311 N 
ATOM     22  H   LIG d   1       5.170   0.460  -4.214  0.00  0.00     0.149 HD
ATOM     23  O   LIG d   1       7.031  -1.766  -3.162  0.00  0.00    -0.274 OA
BRANCH  21  24
ATOM     24  C   LIG d   1       4.813  -0.473  -2.340  0.00  0.00     0.018 C 
ATOM     25  H   LIG d   1       5.483  -1.001  -1.660  0.00  0.00     0.049 H 
BRANCH  24  26
ATOM     26  C   LIG d   1       4.393   0.856  -1.710  0.00  0.00    -0.047 C 
ATOM     27  H   LIG d   1       4.995   1.662  -2.128  0.00  0.00     0.025 H 
ATOM     28  H   LIG d   1       3.340   1.042  -1.922  0.00  0.00     0.025 H 
ATOM     29  H   LIG d   1       4.543   0.811  -0.632  0.00  0.00     0.025 H 
ENDBRANCH  24  26
BRANCH  24  30
ATOM     30  C   LIG d   1       3.572  -1.329  -2.602  0.00  0.00    -0.047 C 
ATOM     31  H   LIG d   1       3.067  -1.534  -1.658  0.00  0.00     0.025 H 
ATOM     32  H   LIG d   1       2.896  -0.794  -3.268  0.00  0.00     0.025 H 
ATOM     33  H   LIG d   1       3.871  -2.269  -3.065  0.00  0.00     0.025 H 
ENDBRANCH  24  30
ENDBRANCH  21  24
ENDBRANCH   1  20
BRANCH  15  34
ATOM     34  O   LIG d   1      10.443   3.284  -2.527  0.00  0.00    -0.491 OA
BRANCH  34  35
ATOM     35  C   LIG d   1       9.976   4.616  -2.756  0.00  0.00     0.079 C 
ATOM     36  H   LIG d   1       9.022   4.580  -3.282  0.00  0.00     0.066 H 
ATOM     37  H   LIG d   1       9.845   5.124  -1.801  0.00  0.00     0.066 H 
ATOM     38  H   LIG d   1      10.704   5.156  -3.360  0.00  0.00     0.066 H 
ENDBRANCH  34  35
ENDBRANCH  15  34
BRANCH  14  39
ATOM     39  O   LIG d   1      13.081   3.530  -3.271  0.00  0.00    -0.491 OA
BRANCH  39  40
ATOM     40  C   LIG d   1      13.612   4.670  -3.948  0.00  0.00     0.079 C 
ATOM     41  H   LIG d   1      14.229   5.248  -3.258  0.00  0.00     0.066 H 
ATOM     42  H   LIG d   1      14.221   4.343  -4.791  0.00  0.00     0.066 H 
ATOM     43  H   LIG d   1      12.794   5.292  -4.310  0.00  0.00     0.066 H 
ENDBRANCH  39  40
ENDBRANCH  14  39
TORSDOF 8
ENDMDL
MODEL 7
REMARK VINA RESULT:      -4.6     12.179     15.355
REMARK  8 active torsions:
REMARK  status: ('A' for Active; 'I' for Inactive)
REMARK    1  A    between atoms: C_1  and  C_2 
REMARK    2  A    between atoms: C_2  and  C_3 
REMARK    3  A    between atoms: C_2  and  N_4 
REMARK       I    between atoms: N_4  and  C_5 
REMARK    4  A    between atoms: C_5  and  C_7 
REMARK    5  A    between atoms: C_20  and  O_24 
REMARK    6  A    between atoms: C_21  and  O_22 
REMARK    7  A    between atoms: O_22  and  C_23 
REMARK    8  A    between atoms: O_24  and  C_25 
ROOT
ATOM      1  C   LIG d   1      10.901  11.393   0.425  0.00  0.00     0.113 C 
ATOM      2  H   LIG d   1      10.206  11.789   1.165  0.00  0.00     0.060 H 
ATOM      3  C   LIG d   1      12.340  11.497   0.987  0.00  0.00     0.023 C 
ATOM      4  S   LIG d   1      12.783   9.717   1.206  0.00  0.00    -0.131 SA
ATOM      5  C   LIG d   1      11.070   9.051   1.084  0.00  0.00     0.100 C 
ATOM      6  H   LIG d   1      10.547   9.036   2.041  0.00  0.00     0.067 H 
ATOM      7  N   LIG d   1      10.488  10.014   0.107  0.00  0.00    -0.269 N 
ATOM      8  C   LIG d   1       9.838   9.280  -0.818  0.00  0.00     0.252 C 
ATOM      9  O   LIG d   1       9.015   9.716  -1.599  0.00  0.00    -0.270 OA
ATOM     10  C   LIG d   1      10.267   7.873  -0.744  0.00  0.00     0.088 A 
ATOM     11  C   LIG d   1      11.066   7.718   0.396  0.00  0.00    -0.001 A 
ATOM     12  C   LIG d   1      11.632   6.500   0.685  0.00  0.00    -0.052 A 
ATOM     13  C   LIG d   1      11.395   5.407  -0.136  0.00  0.00    -0.016 A 
ATOM     14  C   LIG d   1      10.596   5.538  -1.258  0.00  0.00     0.162 A 
ATOM     15  C   LIG d   1      10.026   6.769  -1.569  0.00  0.00     0.174 A 
ATOM     16  H   LIG d   1      12.350  12.021   1.942  0.00  0.00     0.040 H 
ATOM     17  H   LIG d   1      13.006  11.979   0.272  0.00  0.00     0.040 H 
ATOM     18  H   LIG d   1      12.260   6.391   1.557  0.00  0.00     0.062 H 
ATOM     19  H   LIG d   1      11.839   4.451   0.100  0.00  0.00     0.066 H 
ENDROOT
BRANCH   1  20
ATOM     20  C   LIG d   1      10.807  12.231  -0.823  0.00  0.00     0.235 C 
ATOM     21  N   LIG d   1       9.636  12.806  -1.163  0.00  0.00    -0.311 N 
ATOM     22  H   LIG d   1       8.854  12.680  -0.604  0.00  0.00     0.149 HD
ATOM     23  O   LIG d   1      11.785  12.390  -1.523  0.00  0.00    -0.274 OA
BRANCH  21  24
ATOM     24  C   LIG d   1       9.545  13.621  -2.377  0.00  0.00     0.018 C 
ATOM     25  H   LIG d   1      10.548  13.862  -2.729  0.00  0.00     0.049 H 
BRANCH  24  26
ATOM     26  C   LIG d   1       8.799  12.841  -3.460  0.00  0.00    -0.047 C 
ATOM     27  H   LIG d   1       9.286  11.878  -3.615  0.00  0.00     0.025 H 
ATOM     28  H   LIG d   1       7.767  12.678  -3.147  0.00  0.00     0.025 H 
ATOM     29  H   LIG d   1       8.810  13.408  -4.391  0.00  0.00     0.025 H 
ENDBRANCH  24  26
BRANCH  24  30
ATOM     30  C   LIG d   1       8.788  14.915  -2.067  0.00  0.00    -0.047 C 
ATOM     31  H   LIG d   1       9.250  15.743  -2.604  0.00  0.00     0.025 H 
ATOM     32  H   LIG d   1       7.750  14.812  -2.381  0.00  0.00     0.025 H 
ATOM     33  H   LIG d   1       8.827  15.111  -0.996  0.00  0.00     0.025 H 
ENDBRANCH  24  30
ENDBRANCH  21  24
ENDBRANCH   1  20
BRANCH  15  34
ATOM     34  O   LIG d   1       9.239   6.897  -2.668  0.00  0.00    -0.491 OA
BRANCH  34  35
ATOM     35  C   LIG d   1       9.891   7.220  -3.899  0.00  0.00     0.079 C 
ATOM     36  H   LIG d   1       9.954   6.327  -4.521  0.00  0.00     0.066 H 
ATOM     37  H   LIG d   1       9.320   7.987  -4.422  0.00  0.00     0.066 H 
ATOM     38  H   LIG d   1      10.894   7.591  -3.692  0.00  0.00     0.066 H 
ENDBRANCH  34  35
ENDBRANCH  15  34
BRANCH  14  39
ATOM     39  O   LIG d   1      10.364   4.461  -2.056  0.00  0.00    -0.491 OA
BRANCH  39  40
ATOM     40  C   LIG d   1      11.454   3.997  -2.854  0.00  0.00     0.079 C 
ATOM     41  H   LIG d   1      12.131   4.828  -3.062  0.00  0.00     0.066 H 
ATOM     42  H   LIG d   1      11.993   3.217  -2.315  0.00  0.00     0.066 H 
ATOM     43  H   LIG d   1      11.074   3.595  -3.792  0.00  0.00     0.066 H 
ENDBRANCH  39  40
ENDBRANCH  14  39
TORSDOF 8
ENDMDL
MODEL 8
REMARK VINA RESULT:      -4.6     10.215     14.513
REMARK  8 active torsions:
REMARK  status: ('A' for Active; 'I' for Inactive)
REMARK    1  A    between atoms: C_1  and  C_2 
REMARK    2  A    between atoms: C_2  and  C_3 
REMARK    3  A    between atoms: C_2  and  N_4 
REMARK       I    between atoms: N_4  and  C_5 
REMARK    4  A    between atoms: C_5  and  C_7 
REMARK    5  A    between atoms: C_20  and  O_24 
REMARK    6  A    between atoms: C_21  and  O_22 
REMARK    7  A    between atoms: O_22  and  C_23 
REMARK    8  A    between atoms: O_24  and  C_25 
ROOT
ATOM      1  C   LIG d   1       9.869   6.825  -3.931  0.00  0.00     0.113 C 
ATOM      2  H   LIG d   1       8.828   6.569  -4.129  0.00  0.00     0.060 H 
ATOM      3  C   LIG d   1      10.262   8.032  -4.817  0.00  0.00     0.023 C 
ATOM      4  S   LIG d   1      10.515   9.354  -3.553  0.00  0.00    -0.131 SA
ATOM      5  C   LIG d   1       9.658   8.495  -2.166  0.00  0.00     0.100 C 
ATOM      6  H   LIG d   1       8.584   8.682  -2.145  0.00  0.00     0.067 H 
ATOM      7  N   LIG d   1      10.006   7.082  -2.486  0.00  0.00    -0.269 N 
ATOM      8  C   LIG d   1      10.428   6.519  -1.336  0.00  0.00     0.252 C 
ATOM      9  O   LIG d   1      10.526   5.323  -1.142  0.00  0.00    -0.270 OA
ATOM     10  C   LIG d   1      10.754   7.562  -0.349  0.00  0.00     0.088 A 
ATOM     11  C   LIG d   1      10.329   8.796  -0.859  0.00  0.00    -0.001 A 
ATOM     12  C   LIG d   1      10.547   9.951  -0.148  0.00  0.00    -0.052 A 
ATOM     13  C   LIG d   1      11.164   9.903   1.092  0.00  0.00    -0.016 A 
ATOM     14  C   LIG d   1      11.576   8.690   1.619  0.00  0.00     0.162 A 
ATOM     15  C   LIG d   1      11.373   7.514   0.905  0.00  0.00     0.174 A 
ATOM     16  H   LIG d   1       9.456   8.294  -5.501  0.00  0.00     0.040 H 
ATOM     17  H   LIG d   1      11.185   7.833  -5.363  0.00  0.00     0.040 H 
ATOM     18  H   LIG d   1      10.232  10.901  -0.555  0.00  0.00     0.062 H 
ATOM     19  H   LIG d   1      11.327  10.814   1.649  0.00  0.00     0.066 H 
ENDROOT
BRANCH   1  20
ATOM     20  C   LIG d   1      10.735   5.649  -4.302  0.00  0.00     0.235 C 
ATOM     21  N   LIG d   1      10.261   4.394  -4.167  0.00  0.00    -0.311 N 
ATOM     22  H   LIG d   1       9.363   4.248  -3.831  0.00  0.00     0.149 HD
ATOM     23  O   LIG d   1      11.857   5.830  -4.723  0.00  0.00    -0.274 OA
BRANCH  21  24
ATOM     24  C   LIG d   1      11.103   3.250  -4.529  0.00  0.00     0.018 C 
ATOM     25  H   LIG d   1      12.084   3.607  -4.844  0.00  0.00     0.049 H 
BRANCH  24  26
ATOM     26  C   LIG d   1      11.260   2.330  -3.317  0.00  0.00    -0.047 C 
ATOM     27  H   LIG d   1      11.533   2.923  -2.444  0.00  0.00     0.025 H 
ATOM     28  H   LIG d   1      10.318   1.816  -3.126  0.00  0.00     0.025 H 
ATOM     29  H   LIG d   1      12.040   1.596  -3.516  0.00  0.00     0.025 H 
ENDBRANCH  24  26
BRANCH  24  30
ATOM     30  C   LIG d   1      10.448   2.477  -5.675  0.00  0.00    -0.047 C 
ATOM     31  H   LIG d   1       9.641   1.860  -5.282  0.00  0.00     0.025 H 
ATOM     32  H   LIG d   1      10.047   3.180  -6.405  0.00  0.00     0.025 H 
ATOM     33  H   LIG d   1      11.191   1.840  -6.154  0.00  0.00     0.025 H 
ENDBRANCH  24  30
ENDBRANCH  21  24
ENDBRANCH   1  20
BRANCH  15  34
ATOM     34  O   LIG d   1      11.774   6.325   1.422  0.00  0.00    -0.491 OA
BRANCH  34  35
ATOM     35  C   LIG d   1      10.843   5.634   2.258  0.00  0.00     0.079 C 
ATOM     36  H   LIG d   1      10.405   6.335   2.970  0.00  0.00     0.066 H 
ATOM     37  H   LIG d   1      10.054   5.202   1.643  0.00  0.00     0.066 H 
ATOM     38  H   LIG d   1      11.359   4.841   2.799  0.00  0.00     0.066 H 
ENDBRANCH  34  35
ENDBRANCH  15  34
BRANCH  14  39
ATOM     39  O   LIG d   1      12.176   8.650   2.839  0.00  0.00    -0.491 OA
BRANCH  39  40
ATOM     40  C   LIG d   1      12.576   9.898   3.408  0.00  0.00     0.079 C 
ATOM     41  H   LIG d   1      11.761  10.617   3.316  0.00  0.00     0.066 H 
ATOM     42  H   LIG d   1      12.818   9.757   4.462  0.00  0.00     0.066 H 
ATOM     43  H   LIG d   1      13.453  10.273   2.882  0.00  0.00     0.066 H 
ENDBRANCH  39  40
ENDBRANCH  14  39
TORSDOF 8
ENDMDL
MODEL 9
REMARK VINA RESULT:      -4.5      5.550      7.772
REMARK  8 active torsions:
REMARK  status: ('A' for Active; 'I' for Inactive)
REMARK    1  A    between atoms: C_1  and  C_2 
REMARK    2  A    between atoms: C_2  and  C_3 
REMARK    3  A    between atoms: C_2  and  N_4 
REMARK       I    between atoms: N_4  and  C_5 
REMARK    4  A    between atoms: C_5  and  C_7 
REMARK    5  A    between atoms: C_20  and  O_24 
REMARK    6  A    between atoms: C_21  and  O_22 
REMARK    7  A    between atoms: O_22  and  C_23 
REMARK    8  A    between atoms: O_24  and  C_25 
ROOT
ATOM      1  C   LIG d   1       6.251  -1.410  -5.831  0.00  0.00     0.113 C 
ATOM      2  H   LIG d   1       5.966  -1.546  -6.874  0.00  0.00     0.060 H 
ATOM      3  C   LIG d   1       6.296  -2.797  -5.143  0.00  0.00     0.023 C 
ATOM      4  S   LIG d   1       8.101  -2.981  -4.796  0.00  0.00    -0.131 SA
ATOM      5  C   LIG d   1       8.677  -1.647  -5.930  0.00  0.00     0.100 C 
ATOM      6  H   LIG d   1       8.839  -1.993  -6.951  0.00  0.00     0.067 H 
ATOM      7  N   LIG d   1       7.538  -0.693  -5.803  0.00  0.00    -0.269 N 
ATOM      8  C   LIG d   1       8.078   0.527  -5.607  0.00  0.00     0.252 C 
ATOM      9  O   LIG d   1       7.484   1.580  -5.741  0.00  0.00    -0.270 OA
ATOM     10  C   LIG d   1       9.490   0.401  -5.209  0.00  0.00     0.088 A 
ATOM     11  C   LIG d   1       9.869  -0.940  -5.356  0.00  0.00    -0.001 A 
ATOM     12  C   LIG d   1      11.138  -1.343  -5.016  0.00  0.00    -0.052 A 
ATOM     13  C   LIG d   1      12.062  -0.421  -4.549  0.00  0.00    -0.016 A 
ATOM     14  C   LIG d   1      11.710   0.912  -4.412  0.00  0.00     0.162 A 
ATOM     15  C   LIG d   1      10.425   1.331  -4.742  0.00  0.00     0.174 A 
ATOM     16  H   LIG d   1       5.946  -3.579  -5.815  0.00  0.00     0.040 H 
ATOM     17  H   LIG d   1       5.720  -2.793  -4.218  0.00  0.00     0.040 H 
ATOM     18  H   LIG d   1      11.418  -2.381  -5.116  0.00  0.00     0.062 H 
ATOM     19  H   LIG d   1      13.059  -0.743  -4.288  0.00  0.00     0.066 H 
ENDROOT
BRANCH   1  20
ATOM     20  C   LIG d   1       5.206  -0.565  -5.150  0.00  0.00     0.235 C 
ATOM     21  N   LIG d   1       5.055  -0.628  -3.812  0.00  0.00    -0.311 N 
ATOM     22  H   LIG d   1       5.620  -1.217  -3.287  0.00  0.00     0.149 HD
ATOM     23  O   LIG d   1       4.500   0.172  -5.805  0.00  0.00    -0.274 OA
BRANCH  21  24
ATOM     24  C   LIG d   1       4.038   0.193  -3.150  0.00  0.00     0.018 C 
ATOM     25  H   LIG d   1       3.788   1.043  -3.785  0.00  0.00     0.049 H 
BRANCH  24  26
ATOM     26  C   LIG d   1       2.784  -0.647  -2.905  0.00  0.00    -0.047 C 
ATOM     27  H   LIG d   1       3.065  -1.592  -2.440  0.00  0.00     0.025 H 
ATOM     28  H   LIG d   1       2.106  -0.106  -2.245  0.00  0.00     0.025 H 
ATOM     29  H   LIG d   1       2.287  -0.843  -3.854  0.00  0.00     0.025 H 
ENDBRANCH  24  26
BRANCH  24  30
ATOM     30  C   LIG d   1       4.583   0.699  -1.812  0.00  0.00    -0.047 C 
ATOM     31  H   LIG d   1       4.581  -0.115  -1.088  0.00  0.00     0.025 H 
ATOM     32  H   LIG d   1       5.601   1.063  -1.949  0.00  0.00     0.025 H 
ATOM     33  H   LIG d   1       3.953   1.510  -1.447  0.00  0.00     0.025 H 
ENDBRANCH  24  30
ENDBRANCH  21  24
ENDBRANCH   1  20
BRANCH  15  34
ATOM     34  O   LIG d   1      10.081   2.637  -4.611  0.00  0.00    -0.491 OA
BRANCH  34  35
ATOM     35  C   LIG d   1       9.569   3.050  -3.341  0.00  0.00     0.079 C 
ATOM     36  H   LIG d   1       9.960   2.394  -2.562  0.00  0.00     0.066 H 
ATOM     37  H   LIG d   1       9.878   4.075  -3.141  0.00  0.00     0.066 H 
ATOM     38  H   LIG d   1       8.481   2.993  -3.352  0.00  0.00     0.066 H 
ENDBRANCH  34  35
ENDBRANCH  15  34
BRANCH  14  39
ATOM     39  O   LIG d   1      12.623   1.812  -3.959  0.00  0.00    -0.491 OA
BRANCH  39  40
ATOM     40  C   LIG d   1      13.636   2.228  -4.877  0.00  0.00     0.079 C 
ATOM     41  H   LIG d   1      14.050   1.353  -5.382  0.00  0.00     0.066 H 
ATOM     42  H   LIG d   1      13.202   2.901  -5.617  0.00  0.00     0.066 H 
ATOM     43  H   LIG d   1      14.429   2.744  -4.336  0.00  0.00     0.066 H 
ENDBRANCH  39  40
ENDBRANCH  14  39
TORSDOF 8
ENDMDL
MODEL 10
REMARK VINA RESULT:      -4.4     11.946     13.451
REMARK  8 active torsions:
REMARK  status: ('A' for Active; 'I' for Inactive)
REMARK    1  A    between atoms: C_1  and  C_2 
REMARK    2  A    between atoms: C_2  and  C_3 
REMARK    3  A    between atoms: C_2  and  N_4 
REMARK       I    between atoms: N_4  and  C_5 
REMARK    4  A    between atoms: C_5  and  C_7 
REMARK    5  A    between atoms: C_20  and  O_24 
REMARK    6  A    between atoms: C_21  and  O_22 
REMARK    7  A    between atoms: O_22  and  C_23 
REMARK    8  A    between atoms: O_24  and  C_25 
ROOT
ATOM      1  C   LIG d   1       9.836   7.012  -3.481  0.00  0.00     0.113 C 
ATOM      2  H   LIG d   1       8.876   6.752  -3.033  0.00  0.00     0.060 H 
ATOM      3  C   LIG d   1      10.792   5.802  -3.342  0.00  0.00     0.023 C 
ATOM      4  S   LIG d   1      10.997   5.287  -5.104  0.00  0.00    -0.131 SA
ATOM      5  C   LIG d   1       9.559   6.225  -5.773  0.00  0.00     0.100 C 
ATOM      6  H   LIG d   1       8.623   5.669  -5.721  0.00  0.00     0.067 H 
ATOM      7  N   LIG d   1       9.590   7.416  -4.876  0.00  0.00    -0.269 N 
ATOM      8  C   LIG d   1       9.473   8.499  -5.670  0.00  0.00     0.252 C 
ATOM      9  O   LIG d   1       9.178   9.614  -5.286  0.00  0.00    -0.270 OA
ATOM     10  C   LIG d   1       9.753   8.137  -7.070  0.00  0.00     0.088 A 
ATOM     11  C   LIG d   1       9.856   6.742  -7.149  0.00  0.00    -0.001 A 
ATOM     12  C   LIG d   1      10.151   6.136  -8.347  0.00  0.00    -0.052 A 
ATOM     13  C   LIG d   1      10.324   6.899  -9.492  0.00  0.00    -0.016 A 
ATOM     14  C   LIG d   1      10.210   8.278  -9.435  0.00  0.00     0.162 A 
ATOM     15  C   LIG d   1       9.923   8.905  -8.227  0.00  0.00     0.174 A 
ATOM     16  H   LIG d   1      10.335   5.007  -2.754  0.00  0.00     0.040 H 
ATOM     17  H   LIG d   1      11.746   6.105  -2.911  0.00  0.00     0.040 H 
ATOM     18  H   LIG d   1      10.245   5.061  -8.397  0.00  0.00     0.062 H 
ATOM     19  H   LIG d   1      10.551   6.416 -10.431  0.00  0.00     0.066 H 
ENDROOT
BRANCH   1  20
ATOM     20  C   LIG d   1      10.419   8.179  -2.729  0.00  0.00     0.235 C 
ATOM     21  N   LIG d   1       9.608   9.130  -2.224  0.00  0.00    -0.311 N 
ATOM     22  H   LIG d   1       8.648   9.062  -2.345  0.00  0.00     0.149 HD
ATOM     23  O   LIG d   1      11.619   8.265  -2.577  0.00  0.00    -0.274 OA
BRANCH  21  24
ATOM     24  C   LIG d   1      10.176  10.266  -1.493  0.00  0.00     0.018 C 
ATOM     25  H   LIG d   1      11.263  10.188  -1.489  0.00  0.00     0.049 H 
BRANCH  24  26
ATOM     26  C   LIG d   1       9.762  11.570  -2.177  0.00  0.00    -0.047 C 
ATOM     27  H   LIG d   1      10.589  12.278  -2.139  0.00  0.00     0.025 H 
ATOM     28  H   LIG d   1       9.503  11.370  -3.216  0.00  0.00     0.025 H 
ATOM     29  H   LIG d   1       8.899  11.992  -1.663  0.00  0.00     0.025 H 
ENDBRANCH  24  26
BRANCH  24  30
ATOM     30  C   LIG d   1       9.657  10.257  -0.053  0.00  0.00    -0.047 C 
ATOM     31  H   LIG d   1       8.625   9.907  -0.042  0.00  0.00     0.025 H 
ATOM     32  H   LIG d   1      10.274   9.592   0.550  0.00  0.00     0.025 H 
ATOM     33  H   LIG d   1       9.702  11.266   0.355  0.00  0.00     0.025 H 
ENDBRANCH  24  30
ENDBRANCH  21  24
ENDBRANCH   1  20
BRANCH  15  34
ATOM     34  O   LIG d   1       9.809  10.256  -8.172  0.00  0.00    -0.491 OA
BRANCH  34  35
ATOM     35  C   LIG d   1      11.002  10.998  -7.905  0.00  0.00     0.079 C 
ATOM     36  H   LIG d   1      11.438  10.658  -6.965  0.00  0.00     0.066 H 
ATOM     37  H   LIG d   1      11.715  10.843  -8.714  0.00  0.00     0.066 H 
ATOM     38  H   LIG d   1      10.760  12.058  -7.831  0.00  0.00     0.066 H 
ENDBRANCH  34  35
ENDBRANCH  15  34
BRANCH  14  39
ATOM     39  O   LIG d   1      10.376   9.019 -10.563  0.00  0.00    -0.491 OA
BRANCH  39  40
ATOM     40  C   LIG d   1      10.182   8.353 -11.812  0.00  0.00     0.079 C 
ATOM     41  H   LIG d   1       9.792   9.060 -12.545  0.00  0.00     0.066 H 
ATOM     42  H   LIG d   1      11.135   7.955 -12.164  0.00  0.00     0.066 H 
ATOM     43  H   LIG d   1       9.473   7.536 -11.683  0.00  0.00     0.066 H 
ENDBRANCH  39  40
ENDBRANCH  14  39
TORSDOF 8
ENDMDL
