MODEL 1
REMARK VINA RESULT:      -6.8      0.000      0.000
REMARK  6 active torsions:
REMARK  status: ('A' for Active; 'I' for Inactive)
REMARK    1  A    between atoms: C_1  and  C_2 
REMARK    2  A    between atoms: C_2  and  C_3 
REMARK    3  A    between atoms: C_8  and  O_9 
REMARK    4  A    between atoms: O_9  and  C_10 
REMARK       I    between atoms: C_10  and  N_12 
REMARK    5  A    between atoms: C_19  and  C_33 
REMARK    6  A    between atoms: C_20  and  C_23 
ROOT
ATOM      1  C   LIG d   1       4.561  -4.324  -6.125  0.00  0.00    -0.004 A 
ATOM      2  C   LIG d   1       3.986  -4.469  -7.356  0.00  0.00    -0.041 A 
ATOM      3  C   LIG d   1       3.761  -3.346  -8.152  0.00  0.00     0.065 A 
ATOM      4  C   LIG d   1       4.122  -2.066  -7.694  0.00  0.00     0.142 A 
ATOM      5  C   LIG d   1       4.706  -1.937  -6.441  0.00  0.00     0.024 A 
ATOM      6  C   LIG d   1       4.922  -3.061  -5.663  0.00  0.00     0.140 A 
ATOM      7  O   LIG d   1       3.903  -0.983  -8.464  0.00  0.00    -0.459 OA
ATOM      8  C   LIG d   1       3.346  -1.044  -9.676  0.00  0.00     0.114 A 
ATOM      9  C   LIG d   1       2.948  -2.215 -10.239  0.00  0.00     0.067 A 
ATOM     10  C   LIG d   1       3.136  -3.463  -9.482  0.00  0.00     0.200 A 
ATOM     11  O   LIG d   1       2.794  -4.543  -9.934  0.00  0.00    -0.286 OA
ATOM     12  H   LIG d   1       3.706  -5.451  -7.711  0.00  0.00     0.063 H 
ATOM     13  H   LIG d   1       4.990  -0.962  -6.074  0.00  0.00     0.069 H 
ENDROOT
BRANCH   6  14
ATOM     14  O   LIG d   1       5.494  -2.931  -4.437  0.00  0.00    -0.411 OA
BRANCH  14  15
ATOM     15  C   LIG d   1       4.762  -2.325  -3.482  0.00  0.00     0.408 C 
ATOM     16  O   LIG d   1       3.675  -2.772  -3.175  0.00  0.00    -0.226 OA
ATOM     17  N   LIG d   1       5.236  -1.222  -2.869  0.00  0.00    -0.263 N 
ATOM     18  C   LIG d   1       4.455  -0.542  -1.823  0.00  0.00     0.041 C 
ATOM     19  C   LIG d   1       6.552  -0.666  -3.221  0.00  0.00     0.041 C 
ATOM     20  C   LIG d   1       4.387   0.951  -2.165  0.00  0.00     0.064 C 
ATOM     21  H   LIG d   1       3.448  -0.958  -1.789  0.00  0.00     0.049 H 
ATOM     22  H   LIG d   1       4.941  -0.676  -0.857  0.00  0.00     0.049 H 
ATOM     23  O   LIG d   1       5.710   1.443  -2.390  0.00  0.00    -0.377 OA
ATOM     24  H   LIG d   1       3.788   1.092  -3.065  0.00  0.00     0.058 H 
ATOM     25  H   LIG d   1       3.932   1.493  -1.336  0.00  0.00     0.058 H 
ATOM     26  C   LIG d   1       6.379   0.836  -3.498  0.00  0.00     0.064 C 
ATOM     27  H   LIG d   1       5.787   0.976  -4.403  0.00  0.00     0.058 H 
ATOM     28  H   LIG d   1       7.359   1.296  -3.628  0.00  0.00     0.058 H 
ATOM     29  H   LIG d   1       7.246  -0.812  -2.394  0.00  0.00     0.049 H 
ATOM     30  H   LIG d   1       6.935  -1.164  -4.113  0.00  0.00     0.049 H 
ENDBRANCH  14  15
ENDBRANCH   6  14
BRANCH   1  31
ATOM     31  C   LIG d   1       4.806  -5.536  -5.264  0.00  0.00    -0.027 C 
ATOM     32  H   LIG d   1       5.786  -5.458  -4.795  0.00  0.00     0.031 H 
ATOM     33  H   LIG d   1       4.038  -5.594  -4.492  0.00  0.00     0.031 H 
BRANCH  31  34
ATOM     34  C   LIG d   1       4.754  -6.796  -6.130  0.00  0.00    -0.061 C 
ATOM     35  H   LIG d   1       5.563  -6.768  -6.861  0.00  0.00     0.023 H 
ATOM     36  H   LIG d   1       4.868  -7.677  -5.498  0.00  0.00     0.023 H 
ATOM     37  H   LIG d   1       3.798  -6.842  -6.649  0.00  0.00     0.023 H 
ENDBRANCH  31  34
ENDBRANCH   1  31
BRANCH   8  38
ATOM     38  C   LIG d   1       3.148   0.235 -10.449  0.00  0.00    -0.006 C 
ATOM     39  H   LIG d   1       2.463   0.057 -11.278  0.00  0.00     0.031 H 
ATOM     40  H   LIG d   1       2.731   0.996  -9.790  0.00  0.00     0.031 H 
ATOM     41  H   LIG d   1       4.107   0.576 -10.838  0.00  0.00     0.031 H 
ENDBRANCH   8  38
BRANCH   9  42
ATOM     42  C   LIG d   1       2.334  -2.235 -11.589  0.00  0.00    -0.007 A 
ATOM     43  C   LIG d   1       0.951  -2.151 -11.728  0.00  0.00    -0.008 A 
ATOM     44  C   LIG d   1       0.379  -2.172 -12.990  0.00  0.00     0.163 A 
ATOM     45  H   LIG d   1       0.323  -2.072 -10.853  0.00  0.00     0.066 H 
ATOM     46  C   LIG d   1       1.189  -2.271 -14.117  0.00  0.00     0.162 A 
ATOM     47  O   LIG d   1      -0.974  -2.091 -13.109  0.00  0.00    -0.485 OA
ATOM     48  C   LIG d   1       2.568  -2.352 -13.977  0.00  0.00    -0.016 A 
ATOM     49  O   LIG d   1       0.645  -2.287 -15.366  0.00  0.00    -0.485 OA
ATOM     50  C   LIG d   1       3.140  -2.339 -12.721  0.00  0.00    -0.050 A 
ATOM     51  H   LIG d   1       3.193  -2.433 -14.853  0.00  0.00     0.066 H 
ATOM     52  H   LIG d   1       4.213  -2.404 -12.616  0.00  0.00     0.062 H 
ATOM     53  C   LIG d   1      -0.755  -2.576 -15.454  0.00  0.00     0.124 C 
ATOM     54  C   LIG d   1      -1.486  -1.736 -14.398  0.00  0.00     0.124 C 
ATOM     55  H   LIG d   1      -0.924  -3.636 -15.262  0.00  0.00     0.073 H 
ATOM     56  H   LIG d   1      -1.121  -2.319 -16.448  0.00  0.00     0.073 H 
ATOM     57  H   LIG d   1      -2.555  -1.945 -14.439  0.00  0.00     0.073 H 
ATOM     58  H   LIG d   1      -1.311  -0.677 -14.585  0.00  0.00     0.073 H 
ENDBRANCH   9  42
TORSDOF 6
ENDMDL
MODEL 2
REMARK VINA RESULT:      -6.7      5.627      7.728
REMARK  6 active torsions:
REMARK  status: ('A' for Active; 'I' for Inactive)
REMARK    1  A    between atoms: C_1  and  C_2 
REMARK    2  A    between atoms: C_2  and  C_3 
REMARK    3  A    between atoms: C_8  and  O_9 
REMARK    4  A    between atoms: O_9  and  C_10 
REMARK       I    between atoms: C_10  and  N_12 
REMARK    5  A    between atoms: C_19  and  C_33 
REMARK    6  A    between atoms: C_20  and  C_23 
ROOT
ATOM      1  C   LIG d   1       5.926  -0.005  -3.210  0.00  0.00    -0.004 A 
ATOM      2  C   LIG d   1       5.327  -1.191  -3.529  0.00  0.00    -0.041 A 
ATOM      3  C   LIG d   1       5.990  -2.103  -4.351  0.00  0.00     0.065 A 
ATOM      4  C   LIG d   1       7.270  -1.806  -4.853  0.00  0.00     0.142 A 
ATOM      5  C   LIG d   1       7.863  -0.596  -4.520  0.00  0.00     0.024 A 
ATOM      6  C   LIG d   1       7.192   0.297  -3.703  0.00  0.00     0.140 A 
ATOM      7  O   LIG d   1       7.908  -2.687  -5.648  0.00  0.00    -0.459 OA
ATOM      8  C   LIG d   1       7.388  -3.866  -6.003  0.00  0.00     0.114 A 
ATOM      9  C   LIG d   1       6.161  -4.277  -5.591  0.00  0.00     0.067 A 
ATOM     10  C   LIG d   1       5.372  -3.389  -4.721  0.00  0.00     0.200 A 
ATOM     11  O   LIG d   1       4.264  -3.703  -4.323  0.00  0.00    -0.286 OA
ATOM     12  H   LIG d   1       4.344  -1.422  -3.145  0.00  0.00     0.063 H 
ATOM     13  H   LIG d   1       8.846  -0.353  -4.897  0.00  0.00     0.069 H 
ENDROOT
BRANCH   6  14
ATOM     14  O   LIG d   1       7.776   1.480  -3.378  0.00  0.00    -0.411 OA
BRANCH  14  15
ATOM     15  C   LIG d   1       8.287   2.208  -4.390  0.00  0.00     0.408 C 
ATOM     16  O   LIG d   1       7.641   2.376  -5.404  0.00  0.00    -0.226 OA
ATOM     17  N   LIG d   1       9.517   2.749  -4.276  0.00  0.00    -0.263 N 
ATOM     18  C   LIG d   1      10.096   3.549  -5.368  0.00  0.00     0.041 C 
ATOM     19  C   LIG d   1      10.316   2.564  -3.055  0.00  0.00     0.041 C 
ATOM     20  C   LIG d   1      11.502   3.013  -5.665  0.00  0.00     0.064 C 
ATOM     21  H   LIG d   1       9.474   3.459  -6.258  0.00  0.00     0.049 H 
ATOM     22  H   LIG d   1      10.158   4.594  -5.065  0.00  0.00     0.049 H 
ATOM     23  O   LIG d   1      12.252   2.961  -4.449  0.00  0.00    -0.377 OA
ATOM     24  H   LIG d   1      11.428   2.012  -6.090  0.00  0.00     0.058 H 
ATOM     25  H   LIG d   1      12.000   3.675  -6.373  0.00  0.00     0.058 H 
ATOM     26  C   LIG d   1      11.713   2.073  -3.467  0.00  0.00     0.064 C 
ATOM     27  H   LIG d   1      11.640   1.069  -3.885  0.00  0.00     0.058 H 
ATOM     28  H   LIG d   1      12.365   2.058  -2.593  0.00  0.00     0.058 H 
ATOM     29  H   LIG d   1      10.399   3.512  -2.523  0.00  0.00     0.049 H 
ATOM     30  H   LIG d   1       9.839   1.824  -2.413  0.00  0.00     0.049 H 
ENDBRANCH  14  15
ENDBRANCH   6  14
BRANCH   1  31
ATOM     31  C   LIG d   1       5.212   0.981  -2.321  0.00  0.00    -0.027 C 
ATOM     32  H   LIG d   1       5.581   0.884  -1.301  0.00  0.00     0.031 H 
ATOM     33  H   LIG d   1       5.396   1.993  -2.680  0.00  0.00     0.031 H 
BRANCH  31  34
ATOM     34  C   LIG d   1       3.709   0.696  -2.348  0.00  0.00    -0.061 C 
ATOM     35  H   LIG d   1       3.305   0.778  -1.338  0.00  0.00     0.023 H 
ATOM     36  H   LIG d   1       3.213   1.419  -2.997  0.00  0.00     0.023 H 
ATOM     37  H   LIG d   1       3.536  -0.311  -2.726  0.00  0.00     0.023 H 
ENDBRANCH  31  34
ENDBRANCH   1  31
BRANCH   8  38
ATOM     38  C   LIG d   1       8.193  -4.772  -6.899  0.00  0.00    -0.006 C 
ATOM     39  H   LIG d   1       7.519  -5.400  -7.482  0.00  0.00     0.031 H 
ATOM     40  H   LIG d   1       8.802  -4.170  -7.573  0.00  0.00     0.031 H 
ATOM     41  H   LIG d   1       8.840  -5.403  -6.290  0.00  0.00     0.031 H 
ENDBRANCH   8  38
BRANCH   9  42
ATOM     42  C   LIG d   1       5.625  -5.595  -6.011  0.00  0.00    -0.007 A 
ATOM     43  C   LIG d   1       5.870  -6.727  -5.238  0.00  0.00    -0.008 A 
ATOM     44  C   LIG d   1       5.368  -7.957  -5.634  0.00  0.00     0.163 A 
ATOM     45  H   LIG d   1       6.451  -6.648  -4.332  0.00  0.00     0.066 H 
ATOM     46  C   LIG d   1       4.618  -8.057  -6.800  0.00  0.00     0.162 A 
ATOM     47  O   LIG d   1       5.618  -9.055  -4.870  0.00  0.00    -0.485 OA
ATOM     48  C   LIG d   1       4.372  -6.927  -7.568  0.00  0.00    -0.016 A 
ATOM     49  O   LIG d   1       4.112  -9.257  -7.202  0.00  0.00    -0.485 OA
ATOM     50  C   LIG d   1       4.875  -5.701  -7.181  0.00  0.00    -0.050 A 
ATOM     51  H   LIG d   1       3.791  -7.008  -8.475  0.00  0.00     0.066 H 
ATOM     52  H   LIG d   1       4.684  -4.825  -7.783  0.00  0.00     0.062 H 
ATOM     53  C   LIG d   1       4.685 -10.427  -6.609  0.00  0.00     0.124 C 
ATOM     54  C   LIG d   1       4.787 -10.198  -5.095  0.00  0.00     0.124 C 
ATOM     55  H   LIG d   1       5.679 -10.599  -7.022  0.00  0.00     0.073 H 
ATOM     56  H   LIG d   1       4.049 -11.289  -6.809  0.00  0.00     0.073 H 
ATOM     57  H   LIG d   1       5.229 -11.074  -4.620  0.00  0.00     0.073 H 
ATOM     58  H   LIG d   1       3.795 -10.019  -4.682  0.00  0.00     0.073 H 
ENDBRANCH   9  42
TORSDOF 6
ENDMDL
MODEL 3
REMARK VINA RESULT:      -6.6      5.194     10.478
REMARK  6 active torsions:
REMARK  status: ('A' for Active; 'I' for Inactive)
REMARK    1  A    between atoms: C_1  and  C_2 
REMARK    2  A    between atoms: C_2  and  C_3 
REMARK    3  A    between atoms: C_8  and  O_9 
REMARK    4  A    between atoms: O_9  and  C_10 
REMARK       I    between atoms: C_10  and  N_12 
REMARK    5  A    between atoms: C_19  and  C_33 
REMARK    6  A    between atoms: C_20  and  C_23 
ROOT
ATOM      1  C   LIG d   1       4.921  -1.753  -3.680  0.00  0.00    -0.004 A 
ATOM      2  C   LIG d   1       5.432  -0.504  -3.469  0.00  0.00    -0.041 A 
ATOM      3  C   LIG d   1       6.687  -0.173  -3.978  0.00  0.00     0.065 A 
ATOM      4  C   LIG d   1       7.430  -1.120  -4.708  0.00  0.00     0.142 A 
ATOM      5  C   LIG d   1       6.895  -2.385  -4.913  0.00  0.00     0.024 A 
ATOM      6  C   LIG d   1       5.648  -2.697  -4.401  0.00  0.00     0.140 A 
ATOM      7  O   LIG d   1       8.643  -0.800  -5.198  0.00  0.00    -0.459 OA
ATOM      8  C   LIG d   1       9.208   0.400  -5.033  0.00  0.00     0.114 A 
ATOM      9  C   LIG d   1       8.603   1.405  -4.349  0.00  0.00     0.067 A 
ATOM     10  C   LIG d   1       7.274   1.162  -3.764  0.00  0.00     0.200 A 
ATOM     11  O   LIG d   1       6.684   2.025  -3.136  0.00  0.00    -0.286 OA
ATOM     12  H   LIG d   1       4.864   0.226  -2.909  0.00  0.00     0.063 H 
ATOM     13  H   LIG d   1       7.452  -3.123  -5.471  0.00  0.00     0.069 H 
ENDROOT
BRANCH   6  14
ATOM     14  O   LIG d   1       5.128  -3.935  -4.604  0.00  0.00    -0.411 OA
BRANCH  14  15
ATOM     15  C   LIG d   1       4.855  -4.283  -5.877  0.00  0.00     0.408 C 
ATOM     16  O   LIG d   1       4.267  -3.509  -6.605  0.00  0.00    -0.226 OA
ATOM     17  N   LIG d   1       5.234  -5.490  -6.342  0.00  0.00    -0.263 N 
ATOM     18  C   LIG d   1       4.948  -5.891  -7.729  0.00  0.00     0.041 C 
ATOM     19  C   LIG d   1       5.953  -6.442  -5.480  0.00  0.00     0.041 C 
ATOM     20  C   LIG d   1       4.285  -7.273  -7.703  0.00  0.00     0.064 C 
ATOM     21  H   LIG d   1       4.273  -5.169  -8.188  0.00  0.00     0.049 H 
ATOM     22  H   LIG d   1       5.877  -5.940  -8.296  0.00  0.00     0.049 H 
ATOM     23  O   LIG d   1       5.093  -8.170  -6.937  0.00  0.00    -0.377 OA
ATOM     24  H   LIG d   1       3.297  -7.195  -7.249  0.00  0.00     0.058 H 
ATOM     25  H   LIG d   1       4.189  -7.649  -8.722  0.00  0.00     0.058 H 
ATOM     26  C   LIG d   1       5.236  -7.799  -5.563  0.00  0.00     0.064 C 
ATOM     27  H   LIG d   1       4.251  -7.722  -5.102  0.00  0.00     0.058 H 
ATOM     28  H   LIG d   1       5.826  -8.553  -5.042  0.00  0.00     0.058 H 
ATOM     29  H   LIG d   1       6.982  -6.545  -5.825  0.00  0.00     0.049 H 
ATOM     30  H   LIG d   1       5.946  -6.083  -4.451  0.00  0.00     0.049 H 
ENDBRANCH  14  15
ENDBRANCH   6  14
BRANCH   1  31
ATOM     31  C   LIG d   1       3.564  -2.111  -3.131  0.00  0.00    -0.027 C 
ATOM     32  H   LIG d   1       3.083  -2.832  -3.792  0.00  0.00     0.031 H 
ATOM     33  H   LIG d   1       3.677  -2.547  -2.139  0.00  0.00     0.031 H 
BRANCH  31  34
ATOM     34  C   LIG d   1       2.702  -0.851  -3.039  0.00  0.00    -0.061 C 
ATOM     35  H   LIG d   1       3.332   0.030  -3.164  0.00  0.00     0.023 H 
ATOM     36  H   LIG d   1       1.945  -0.870  -3.823  0.00  0.00     0.023 H 
ATOM     37  H   LIG d   1       2.216  -0.813  -2.065  0.00  0.00     0.023 H 
ENDBRANCH  31  34
ENDBRANCH   1  31
BRANCH   8  38
ATOM     38  C   LIG d   1      10.572   0.646  -5.626  0.00  0.00    -0.006 C 
ATOM     39  H   LIG d   1      11.158   1.265  -4.946  0.00  0.00     0.031 H 
ATOM     40  H   LIG d   1      11.079  -0.307  -5.778  0.00  0.00     0.031 H 
ATOM     41  H   LIG d   1      10.465   1.158  -6.581  0.00  0.00     0.031 H 
ENDBRANCH   8  38
BRANCH   9  42
ATOM     42  C   LIG d   1       9.269   2.720  -4.190  0.00  0.00    -0.007 A 
ATOM     43  C   LIG d   1       9.998   3.000  -3.037  0.00  0.00    -0.008 A 
ATOM     44  C   LIG d   1      10.618   4.231  -2.891  0.00  0.00     0.163 A 
ATOM     45  H   LIG d   1      10.079   2.259  -2.256  0.00  0.00     0.066 H 
ATOM     46  C   LIG d   1      10.515   5.183  -3.899  0.00  0.00     0.162 A 
ATOM     47  O   LIG d   1      11.325   4.489  -1.757  0.00  0.00    -0.485 OA
ATOM     48  C   LIG d   1       9.790   4.902  -5.049  0.00  0.00    -0.016 A 
ATOM     49  O   LIG d   1      11.123   6.396  -3.775  0.00  0.00    -0.485 OA
ATOM     50  C   LIG d   1       9.166   3.680  -5.196  0.00  0.00    -0.050 A 
ATOM     51  H   LIG d   1       9.710   5.645  -5.829  0.00  0.00     0.066 H 
ATOM     52  H   LIG d   1       8.601   3.466  -6.091  0.00  0.00     0.062 H 
ATOM     53  C   LIG d   1      11.529   6.780  -2.457  0.00  0.00     0.124 C 
ATOM     54  C   LIG d   1      12.242   5.586  -1.807  0.00  0.00     0.124 C 
ATOM     55  H   LIG d   1      10.654   7.051  -1.866  0.00  0.00     0.073 H 
ATOM     56  H   LIG d   1      12.211   7.629  -2.516  0.00  0.00     0.073 H 
ATOM     57  H   LIG d   1      12.555   5.851  -0.798  0.00  0.00     0.073 H 
ATOM     58  H   LIG d   1      13.113   5.311  -2.401  0.00  0.00     0.073 H 
ENDBRANCH   9  42
TORSDOF 6
ENDMDL
MODEL 4
REMARK VINA RESULT:      -6.4      2.352      4.043
REMARK  6 active torsions:
REMARK  status: ('A' for Active; 'I' for Inactive)
REMARK    1  A    between atoms: C_1  and  C_2 
REMARK    2  A    between atoms: C_2  and  C_3 
REMARK    3  A    between atoms: C_8  and  O_9 
REMARK    4  A    between atoms: O_9  and  C_10 
REMARK       I    between atoms: C_10  and  N_12 
REMARK    5  A    between atoms: C_19  and  C_33 
REMARK    6  A    between atoms: C_20  and  C_23 
ROOT
ATOM      1  C   LIG d   1       2.804   0.614  -8.656  0.00  0.00    -0.004 A 
ATOM      2  C   LIG d   1       2.186   0.135  -9.776  0.00  0.00    -0.041 A 
ATOM      3  C   LIG d   1       2.156  -1.239 -10.016  0.00  0.00     0.065 A 
ATOM      4  C   LIG d   1       2.759  -2.132  -9.113  0.00  0.00     0.142 A 
ATOM      5  C   LIG d   1       3.383  -1.628  -7.979  0.00  0.00     0.024 A 
ATOM      6  C   LIG d   1       3.404  -0.262  -7.755  0.00  0.00     0.140 A 
ATOM      7  O   LIG d   1       2.731  -3.458  -9.347  0.00  0.00    -0.459 OA
ATOM      8  C   LIG d   1       2.147  -4.002 -10.419  0.00  0.00     0.114 A 
ATOM      9  C   LIG d   1       1.529  -3.256 -11.371  0.00  0.00     0.067 A 
ATOM     10  C   LIG d   1       1.505  -1.792 -11.218  0.00  0.00     0.200 A 
ATOM     11  O   LIG d   1       0.969  -1.072 -12.043  0.00  0.00    -0.286 OA
ATOM     12  H   LIG d   1       1.721   0.818 -10.473  0.00  0.00     0.063 H 
ATOM     13  H   LIG d   1       3.851  -2.300  -7.275  0.00  0.00     0.069 H 
ENDROOT
BRANCH   6  14
ATOM     14  O   LIG d   1       4.015   0.228  -6.645  0.00  0.00    -0.411 OA
BRANCH  14  15
ATOM     15  C   LIG d   1       3.406   0.007  -5.464  0.00  0.00     0.408 C 
ATOM     16  O   LIG d   1       2.350   0.553  -5.214  0.00  0.00    -0.226 OA
ATOM     17  N   LIG d   1       3.969  -0.819  -4.560  0.00  0.00    -0.263 N 
ATOM     18  C   LIG d   1       3.322  -1.075  -3.263  0.00  0.00     0.041 C 
ATOM     19  C   LIG d   1       5.244  -1.495  -4.843  0.00  0.00     0.041 C 
ATOM     20  C   LIG d   1       4.359  -0.857  -2.155  0.00  0.00     0.064 C 
ATOM     21  H   LIG d   1       2.487  -0.388  -3.126  0.00  0.00     0.049 H 
ATOM     22  H   LIG d   1       2.961  -2.103  -3.230  0.00  0.00     0.049 H 
ATOM     23  O   LIG d   1       5.528  -1.627  -2.445  0.00  0.00    -0.377 OA
ATOM     24  H   LIG d   1       4.622   0.200  -2.105  0.00  0.00     0.058 H 
ATOM     25  H   LIG d   1       3.941  -1.173  -1.199  0.00  0.00     0.058 H 
ATOM     26  C   LIG d   1       6.189  -1.252  -3.655  0.00  0.00     0.064 C 
ATOM     27  H   LIG d   1       6.459  -0.197  -3.611  0.00  0.00     0.058 H 
ATOM     28  H   LIG d   1       7.090  -1.854  -3.779  0.00  0.00     0.058 H 
ATOM     29  H   LIG d   1       5.073  -2.564  -4.967  0.00  0.00     0.049 H 
ATOM     30  H   LIG d   1       5.683  -1.086  -5.753  0.00  0.00     0.049 H 
ENDBRANCH  14  15
ENDBRANCH   6  14
BRANCH   1  31
ATOM     31  C   LIG d   1       2.836   2.098  -8.394  0.00  0.00    -0.027 C 
ATOM     32  H   LIG d   1       1.871   2.533  -8.649  0.00  0.00     0.031 H 
ATOM     33  H   LIG d   1       3.047   2.276  -7.340  0.00  0.00     0.031 H 
BRANCH  31  34
ATOM     34  C   LIG d   1       3.929   2.743  -9.249  0.00  0.00    -0.061 C 
ATOM     35  H   LIG d   1       3.469   3.339 -10.038  0.00  0.00     0.023 H 
ATOM     36  H   LIG d   1       4.547   3.387  -8.623  0.00  0.00     0.023 H 
ATOM     37  H   LIG d   1       4.548   1.966  -9.695  0.00  0.00     0.023 H 
ENDBRANCH  31  34
ENDBRANCH   1  31
BRANCH   8  38
ATOM     38  C   LIG d   1       2.177  -5.501 -10.579  0.00  0.00    -0.006 C 
ATOM     39  H   LIG d   1       2.071  -5.973  -9.602  0.00  0.00     0.031 H 
ATOM     40  H   LIG d   1       1.356  -5.813 -11.224  0.00  0.00     0.031 H 
ATOM     41  H   LIG d   1       3.125  -5.799 -11.025  0.00  0.00     0.031 H 
ENDBRANCH   8  38
BRANCH   9  42
ATOM     42  C   LIG d   1       0.894  -3.904 -12.544  0.00  0.00    -0.007 A 
ATOM     43  C   LIG d   1      -0.446  -4.281 -12.494  0.00  0.00    -0.008 A 
ATOM     44  C   LIG d   1      -1.036  -4.887 -13.592  0.00  0.00     0.163 A 
ATOM     45  H   LIG d   1      -1.025  -4.102 -11.600  0.00  0.00     0.066 H 
ATOM     46  C   LIG d   1      -0.291  -5.114 -14.743  0.00  0.00     0.162 A 
ATOM     47  O   LIG d   1      -2.346  -5.251 -13.526  0.00  0.00    -0.485 OA
ATOM     48  C   LIG d   1       1.044  -4.735 -14.793  0.00  0.00    -0.016 A 
ATOM     49  O   LIG d   1      -0.856  -5.703 -15.834  0.00  0.00    -0.485 OA
ATOM     50  C   LIG d   1       1.637  -4.137 -13.700  0.00  0.00    -0.050 A 
ATOM     51  H   LIG d   1       1.621  -4.915 -15.688  0.00  0.00     0.066 H 
ATOM     52  H   LIG d   1       2.677  -3.846 -13.742  0.00  0.00     0.062 H 
ATOM     53  C   LIG d   1      -2.088  -6.402 -15.621  0.00  0.00     0.124 C 
ATOM     54  C   LIG d   1      -3.004  -5.512 -14.770  0.00  0.00     0.124 C 
ATOM     55  H   LIG d   1      -1.894  -7.338 -15.097  0.00  0.00     0.073 H 
ATOM     56  H   LIG d   1      -2.563  -6.609 -16.580  0.00  0.00     0.073 H 
ATOM     57  H   LIG d   1      -3.948  -6.026 -14.586  0.00  0.00     0.073 H 
ATOM     58  H   LIG d   1      -3.193  -4.574 -15.291  0.00  0.00     0.073 H 
ENDBRANCH   9  42
TORSDOF 6
ENDMDL
MODEL 5
REMARK VINA RESULT:      -6.1      4.918      8.967
REMARK  6 active torsions:
REMARK  status: ('A' for Active; 'I' for Inactive)
REMARK    1  A    between atoms: C_1  and  C_2 
REMARK    2  A    between atoms: C_2  and  C_3 
REMARK    3  A    between atoms: C_8  and  O_9 
REMARK    4  A    between atoms: O_9  and  C_10 
REMARK       I    between atoms: C_10  and  N_12 
REMARK    5  A    between atoms: C_19  and  C_33 
REMARK    6  A    between atoms: C_20  and  C_23 
ROOT
ATOM      1  C   LIG d   1      10.180   3.740  -5.690  0.00  0.00    -0.004 A 
ATOM      2  C   LIG d   1       9.495   2.705  -6.261  0.00  0.00    -0.041 A 
ATOM      3  C   LIG d   1       8.601   1.959  -5.493  0.00  0.00     0.065 A 
ATOM      4  C   LIG d   1       8.401   2.267  -4.135  0.00  0.00     0.142 A 
ATOM      5  C   LIG d   1       9.106   3.322  -3.571  0.00  0.00     0.024 A 
ATOM      6  C   LIG d   1       9.990   4.052  -4.346  0.00  0.00     0.140 A 
ATOM      7  O   LIG d   1       7.538   1.544  -3.395  0.00  0.00    -0.459 OA
ATOM      8  C   LIG d   1       6.833   0.519  -3.882  0.00  0.00     0.114 A 
ATOM      9  C   LIG d   1       6.930   0.114  -5.175  0.00  0.00     0.067 A 
ATOM     10  C   LIG d   1       7.850   0.831  -6.074  0.00  0.00     0.200 A 
ATOM     11  O   LIG d   1       7.982   0.510  -7.242  0.00  0.00    -0.286 OA
ATOM     12  H   LIG d   1       9.646   2.466  -7.304  0.00  0.00     0.063 H 
ATOM     13  H   LIG d   1       8.964   3.572  -2.530  0.00  0.00     0.069 H 
ENDROOT
BRANCH   6  14
ATOM     14  O   LIG d   1      10.677   5.084  -3.791  0.00  0.00    -0.411 OA
BRANCH  14  15
ATOM     15  C   LIG d   1       9.952   6.113  -3.310  0.00  0.00     0.408 C 
ATOM     16  O   LIG d   1       9.287   6.793  -4.066  0.00  0.00    -0.226 OA
ATOM     17  N   LIG d   1       9.967   6.389  -1.991  0.00  0.00    -0.263 N 
ATOM     18  C   LIG d   1       9.183   7.508  -1.442  0.00  0.00     0.041 C 
ATOM     19  C   LIG d   1      10.761   5.576  -1.056  0.00  0.00     0.041 C 
ATOM     20  C   LIG d   1      10.108   8.360  -0.565  0.00  0.00     0.064 C 
ATOM     21  H   LIG d   1       8.788   8.113  -2.258  0.00  0.00     0.049 H 
ATOM     22  H   LIG d   1       8.361   7.120  -0.840  0.00  0.00     0.049 H 
ATOM     23  O   LIG d   1      10.764   7.518   0.386  0.00  0.00    -0.377 OA
ATOM     24  H   LIG d   1      10.853   8.851  -1.191  0.00  0.00     0.058 H 
ATOM     25  H   LIG d   1       9.519   9.113  -0.041  0.00  0.00     0.058 H 
ATOM     26  C   LIG d   1      11.612   6.526  -0.199  0.00  0.00     0.064 C 
ATOM     27  H   LIG d   1      12.362   7.011  -0.824  0.00  0.00     0.058 H 
ATOM     28  H   LIG d   1      12.105   5.959   0.591  0.00  0.00     0.058 H 
ATOM     29  H   LIG d   1      10.095   4.997  -0.416  0.00  0.00     0.049 H 
ATOM     30  H   LIG d   1      11.410   4.902  -1.615  0.00  0.00     0.049 H 
ENDBRANCH  14  15
ENDBRANCH   6  14
BRANCH   1  31
ATOM     31  C   LIG d   1      11.146   4.548  -6.518  0.00  0.00    -0.027 C 
ATOM     32  H   LIG d   1      11.862   5.043  -5.862  0.00  0.00     0.031 H 
ATOM     33  H   LIG d   1      11.677   3.887  -7.203  0.00  0.00     0.031 H 
BRANCH  31  34
ATOM     34  C   LIG d   1      10.376   5.600  -7.318  0.00  0.00    -0.061 C 
ATOM     35  H   LIG d   1      10.868   6.568  -7.214  0.00  0.00     0.023 H 
ATOM     36  H   LIG d   1      10.357   5.314  -8.370  0.00  0.00     0.023 H 
ATOM     37  H   LIG d   1       9.357   5.669  -6.941  0.00  0.00     0.023 H 
ENDBRANCH  31  34
ENDBRANCH   1  31
BRANCH   8  38
ATOM     38  C   LIG d   1       5.896  -0.219  -2.960  0.00  0.00    -0.006 C 
ATOM     39  H   LIG d   1       6.192  -0.045  -1.925  0.00  0.00     0.031 H 
ATOM     40  H   LIG d   1       4.879   0.142  -3.112  0.00  0.00     0.031 H 
ATOM     41  H   LIG d   1       5.940  -1.286  -3.176  0.00  0.00     0.031 H 
ENDBRANCH   8  38
BRANCH   9  42
ATOM     42  C   LIG d   1       6.127  -1.030  -5.671  0.00  0.00    -0.007 A 
ATOM     43  C   LIG d   1       6.499  -2.334  -5.353  0.00  0.00    -0.008 A 
ATOM     44  C   LIG d   1       5.748  -3.401  -5.820  0.00  0.00     0.163 A 
ATOM     45  H   LIG d   1       7.372  -2.514  -4.744  0.00  0.00     0.066 H 
ATOM     46  C   LIG d   1       4.622  -3.168  -6.601  0.00  0.00     0.162 A 
ATOM     47  O   LIG d   1       6.125  -4.669  -5.502  0.00  0.00    -0.485 OA
ATOM     48  C   LIG d   1       4.251  -1.867  -6.915  0.00  0.00    -0.016 A 
ATOM     49  O   LIG d   1       3.868  -4.204  -7.063  0.00  0.00    -0.485 OA
ATOM     50  C   LIG d   1       5.000  -0.802  -6.458  0.00  0.00    -0.050 A 
ATOM     51  H   LIG d   1       3.378  -1.689  -7.525  0.00  0.00     0.066 H 
ATOM     52  H   LIG d   1       4.709   0.208  -6.707  0.00  0.00     0.062 H 
ATOM     53  C   LIG d   1       4.475  -5.501  -7.040  0.00  0.00     0.124 C 
ATOM     54  C   LIG d   1       5.141  -5.695  -5.671  0.00  0.00     0.124 C 
ATOM     55  H   LIG d   1       5.226  -5.570  -7.827  0.00  0.00     0.073 H 
ATOM     56  H   LIG d   1       3.713  -6.266  -7.190  0.00  0.00     0.073 H 
ATOM     57  H   LIG d   1       5.618  -6.673  -5.629  0.00  0.00     0.073 H 
ATOM     58  H   LIG d   1       4.392  -5.619  -4.883  0.00  0.00     0.073 H 
ENDBRANCH   9  42
TORSDOF 6
ENDMDL
MODEL 6
REMARK VINA RESULT:      -6.1      5.264      8.195
REMARK  6 active torsions:
REMARK  status: ('A' for Active; 'I' for Inactive)
REMARK    1  A    between atoms: C_1  and  C_2 
REMARK    2  A    between atoms: C_2  and  C_3 
REMARK    3  A    between atoms: C_8  and  O_9 
REMARK    4  A    between atoms: O_9  and  C_10 
REMARK       I    between atoms: C_10  and  N_12 
REMARK    5  A    between atoms: C_19  and  C_33 
REMARK    6  A    between atoms: C_20  and  C_23 
ROOT
ATOM      1  C   LIG d   1       8.885   2.089  -5.880  0.00  0.00    -0.004 A 
ATOM      2  C   LIG d   1       8.445   0.889  -6.364  0.00  0.00    -0.041 A 
ATOM      3  C   LIG d   1       7.567   0.116  -5.605  0.00  0.00     0.065 A 
ATOM      4  C   LIG d   1       7.133   0.564  -4.345  0.00  0.00     0.142 A 
ATOM      5  C   LIG d   1       7.590   1.786  -3.868  0.00  0.00     0.024 A 
ATOM      6  C   LIG d   1       8.461   2.541  -4.634  0.00  0.00     0.140 A 
ATOM      7  O   LIG d   1       6.286  -0.184  -3.612  0.00  0.00    -0.459 OA
ATOM      8  C   LIG d   1       5.813  -1.366  -4.017  0.00  0.00     0.114 A 
ATOM      9  C   LIG d   1       6.151  -1.918  -5.211  0.00  0.00     0.067 A 
ATOM     10  C   LIG d   1       7.077  -1.187  -6.092  0.00  0.00     0.200 A 
ATOM     11  O   LIG d   1       7.420  -1.635  -7.173  0.00  0.00    -0.286 OA
ATOM     12  H   LIG d   1       8.777   0.541  -7.332  0.00  0.00     0.063 H 
ATOM     13  H   LIG d   1       7.265   2.145  -2.903  0.00  0.00     0.069 H 
ENDROOT
BRANCH   6  14
ATOM     14  O   LIG d   1       8.905   3.736  -4.165  0.00  0.00    -0.411 OA
BRANCH  14  15
ATOM     15  C   LIG d   1       9.844   3.703  -3.199  0.00  0.00     0.408 C 
ATOM     16  O   LIG d   1      10.287   2.638  -2.819  0.00  0.00    -0.226 OA
ATOM     17  N   LIG d   1      10.289   4.852  -2.653  0.00  0.00    -0.263 N 
ATOM     18  C   LIG d   1      11.314   4.841  -1.596  0.00  0.00     0.041 C 
ATOM     19  C   LIG d   1       9.772   6.154  -3.101  0.00  0.00     0.041 C 
ATOM     20  C   LIG d   1      10.815   5.705  -0.432  0.00  0.00     0.064 C 
ATOM     21  H   LIG d   1      11.476   3.820  -1.253  0.00  0.00     0.049 H 
ATOM     22  H   LIG d   1      12.246   5.251  -1.985  0.00  0.00     0.049 H 
ATOM     23  O   LIG d   1      10.429   6.989  -0.929  0.00  0.00    -0.377 OA
ATOM     24  H   LIG d   1       9.957   5.223   0.038  0.00  0.00     0.058 H 
ATOM     25  H   LIG d   1      11.613   5.822   0.301  0.00  0.00     0.058 H 
ATOM     26  C   LIG d   1       9.345   6.953  -1.859  0.00  0.00     0.064 C 
ATOM     27  H   LIG d   1       8.482   6.476  -1.395  0.00  0.00     0.058 H 
ATOM     28  H   LIG d   1       9.085   7.970  -2.154  0.00  0.00     0.058 H 
ATOM     29  H   LIG d   1      10.551   6.694  -3.639  0.00  0.00     0.049 H 
ATOM     30  H   LIG d   1       8.913   6.003  -3.756  0.00  0.00     0.049 H 
ENDBRANCH  14  15
ENDBRANCH   6  14
BRANCH   1  31
ATOM     31  C   LIG d   1       9.833   2.926  -6.700  0.00  0.00    -0.027 C 
ATOM     32  H   LIG d   1      10.034   3.862  -6.180  0.00  0.00     0.031 H 
ATOM     33  H   LIG d   1      10.767   2.382  -6.842  0.00  0.00     0.031 H 
BRANCH  31  34
ATOM     34  C   LIG d   1       9.203   3.224  -8.062  0.00  0.00    -0.061 C 
ATOM     35  H   LIG d   1       8.701   4.191  -8.027  0.00  0.00     0.023 H 
ATOM     36  H   LIG d   1       9.982   3.247  -8.825  0.00  0.00     0.023 H 
ATOM     37  H   LIG d   1       8.479   2.447  -8.305  0.00  0.00     0.023 H 
ENDBRANCH  31  34
ENDBRANCH   1  31
BRANCH   8  38
ATOM     38  C   LIG d   1       4.869  -2.118  -3.113  0.00  0.00    -0.006 C 
ATOM     39  H   LIG d   1       3.863  -1.711  -3.219  0.00  0.00     0.031 H 
ATOM     40  H   LIG d   1       4.865  -3.172  -3.389  0.00  0.00     0.031 H 
ATOM     41  H   LIG d   1       5.197  -2.013  -2.079  0.00  0.00     0.031 H 
ENDBRANCH   8  38
BRANCH   9  42
ATOM     42  C   LIG d   1       5.601  -3.234  -5.619  0.00  0.00    -0.007 A 
ATOM     43  C   LIG d   1       6.260  -4.408  -5.262  0.00  0.00    -0.008 A 
ATOM     44  C   LIG d   1       5.744  -5.635  -5.646  0.00  0.00     0.163 A 
ATOM     45  H   LIG d   1       7.172  -4.361  -4.687  0.00  0.00     0.066 H 
ATOM     46  C   LIG d   1       4.568  -5.693  -6.384  0.00  0.00     0.162 A 
ATOM     47  O   LIG d   1       6.401  -6.773  -5.290  0.00  0.00    -0.485 OA
ATOM     48  C   LIG d   1       3.910  -4.522  -6.738  0.00  0.00    -0.016 A 
ATOM     49  O   LIG d   1       4.043  -6.892  -6.765  0.00  0.00    -0.485 OA
ATOM     50  C   LIG d   1       4.424  -3.298  -6.363  0.00  0.00    -0.050 A 
ATOM     51  H   LIG d   1       2.998  -4.571  -7.314  0.00  0.00     0.066 H 
ATOM     52  H   LIG d   1       3.911  -2.389  -6.642  0.00  0.00     0.062 H 
ATOM     53  C   LIG d   1       4.919  -8.023  -6.713  0.00  0.00     0.124 C 
ATOM     54  C   LIG d   1       5.659  -7.995  -5.368  0.00  0.00     0.124 C 
ATOM     55  H   LIG d   1       5.639  -7.969  -7.529  0.00  0.00     0.073 H 
ATOM     56  H   LIG d   1       4.338  -8.941  -6.794  0.00  0.00     0.073 H 
ATOM     57  H   LIG d   1       6.341  -8.843  -5.306  0.00  0.00     0.073 H 
ATOM     58  H   LIG d   1       4.940  -8.041  -4.551  0.00  0.00     0.073 H 
ENDBRANCH   9  42
TORSDOF 6
ENDMDL
MODEL 7
REMARK VINA RESULT:      -6.1      4.453      7.537
REMARK  6 active torsions:
REMARK  status: ('A' for Active; 'I' for Inactive)
REMARK    1  A    between atoms: C_1  and  C_2 
REMARK    2  A    between atoms: C_2  and  C_3 
REMARK    3  A    between atoms: C_8  and  O_9 
REMARK    4  A    between atoms: O_9  and  C_10 
REMARK       I    between atoms: C_10  and  N_12 
REMARK    5  A    between atoms: C_19  and  C_33 
REMARK    6  A    between atoms: C_20  and  C_23 
ROOT
ATOM      1  C   LIG d   1       5.467  -8.769  -5.030  0.00  0.00    -0.004 A 
ATOM      2  C   LIG d   1       4.756  -7.635  -5.307  0.00  0.00    -0.041 A 
ATOM      3  C   LIG d   1       5.422  -6.419  -5.457  0.00  0.00     0.065 A 
ATOM      4  C   LIG d   1       6.821  -6.353  -5.324  0.00  0.00     0.142 A 
ATOM      5  C   LIG d   1       7.528  -7.515  -5.043  0.00  0.00     0.024 A 
ATOM      6  C   LIG d   1       6.852  -8.714  -4.897  0.00  0.00     0.140 A 
ATOM      7  O   LIG d   1       7.462  -5.177  -5.468  0.00  0.00    -0.459 OA
ATOM      8  C   LIG d   1       6.836  -4.028  -5.738  0.00  0.00     0.114 A 
ATOM      9  C   LIG d   1       5.489  -3.948  -5.890  0.00  0.00     0.067 A 
ATOM     10  C   LIG d   1       4.687  -5.174  -5.748  0.00  0.00     0.200 A 
ATOM     11  O   LIG d   1       3.474  -5.163  -5.869  0.00  0.00    -0.286 OA
ATOM     12  H   LIG d   1       3.681  -7.682  -5.409  0.00  0.00     0.063 H 
ATOM     13  H   LIG d   1       8.602  -7.482  -4.939  0.00  0.00     0.069 H 
ENDROOT
BRANCH   6  14
ATOM     14  O   LIG d   1       7.547  -9.848  -4.623  0.00  0.00    -0.411 OA
BRANCH  14  15
ATOM     15  C   LIG d   1       8.092  -9.950  -3.395  0.00  0.00     0.408 C 
ATOM     16  O   LIG d   1       7.375 -10.006  -2.415  0.00  0.00    -0.226 OA
ATOM     17  N   LIG d   1       9.432  -9.988  -3.253  0.00  0.00    -0.263 N 
ATOM     18  C   LIG d   1      10.050 -10.099  -1.922  0.00  0.00     0.041 C 
ATOM     19  C   LIG d   1      10.319  -9.927  -4.425  0.00  0.00     0.041 C 
ATOM     20  C   LIG d   1      11.116  -9.005  -1.792  0.00  0.00     0.064 C 
ATOM     21  H   LIG d   1       9.289  -9.964  -1.152  0.00  0.00     0.049 H 
ATOM     22  H   LIG d   1      10.514 -11.079  -1.813  0.00  0.00     0.049 H 
ATOM     23  O   LIG d   1      12.002  -9.076  -2.911  0.00  0.00    -0.377 OA
ATOM     24  H   LIG d   1      10.634  -8.027  -1.771  0.00  0.00     0.058 H 
ATOM     25  H   LIG d   1      11.679  -9.153  -0.871  0.00  0.00     0.058 H 
ATOM     26  C   LIG d   1      11.372  -8.836  -4.172  0.00  0.00     0.064 C 
ATOM     27  H   LIG d   1      10.891  -7.858  -4.159  0.00  0.00     0.058 H 
ATOM     28  H   LIG d   1      12.121  -8.864  -4.964  0.00  0.00     0.058 H 
ATOM     29  H   LIG d   1      10.810 -10.890  -4.564  0.00  0.00     0.049 H 
ATOM     30  H   LIG d   1       9.738  -9.680  -5.314  0.00  0.00     0.049 H 
ENDBRANCH  14  15
ENDBRANCH   6  14
BRANCH   1  31
ATOM     31  C   LIG d   1       4.750 -10.084  -4.869  0.00  0.00    -0.027 C 
ATOM     32  H   LIG d   1       4.054 -10.223  -5.697  0.00  0.00     0.031 H 
ATOM     33  H   LIG d   1       5.477 -10.896  -4.866  0.00  0.00     0.031 H 
BRANCH  31  34
ATOM     34  C   LIG d   1       3.977 -10.085  -3.549  0.00  0.00    -0.061 C 
ATOM     35  H   LIG d   1       2.951 -10.406  -3.728  0.00  0.00     0.023 H 
ATOM     36  H   LIG d   1       4.454 -10.772  -2.849  0.00  0.00     0.023 H 
ATOM     37  H   LIG d   1       3.975  -9.081  -3.128  0.00  0.00     0.023 H 
ENDBRANCH  31  34
ENDBRANCH   1  31
BRANCH   8  38
ATOM     38  C   LIG d   1       7.657  -2.771  -5.877  0.00  0.00    -0.006 C 
ATOM     39  H   LIG d   1       8.686  -3.034  -6.123  0.00  0.00     0.031 H 
ATOM     40  H   LIG d   1       7.240  -2.152  -6.671  0.00  0.00     0.031 H 
ATOM     41  H   LIG d   1       7.638  -2.220  -4.938  0.00  0.00     0.031 H 
ENDBRANCH   8  38
BRANCH   9  42
ATOM     42  C   LIG d   1       4.838  -2.650  -6.190  0.00  0.00    -0.007 A 
ATOM     43  C   LIG d   1       4.456  -2.344  -7.494  0.00  0.00    -0.008 A 
ATOM     44  C   LIG d   1       3.848  -1.130  -7.770  0.00  0.00     0.163 A 
ATOM     45  H   LIG d   1       4.633  -3.052  -8.289  0.00  0.00     0.066 H 
ATOM     46  C   LIG d   1       3.618  -0.220  -6.745  0.00  0.00     0.162 A 
ATOM     47  O   LIG d   1       3.483  -0.845  -9.050  0.00  0.00    -0.485 OA
ATOM     48  C   LIG d   1       3.997  -0.527  -5.445  0.00  0.00    -0.016 A 
ATOM     49  O   LIG d   1       3.016   0.977  -6.998  0.00  0.00    -0.485 OA
ATOM     50  C   LIG d   1       4.608  -1.732  -5.166  0.00  0.00    -0.050 A 
ATOM     51  H   LIG d   1       3.819   0.184  -4.651  0.00  0.00     0.066 H 
ATOM     52  H   LIG d   1       4.903  -1.966  -4.154  0.00  0.00     0.062 H 
ATOM     53  C   LIG d   1       2.985   1.405  -8.363  0.00  0.00     0.124 C 
ATOM     54  C   LIG d   1       2.541   0.217  -9.229  0.00  0.00     0.124 C 
ATOM     55  H   LIG d   1       3.979   1.731  -8.670  0.00  0.00     0.073 H 
ATOM     56  H   LIG d   1       2.278   2.227  -8.475  0.00  0.00     0.073 H 
ATOM     57  H   LIG d   1       2.516   0.515 -10.277  0.00  0.00     0.073 H 
ATOM     58  H   LIG d   1       1.550  -0.113  -8.918  0.00  0.00     0.073 H 
ENDBRANCH   9  42
TORSDOF 6
ENDMDL
MODEL 8
REMARK VINA RESULT:      -5.9      7.794     12.174
REMARK  6 active torsions:
REMARK  status: ('A' for Active; 'I' for Inactive)
REMARK    1  A    between atoms: C_1  and  C_2 
REMARK    2  A    between atoms: C_2  and  C_3 
REMARK    3  A    between atoms: C_8  and  O_9 
REMARK    4  A    between atoms: O_9  and  C_10 
REMARK       I    between atoms: C_10  and  N_12 
REMARK    5  A    between atoms: C_19  and  C_33 
REMARK    6  A    between atoms: C_20  and  C_23 
ROOT
ATOM      1  C   LIG d   1      10.600   6.925  -1.086  0.00  0.00    -0.004 A 
ATOM      2  C   LIG d   1      10.341   5.662  -1.536  0.00  0.00    -0.041 A 
ATOM      3  C   LIG d   1      10.192   5.430  -2.904  0.00  0.00     0.065 A 
ATOM      4  C   LIG d   1      10.307   6.491  -3.821  0.00  0.00     0.142 A 
ATOM      5  C   LIG d   1      10.571   7.768  -3.346  0.00  0.00     0.024 A 
ATOM      6  C   LIG d   1      10.716   7.981  -1.986  0.00  0.00     0.140 A 
ATOM      7  O   LIG d   1      10.162   6.266  -5.141  0.00  0.00    -0.459 OA
ATOM      8  C   LIG d   1       9.907   5.060  -5.656  0.00  0.00     0.114 A 
ATOM      9  C   LIG d   1       9.770   3.950  -4.886  0.00  0.00     0.067 A 
ATOM     10  C   LIG d   1       9.905   4.081  -3.425  0.00  0.00     0.200 A 
ATOM     11  O   LIG d   1       9.787   3.122  -2.683  0.00  0.00    -0.286 OA
ATOM     12  H   LIG d   1      10.251   4.844  -0.835  0.00  0.00     0.063 H 
ATOM     13  H   LIG d   1      10.663   8.594  -4.036  0.00  0.00     0.069 H 
ENDROOT
BRANCH   6  14
ATOM     14  O   LIG d   1      10.974   9.233  -1.525  0.00  0.00    -0.411 OA
BRANCH  14  15
ATOM     15  C   LIG d   1      10.042  10.176  -1.760  0.00  0.00     0.408 C 
ATOM     16  O   LIG d   1       8.928  10.059  -1.289  0.00  0.00    -0.226 OA
ATOM     17  N   LIG d   1      10.344  11.249  -2.518  0.00  0.00    -0.263 N 
ATOM     18  C   LIG d   1       9.342  12.292  -2.788  0.00  0.00     0.041 C 
ATOM     19  C   LIG d   1      11.688  11.414  -3.093  0.00  0.00     0.041 C 
ATOM     20  C   LIG d   1       9.304  12.544  -4.299  0.00  0.00     0.064 C 
ATOM     21  H   LIG d   1       8.363  11.957  -2.446  0.00  0.00     0.049 H 
ATOM     22  H   LIG d   1       9.619  13.210  -2.269  0.00  0.00     0.049 H 
ATOM     23  O   LIG d   1      10.630  12.801  -4.768  0.00  0.00    -0.377 OA
ATOM     24  H   LIG d   1       8.903  11.666  -4.806  0.00  0.00     0.058 H 
ATOM     25  H   LIG d   1       8.670  13.406  -4.508  0.00  0.00     0.058 H 
ATOM     26  C   LIG d   1      11.533  11.707  -4.595  0.00  0.00     0.064 C 
ATOM     27  H   LIG d   1      11.140  10.826  -5.101  0.00  0.00     0.058 H 
ATOM     28  H   LIG d   1      12.505  11.967  -5.015  0.00  0.00     0.058 H 
ATOM     29  H   LIG d   1      12.197  12.245  -2.605  0.00  0.00     0.049 H 
ATOM     30  H   LIG d   1      12.263  10.499  -2.953  0.00  0.00     0.049 H 
ENDBRANCH  14  15
ENDBRANCH   6  14
BRANCH   1  31
ATOM     31  C   LIG d   1      10.762   7.177   0.391  0.00  0.00    -0.027 C 
ATOM     32  H   LIG d   1      11.542   7.920   0.550  0.00  0.00     0.031 H 
ATOM     33  H   LIG d   1       9.822   7.543   0.802  0.00  0.00     0.031 H 
BRANCH  31  34
ATOM     34  C   LIG d   1      11.151   5.873   1.091  0.00  0.00    -0.061 C 
ATOM     35  H   LIG d   1      11.552   5.172   0.358  0.00  0.00     0.023 H 
ATOM     36  H   LIG d   1      11.908   6.079   1.848  0.00  0.00     0.023 H 
ATOM     37  H   LIG d   1      10.272   5.438   1.564  0.00  0.00     0.023 H 
ENDBRANCH  31  34
ENDBRANCH   1  31
BRANCH   8  38
ATOM     38  C   LIG d   1       9.763   4.926  -7.151  0.00  0.00    -0.006 C 
ATOM     39  H   LIG d   1      10.749   4.815  -7.602  0.00  0.00     0.031 H 
ATOM     40  H   LIG d   1       9.158   4.049  -7.380  0.00  0.00     0.031 H 
ATOM     41  H   LIG d   1       9.279   5.817  -7.550  0.00  0.00     0.031 H 
ENDBRANCH   8  38
BRANCH   9  42
ATOM     42  C   LIG d   1       9.487   2.631  -5.502  0.00  0.00    -0.007 A 
ATOM     43  C   LIG d   1       8.174   2.185  -5.625  0.00  0.00    -0.008 A 
ATOM     44  C   LIG d   1       7.913   0.951  -6.201  0.00  0.00     0.163 A 
ATOM     45  H   LIG d   1       7.359   2.799  -5.272  0.00  0.00     0.066 H 
ATOM     46  C   LIG d   1       8.963   0.163  -6.658  0.00  0.00     0.162 A 
ATOM     47  O   LIG d   1       6.624   0.529  -6.312  0.00  0.00    -0.485 OA
ATOM     48  C   LIG d   1      10.272   0.610  -6.537  0.00  0.00    -0.016 A 
ATOM     49  O   LIG d   1       8.725  -1.050  -7.231  0.00  0.00    -0.485 OA
ATOM     50  C   LIG d   1      10.537   1.835  -5.958  0.00  0.00    -0.050 A 
ATOM     51  H   LIG d   1      11.086  -0.006  -6.890  0.00  0.00     0.066 H 
ATOM     52  H   LIG d   1      11.556   2.178  -5.864  0.00  0.00     0.062 H 
ATOM     53  C   LIG d   1       7.435  -1.627  -7.003  0.00  0.00     0.124 C 
ATOM     54  C   LIG d   1       6.375  -0.541  -7.231  0.00  0.00     0.124 C 
ATOM     55  H   LIG d   1       7.372  -1.992  -5.977  0.00  0.00     0.073 H 
ATOM     56  H   LIG d   1       7.273  -2.451  -7.697  0.00  0.00     0.073 H 
ATOM     57  H   LIG d   1       5.382  -0.953  -7.054  0.00  0.00     0.073 H 
ATOM     58  H   LIG d   1       6.442  -0.170  -8.253  0.00  0.00     0.073 H 
ENDBRANCH   9  42
TORSDOF 6
ENDMDL
MODEL 9
REMARK VINA RESULT:      -5.9     10.048     11.599
REMARK  6 active torsions:
REMARK  status: ('A' for Active; 'I' for Inactive)
REMARK    1  A    between atoms: C_1  and  C_2 
REMARK    2  A    between atoms: C_2  and  C_3 
REMARK    3  A    between atoms: C_8  and  O_9 
REMARK    4  A    between atoms: O_9  and  C_10 
REMARK       I    between atoms: C_10  and  N_12 
REMARK    5  A    between atoms: C_19  and  C_33 
REMARK    6  A    between atoms: C_20  and  C_23 
ROOT
ATOM      1  C   LIG d   1      10.478   4.418  -3.445  0.00  0.00    -0.004 A 
ATOM      2  C   LIG d   1      10.709   4.370  -4.791  0.00  0.00    -0.041 A 
ATOM      3  C   LIG d   1      10.355   5.455  -5.594  0.00  0.00     0.065 A 
ATOM      4  C   LIG d   1       9.762   6.596  -5.024  0.00  0.00     0.142 A 
ATOM      5  C   LIG d   1       9.535   6.628  -3.655  0.00  0.00     0.024 A 
ATOM      6  C   LIG d   1       9.892   5.543  -2.873  0.00  0.00     0.140 A 
ATOM      7  O   LIG d   1       9.420   7.643  -5.801  0.00  0.00    -0.459 OA
ATOM      8  C   LIG d   1       9.613   7.670  -7.123  0.00  0.00     0.114 A 
ATOM      9  C   LIG d   1      10.174   6.636  -7.801  0.00  0.00     0.067 A 
ATOM     10  C   LIG d   1      10.582   5.436  -7.050  0.00  0.00     0.200 A 
ATOM     11  O   LIG d   1      11.086   4.475  -7.605  0.00  0.00    -0.286 OA
ATOM     12  H   LIG d   1      11.164   3.494  -5.233  0.00  0.00     0.063 H 
ATOM     13  H   LIG d   1       9.082   7.497  -3.202  0.00  0.00     0.069 H 
ENDROOT
BRANCH   6  14
ATOM     14  O   LIG d   1       9.669   5.578  -1.533  0.00  0.00    -0.411 OA
BRANCH  14  15
ATOM     15  C   LIG d   1       9.994   6.715  -0.888  0.00  0.00     0.408 C 
ATOM     16  O   LIG d   1       9.215   7.647  -0.869  0.00  0.00    -0.226 OA
ATOM     17  N   LIG d   1      11.185   6.819  -0.264  0.00  0.00    -0.263 N 
ATOM     18  C   LIG d   1      11.562   8.052   0.447  0.00  0.00     0.041 C 
ATOM     19  C   LIG d   1      12.142   5.702  -0.269  0.00  0.00     0.041 C 
ATOM     20  C   LIG d   1      12.955   8.477  -0.031  0.00  0.00     0.064 C 
ATOM     21  H   LIG d   1      10.841   8.838   0.225  0.00  0.00     0.049 H 
ATOM     22  H   LIG d   1      11.583   7.864   1.520  0.00  0.00     0.049 H 
ATOM     23  O   LIG d   1      13.853   7.372   0.094  0.00  0.00    -0.377 OA
ATOM     24  H   LIG d   1      12.903   8.789  -1.074  0.00  0.00     0.058 H 
ATOM     25  H   LIG d   1      13.311   9.307   0.580  0.00  0.00     0.058 H 
ATOM     26  C   LIG d   1      13.509   6.245  -0.716  0.00  0.00     0.064 C 
ATOM     27  H   LIG d   1      13.459   6.548  -1.761  0.00  0.00     0.058 H 
ATOM     28  H   LIG d   1      14.264   5.467  -0.597  0.00  0.00     0.058 H 
ATOM     29  H   LIG d   1      12.220   5.282   0.734  0.00  0.00     0.049 H 
ATOM     30  H   LIG d   1      11.805   4.932  -0.963  0.00  0.00     0.049 H 
ENDBRANCH  14  15
ENDBRANCH   6  14
BRANCH   1  31
ATOM     31  C   LIG d   1      10.861   3.247  -2.577  0.00  0.00    -0.027 C 
ATOM     32  H   LIG d   1      11.671   3.539  -1.909  0.00  0.00     0.031 H 
ATOM     33  H   LIG d   1       9.999   2.935  -1.988  0.00  0.00     0.031 H 
BRANCH  31  34
ATOM     34  C   LIG d   1      11.322   2.086  -3.460  0.00  0.00    -0.061 C 
ATOM     35  H   LIG d   1      10.664   2.003  -4.325  0.00  0.00     0.023 H 
ATOM     36  H   LIG d   1      12.343   2.269  -3.798  0.00  0.00     0.023 H 
ATOM     37  H   LIG d   1      11.289   1.159  -2.889  0.00  0.00     0.023 H 
ENDBRANCH  31  34
ENDBRANCH   1  31
BRANCH   8  38
ATOM     38  C   LIG d   1       9.190   8.896  -7.892  0.00  0.00    -0.006 C 
ATOM     39  H   LIG d   1       8.916   9.686  -7.193  0.00  0.00     0.031 H 
ATOM     40  H   LIG d   1      10.016   9.234  -8.517  0.00  0.00     0.031 H 
ATOM     41  H   LIG d   1       8.333   8.652  -8.519  0.00  0.00     0.031 H 
ENDBRANCH   8  38
BRANCH   9  42
ATOM     42  C   LIG d   1      10.369   6.711  -9.269  0.00  0.00    -0.007 A 
ATOM     43  C   LIG d   1       9.412   6.177 -10.129  0.00  0.00    -0.008 A 
ATOM     44  C   LIG d   1       9.598   6.247 -11.500  0.00  0.00     0.163 A 
ATOM     45  H   LIG d   1       8.526   5.708  -9.727  0.00  0.00     0.066 H 
ATOM     46  C   LIG d   1      10.738   6.854 -12.016  0.00  0.00     0.162 A 
ATOM     47  O   LIG d   1       8.654   5.720 -12.327  0.00  0.00    -0.485 OA
ATOM     48  C   LIG d   1      11.690   7.388 -11.158  0.00  0.00    -0.016 A 
ATOM     49  O   LIG d   1      10.934   6.937 -13.361  0.00  0.00    -0.485 OA
ATOM     50  C   LIG d   1      11.512   7.314  -9.791  0.00  0.00    -0.050 A 
ATOM     51  H   LIG d   1      12.576   7.855 -11.561  0.00  0.00     0.066 H 
ATOM     52  H   LIG d   1      12.256   7.728  -9.127  0.00  0.00     0.062 H 
ATOM     53  C   LIG d   1      10.144   6.069 -14.181  0.00  0.00     0.124 C 
ATOM     54  C   LIG d   1       8.690   6.140 -13.695  0.00  0.00     0.124 C 
ATOM     55  H   LIG d   1      10.511   5.046 -14.094  0.00  0.00     0.073 H 
ATOM     56  H   LIG d   1      10.201   6.393 -15.221  0.00  0.00     0.073 H 
ATOM     57  H   LIG d   1       8.068   5.480 -14.299  0.00  0.00     0.073 H 
ATOM     58  H   LIG d   1       8.325   7.164 -13.775  0.00  0.00     0.073 H 
ENDBRANCH   9  42
TORSDOF 6
ENDMDL
