MODEL 1
REMARK VINA RESULT:      -4.7      0.000      0.000
REMARK  2 active torsions:
REMARK  status: ('A' for Active; 'I' for Inactive)
REMARK    1  A    between atoms: C_2  and  C_10 
REMARK    2  A    between atoms: C_6  and  C_7 
ROOT
ATOM      1  C   LIG d   1       5.823  -0.752  -3.039  0.00  0.00    -0.041 A 
ATOM      2  C   LIG d   1       6.065  -1.966  -3.688  0.00  0.00     0.016 A 
ATOM      3  C   LIG d   1       4.998  -2.844  -3.903  0.00  0.00     0.036 A 
ATOM      4  N   LIG d   1       3.780  -2.540  -3.503  0.00  0.00    -0.262 NA
ATOM      5  C   LIG d   1       3.509  -1.407  -2.888  0.00  0.00     0.036 A 
ATOM      6  C   LIG d   1       4.515  -0.471  -2.631  0.00  0.00     0.016 A 
ATOM      7  H   LIG d   1       6.625  -0.052  -2.853  0.00  0.00     0.063 H 
ATOM      8  H   LIG d   1       5.174  -3.785  -4.404  0.00  0.00     0.084 H 
ATOM      9  H   LIG d   1       2.496  -1.199  -2.577  0.00  0.00     0.084 H 
ENDROOT
BRANCH   2  10
ATOM     10  C   LIG d   1       7.425  -2.316  -4.141  0.00  0.00     0.073 C 
ATOM     11  O   LIG d   1       8.169  -1.445  -4.570  0.00  0.00    -0.545 OA
ATOM     12  O   LIG d   1       7.807  -3.476  -4.088  0.00  0.00    -0.545 OA
ENDBRANCH   2  10
BRANCH   6  13
ATOM     13  C   LIG d   1       4.202   0.795  -1.941  0.00  0.00     0.073 C 
ATOM     14  O   LIG d   1       3.159   1.384  -2.189  0.00  0.00    -0.545 OA
ATOM     15  O   LIG d   1       4.985   1.256  -1.122  0.00  0.00    -0.545 OA
ENDBRANCH   6  13
TORSDOF 2
ENDMDL
MODEL 2
REMARK VINA RESULT:      -4.7      0.017      4.363
REMARK  2 active torsions:
REMARK  status: ('A' for Active; 'I' for Inactive)
REMARK    1  A    between atoms: C_2  and  C_10 
REMARK    2  A    between atoms: C_6  and  C_7 
ROOT
ATOM      1  C   LIG d   1       5.834  -0.753  -3.036  0.00  0.00    -0.041 A 
ATOM      2  C   LIG d   1       4.524  -0.473  -2.630  0.00  0.00     0.016 A 
ATOM      3  C   LIG d   1       3.520  -1.412  -2.887  0.00  0.00     0.036 A 
ATOM      4  N   LIG d   1       3.794  -2.545  -3.500  0.00  0.00    -0.262 NA
ATOM      5  C   LIG d   1       5.013  -2.848  -3.898  0.00  0.00     0.036 A 
ATOM      6  C   LIG d   1       6.078  -1.968  -3.683  0.00  0.00     0.016 A 
ATOM      7  H   LIG d   1       6.632  -0.048  -2.857  0.00  0.00     0.063 H 
ATOM      8  H   LIG d   1       2.506  -1.206  -2.578  0.00  0.00     0.084 H 
ATOM      9  H   LIG d   1       5.192  -3.789  -4.397  0.00  0.00     0.084 H 
ENDROOT
BRANCH   2  10
ATOM     10  C   LIG d   1       4.207   0.793  -1.942  0.00  0.00     0.073 C 
ATOM     11  O   LIG d   1       4.981   1.247  -1.111  0.00  0.00    -0.545 OA
ATOM     12  O   LIG d   1       3.171   1.387  -2.203  0.00  0.00    -0.545 OA
ENDBRANCH   2  10
BRANCH   6  13
ATOM     13  C   LIG d   1       7.440  -2.316  -4.133  0.00  0.00     0.073 C 
ATOM     14  O   LIG d   1       7.831  -3.472  -4.059  0.00  0.00    -0.545 OA
ATOM     15  O   LIG d   1       8.177  -1.447  -4.579  0.00  0.00    -0.545 OA
ENDBRANCH   6  13
TORSDOF 2
ENDMDL
MODEL 3
REMARK VINA RESULT:      -4.4      2.552      3.182
REMARK  2 active torsions:
REMARK  status: ('A' for Active; 'I' for Inactive)
REMARK    1  A    between atoms: C_2  and  C_10 
REMARK    2  A    between atoms: C_6  and  C_7 
ROOT
ATOM      1  C   LIG d   1       5.791   1.168  -3.297  0.00  0.00    -0.041 A 
ATOM      2  C   LIG d   1       7.095   0.882  -3.715  0.00  0.00     0.016 A 
ATOM      3  C   LIG d   1       7.516  -0.451  -3.755  0.00  0.00     0.036 A 
ATOM      4  N   LIG d   1       6.704  -1.428  -3.406  0.00  0.00    -0.262 NA
ATOM      5  C   LIG d   1       5.468  -1.202  -3.008  0.00  0.00     0.036 A 
ATOM      6  C   LIG d   1       4.964   0.100  -2.937  0.00  0.00     0.016 A 
ATOM      7  H   LIG d   1       5.434   2.187  -3.251  0.00  0.00     0.063 H 
ATOM      8  H   LIG d   1       8.520  -0.683  -4.075  0.00  0.00     0.084 H 
ATOM      9  H   LIG d   1       4.837  -2.034  -2.732  0.00  0.00     0.084 H 
ENDROOT
BRANCH   2  10
ATOM     10  C   LIG d   1       8.012   1.969  -4.108  0.00  0.00     0.073 C 
ATOM     11  O   LIG d   1       8.011   2.383  -5.258  0.00  0.00    -0.545 OA
ATOM     12  O   LIG d   1       8.772   2.455  -3.282  0.00  0.00    -0.545 OA
ENDBRANCH   2  10
BRANCH   6  13
ATOM     13  C   LIG d   1       3.579   0.343  -2.489  0.00  0.00     0.073 C 
ATOM     14  O   LIG d   1       3.288   1.403  -1.953  0.00  0.00    -0.545 OA
ATOM     15  O   LIG d   1       2.723  -0.515  -2.653  0.00  0.00    -0.545 OA
ENDBRANCH   6  13
TORSDOF 2
ENDMDL
MODEL 4
REMARK VINA RESULT:      -4.4      2.453      4.472
REMARK  2 active torsions:
REMARK  status: ('A' for Active; 'I' for Inactive)
REMARK    1  A    between atoms: C_2  and  C_10 
REMARK    2  A    between atoms: C_6  and  C_7 
ROOT
ATOM      1  C   LIG d   1       5.857   1.095  -3.286  0.00  0.00    -0.041 A 
ATOM      2  C   LIG d   1       4.986   0.057  -2.937  0.00  0.00     0.016 A 
ATOM      3  C   LIG d   1       5.441  -1.263  -3.014  0.00  0.00     0.036 A 
ATOM      4  N   LIG d   1       6.668  -1.535  -3.407  0.00  0.00    -0.262 NA
ATOM      5  C   LIG d   1       7.520  -0.588  -3.744  0.00  0.00     0.036 A 
ATOM      6  C   LIG d   1       7.151   0.760  -3.697  0.00  0.00     0.016 A 
ATOM      7  H   LIG d   1       5.537   2.126  -3.242  0.00  0.00     0.063 H 
ATOM      8  H   LIG d   1       4.776  -2.072  -2.747  0.00  0.00     0.084 H 
ATOM      9  H   LIG d   1       8.518  -0.856  -4.060  0.00  0.00     0.084 H 
ENDROOT
BRANCH   2  10
ATOM     10  C   LIG d   1       3.610   0.351  -2.495  0.00  0.00     0.073 C 
ATOM     11  O   LIG d   1       2.721  -0.469  -2.679  0.00  0.00    -0.545 OA
ATOM     12  O   LIG d   1       3.359   1.413  -1.944  0.00  0.00    -0.545 OA
ENDBRANCH   2  10
BRANCH   6  13
ATOM     13  C   LIG d   1       8.112   1.813  -4.077  0.00  0.00     0.073 C 
ATOM     14  O   LIG d   1       9.113   2.000  -3.400  0.00  0.00    -0.545 OA
ATOM     15  O   LIG d   1       7.906   2.501  -5.068  0.00  0.00    -0.545 OA
ENDBRANCH   6  13
TORSDOF 2
ENDMDL
MODEL 5
REMARK VINA RESULT:      -4.3      3.298      4.552
REMARK  2 active torsions:
REMARK  status: ('A' for Active; 'I' for Inactive)
REMARK    1  A    between atoms: C_2  and  C_10 
REMARK    2  A    between atoms: C_6  and  C_7 
ROOT
ATOM      1  C   LIG d   1       3.391   0.147  -4.866  0.00  0.00    -0.041 A 
ATOM      2  C   LIG d   1       4.048  -0.525  -3.831  0.00  0.00     0.016 A 
ATOM      3  C   LIG d   1       4.876  -1.608  -4.144  0.00  0.00     0.036 A 
ATOM      4  N   LIG d   1       5.038  -1.997  -5.392  0.00  0.00    -0.262 NA
ATOM      5  C   LIG d   1       4.437  -1.392  -6.397  0.00  0.00     0.036 A 
ATOM      6  C   LIG d   1       3.592  -0.300  -6.176  0.00  0.00     0.016 A 
ATOM      7  H   LIG d   1       2.742   0.986  -4.659  0.00  0.00     0.063 H 
ATOM      8  H   LIG d   1       5.388  -2.134  -3.352  0.00  0.00     0.084 H 
ATOM      9  H   LIG d   1       4.600  -1.744  -7.405  0.00  0.00     0.084 H 
ENDROOT
BRANCH   2  10
ATOM     10  C   LIG d   1       3.874  -0.096  -2.429  0.00  0.00     0.073 C 
ATOM     11  O   LIG d   1       3.250   0.924  -2.176  0.00  0.00    -0.545 OA
ATOM     12  O   LIG d   1       4.353  -0.763  -1.523  0.00  0.00    -0.545 OA
ENDBRANCH   2  10
BRANCH   6  13
ATOM     13  C   LIG d   1       2.924   0.371  -7.307  0.00  0.00     0.073 C 
ATOM     14  O   LIG d   1       3.059   1.575  -7.470  0.00  0.00    -0.545 OA
ATOM     15  O   LIG d   1       2.233  -0.277  -8.081  0.00  0.00    -0.545 OA
ENDBRANCH   6  13
TORSDOF 2
ENDMDL
MODEL 6
REMARK VINA RESULT:      -4.3      1.930      2.587
REMARK  2 active torsions:
REMARK  status: ('A' for Active; 'I' for Inactive)
REMARK    1  A    between atoms: C_2  and  C_10 
REMARK    2  A    between atoms: C_6  and  C_7 
ROOT
ATOM      1  C   LIG d   1       4.550  -1.090  -3.800  0.00  0.00    -0.041 A 
ATOM      2  C   LIG d   1       5.631  -1.945  -4.041  0.00  0.00     0.016 A 
ATOM      3  C   LIG d   1       6.930  -1.466  -3.848  0.00  0.00     0.036 A 
ATOM      4  N   LIG d   1       7.143  -0.230  -3.445  0.00  0.00    -0.262 NA
ATOM      5  C   LIG d   1       6.154   0.608  -3.206  0.00  0.00     0.036 A 
ATOM      6  C   LIG d   1       4.823   0.214  -3.373  0.00  0.00     0.016 A 
ATOM      7  H   LIG d   1       3.534  -1.426  -3.943  0.00  0.00     0.063 H 
ATOM      8  H   LIG d   1       7.771  -2.118  -4.032  0.00  0.00     0.084 H 
ATOM      9  H   LIG d   1       6.375   1.613  -2.877  0.00  0.00     0.084 H 
ENDROOT
BRANCH   2  10
ATOM     10  C   LIG d   1       5.403  -3.331  -4.492  0.00  0.00     0.073 C 
ATOM     11  O   LIG d   1       4.295  -3.837  -4.377  0.00  0.00    -0.545 OA
ATOM     12  O   LIG d   1       6.322  -3.974  -4.980  0.00  0.00    -0.545 OA
ENDBRANCH   2  10
BRANCH   6  13
ATOM     13  C   LIG d   1       3.723   1.159  -3.104  0.00  0.00     0.073 C 
ATOM     14  O   LIG d   1       3.389   1.396  -1.952  0.00  0.00    -0.545 OA
ATOM     15  O   LIG d   1       3.143   1.704  -4.033  0.00  0.00    -0.545 OA
ENDBRANCH   6  13
TORSDOF 2
ENDMDL
MODEL 7
REMARK VINA RESULT:      -4.3      2.646      3.645
REMARK  2 active torsions:
REMARK  status: ('A' for Active; 'I' for Inactive)
REMARK    1  A    between atoms: C_2  and  C_10 
REMARK    2  A    between atoms: C_6  and  C_7 
ROOT
ATOM      1  C   LIG d   1       5.785  -0.557  -3.658  0.00  0.00    -0.041 A 
ATOM      2  C   LIG d   1       6.155   0.769  -3.411  0.00  0.00     0.016 A 
ATOM      3  C   LIG d   1       5.397   1.528  -2.513  0.00  0.00     0.036 A 
ATOM      4  N   LIG d   1       4.350   1.009  -1.904  0.00  0.00    -0.262 NA
ATOM      5  C   LIG d   1       3.968  -0.235  -2.108  0.00  0.00     0.036 A 
ATOM      6  C   LIG d   1       4.667  -1.066  -2.989  0.00  0.00     0.016 A 
ATOM      7  H   LIG d   1       6.346  -1.170  -4.349  0.00  0.00     0.063 H 
ATOM      8  H   LIG d   1       5.674   2.552  -2.316  0.00  0.00     0.084 H 
ATOM      9  H   LIG d   1       3.104  -0.619  -1.586  0.00  0.00     0.084 H 
ENDROOT
BRANCH   2  10
ATOM     10  C   LIG d   1       7.326   1.359  -4.087  0.00  0.00     0.073 C 
ATOM     11  O   LIG d   1       7.412   1.318  -5.306  0.00  0.00    -0.545 OA
ATOM     12  O   LIG d   1       8.210   1.888  -3.428  0.00  0.00    -0.545 OA
ENDBRANCH   2  10
BRANCH   6  13
ATOM     13  C   LIG d   1       4.231  -2.458  -3.211  0.00  0.00     0.073 C 
ATOM     14  O   LIG d   1       3.586  -3.041  -2.351  0.00  0.00    -0.545 OA
ATOM     15  O   LIG d   1       4.516  -3.029  -4.255  0.00  0.00    -0.545 OA
ENDBRANCH   6  13
TORSDOF 2
ENDMDL
MODEL 8
REMARK VINA RESULT:      -4.2      2.173      2.903
REMARK  2 active torsions:
REMARK  status: ('A' for Active; 'I' for Inactive)
REMARK    1  A    between atoms: C_2  and  C_10 
REMARK    2  A    between atoms: C_6  and  C_7 
ROOT
ATOM      1  C   LIG d   1       5.838  -1.208  -3.734  0.00  0.00    -0.041 A 
ATOM      2  C   LIG d   1       6.970  -0.431  -4.000  0.00  0.00     0.016 A 
ATOM      3  C   LIG d   1       6.976   0.913  -3.611  0.00  0.00     0.036 A 
ATOM      4  N   LIG d   1       5.937   1.446  -3.003  0.00  0.00    -0.262 NA
ATOM      5  C   LIG d   1       4.851   0.750  -2.734  0.00  0.00     0.036 A 
ATOM      6  C   LIG d   1       4.758  -0.600  -3.087  0.00  0.00     0.016 A 
ATOM      7  H   LIG d   1       5.798  -2.248  -4.024  0.00  0.00     0.063 H 
ATOM      8  H   LIG d   1       7.845   1.521  -3.813  0.00  0.00     0.084 H 
ATOM      9  H   LIG d   1       4.022   1.228  -2.232  0.00  0.00     0.084 H 
ENDROOT
BRANCH   2  10
ATOM     10  C   LIG d   1       8.140  -1.019  -4.680  0.00  0.00     0.073 C 
ATOM     11  O   LIG d   1       8.296  -2.232  -4.687  0.00  0.00    -0.545 OA
ATOM     12  O   LIG d   1       8.952  -0.293  -5.236  0.00  0.00    -0.545 OA
ENDBRANCH   2  10
BRANCH   6  13
ATOM     13  C   LIG d   1       3.538  -1.371  -2.780  0.00  0.00     0.073 C 
ATOM     14  O   LIG d   1       3.627  -2.522  -2.377  0.00  0.00    -0.545 OA
ATOM     15  O   LIG d   1       2.437  -0.860  -2.931  0.00  0.00    -0.545 OA
ENDBRANCH   6  13
TORSDOF 2
ENDMDL
MODEL 9
REMARK VINA RESULT:      -4.2      2.115      4.773
REMARK  2 active torsions:
REMARK  status: ('A' for Active; 'I' for Inactive)
REMARK    1  A    between atoms: C_2  and  C_10 
REMARK    2  A    between atoms: C_6  and  C_7 
ROOT
ATOM      1  C   LIG d   1       4.207  -1.092  -4.147  0.00  0.00    -0.041 A 
ATOM      2  C   LIG d   1       4.640   0.011  -3.403  0.00  0.00     0.016 A 
ATOM      3  C   LIG d   1       5.967   0.052  -2.963  0.00  0.00     0.036 A 
ATOM      4  N   LIG d   1       6.803  -0.928  -3.241  0.00  0.00    -0.262 NA
ATOM      5  C   LIG d   1       6.435  -1.983  -3.938  0.00  0.00     0.036 A 
ATOM      6  C   LIG d   1       5.128  -2.108  -4.418  0.00  0.00     0.016 A 
ATOM      7  H   LIG d   1       3.187  -1.157  -4.499  0.00  0.00     0.063 H 
ATOM      8  H   LIG d   1       6.311   0.899  -2.388  0.00  0.00     0.084 H 
ATOM      9  H   LIG d   1       7.155  -2.763  -4.143  0.00  0.00     0.084 H 
ENDROOT
BRANCH   2  10
ATOM     10  C   LIG d   1       3.712   1.114  -3.088  0.00  0.00     0.073 C 
ATOM     11  O   LIG d   1       3.211   1.768  -3.991  0.00  0.00    -0.545 OA
ATOM     12  O   LIG d   1       3.445   1.373  -1.923  0.00  0.00    -0.545 OA
ENDBRANCH   2  10
BRANCH   6  13
ATOM     13  C   LIG d   1       4.726  -3.294  -5.198  0.00  0.00     0.073 C 
ATOM     14  O   LIG d   1       4.379  -4.316  -4.622  0.00  0.00    -0.545 OA
ATOM     15  O   LIG d   1       4.741  -3.257  -6.420  0.00  0.00    -0.545 OA
ENDBRANCH   6  13
TORSDOF 2
ENDMDL
MODEL 10
REMARK VINA RESULT:      -4.2      2.011      2.248
REMARK  2 active torsions:
REMARK  status: ('A' for Active; 'I' for Inactive)
REMARK    1  A    between atoms: C_2  and  C_10 
REMARK    2  A    between atoms: C_6  and  C_7 
ROOT
ATOM      1  C   LIG d   1       4.738  -0.454  -4.420  0.00  0.00    -0.041 A 
ATOM      2  C   LIG d   1       4.732  -1.704  -5.050  0.00  0.00     0.016 A 
ATOM      3  C   LIG d   1       4.404  -2.838  -4.300  0.00  0.00     0.036 A 
ATOM      4  N   LIG d   1       4.104  -2.741  -3.021  0.00  0.00    -0.262 NA
ATOM      5  C   LIG d   1       4.097  -1.584  -2.391  0.00  0.00     0.036 A 
ATOM      6  C   LIG d   1       4.412  -0.399  -3.062  0.00  0.00     0.016 A 
ATOM      7  H   LIG d   1       4.990   0.442  -4.969  0.00  0.00     0.063 H 
ATOM      8  H   LIG d   1       4.398  -3.807  -4.776  0.00  0.00     0.084 H 
ATOM      9  H   LIG d   1       3.844  -1.551  -1.341  0.00  0.00     0.084 H 
ENDROOT
BRANCH   2  10
ATOM     10  C   LIG d   1       5.066  -1.823  -6.482  0.00  0.00     0.073 C 
ATOM     11  O   LIG d   1       5.769  -0.978  -7.018  0.00  0.00    -0.545 OA
ATOM     12  O   LIG d   1       4.641  -2.767  -7.132  0.00  0.00    -0.545 OA
ENDBRANCH   2  10
BRANCH   6  13
ATOM     13  C   LIG d   1       4.402   0.892  -2.347  0.00  0.00     0.073 C 
ATOM     14  O   LIG d   1       5.455   1.460  -2.096  0.00  0.00    -0.545 OA
ATOM     15  O   LIG d   1       3.340   1.393  -2.004  0.00  0.00    -0.545 OA
ENDBRANCH   6  13
TORSDOF 2
ENDMDL
