MODEL 1
REMARK VINA RESULT:      -7.9      0.000      0.000
REMARK  7 active torsions:
REMARK  status: ('A' for Active; 'I' for Inactive)
REMARK    1  A    between atoms: C_1  and  O_2 
REMARK    2  A    between atoms: O_2  and  C_3 
REMARK    3  A    between atoms: C_3  and  C_4 
REMARK    4  A    between atoms: C_4  and  C_5 
REMARK       I    between atoms: C_5  and  N_7 
REMARK    5  A    between atoms: C_18  and  N_23 
REMARK    6  A    between atoms: N_23  and  S_24 
REMARK    7  A    between atoms: S_24  and  C_27 
ROOT
ATOM      1  C   LIG d   1       6.577   0.672  -3.608  0.00  0.00     0.218 C 
ATOM      2  O   LIG d   1       6.349   1.834  -3.344  0.00  0.00    -0.276 OA
ATOM      3  N   LIG d   1       5.905  -0.308  -2.972  0.00  0.00    -0.300 N 
ATOM      4  C   LIG d   1       4.894   0.013  -1.958  0.00  0.00     0.019 C 
ATOM      5  C   LIG d   1       3.600  -0.735  -2.251  0.00  0.00    -0.006 C 
ATOM      6  H   LIG d   1       2.948  -0.637  -1.383  0.00  0.00     0.033 H 
ATOM      7  C   LIG d   1       3.867  -2.222  -2.481  0.00  0.00    -0.037 C 
ATOM      8  C   LIG d   1       4.839  -2.366  -3.655  0.00  0.00     0.016 C 
ATOM      9  H   LIG d   1       4.973  -3.418  -3.904  0.00  0.00     0.038 H 
ATOM     10  C   LIG d   1       6.179  -1.725  -3.253  0.00  0.00     0.023 C 
ATOM     11  C   LIG d   1       4.309  -1.611  -4.851  0.00  0.00     0.027 C 
ATOM     12  C   LIG d   1       4.695  -2.037  -6.082  0.00  0.00    -0.040 C 
ATOM     13  C   LIG d   1       4.352  -1.310  -7.228  0.00  0.00    -0.032 C 
ATOM     14  C   LIG d   1       3.638  -0.151  -7.085  0.00  0.00     0.112 C 
ATOM     15  C   LIG d   1       3.247   0.258  -5.795  0.00  0.00     0.274 C 
ATOM     16  O   LIG d   1       2.661   1.318  -5.646  0.00  0.00    -0.266 OA
ATOM     17  N   LIG d   1       3.519  -0.517  -4.717  0.00  0.00    -0.310 N 
ATOM     18  C   LIG d   1       2.882  -0.147  -3.452  0.00  0.00     0.031 C 
ATOM     19  H   LIG d   1       4.701   1.086  -1.966  0.00  0.00     0.047 H 
ATOM     20  H   LIG d   1       5.264  -0.278  -0.975  0.00  0.00     0.047 H 
ATOM     21  H   LIG d   1       2.931  -2.731  -2.716  0.00  0.00     0.028 H 
ATOM     22  H   LIG d   1       4.308  -2.658  -1.585  0.00  0.00     0.028 H 
ATOM     23  H   LIG d   1       6.581  -2.226  -2.373  0.00  0.00     0.047 H 
ATOM     24  H   LIG d   1       6.887  -1.798  -4.079  0.00  0.00     0.047 H 
ATOM     25  H   LIG d   1       5.270  -2.947  -6.177  0.00  0.00     0.064 H 
ATOM     26  H   LIG d   1       4.646  -1.656  -8.207  0.00  0.00     0.064 H 
ATOM     27  H   LIG d   1       2.876   0.940  -3.364  0.00  0.00     0.050 H 
ATOM     28  H   LIG d   1       1.852  -0.505  -3.458  0.00  0.00     0.050 H 
ENDROOT
BRANCH  14  29
ATOM     29  N   LIG d   1       3.299   0.617  -8.207  0.00  0.00    -0.211 N 
ATOM     30  H   LIG d   1       2.382   0.638  -8.520  0.00  0.00     0.174 HD
BRANCH  29  31
ATOM     31  S   LIG d   1       4.466   1.488  -8.997  0.00  0.00     0.072 S 
ATOM     32  O   LIG d   1       3.839   2.671  -9.470  0.00  0.00    -0.150 OA
ATOM     33  O   LIG d   1       5.600   1.516  -8.141  0.00  0.00    -0.150 OA
BRANCH  31  34
ATOM     34  C   LIG d   1       4.933   0.560 -10.421  0.00  0.00     0.109 A 
ATOM     35  C   LIG d   1       4.069   0.465 -11.496  0.00  0.00    -0.034 A 
ATOM     36  C   LIG d   1       4.434  -0.262 -12.613  0.00  0.00    -0.042 A 
ATOM     37  H   LIG d   1       3.109   0.958 -11.463  0.00  0.00     0.064 H 
ATOM     38  C   LIG d   1       5.665  -0.893 -12.655  0.00  0.00     0.041 A 
ATOM     39  H   LIG d   1       3.760  -0.337 -13.454  0.00  0.00     0.063 H 
ATOM     40  C   LIG d   1       6.528  -0.797 -11.579  0.00  0.00    -0.042 A 
ATOM     41 CL   LIG d   1       6.125  -1.806 -14.059  0.00  0.00    -0.084 Cl
ATOM     42  C   LIG d   1       6.164  -0.066 -10.464  0.00  0.00    -0.034 A 
ATOM     43  H   LIG d   1       7.489  -1.290 -11.612  0.00  0.00     0.063 H 
ATOM     44  H   LIG d   1       6.841   0.014  -9.626  0.00  0.00     0.064 H 
ENDBRANCH  31  34
ENDBRANCH  29  31
ENDBRANCH  14  29
BRANCH   1  45
ATOM     45  C   LIG d   1       7.613   0.325  -4.648  0.00  0.00     0.048 C 
ATOM     46  H   LIG d   1       8.268  -0.454  -4.260  0.00  0.00     0.038 H 
ATOM     47  H   LIG d   1       7.116  -0.033  -5.549  0.00  0.00     0.038 H 
BRANCH  45  48
ATOM     48  C   LIG d   1       8.439   1.569  -4.980  0.00  0.00     0.056 C 
ATOM     49  H   LIG d   1       8.637   1.597  -6.052  0.00  0.00     0.056 H 
ATOM     50  H   LIG d   1       7.885   2.462  -4.690  0.00  0.00     0.056 H 
BRANCH  48  51
ATOM     51  O   LIG d   1       9.677   1.523  -4.268  0.00  0.00    -0.383 OA
BRANCH  51  52
ATOM     52  C   LIG d   1       9.847   2.586  -3.328  0.00  0.00     0.036 C 
ATOM     53  H   LIG d   1       9.823   2.182  -2.316  0.00  0.00     0.052 H 
ATOM     54  H   LIG d   1      10.807   3.074  -3.502  0.00  0.00     0.052 H 
ATOM     55  H   LIG d   1       9.043   3.310  -3.450  0.00  0.00     0.052 H 
ENDBRANCH  51  52
ENDBRANCH  48  51
ENDBRANCH  45  48
ENDBRANCH   1  45
TORSDOF 7
ENDMDL
MODEL 2
REMARK VINA RESULT:      -7.1      1.833      2.282
REMARK  7 active torsions:
REMARK  status: ('A' for Active; 'I' for Inactive)
REMARK    1  A    between atoms: C_1  and  O_2 
REMARK    2  A    between atoms: O_2  and  C_3 
REMARK    3  A    between atoms: C_3  and  C_4 
REMARK    4  A    between atoms: C_4  and  C_5 
REMARK       I    between atoms: C_5  and  N_7 
REMARK    5  A    between atoms: C_18  and  N_23 
REMARK    6  A    between atoms: N_23  and  S_24 
REMARK    7  A    between atoms: S_24  and  C_27 
ROOT
ATOM      1  C   LIG d   1       6.859   0.577  -3.903  0.00  0.00     0.218 C 
ATOM      2  O   LIG d   1       6.732   1.774  -4.055  0.00  0.00    -0.276 OA
ATOM      3  N   LIG d   1       6.029  -0.088  -3.075  0.00  0.00    -0.300 N 
ATOM      4  C   LIG d   1       4.968   0.620  -2.350  0.00  0.00     0.019 C 
ATOM      5  C   LIG d   1       3.634  -0.090  -2.545  0.00  0.00    -0.006 C 
ATOM      6  H   LIG d   1       2.917   0.334  -1.842  0.00  0.00     0.033 H 
ATOM      7  C   LIG d   1       3.761  -1.585  -2.252  0.00  0.00    -0.037 C 
ATOM      8  C   LIG d   1       4.818  -2.176  -3.188  0.00  0.00     0.016 C 
ATOM      9  H   LIG d   1       4.861  -3.258  -3.068  0.00  0.00     0.038 H 
ATOM     10  C   LIG d   1       6.175  -1.534  -2.851  0.00  0.00     0.023 C 
ATOM     11  C   LIG d   1       4.485  -1.824  -4.619  0.00  0.00     0.027 C 
ATOM     12  C   LIG d   1       4.937  -2.659  -5.590  0.00  0.00    -0.040 C 
ATOM     13  C   LIG d   1       4.782  -2.329  -6.942  0.00  0.00    -0.032 C 
ATOM     14  C   LIG d   1       4.186  -1.140  -7.268  0.00  0.00     0.112 C 
ATOM     15  C   LIG d   1       3.723  -0.302  -6.236  0.00  0.00     0.274 C 
ATOM     16  O   LIG d   1       3.241   0.786  -6.508  0.00  0.00    -0.266 OA
ATOM     17  N   LIG d   1       3.808  -0.694  -4.941  0.00  0.00    -0.310 N 
ATOM     18  C   LIG d   1       3.098   0.117  -3.950  0.00  0.00     0.031 C 
ATOM     19  H   LIG d   1       4.892   1.640  -2.725  0.00  0.00     0.047 H 
ATOM     20  H   LIG d   1       5.210   0.645  -1.288  0.00  0.00     0.047 H 
ATOM     21  H   LIG d   1       2.802  -2.075  -2.425  0.00  0.00     0.028 H 
ATOM     22  H   LIG d   1       4.067  -1.730  -1.216  0.00  0.00     0.028 H 
ATOM     23  H   LIG d   1       6.437  -1.743  -1.814  0.00  0.00     0.047 H 
ATOM     24  H   LIG d   1       6.945  -1.926  -3.515  0.00  0.00     0.047 H 
ATOM     25  H   LIG d   1       5.418  -3.587  -5.317  0.00  0.00     0.064 H 
ATOM     26  H   LIG d   1       5.129  -2.998  -7.714  0.00  0.00     0.064 H 
ATOM     27  H   LIG d   1       3.200   1.169  -4.217  0.00  0.00     0.050 H 
ATOM     28  H   LIG d   1       2.041  -0.150  -3.968  0.00  0.00     0.050 H 
ENDROOT
BRANCH  14  29
ATOM     29  N   LIG d   1       4.038  -0.765  -8.609  0.00  0.00    -0.211 N 
ATOM     30  H   LIG d   1       4.712  -0.212  -9.034  0.00  0.00     0.174 HD
BRANCH  29  31
ATOM     31  S   LIG d   1       2.713  -1.266  -9.468  0.00  0.00     0.072 S 
ATOM     32  O   LIG d   1       2.542  -2.646  -9.181  0.00  0.00    -0.150 OA
ATOM     33  O   LIG d   1       1.692  -0.305  -9.234  0.00  0.00    -0.150 OA
BRANCH  31  34
ATOM     34  C   LIG d   1       3.128  -1.154 -11.177  0.00  0.00     0.109 A 
ATOM     35  C   LIG d   1       4.201  -0.380 -11.578  0.00  0.00    -0.034 A 
ATOM     36  C   LIG d   1       4.527  -0.291 -12.917  0.00  0.00    -0.042 A 
ATOM     37  H   LIG d   1       4.785   0.155 -10.844  0.00  0.00     0.064 H 
ATOM     38  C   LIG d   1       3.780  -0.978 -13.858  0.00  0.00     0.041 A 
ATOM     39  H   LIG d   1       5.366   0.313 -13.231  0.00  0.00     0.063 H 
ATOM     40  C   LIG d   1       2.705  -1.751 -13.456  0.00  0.00    -0.042 A 
ATOM     41 CL   LIG d   1       4.188  -0.867 -15.542  0.00  0.00    -0.084 Cl
ATOM     42  C   LIG d   1       2.383  -1.843 -12.115  0.00  0.00    -0.034 A 
ATOM     43  H   LIG d   1       2.122  -2.288 -14.190  0.00  0.00     0.063 H 
ATOM     44  H   LIG d   1       1.548  -2.452 -11.801  0.00  0.00     0.064 H 
ENDBRANCH  31  34
ENDBRANCH  29  31
ENDBRANCH  14  29
BRANCH   1  45
ATOM     45  C   LIG d   1       7.943  -0.166  -4.641  0.00  0.00     0.048 C 
ATOM     46  H   LIG d   1       8.917   0.214  -4.332  0.00  0.00     0.038 H 
ATOM     47  H   LIG d   1       7.878  -1.229  -4.408  0.00  0.00     0.038 H 
BRANCH  45  48
ATOM     48  C   LIG d   1       7.770   0.039  -6.146  0.00  0.00     0.056 C 
ATOM     49  H   LIG d   1       7.818  -0.926  -6.652  0.00  0.00     0.056 H 
ATOM     50  H   LIG d   1       6.803   0.503  -6.341  0.00  0.00     0.056 H 
BRANCH  48  51
ATOM     51  O   LIG d   1       8.812   0.886  -6.636  0.00  0.00    -0.383 OA
BRANCH  51  52
ATOM     52  C   LIG d   1       8.346   1.992  -7.409  0.00  0.00     0.036 C 
ATOM     53  H   LIG d   1       7.299   1.838  -7.669  0.00  0.00     0.052 H 
ATOM     54  H   LIG d   1       8.444   2.909  -6.828  0.00  0.00     0.052 H 
ATOM     55  H   LIG d   1       8.938   2.074  -8.321  0.00  0.00     0.052 H 
ENDBRANCH  51  52
ENDBRANCH  48  51
ENDBRANCH  45  48
ENDBRANCH   1  45
TORSDOF 7
ENDMDL
MODEL 3
REMARK VINA RESULT:      -7.0      2.206      2.466
REMARK  7 active torsions:
REMARK  status: ('A' for Active; 'I' for Inactive)
REMARK    1  A    between atoms: C_1  and  O_2 
REMARK    2  A    between atoms: O_2  and  C_3 
REMARK    3  A    between atoms: C_3  and  C_4 
REMARK    4  A    between atoms: C_4  and  C_5 
REMARK       I    between atoms: C_5  and  N_7 
REMARK    5  A    between atoms: C_18  and  N_23 
REMARK    6  A    between atoms: N_23  and  S_24 
REMARK    7  A    between atoms: S_24  and  C_27 
ROOT
ATOM      1  C   LIG d   1       6.584   0.657  -3.503  0.00  0.00     0.218 C 
ATOM      2  O   LIG d   1       6.346   1.844  -3.427  0.00  0.00    -0.276 OA
ATOM      3  N   LIG d   1       5.789  -0.231  -2.874  0.00  0.00    -0.300 N 
ATOM      4  C   LIG d   1       4.632   0.220  -2.093  0.00  0.00     0.019 C 
ATOM      5  C   LIG d   1       3.385  -0.552  -2.507  0.00  0.00    -0.006 C 
ATOM      6  H   LIG d   1       2.600  -0.342  -1.781  0.00  0.00     0.033 H 
ATOM      7  C   LIG d   1       3.647  -2.058  -2.503  0.00  0.00    -0.037 C 
ATOM      8  C   LIG d   1       4.797  -2.353  -3.468  0.00  0.00     0.016 C 
ATOM      9  H   LIG d   1       4.943  -3.429  -3.559  0.00  0.00     0.038 H 
ATOM     10  C   LIG d   1       6.068  -1.674  -2.928  0.00  0.00     0.023 C 
ATOM     11  C   LIG d   1       4.495  -1.753  -4.821  0.00  0.00     0.027 C 
ATOM     12  C   LIG d   1       5.070  -2.333  -5.906  0.00  0.00    -0.040 C 
ATOM     13  C   LIG d   1       4.943  -1.754  -7.174  0.00  0.00    -0.032 C 
ATOM     14  C   LIG d   1       4.247  -0.582  -7.299  0.00  0.00     0.112 C 
ATOM     15  C   LIG d   1       3.657  -0.012  -6.154  0.00  0.00     0.274 C 
ATOM     16  O   LIG d   1       3.083   1.062  -6.239  0.00  0.00    -0.266 OA
ATOM     17  N   LIG d   1       3.724  -0.646  -4.958  0.00  0.00    -0.310 N 
ATOM     18  C   LIG d   1       2.894  -0.116  -3.875  0.00  0.00     0.031 C 
ATOM     19  H   LIG d   1       4.471   1.284  -2.266  0.00  0.00     0.047 H 
ATOM     20  H   LIG d   1       4.823   0.054  -1.033  0.00  0.00     0.047 H 
ATOM     21  H   LIG d   1       2.750  -2.586  -2.828  0.00  0.00     0.028 H 
ATOM     22  H   LIG d   1       3.920  -2.379  -1.498  0.00  0.00     0.028 H 
ATOM     23  H   LIG d   1       6.303  -2.062  -1.937  0.00  0.00     0.047 H 
ATOM     24  H   LIG d   1       6.902  -1.855  -3.606  0.00  0.00     0.047 H 
ATOM     25  H   LIG d   1       5.628  -3.250  -5.789  0.00  0.00     0.064 H 
ATOM     26  H   LIG d   1       5.388  -2.222  -8.039  0.00  0.00     0.064 H 
ATOM     27  H   LIG d   1       2.902   0.973  -3.924  0.00  0.00     0.050 H 
ATOM     28  H   LIG d   1       1.870  -0.466  -4.011  0.00  0.00     0.050 H 
ENDROOT
BRANCH  14  29
ATOM     29  N   LIG d   1       4.121   0.039  -8.548  0.00  0.00    -0.211 N 
ATOM     30  H   LIG d   1       4.714   0.768  -8.788  0.00  0.00     0.174 HD
BRANCH  29  31
ATOM     31  S   LIG d   1       2.961  -0.471  -9.614  0.00  0.00     0.072 S 
ATOM     32  O   LIG d   1       1.751  -0.572  -8.878  0.00  0.00    -0.150 OA
ATOM     33  O   LIG d   1       3.085   0.347 -10.770  0.00  0.00    -0.150 OA
BRANCH  31  34
ATOM     34  C   LIG d   1       3.390  -2.107 -10.107  0.00  0.00     0.109 A 
ATOM     35  C   LIG d   1       4.540  -2.327 -10.843  0.00  0.00    -0.034 A 
ATOM     36  C   LIG d   1       4.877  -3.610 -11.230  0.00  0.00    -0.042 A 
ATOM     37  H   LIG d   1       5.174  -1.497 -11.115  0.00  0.00     0.064 H 
ATOM     38  C   LIG d   1       4.065  -4.674 -10.881  0.00  0.00     0.041 A 
ATOM     39  H   LIG d   1       5.775  -3.782 -11.806  0.00  0.00     0.063 H 
ATOM     40  C   LIG d   1       2.915  -4.453 -10.145  0.00  0.00    -0.042 A 
ATOM     41 CL   LIG d   1       4.488  -6.286 -11.367  0.00  0.00    -0.084 Cl
ATOM     42  C   LIG d   1       2.581  -3.170  -9.754  0.00  0.00    -0.034 A 
ATOM     43  H   LIG d   1       2.280  -5.283  -9.872  0.00  0.00     0.063 H 
ATOM     44  H   LIG d   1       1.686  -2.999  -9.174  0.00  0.00     0.064 H 
ENDBRANCH  31  34
ENDBRANCH  29  31
ENDBRANCH  14  29
BRANCH   1  45
ATOM     45  C   LIG d   1       7.769   0.176  -4.301  0.00  0.00     0.048 C 
ATOM     46  H   LIG d   1       8.677   0.645  -3.922  0.00  0.00     0.038 H 
ATOM     47  H   LIG d   1       7.853  -0.907  -4.209  0.00  0.00     0.038 H 
BRANCH  45  48
ATOM     48  C   LIG d   1       7.578   0.549  -5.773  0.00  0.00     0.056 C 
ATOM     49  H   LIG d   1       7.366  -0.351  -6.350  0.00  0.00     0.056 H 
ATOM     50  H   LIG d   1       6.746   1.246  -5.866  0.00  0.00     0.056 H 
BRANCH  48  51
ATOM     51  O   LIG d   1       8.771   1.161  -6.267  0.00  0.00    -0.383 OA
BRANCH  51  52
ATOM     52  C   LIG d   1       8.910   2.537  -5.907  0.00  0.00     0.036 C 
ATOM     53  H   LIG d   1       9.960   2.825  -5.976  0.00  0.00     0.052 H 
ATOM     54  H   LIG d   1       8.320   3.152  -6.587  0.00  0.00     0.052 H 
ATOM     55  H   LIG d   1       8.560   2.683  -4.886  0.00  0.00     0.052 H 
ENDBRANCH  51  52
ENDBRANCH  48  51
ENDBRANCH  45  48
ENDBRANCH   1  45
TORSDOF 7
ENDMDL
MODEL 4
REMARK VINA RESULT:      -6.8      1.997      2.423
REMARK  7 active torsions:
REMARK  status: ('A' for Active; 'I' for Inactive)
REMARK    1  A    between atoms: C_1  and  O_2 
REMARK    2  A    between atoms: O_2  and  C_3 
REMARK    3  A    between atoms: C_3  and  C_4 
REMARK    4  A    between atoms: C_4  and  C_5 
REMARK       I    between atoms: C_5  and  N_7 
REMARK    5  A    between atoms: C_18  and  N_23 
REMARK    6  A    between atoms: N_23  and  S_24 
REMARK    7  A    between atoms: S_24  and  C_27 
ROOT
ATOM      1  C   LIG d   1       6.607   0.666  -3.674  0.00  0.00     0.218 C 
ATOM      2  O   LIG d   1       6.376   1.836  -3.451  0.00  0.00    -0.276 OA
ATOM      3  N   LIG d   1       5.925  -0.292  -3.015  0.00  0.00    -0.300 N 
ATOM      4  C   LIG d   1       4.901   0.062  -2.026  0.00  0.00     0.019 C 
ATOM      5  C   LIG d   1       3.610  -0.695  -2.312  0.00  0.00    -0.006 C 
ATOM      6  H   LIG d   1       2.946  -0.568  -1.457  0.00  0.00     0.033 H 
ATOM      7  C   LIG d   1       3.879  -2.189  -2.489  0.00  0.00    -0.037 C 
ATOM      8  C   LIG d   1       4.866  -2.371  -3.644  0.00  0.00     0.016 C 
ATOM      9  H   LIG d   1       5.003  -3.431  -3.857  0.00  0.00     0.038 H 
ATOM     10  C   LIG d   1       6.202  -1.718  -3.246  0.00  0.00     0.023 C 
ATOM     11  C   LIG d   1       4.353  -1.656  -4.872  0.00  0.00     0.027 C 
ATOM     12  C   LIG d   1       4.755  -2.123  -6.083  0.00  0.00    -0.040 C 
ATOM     13  C   LIG d   1       4.428  -1.433  -7.256  0.00  0.00    -0.032 C 
ATOM     14  C   LIG d   1       3.714  -0.269  -7.162  0.00  0.00     0.112 C 
ATOM     15  C   LIG d   1       3.306   0.182  -5.891  0.00  0.00     0.274 C 
ATOM     16  O   LIG d   1       2.718   1.246  -5.785  0.00  0.00    -0.266 OA
ATOM     17  N   LIG d   1       3.562  -0.558  -4.784  0.00  0.00    -0.310 N 
ATOM     18  C   LIG d   1       2.908  -0.146  -3.541  0.00  0.00     0.031 C 
ATOM     19  H   LIG d   1       4.709   1.134  -2.072  0.00  0.00     0.047 H 
ATOM     20  H   LIG d   1       5.257  -0.196  -1.029  0.00  0.00     0.047 H 
ATOM     21  H   LIG d   1       2.946  -2.704  -2.720  0.00  0.00     0.028 H 
ATOM     22  H   LIG d   1       4.307  -2.595  -1.573  0.00  0.00     0.028 H 
ATOM     23  H   LIG d   1       6.591  -2.190  -2.345  0.00  0.00     0.047 H 
ATOM     24  H   LIG d   1       6.921  -1.818  -4.059  0.00  0.00     0.047 H 
ATOM     25  H   LIG d   1       5.331  -3.035  -6.140  0.00  0.00     0.064 H 
ATOM     26  H   LIG d   1       4.736  -1.811  -8.219  0.00  0.00     0.064 H 
ATOM     27  H   LIG d   1       2.902   0.943  -3.489  0.00  0.00     0.050 H 
ATOM     28  H   LIG d   1       1.879  -0.504  -3.549  0.00  0.00     0.050 H 
ENDROOT
BRANCH  14  29
ATOM     29  N   LIG d   1       3.391   0.461  -8.313  0.00  0.00    -0.211 N 
ATOM     30  H   LIG d   1       2.661   1.098  -8.292  0.00  0.00     0.174 HD
BRANCH  29  31
ATOM     31  S   LIG d   1       4.257   0.235  -9.706  0.00  0.00     0.072 S 
ATOM     32  O   LIG d   1       4.221  -1.156  -9.986  0.00  0.00    -0.150 OA
ATOM     33  O   LIG d   1       3.797   1.211 -10.631  0.00  0.00    -0.150 OA
BRANCH  31  34
ATOM     34  C   LIG d   1       5.936   0.634  -9.347  0.00  0.00     0.109 A 
ATOM     35  C   LIG d   1       6.261   1.894  -8.878  0.00  0.00    -0.034 A 
ATOM     36  C   LIG d   1       7.576   2.207  -8.596  0.00  0.00    -0.042 A 
ATOM     37  H   LIG d   1       5.486   2.632  -8.733  0.00  0.00     0.064 H 
ATOM     38  C   LIG d   1       8.568   1.261  -8.781  0.00  0.00     0.041 A 
ATOM     39  H   LIG d   1       7.831   3.192  -8.230  0.00  0.00     0.063 H 
ATOM     40  C   LIG d   1       8.242   0.001  -9.251  0.00  0.00    -0.042 A 
ATOM     41 CL   LIG d   1      10.222   1.655  -8.427  0.00  0.00    -0.084 Cl
ATOM     42  C   LIG d   1       6.925  -0.313  -9.528  0.00  0.00    -0.034 A 
ATOM     43  H   LIG d   1       9.016  -0.738  -9.396  0.00  0.00     0.063 H 
ATOM     44  H   LIG d   1       6.670  -1.299  -9.889  0.00  0.00     0.064 H 
ENDBRANCH  31  34
ENDBRANCH  29  31
ENDBRANCH  14  29
BRANCH   1  45
ATOM     45  C   LIG d   1       7.655   0.285  -4.687  0.00  0.00     0.048 C 
ATOM     46  H   LIG d   1       8.293  -0.496  -4.273  0.00  0.00     0.038 H 
ATOM     47  H   LIG d   1       7.170  -0.084  -5.590  0.00  0.00     0.038 H 
BRANCH  45  48
ATOM     48  C   LIG d   1       8.505   1.510  -5.028  0.00  0.00     0.056 C 
ATOM     49  H   LIG d   1       8.648   1.564  -6.108  0.00  0.00     0.056 H 
ATOM     50  H   LIG d   1       7.998   2.412  -4.684  0.00  0.00     0.056 H 
BRANCH  48  51
ATOM     51  O   LIG d   1       9.776   1.403  -4.384  0.00  0.00    -0.383 OA
BRANCH  51  52
ATOM     52  C   LIG d   1      10.673   0.488  -5.016  0.00  0.00     0.036 C 
ATOM     53  H   LIG d   1      10.122  -0.124  -5.730  0.00  0.00     0.052 H 
ATOM     54  H   LIG d   1      11.450   1.045  -5.540  0.00  0.00     0.052 H 
ATOM     55  H   LIG d   1      11.129  -0.153  -4.263  0.00  0.00     0.052 H 
ENDBRANCH  51  52
ENDBRANCH  48  51
ENDBRANCH  45  48
ENDBRANCH   1  45
TORSDOF 7
ENDMDL
MODEL 5
REMARK VINA RESULT:      -6.2      3.612      7.480
REMARK  7 active torsions:
REMARK  status: ('A' for Active; 'I' for Inactive)
REMARK    1  A    between atoms: C_1  and  O_2 
REMARK    2  A    between atoms: O_2  and  C_3 
REMARK    3  A    between atoms: C_3  and  C_4 
REMARK    4  A    between atoms: C_4  and  C_5 
REMARK       I    between atoms: C_5  and  N_7 
REMARK    5  A    between atoms: C_18  and  N_23 
REMARK    6  A    between atoms: N_23  and  S_24 
REMARK    7  A    between atoms: S_24  and  C_27 
ROOT
ATOM      1  C   LIG d   1       3.802  -1.277 -10.926  0.00  0.00     0.218 C 
ATOM      2  O   LIG d   1       3.181  -2.277 -10.632  0.00  0.00    -0.276 OA
ATOM      3  N   LIG d   1       3.390  -0.073 -10.484  0.00  0.00    -0.300 N 
ATOM      4  C   LIG d   1       2.192   0.047  -9.645  0.00  0.00     0.019 C 
ATOM      5  C   LIG d   1       2.501   0.872  -8.402  0.00  0.00    -0.006 C 
ATOM      6  H   LIG d   1       1.558   1.112  -7.910  0.00  0.00     0.033 H 
ATOM      7  C   LIG d   1       3.191   2.185  -8.774  0.00  0.00    -0.037 C 
ATOM      8  C   LIG d   1       4.482   1.859  -9.527  0.00  0.00     0.016 C 
ATOM      9  H   LIG d   1       5.044   2.772  -9.721  0.00  0.00     0.038 H 
ATOM     10  C   LIG d   1       4.108   1.158 -10.845  0.00  0.00     0.023 C 
ATOM     11  C   LIG d   1       5.317   0.897  -8.715  0.00  0.00     0.027 C 
ATOM     12  C   LIG d   1       6.661   0.912  -8.915  0.00  0.00    -0.040 C 
ATOM     13  C   LIG d   1       7.483  -0.039  -8.298  0.00  0.00    -0.032 C 
ATOM     14  C   LIG d   1       6.908  -0.997  -7.507  0.00  0.00     0.112 C 
ATOM     15  C   LIG d   1       5.512  -0.978  -7.316  0.00  0.00     0.274 C 
ATOM     16  O   LIG d   1       4.978  -1.859  -6.661  0.00  0.00    -0.266 OA
ATOM     17  N   LIG d   1       4.757   0.010  -7.856  0.00  0.00    -0.310 N 
ATOM     18  C   LIG d   1       3.362   0.096  -7.423  0.00  0.00     0.031 C 
ATOM     19  H   LIG d   1       1.859  -0.946  -9.345  0.00  0.00     0.047 H 
ATOM     20  H   LIG d   1       1.400   0.535 -10.213  0.00  0.00     0.047 H 
ATOM     21  H   LIG d   1       3.426   2.744  -7.868  0.00  0.00     0.028 H 
ATOM     22  H   LIG d   1       2.533   2.776  -9.411  0.00  0.00     0.028 H 
ATOM     23  H   LIG d   1       3.480   1.813 -11.448  0.00  0.00     0.047 H 
ATOM     24  H   LIG d   1       5.012   0.899 -11.397  0.00  0.00     0.047 H 
ATOM     25  H   LIG d   1       7.098   1.665  -9.553  0.00  0.00     0.064 H 
ATOM     26  H   LIG d   1       8.552  -0.019  -8.445  0.00  0.00     0.064 H 
ATOM     27  H   LIG d   1       2.961  -0.913  -7.321  0.00  0.00     0.050 H 
ATOM     28  H   LIG d   1       3.324   0.588  -6.451  0.00  0.00     0.050 H 
ENDROOT
BRANCH  14  29
ATOM     29  N   LIG d   1       7.696  -1.980  -6.895  0.00  0.00    -0.211 N 
ATOM     30  H   LIG d   1       7.759  -2.863  -7.288  0.00  0.00     0.174 HD
BRANCH  29  31
ATOM     31  S   LIG d   1       8.519  -1.631  -5.501  0.00  0.00     0.072 S 
ATOM     32  O   LIG d   1       8.899  -2.875  -4.932  0.00  0.00    -0.150 OA
ATOM     33  O   LIG d   1       9.464  -0.622  -5.830  0.00  0.00    -0.150 OA
BRANCH  31  34
ATOM     34  C   LIG d   1       7.367  -0.898  -4.386  0.00  0.00     0.109 A 
ATOM     35  C   LIG d   1       7.338   0.476  -4.228  0.00  0.00    -0.034 A 
ATOM     36  C   LIG d   1       6.436   1.051  -3.355  0.00  0.00    -0.042 A 
ATOM     37  H   LIG d   1       8.020   1.098  -4.788  0.00  0.00     0.064 H 
ATOM     38  C   LIG d   1       5.561   0.254  -2.638  0.00  0.00     0.041 A 
ATOM     39  H   LIG d   1       6.412   2.124  -3.231  0.00  0.00     0.063 H 
ATOM     40  C   LIG d   1       5.592  -1.120  -2.796  0.00  0.00    -0.042 A 
ATOM     41 CL   LIG d   1       4.427   0.977  -1.540  0.00  0.00    -0.084 Cl
ATOM     42  C   LIG d   1       6.491  -1.695  -3.674  0.00  0.00    -0.034 A 
ATOM     43  H   LIG d   1       4.909  -1.743  -2.237  0.00  0.00     0.063 H 
ATOM     44  H   LIG d   1       6.511  -2.767  -3.802  0.00  0.00     0.064 H 
ENDBRANCH  31  34
ENDBRANCH  29  31
ENDBRANCH  14  29
BRANCH   1  45
ATOM     45  C   LIG d   1       5.036  -1.383 -11.787  0.00  0.00     0.048 C 
ATOM     46  H   LIG d   1       4.784  -1.887 -12.720  0.00  0.00     0.038 H 
ATOM     47  H   LIG d   1       5.413  -0.384 -12.003  0.00  0.00     0.038 H 
BRANCH  45  48
ATOM     48  C   LIG d   1       6.107  -2.185 -11.046  0.00  0.00     0.056 C 
ATOM     49  H   LIG d   1       7.082  -1.723 -11.207  0.00  0.00     0.056 H 
ATOM     50  H   LIG d   1       5.882  -2.196  -9.980  0.00  0.00     0.056 H 
BRANCH  48  51
ATOM     51  O   LIG d   1       6.128  -3.525 -11.543  0.00  0.00    -0.383 OA
BRANCH  51  52
ATOM     52  C   LIG d   1       6.147  -3.616 -12.968  0.00  0.00     0.036 C 
ATOM     53  H   LIG d   1       6.673  -2.755 -13.380  0.00  0.00     0.052 H 
ATOM     54  H   LIG d   1       6.659  -4.531 -13.267  0.00  0.00     0.052 H 
ATOM     55  H   LIG d   1       5.125  -3.630 -13.346  0.00  0.00     0.052 H 
ENDBRANCH  51  52
ENDBRANCH  48  51
ENDBRANCH  45  48
ENDBRANCH   1  45
TORSDOF 7
ENDMDL
MODEL 6
REMARK VINA RESULT:      -6.1      2.884      4.610
REMARK  7 active torsions:
REMARK  status: ('A' for Active; 'I' for Inactive)
REMARK    1  A    between atoms: C_1  and  O_2 
REMARK    2  A    between atoms: O_2  and  C_3 
REMARK    3  A    between atoms: C_3  and  C_4 
REMARK    4  A    between atoms: C_4  and  C_5 
REMARK       I    between atoms: C_5  and  N_7 
REMARK    5  A    between atoms: C_18  and  N_23 
REMARK    6  A    between atoms: N_23  and  S_24 
REMARK    7  A    between atoms: S_24  and  C_27 
ROOT
ATOM      1  C   LIG d   1       5.191  -2.915  -4.557  0.00  0.00     0.218 C 
ATOM      2  O   LIG d   1       4.338  -3.562  -5.129  0.00  0.00    -0.276 OA
ATOM      3  N   LIG d   1       6.469  -3.342  -4.550  0.00  0.00    -0.300 N 
ATOM      4  C   LIG d   1       6.847  -4.587  -5.229  0.00  0.00     0.019 C 
ATOM      5  C   LIG d   1       8.041  -4.345  -6.143  0.00  0.00    -0.006 C 
ATOM      6  H   LIG d   1       8.419  -5.314  -6.471  0.00  0.00     0.033 H 
ATOM      7  C   LIG d   1       9.164  -3.622  -5.399  0.00  0.00    -0.037 C 
ATOM      8  C   LIG d   1       8.621  -2.291  -4.875  0.00  0.00     0.016 C 
ATOM      9  H   LIG d   1       9.424  -1.710  -4.423  0.00  0.00     0.038 H 
ATOM     10  C   LIG d   1       7.518  -2.592  -3.844  0.00  0.00     0.023 C 
ATOM     11  C   LIG d   1       7.991  -1.515  -6.008  0.00  0.00     0.027 C 
ATOM     12  C   LIG d   1       7.954  -0.162  -5.896  0.00  0.00    -0.040 C 
ATOM     13  C   LIG d   1       7.271   0.613  -6.840  0.00  0.00    -0.032 C 
ATOM     14  C   LIG d   1       6.623  -0.018  -7.869  0.00  0.00     0.112 C 
ATOM     15  C   LIG d   1       6.689  -1.422  -7.959  0.00  0.00     0.274 C 
ATOM     16  O   LIG d   1       6.070  -2.003  -8.836  0.00  0.00    -0.266 OA
ATOM     17  N   LIG d   1       7.434  -2.134  -7.078  0.00  0.00    -0.310 N 
ATOM     18  C   LIG d   1       7.643  -3.552  -7.374  0.00  0.00     0.031 C 
ATOM     19  H   LIG d   1       6.006  -4.946  -5.821  0.00  0.00     0.047 H 
ATOM     20  H   LIG d   1       7.110  -5.339  -4.485  0.00  0.00     0.047 H 
ATOM     21  H   LIG d   1       9.994  -3.436  -6.081  0.00  0.00     0.028 H 
ATOM     22  H   LIG d   1       9.502  -4.235  -4.564  0.00  0.00     0.028 H 
ATOM     23  H   LIG d   1       7.929  -3.176  -3.022  0.00  0.00     0.047 H 
ATOM     24  H   LIG d   1       7.101  -1.659  -3.465  0.00  0.00     0.047 H 
ATOM     25  H   LIG d   1       8.458   0.320  -5.071  0.00  0.00     0.064 H 
ATOM     26  H   LIG d   1       7.253   1.689  -6.759  0.00  0.00     0.064 H 
ATOM     27  H   LIG d   1       6.720  -3.968  -7.780  0.00  0.00     0.050 H 
ATOM     28  H   LIG d   1       8.429  -3.644  -8.124  0.00  0.00     0.050 H 
ENDROOT
BRANCH  14  29
ATOM     29  N   LIG d   1       5.908   0.723  -8.818  0.00  0.00    -0.211 N 
ATOM     30  H   LIG d   1       6.337   0.994  -9.643  0.00  0.00     0.174 HD
BRANCH  29  31
ATOM     31  S   LIG d   1       4.330   1.134  -8.529  0.00  0.00     0.072 S 
ATOM     32  O   LIG d   1       3.998   0.600  -7.256  0.00  0.00    -0.150 OA
ATOM     33  O   LIG d   1       4.210   2.518  -8.830  0.00  0.00    -0.150 OA
BRANCH  31  34
ATOM     34  C   LIG d   1       3.343   0.275  -9.710  0.00  0.00     0.109 A 
ATOM     35  C   LIG d   1       2.081  -0.170  -9.362  0.00  0.00    -0.034 A 
ATOM     36  C   LIG d   1       1.307  -0.843 -10.287  0.00  0.00    -0.042 A 
ATOM     37  H   LIG d   1       1.701   0.009  -8.367  0.00  0.00     0.064 H 
ATOM     38  C   LIG d   1       1.794  -1.072 -11.561  0.00  0.00     0.041 A 
ATOM     39  H   LIG d   1       0.321  -1.192 -10.016  0.00  0.00     0.063 H 
ATOM     40  C   LIG d   1       3.058  -0.627 -11.908  0.00  0.00    -0.042 A 
ATOM     41 CL   LIG d   1       0.822  -1.918 -12.725  0.00  0.00    -0.084 Cl
ATOM     42  C   LIG d   1       3.829   0.052 -10.984  0.00  0.00    -0.034 A 
ATOM     43  H   LIG d   1       3.438  -0.805 -12.903  0.00  0.00     0.063 H 
ATOM     44  H   LIG d   1       4.813   0.404 -11.257  0.00  0.00     0.064 H 
ENDBRANCH  31  34
ENDBRANCH  29  31
ENDBRANCH  14  29
BRANCH   1  45
ATOM     45  C   LIG d   1       4.819  -1.633  -3.856  0.00  0.00     0.048 C 
ATOM     46  H   LIG d   1       5.712  -1.191  -3.413  0.00  0.00     0.038 H 
ATOM     47  H   LIG d   1       4.388  -0.938  -4.575  0.00  0.00     0.038 H 
BRANCH  45  48
ATOM     48  C   LIG d   1       3.797  -1.931  -2.757  0.00  0.00     0.056 C 
ATOM     49  H   LIG d   1       3.494  -2.977  -2.817  0.00  0.00     0.056 H 
ATOM     50  H   LIG d   1       4.245  -1.738  -1.782  0.00  0.00     0.056 H 
BRANCH  48  51
ATOM     51  O   LIG d   1       2.653  -1.092  -2.930  0.00  0.00    -0.383 OA
BRANCH  51  52
ATOM     52  C   LIG d   1       2.813  -0.093  -3.939  0.00  0.00     0.036 C 
ATOM     53  H   LIG d   1       1.844   0.356  -4.160  0.00  0.00     0.052 H 
ATOM     54  H   LIG d   1       3.498   0.677  -3.583  0.00  0.00     0.052 H 
ATOM     55  H   LIG d   1       3.215  -0.550  -4.843  0.00  0.00     0.052 H 
ENDBRANCH  51  52
ENDBRANCH  48  51
ENDBRANCH  45  48
ENDBRANCH   1  45
TORSDOF 7
ENDMDL
MODEL 7
REMARK VINA RESULT:      -6.1      3.553      6.477
REMARK  7 active torsions:
REMARK  status: ('A' for Active; 'I' for Inactive)
REMARK    1  A    between atoms: C_1  and  O_2 
REMARK    2  A    between atoms: O_2  and  C_3 
REMARK    3  A    between atoms: C_3  and  C_4 
REMARK    4  A    between atoms: C_4  and  C_5 
REMARK       I    between atoms: C_5  and  N_7 
REMARK    5  A    between atoms: C_18  and  N_23 
REMARK    6  A    between atoms: N_23  and  S_24 
REMARK    7  A    between atoms: S_24  and  C_27 
ROOT
ATOM      1  C   LIG d   1       4.500  -0.758  -6.625  0.00  0.00     0.218 C 
ATOM      2  O   LIG d   1       5.000  -1.419  -7.511  0.00  0.00    -0.276 OA
ATOM      3  N   LIG d   1       4.179  -1.337  -5.452  0.00  0.00    -0.300 N 
ATOM      4  C   LIG d   1       4.429  -2.766  -5.228  0.00  0.00     0.019 C 
ATOM      5  C   LIG d   1       5.178  -2.970  -3.918  0.00  0.00    -0.006 C 
ATOM      6  H   LIG d   1       5.169  -4.035  -3.683  0.00  0.00     0.033 H 
ATOM      7  C   LIG d   1       4.492  -2.225  -2.773  0.00  0.00    -0.037 C 
ATOM      8  C   LIG d   1       4.438  -0.736  -3.125  0.00  0.00     0.016 C 
ATOM      9  H   LIG d   1       4.041  -0.166  -2.286  0.00  0.00     0.038 H 
ATOM     10  C   LIG d   1       3.548  -0.567  -4.370  0.00  0.00     0.023 C 
ATOM     11  C   LIG d   1       5.822  -0.245  -3.480  0.00  0.00     0.027 C 
ATOM     12  C   LIG d   1       6.087   1.073  -3.288  0.00  0.00    -0.040 C 
ATOM     13  C   LIG d   1       7.299   1.626  -3.716  0.00  0.00    -0.032 C 
ATOM     14  C   LIG d   1       8.207   0.819  -4.349  0.00  0.00     0.112 C 
ATOM     15  C   LIG d   1       7.903  -0.545  -4.524  0.00  0.00     0.274 C 
ATOM     16  O   LIG d   1       8.676  -1.265  -5.137  0.00  0.00    -0.266 OA
ATOM     17  N   LIG d   1       6.758  -1.066  -4.017  0.00  0.00    -0.310 N 
ATOM     18  C   LIG d   1       6.624  -2.523  -4.032  0.00  0.00     0.031 C 
ATOM     19  H   LIG d   1       5.025  -3.162  -6.050  0.00  0.00     0.047 H 
ATOM     20  H   LIG d   1       3.478  -3.297  -5.186  0.00  0.00     0.047 H 
ATOM     21  H   LIG d   1       5.062  -2.363  -1.853  0.00  0.00     0.028 H 
ATOM     22  H   LIG d   1       3.480  -2.608  -2.641  0.00  0.00     0.028 H 
ATOM     23  H   LIG d   1       2.545  -0.938  -4.161  0.00  0.00     0.047 H 
ATOM     24  H   LIG d   1       3.505   0.484  -4.654  0.00  0.00     0.047 H 
ATOM     25  H   LIG d   1       5.355   1.700  -2.800  0.00  0.00     0.064 H 
ATOM     26  H   LIG d   1       7.516   2.670  -3.552  0.00  0.00     0.064 H 
ATOM     27  H   LIG d   1       7.041  -2.907  -4.964  0.00  0.00     0.050 H 
ATOM     28  H   LIG d   1       7.190  -2.938  -3.197  0.00  0.00     0.050 H 
ENDROOT
BRANCH  14  29
ATOM     29  N   LIG d   1       9.419   1.343  -4.814  0.00  0.00    -0.211 N 
ATOM     30  H   LIG d   1      10.212   1.297  -4.257  0.00  0.00     0.174 HD
BRANCH  29  31
ATOM     31  S   LIG d   1       9.500   2.040  -6.314  0.00  0.00     0.072 S 
ATOM     32  O   LIG d   1      10.747   1.657  -6.874  0.00  0.00    -0.150 OA
ATOM     33  O   LIG d   1       8.261   1.766  -6.954  0.00  0.00    -0.150 OA
BRANCH  31  34
ATOM     34  C   LIG d   1       9.568   3.784  -6.075  0.00  0.00     0.109 A 
ATOM     35  C   LIG d   1       9.361   4.317  -4.815  0.00  0.00    -0.034 A 
ATOM     36  C   LIG d   1       9.415   5.684  -4.627  0.00  0.00    -0.042 A 
ATOM     37  H   LIG d   1       9.158   3.664  -3.980  0.00  0.00     0.064 H 
ATOM     38  C   LIG d   1       9.676   6.521  -5.697  0.00  0.00     0.041 A 
ATOM     39  H   LIG d   1       9.253   6.101  -3.643  0.00  0.00     0.063 H 
ATOM     40  C   LIG d   1       9.882   5.987  -6.957  0.00  0.00    -0.042 A 
ATOM     41 CL   LIG d   1       9.743   8.240  -5.461  0.00  0.00    -0.084 Cl
ATOM     42  C   LIG d   1       9.834   4.619  -7.144  0.00  0.00    -0.034 A 
ATOM     43  H   LIG d   1      10.086   6.639  -7.793  0.00  0.00     0.063 H 
ATOM     44  H   LIG d   1      10.001   4.202  -8.126  0.00  0.00     0.064 H 
ENDBRANCH  31  34
ENDBRANCH  29  31
ENDBRANCH  14  29
BRANCH   1  45
ATOM     45  C   LIG d   1       4.237   0.711  -6.838  0.00  0.00     0.048 C 
ATOM     46  H   LIG d   1       3.964   1.172  -5.889  0.00  0.00     0.038 H 
ATOM     47  H   LIG d   1       5.135   1.187  -7.229  0.00  0.00     0.038 H 
BRANCH  45  48
ATOM     48  C   LIG d   1       3.091   0.885  -7.837  0.00  0.00     0.056 C 
ATOM     49  H   LIG d   1       3.189   0.146  -8.633  0.00  0.00     0.056 H 
ATOM     50  H   LIG d   1       2.139   0.745  -7.326  0.00  0.00     0.056 H 
BRANCH  48  51
ATOM     51  O   LIG d   1       3.143   2.199  -8.398  0.00  0.00    -0.383 OA
BRANCH  51  52
ATOM     52  C   LIG d   1       4.291   2.437  -9.214  0.00  0.00     0.036 C 
ATOM     53  H   LIG d   1       4.514   1.543  -9.796  0.00  0.00     0.052 H 
ATOM     54  H   LIG d   1       4.090   3.269  -9.890  0.00  0.00     0.052 H 
ATOM     55  H   LIG d   1       5.144   2.680  -8.581  0.00  0.00     0.052 H 
ENDBRANCH  51  52
ENDBRANCH  48  51
ENDBRANCH  45  48
ENDBRANCH   1  45
TORSDOF 7
ENDMDL
MODEL 8
REMARK VINA RESULT:      -6.1      3.840      6.836
REMARK  7 active torsions:
REMARK  status: ('A' for Active; 'I' for Inactive)
REMARK    1  A    between atoms: C_1  and  O_2 
REMARK    2  A    between atoms: O_2  and  C_3 
REMARK    3  A    between atoms: C_3  and  C_4 
REMARK    4  A    between atoms: C_4  and  C_5 
REMARK       I    between atoms: C_5  and  N_7 
REMARK    5  A    between atoms: C_18  and  N_23 
REMARK    6  A    between atoms: N_23  and  S_24 
REMARK    7  A    between atoms: S_24  and  C_27 
ROOT
ATOM      1  C   LIG d   1       4.229   0.258  -6.960  0.00  0.00     0.218 C 
ATOM      2  O   LIG d   1       5.332   0.404  -6.477  0.00  0.00    -0.276 OA
ATOM      3  N   LIG d   1       3.977   0.697  -8.209  0.00  0.00    -0.300 N 
ATOM      4  C   LIG d   1       5.026   1.354  -8.998  0.00  0.00     0.019 C 
ATOM      5  C   LIG d   1       5.125   0.714 -10.377  0.00  0.00    -0.006 C 
ATOM      6  H   LIG d   1       5.760   1.345 -10.999  0.00  0.00     0.033 H 
ATOM      7  C   LIG d   1       3.750   0.623 -11.038  0.00  0.00    -0.037 C 
ATOM      8  C   LIG d   1       2.831  -0.204 -10.136  0.00  0.00     0.016 C 
ATOM      9  H   LIG d   1       1.872  -0.368 -10.627  0.00  0.00     0.038 H 
ATOM     10  C   LIG d   1       2.643   0.556  -8.811  0.00  0.00     0.023 C 
ATOM     11  C   LIG d   1       3.485  -1.528  -9.818  0.00  0.00     0.027 C 
ATOM     12  C   LIG d   1       2.670  -2.574  -9.522  0.00  0.00    -0.040 C 
ATOM     13  C   LIG d   1       3.205  -3.793  -9.089  0.00  0.00    -0.032 C 
ATOM     14  C   LIG d   1       4.562  -3.907  -8.949  0.00  0.00     0.112 C 
ATOM     15  C   LIG d   1       5.377  -2.805  -9.272  0.00  0.00     0.274 C 
ATOM     16  O   LIG d   1       6.584  -2.872  -9.098  0.00  0.00    -0.266 OA
ATOM     17  N   LIG d   1       4.833  -1.670  -9.774  0.00  0.00    -0.310 N 
ATOM     18  C   LIG d   1       5.756  -0.664 -10.303  0.00  0.00     0.031 C 
ATOM     19  H   LIG d   1       5.982   1.254  -8.484  0.00  0.00     0.047 H 
ATOM     20  H   LIG d   1       4.787   2.412  -9.108  0.00  0.00     0.047 H 
ATOM     21  H   LIG d   1       3.843   0.137 -12.010  0.00  0.00     0.028 H 
ATOM     22  H   LIG d   1       3.337   1.623 -11.164  0.00  0.00     0.028 H 
ATOM     23  H   LIG d   1       2.198   1.532  -9.004  0.00  0.00     0.047 H 
ATOM     24  H   LIG d   1       2.004  -0.019  -8.141  0.00  0.00     0.047 H 
ATOM     25  H   LIG d   1       1.600  -2.464  -9.623  0.00  0.00     0.064 H 
ATOM     26  H   LIG d   1       2.558  -4.628  -8.867  0.00  0.00     0.064 H 
ATOM     27  H   LIG d   1       6.634  -0.618  -9.659  0.00  0.00     0.050 H 
ATOM     28  H   LIG d   1       6.068  -0.964 -11.303  0.00  0.00     0.050 H 
ENDROOT
BRANCH  14  29
ATOM     29  N   LIG d   1       5.130  -5.103  -8.493  0.00  0.00    -0.211 N 
ATOM     30  H   LIG d   1       5.676  -5.638  -9.090  0.00  0.00     0.174 HD
BRANCH  29  31
ATOM     31  S   LIG d   1       4.870  -5.602  -6.936  0.00  0.00     0.072 S 
ATOM     32  O   LIG d   1       3.463  -5.677  -6.762  0.00  0.00    -0.150 OA
ATOM     33  O   LIG d   1       5.726  -6.717  -6.719  0.00  0.00    -0.150 OA
BRANCH  31  34
ATOM     34  C   LIG d   1       5.441  -4.316  -5.874  0.00  0.00     0.109 A 
ATOM     35  C   LIG d   1       4.568  -3.713  -4.988  0.00  0.00    -0.034 A 
ATOM     36  C   LIG d   1       5.014  -2.705  -4.156  0.00  0.00    -0.042 A 
ATOM     37  H   LIG d   1       3.536  -4.031  -4.946  0.00  0.00     0.064 H 
ATOM     38  C   LIG d   1       6.336  -2.299  -4.209  0.00  0.00     0.041 A 
ATOM     39  H   LIG d   1       4.332  -2.234  -3.464  0.00  0.00     0.063 H 
ATOM     40  C   LIG d   1       7.209  -2.903  -5.097  0.00  0.00    -0.042 A 
ATOM     41 CL   LIG d   1       6.898  -1.032  -3.164  0.00  0.00    -0.084 Cl
ATOM     42  C   LIG d   1       6.763  -3.914  -5.925  0.00  0.00    -0.034 A 
ATOM     43  H   LIG d   1       8.241  -2.586  -5.138  0.00  0.00     0.063 H 
ATOM     44  H   LIG d   1       7.446  -4.389  -6.614  0.00  0.00     0.064 H 
ENDBRANCH  31  34
ENDBRANCH  29  31
ENDBRANCH  14  29
BRANCH   1  45
ATOM     45  C   LIG d   1       3.140  -0.416  -6.164  0.00  0.00     0.048 C 
ATOM     46  H   LIG d   1       2.302  -0.648  -6.820  0.00  0.00     0.038 H 
ATOM     47  H   LIG d   1       3.526  -1.336  -5.728  0.00  0.00     0.038 H 
BRANCH  45  48
ATOM     48  C   LIG d   1       2.671   0.520  -5.048  0.00  0.00     0.056 C 
ATOM     49  H   LIG d   1       3.420   1.296  -4.886  0.00  0.00     0.056 H 
ATOM     50  H   LIG d   1       1.726   0.982  -5.334  0.00  0.00     0.056 H 
BRANCH  48  51
ATOM     51  O   LIG d   1       2.491  -0.228  -3.844  0.00  0.00    -0.383 OA
BRANCH  51  52
ATOM     52  C   LIG d   1       3.255   0.258  -2.739  0.00  0.00     0.036 C 
ATOM     53  H   LIG d   1       4.131   0.790  -3.110  0.00  0.00     0.052 H 
ATOM     54  H   LIG d   1       2.643   0.936  -2.144  0.00  0.00     0.052 H 
ATOM     55  H   LIG d   1       3.575  -0.581  -2.121  0.00  0.00     0.052 H 
ENDBRANCH  51  52
ENDBRANCH  48  51
ENDBRANCH  45  48
ENDBRANCH   1  45
TORSDOF 7
ENDMDL
MODEL 9
REMARK VINA RESULT:      -6.1      4.102      7.638
REMARK  7 active torsions:
REMARK  status: ('A' for Active; 'I' for Inactive)
REMARK    1  A    between atoms: C_1  and  O_2 
REMARK    2  A    between atoms: O_2  and  C_3 
REMARK    3  A    between atoms: C_3  and  C_4 
REMARK    4  A    between atoms: C_4  and  C_5 
REMARK       I    between atoms: C_5  and  N_7 
REMARK    5  A    between atoms: C_18  and  N_23 
REMARK    6  A    between atoms: N_23  and  S_24 
REMARK    7  A    between atoms: S_24  and  C_27 
ROOT
ATOM      1  C   LIG d   1       4.873  -1.214 -11.825  0.00  0.00     0.218 C 
ATOM      2  O   LIG d   1       5.131  -2.243 -12.413  0.00  0.00    -0.276 OA
ATOM      3  N   LIG d   1       3.591  -0.895 -11.556  0.00  0.00    -0.300 N 
ATOM      4  C   LIG d   1       2.496  -1.781 -11.967  0.00  0.00     0.019 C 
ATOM      5  C   LIG d   1       1.570  -2.054 -10.788  0.00  0.00    -0.006 C 
ATOM      6  H   LIG d   1       0.672  -2.540 -11.168  0.00  0.00     0.033 H 
ATOM      7  C   LIG d   1       1.155  -0.751 -10.105  0.00  0.00    -0.037 C 
ATOM      8  C   LIG d   1       2.417  -0.027  -9.630  0.00  0.00     0.016 C 
ATOM      9  H   LIG d   1       2.147   0.858  -9.055  0.00  0.00     0.038 H 
ATOM     10  C   LIG d   1       3.247   0.358 -10.868  0.00  0.00     0.023 C 
ATOM     11  C   LIG d   1       3.254  -0.961  -8.788  0.00  0.00     0.027 C 
ATOM     12  C   LIG d   1       4.075  -0.402  -7.861  0.00  0.00    -0.040 C 
ATOM     13  C   LIG d   1       4.974  -1.193  -7.137  0.00  0.00    -0.032 C 
ATOM     14  C   LIG d   1       5.028  -2.537  -7.393  0.00  0.00     0.112 C 
ATOM     15  C   LIG d   1       4.157  -3.084  -8.356  0.00  0.00     0.274 C 
ATOM     16  O   LIG d   1       4.232  -4.270  -8.637  0.00  0.00    -0.266 OA
ATOM     17  N   LIG d   1       3.236  -2.304  -8.973  0.00  0.00    -0.310 N 
ATOM     18  C   LIG d   1       2.220  -2.982  -9.779  0.00  0.00     0.031 C 
ATOM     19  H   LIG d   1       2.909  -2.723 -12.327  0.00  0.00     0.047 H 
ATOM     20  H   LIG d   1       1.929  -1.307 -12.768  0.00  0.00     0.047 H 
ATOM     21  H   LIG d   1       0.516  -0.973  -9.250  0.00  0.00     0.028 H 
ATOM     22  H   LIG d   1       0.616  -0.122 -10.814  0.00  0.00     0.028 H 
ATOM     23  H   LIG d   1       2.664   1.012 -11.516  0.00  0.00     0.047 H 
ATOM     24  H   LIG d   1       4.162   0.862 -10.558  0.00  0.00     0.047 H 
ATOM     25  H   LIG d   1       4.031   0.662  -7.680  0.00  0.00     0.064 H 
ATOM     26  H   LIG d   1       5.617  -0.751  -6.391  0.00  0.00     0.064 H 
ATOM     27  H   LIG d   1       2.686  -3.813 -10.310  0.00  0.00     0.050 H 
ATOM     28  H   LIG d   1       1.450  -3.377  -9.115  0.00  0.00     0.050 H 
ENDROOT
BRANCH  14  29
ATOM     29  N   LIG d   1       5.934  -3.355  -6.707  0.00  0.00    -0.211 N 
ATOM     30  H   LIG d   1       6.792  -3.567  -7.105  0.00  0.00     0.174 HD
BRANCH  29  31
ATOM     31  S   LIG d   1       5.539  -3.959  -5.216  0.00  0.00     0.072 S 
ATOM     32  O   LIG d   1       4.281  -4.600  -5.358  0.00  0.00    -0.150 OA
ATOM     33  O   LIG d   1       6.692  -4.637  -4.736  0.00  0.00    -0.150 OA
BRANCH  31  34
ATOM     34  C   LIG d   1       5.285  -2.580  -4.147  0.00  0.00     0.109 A 
ATOM     35  C   LIG d   1       4.055  -2.392  -3.544  0.00  0.00    -0.034 A 
ATOM     36  C   LIG d   1       3.855  -1.312  -2.706  0.00  0.00    -0.042 A 
ATOM     37  H   LIG d   1       3.251  -3.089  -3.728  0.00  0.00     0.064 H 
ATOM     38  C   LIG d   1       4.885  -0.420  -2.470  0.00  0.00     0.041 A 
ATOM     39  H   LIG d   1       2.894  -1.165  -2.235  0.00  0.00     0.063 H 
ATOM     40  C   LIG d   1       6.115  -0.609  -3.074  0.00  0.00    -0.042 A 
ATOM     41 CL   LIG d   1       4.634   0.938  -1.417  0.00  0.00    -0.084 Cl
ATOM     42  C   LIG d   1       6.316  -1.692  -3.908  0.00  0.00    -0.034 A 
ATOM     43  H   LIG d   1       6.920   0.088  -2.890  0.00  0.00     0.063 H 
ATOM     44  H   LIG d   1       7.278  -1.842  -4.375  0.00  0.00     0.064 H 
ENDBRANCH  31  34
ENDBRANCH  29  31
ENDBRANCH  14  29
BRANCH   1  45
ATOM     45  C   LIG d   1       5.986  -0.292 -11.395  0.00  0.00     0.048 C 
ATOM     46  H   LIG d   1       6.591  -0.026 -12.261  0.00  0.00     0.038 H 
ATOM     47  H   LIG d   1       5.560   0.611 -10.958  0.00  0.00     0.038 H 
BRANCH  45  48
ATOM     48  C   LIG d   1       6.861  -0.998 -10.358  0.00  0.00     0.056 C 
ATOM     49  H   LIG d   1       7.064  -0.317  -9.530  0.00  0.00     0.056 H 
ATOM     50  H   LIG d   1       6.342  -1.880  -9.983  0.00  0.00     0.056 H 
BRANCH  48  51
ATOM     51  O   LIG d   1       8.094  -1.392 -10.964  0.00  0.00    -0.383 OA
BRANCH  51  52
ATOM     52  C   LIG d   1       8.828  -2.359 -10.211  0.00  0.00     0.036 C 
ATOM     53  H   LIG d   1       8.217  -3.250 -10.072  0.00  0.00     0.052 H 
ATOM     54  H   LIG d   1       9.739  -2.623 -10.750  0.00  0.00     0.052 H 
ATOM     55  H   LIG d   1       9.089  -1.942  -9.239  0.00  0.00     0.052 H 
ENDBRANCH  51  52
ENDBRANCH  48  51
ENDBRANCH  45  48
ENDBRANCH   1  45
TORSDOF 7
ENDMDL
