MODEL 1
REMARK VINA RESULT:      -6.7      0.000      0.000
REMARK  8 active torsions:
REMARK  status: ('A' for Active; 'I' for Inactive)
REMARK    1  A    between atoms: C_1  and  C_2 
REMARK    2  A    between atoms: C_3  and  O_23 
REMARK    3  A    between atoms: C_9  and  C_22 
REMARK    4  A    between atoms: C_10  and  C_13 
REMARK    5  A    between atoms: O_23  and  C_24 
REMARK    6  A    between atoms: C_24  and  C_26 
REMARK    7  A    between atoms: C_29  and  O_32 
REMARK    8  A    between atoms: O_32  and  C_33 
ROOT
ATOM      1  C   LIG d   1      11.183   4.532  -7.560  0.00  0.00     0.035 A 
ATOM      2  C   LIG d   1      11.041   4.769  -8.916  0.00  0.00     0.138 A 
ATOM      3  C   LIG d   1      10.001   4.183  -9.634  0.00  0.00    -0.018 A 
ATOM      4  C   LIG d   1       9.100   3.373  -9.002  0.00  0.00    -0.044 A 
ATOM      5  C   LIG d   1       9.229   3.124  -7.636  0.00  0.00     0.065 A 
ATOM      6  C   LIG d   1      10.279   3.707  -6.904  0.00  0.00     0.145 A 
ATOM      7  O   LIG d   1      10.404   3.467  -5.584  0.00  0.00    -0.459 OA
ATOM      8  C   LIG d   1       9.569   2.684  -4.898  0.00  0.00     0.116 A 
ATOM      9  C   LIG d   1       8.509   2.056  -5.480  0.00  0.00     0.092 A 
ATOM     10  C   LIG d   1       8.278   2.251  -6.924  0.00  0.00     0.202 A 
ATOM     11  O   LIG d   1       7.348   1.716  -7.500  0.00  0.00    -0.286 OA
ATOM     12  H   LIG d   1       9.904   4.373 -10.692  0.00  0.00     0.066 H 
ATOM     13  H   LIG d   1       8.292   2.923  -9.560  0.00  0.00     0.063 H 
ENDROOT
BRANCH   2  14
ATOM     14  O   LIG d   1      11.927   5.576  -9.554  0.00  0.00    -0.422 OA
BRANCH  14  15
ATOM     15  C   LIG d   1      11.463   6.759 -10.005  0.00  0.00     0.344 C 
ATOM     16  O   LIG d   1      11.460   6.998 -11.195  0.00  0.00    -0.244 OA
BRANCH  15  17
ATOM     17  C   LIG d   1      10.958   7.764  -9.050  0.00  0.00     0.060 A 
ATOM     18  C   LIG d   1       9.582   7.916  -8.854  0.00  0.00    -0.044 A 
ATOM     19  C   LIG d   1       9.115   8.855  -7.962  0.00  0.00    -0.019 A 
ATOM     20  H   LIG d   1       8.887   7.297  -9.401  0.00  0.00     0.063 H 
ATOM     21  C   LIG d   1      10.010   9.652  -7.257  0.00  0.00     0.120 A 
ATOM     22  H   LIG d   1       8.053   8.972  -7.810  0.00  0.00     0.065 H 
ATOM     23  C   LIG d   1      11.380   9.504  -7.449  0.00  0.00    -0.019 A 
ATOM     24  C   LIG d   1      11.855   8.563  -8.334  0.00  0.00    -0.044 A 
ATOM     25  H   LIG d   1      12.071  10.124  -6.898  0.00  0.00     0.065 H 
ATOM     26  H   LIG d   1      12.919   8.445  -8.479  0.00  0.00     0.063 H 
BRANCH  21  27
ATOM     27  O   LIG d   1       9.546  10.576  -6.379  0.00  0.00    -0.495 OA
BRANCH  27  28
ATOM     28  C   LIG d   1       9.499  10.198  -5.002  0.00  0.00     0.079 C 
ATOM     29  H   LIG d   1      10.385  10.576  -4.491  0.00  0.00     0.066 H 
ATOM     30  H   LIG d   1       8.606  10.618  -4.540  0.00  0.00     0.066 H 
ATOM     31  H   LIG d   1       9.472   9.111  -4.925  0.00  0.00     0.066 H 
ENDBRANCH  27  28
ENDBRANCH  21  27
ENDBRANCH  15  17
ENDBRANCH  14  15
ENDBRANCH   2  14
BRANCH   1  32
ATOM     32  C   LIG d   1      12.317   5.167  -6.797  0.00  0.00    -0.033 C 
ATOM     33  H   LIG d   1      12.370   6.228  -7.040  0.00  0.00     0.028 H 
ATOM     34  H   LIG d   1      12.147   5.048  -5.727  0.00  0.00     0.028 H 
ATOM     35  H   LIG d   1      13.255   4.685  -7.071  0.00  0.00     0.028 H 
ENDBRANCH   1  32
BRANCH   8  36
ATOM     36  C   LIG d   1       9.807   2.487  -3.423  0.00  0.00    -0.005 C 
ATOM     37  H   LIG d   1      10.855   2.242  -3.254  0.00  0.00     0.031 H 
ATOM     38  H   LIG d   1       9.558   3.404  -2.889  0.00  0.00     0.031 H 
ATOM     39  H   LIG d   1       9.180   1.673  -3.059  0.00  0.00     0.031 H 
ENDBRANCH   8  36
BRANCH   9  40
ATOM     40  C   LIG d   1       7.610   1.200  -4.683  0.00  0.00     0.116 A 
ATOM     41  S   LIG d   1       7.532  -0.585  -4.612  0.00  0.00    -0.067 SA
ATOM     42  C   LIG d   1       6.206  -0.703  -3.436  0.00  0.00     0.040 A 
ATOM     43  C   LIG d   1       5.911   0.656  -3.177  0.00  0.00     0.079 A 
ATOM     44  C   LIG d   1       5.528  -1.735  -2.835  0.00  0.00    -0.046 A 
ATOM     45  N   LIG d   1       6.665   1.555  -3.838  0.00  0.00    -0.239 NA
ATOM     46  C   LIG d   1       4.868   0.902  -2.251  0.00  0.00    -0.035 A 
ATOM     47  C   LIG d   1       4.203  -0.128  -1.661  0.00  0.00    -0.060 A 
ATOM     48  H   LIG d   1       4.596   1.919  -2.012  0.00  0.00     0.064 H 
ATOM     49  C   LIG d   1       4.515  -1.451  -1.936  0.00  0.00    -0.061 A 
ATOM     50  H   LIG d   1       3.411   0.091  -0.960  0.00  0.00     0.062 H 
ATOM     51  H   LIG d   1       3.974  -2.251  -1.454  0.00  0.00     0.062 H 
ATOM     52  H   LIG d   1       5.784  -2.759  -3.060  0.00  0.00     0.063 H 
ENDBRANCH   9  40
TORSDOF 8
ENDMDL
MODEL 2
REMARK VINA RESULT:      -6.3      1.814      3.116
REMARK  8 active torsions:
REMARK  status: ('A' for Active; 'I' for Inactive)
REMARK    1  A    between atoms: C_1  and  C_2 
REMARK    2  A    between atoms: C_3  and  O_23 
REMARK    3  A    between atoms: C_9  and  C_22 
REMARK    4  A    between atoms: C_10  and  C_13 
REMARK    5  A    between atoms: O_23  and  C_24 
REMARK    6  A    between atoms: C_24  and  C_26 
REMARK    7  A    between atoms: C_29  and  O_32 
REMARK    8  A    between atoms: O_32  and  C_33 
ROOT
ATOM      1  C   LIG d   1      11.263   5.240  -6.673  0.00  0.00     0.035 A 
ATOM      2  C   LIG d   1      12.101   6.054  -5.930  0.00  0.00     0.138 A 
ATOM      3  C   LIG d   1      12.110   5.981  -4.539  0.00  0.00    -0.018 A 
ATOM      4  C   LIG d   1      11.297   5.095  -3.890  0.00  0.00    -0.044 A 
ATOM      5  C   LIG d   1      10.447   4.268  -4.625  0.00  0.00     0.065 A 
ATOM      6  C   LIG d   1      10.427   4.337  -6.029  0.00  0.00     0.145 A 
ATOM      7  O   LIG d   1       9.606   3.538  -6.738  0.00  0.00    -0.459 OA
ATOM      8  C   LIG d   1       8.779   2.653  -6.179  0.00  0.00     0.116 A 
ATOM      9  C   LIG d   1       8.696   2.480  -4.829  0.00  0.00     0.092 A 
ATOM     10  C   LIG d   1       9.553   3.305  -3.957  0.00  0.00     0.202 A 
ATOM     11  O   LIG d   1       9.522   3.196  -2.744  0.00  0.00    -0.286 OA
ATOM     12  H   LIG d   1      12.765   6.624  -3.971  0.00  0.00     0.066 H 
ATOM     13  H   LIG d   1      11.309   5.038  -2.812  0.00  0.00     0.063 H 
ENDROOT
BRANCH   2  14
ATOM     14  O   LIG d   1      12.917   6.935  -6.563  0.00  0.00    -0.422 OA
BRANCH  14  15
ATOM     15  C   LIG d   1      13.083   8.140  -5.983  0.00  0.00     0.344 C 
ATOM     16  O   LIG d   1      14.201   8.557  -5.754  0.00  0.00    -0.244 OA
BRANCH  15  17
ATOM     17  C   LIG d   1      11.906   8.954  -5.625  0.00  0.00     0.060 A 
ATOM     18  C   LIG d   1      11.830   9.564  -4.369  0.00  0.00    -0.044 A 
ATOM     19  C   LIG d   1      10.730  10.323  -4.039  0.00  0.00    -0.019 A 
ATOM     20  H   LIG d   1      12.635   9.441  -3.660  0.00  0.00     0.063 H 
ATOM     21  C   LIG d   1       9.694  10.482  -4.953  0.00  0.00     0.120 A 
ATOM     22  H   LIG d   1      10.672  10.795  -3.071  0.00  0.00     0.065 H 
ATOM     23  C   LIG d   1       9.764   9.876  -6.203  0.00  0.00    -0.019 A 
ATOM     24  C   LIG d   1      10.864   9.121  -6.543  0.00  0.00    -0.044 A 
ATOM     25  H   LIG d   1       8.958  10.003  -6.909  0.00  0.00     0.065 H 
ATOM     26  H   LIG d   1      10.920   8.655  -7.516  0.00  0.00     0.063 H 
BRANCH  21  27
ATOM     27  O   LIG d   1       8.611  11.229  -4.624  0.00  0.00    -0.495 OA
BRANCH  27  28
ATOM     28  C   LIG d   1       8.510  11.664  -3.267  0.00  0.00     0.079 C 
ATOM     29  H   LIG d   1       8.834  10.861  -2.603  0.00  0.00     0.066 H 
ATOM     30  H   LIG d   1       9.143  12.538  -3.116  0.00  0.00     0.066 H 
ATOM     31  H   LIG d   1       7.474  11.923  -3.044  0.00  0.00     0.066 H 
ENDBRANCH  27  28
ENDBRANCH  21  27
ENDBRANCH  15  17
ENDBRANCH  14  15
ENDBRANCH   2  14
BRANCH   1  32
ATOM     32  C   LIG d   1      11.259   5.333  -8.177  0.00  0.00    -0.033 C 
ATOM     33  H   LIG d   1      12.223   5.008  -8.564  0.00  0.00     0.028 H 
ATOM     34  H   LIG d   1      10.472   4.694  -8.579  0.00  0.00     0.028 H 
ATOM     35  H   LIG d   1      11.077   6.365  -8.477  0.00  0.00     0.028 H 
ENDBRANCH   1  32
BRANCH   8  36
ATOM     36  C   LIG d   1       7.906   1.811  -7.072  0.00  0.00    -0.005 C 
ATOM     37  H   LIG d   1       8.340   1.771  -8.071  0.00  0.00     0.031 H 
ATOM     38  H   LIG d   1       7.835   0.803  -6.666  0.00  0.00     0.031 H 
ATOM     39  H   LIG d   1       6.910   2.252  -7.128  0.00  0.00     0.031 H 
ENDBRANCH   8  36
BRANCH   9  40
ATOM     40  C   LIG d   1       7.768   1.488  -4.254  0.00  0.00     0.116 A 
ATOM     41  S   LIG d   1       7.800  -0.294  -4.398  0.00  0.00    -0.067 SA
ATOM     42  C   LIG d   1       6.355  -0.623  -3.419  0.00  0.00     0.040 A 
ATOM     43  C   LIG d   1       5.943   0.678  -3.044  0.00  0.00     0.079 A 
ATOM     44  C   LIG d   1       5.682  -1.753  -3.028  0.00  0.00    -0.046 A 
ATOM     45  N   LIG d   1       6.709   1.688  -3.499  0.00  0.00    -0.239 NA
ATOM     46  C   LIG d   1       4.784   0.755  -2.234  0.00  0.00    -0.035 A 
ATOM     47  C   LIG d   1       4.124  -0.372  -1.853  0.00  0.00    -0.060 A 
ATOM     48  H   LIG d   1       4.420   1.720  -1.915  0.00  0.00     0.064 H 
ATOM     49  C   LIG d   1       4.553  -1.634  -2.237  0.00  0.00    -0.061 A 
ATOM     50  H   LIG d   1       3.242  -0.281  -1.235  0.00  0.00     0.062 H 
ATOM     51  H   LIG d   1       4.013  -2.514  -1.921  0.00  0.00     0.062 H 
ATOM     52  H   LIG d   1       6.029  -2.728  -3.336  0.00  0.00     0.063 H 
ENDBRANCH   9  40
TORSDOF 8
ENDMDL
MODEL 3
REMARK VINA RESULT:      -6.1      8.368     12.318
REMARK  8 active torsions:
REMARK  status: ('A' for Active; 'I' for Inactive)
REMARK    1  A    between atoms: C_1  and  C_2 
REMARK    2  A    between atoms: C_3  and  O_23 
REMARK    3  A    between atoms: C_9  and  C_22 
REMARK    4  A    between atoms: C_10  and  C_13 
REMARK    5  A    between atoms: O_23  and  C_24 
REMARK    6  A    between atoms: C_24  and  C_26 
REMARK    7  A    between atoms: C_29  and  O_32 
REMARK    8  A    between atoms: O_32  and  C_33 
ROOT
ATOM      1  C   LIG d   1       2.766  -3.456 -11.329  0.00  0.00     0.035 A 
ATOM      2  C   LIG d   1       2.078  -2.794 -12.332  0.00  0.00     0.138 A 
ATOM      3  C   LIG d   1       1.687  -1.468 -12.168  0.00  0.00    -0.018 A 
ATOM      4  C   LIG d   1       1.988  -0.798 -11.016  0.00  0.00    -0.044 A 
ATOM      5  C   LIG d   1       2.680  -1.451  -9.995  0.00  0.00     0.065 A 
ATOM      6  C   LIG d   1       3.075  -2.791 -10.149  0.00  0.00     0.145 A 
ATOM      7  O   LIG d   1       3.745  -3.421  -9.163  0.00  0.00    -0.459 OA
ATOM      8  C   LIG d   1       4.070  -2.839  -8.009  0.00  0.00     0.116 A 
ATOM      9  C   LIG d   1       3.750  -1.544  -7.726  0.00  0.00     0.092 A 
ATOM     10  C   LIG d   1       3.017  -0.760  -8.737  0.00  0.00     0.202 A 
ATOM     11  O   LIG d   1       2.703   0.400  -8.541  0.00  0.00    -0.286 OA
ATOM     12  H   LIG d   1       1.148  -0.965 -12.957  0.00  0.00     0.066 H 
ATOM     13  H   LIG d   1       1.686   0.232 -10.893  0.00  0.00     0.063 H 
ENDROOT
BRANCH   2  14
ATOM     14  O   LIG d   1       1.778  -3.447 -13.484  0.00  0.00    -0.422 OA
BRANCH  14  15
ATOM     15  C   LIG d   1       0.471  -3.645 -13.751  0.00  0.00     0.344 C 
ATOM     16  O   LIG d   1      -0.045  -3.093 -14.702  0.00  0.00    -0.244 OA
BRANCH  15  17
ATOM     17  C   LIG d   1      -0.332  -4.532 -12.888  0.00  0.00     0.060 A 
ATOM     18  C   LIG d   1      -0.105  -5.912 -12.897  0.00  0.00    -0.044 A 
ATOM     19  C   LIG d   1      -0.857  -6.736 -12.090  0.00  0.00    -0.019 A 
ATOM     20  H   LIG d   1       0.659  -6.329 -13.535  0.00  0.00     0.063 H 
ATOM     21  C   LIG d   1      -1.840  -6.198 -11.268  0.00  0.00     0.120 A 
ATOM     22  H   LIG d   1      -0.682  -7.801 -12.096  0.00  0.00     0.065 H 
ATOM     23  C   LIG d   1      -2.069  -4.826 -11.256  0.00  0.00    -0.019 A 
ATOM     24  C   LIG d   1      -1.318  -3.994 -12.055  0.00  0.00    -0.044 A 
ATOM     25  H   LIG d   1      -2.833  -4.413 -10.615  0.00  0.00     0.065 H 
ATOM     26  H   LIG d   1      -1.493  -2.929 -12.042  0.00  0.00     0.063 H 
BRANCH  21  27
ATOM     27  O   LIG d   1      -2.579  -7.013 -10.474  0.00  0.00    -0.495 OA
BRANCH  27  28
ATOM     28  C   LIG d   1      -3.072  -6.459  -9.253  0.00  0.00     0.079 C 
ATOM     29  H   LIG d   1      -3.310  -5.405  -9.403  0.00  0.00     0.066 H 
ATOM     30  H   LIG d   1      -3.970  -6.994  -8.946  0.00  0.00     0.066 H 
ATOM     31  H   LIG d   1      -2.311  -6.552  -8.478  0.00  0.00     0.066 H 
ENDBRANCH  27  28
ENDBRANCH  21  27
ENDBRANCH  15  17
ENDBRANCH  14  15
ENDBRANCH   2  14
BRANCH   1  32
ATOM     32  C   LIG d   1       3.178  -4.893 -11.516  0.00  0.00    -0.033 C 
ATOM     33  H   LIG d   1       2.475  -5.544 -10.998  0.00  0.00     0.028 H 
ATOM     34  H   LIG d   1       3.182  -5.135 -12.579  0.00  0.00     0.028 H 
ATOM     35  H   LIG d   1       4.178  -5.041 -11.106  0.00  0.00     0.028 H 
ENDBRANCH   1  32
BRANCH   8  36
ATOM     36  C   LIG d   1       4.820  -3.641  -6.978  0.00  0.00    -0.005 C 
ATOM     37  H   LIG d   1       5.341  -4.464  -7.467  0.00  0.00     0.031 H 
ATOM     38  H   LIG d   1       5.544  -3.001  -6.474  0.00  0.00     0.031 H 
ATOM     39  H   LIG d   1       4.117  -4.041  -6.246  0.00  0.00     0.031 H 
ENDBRANCH   8  36
BRANCH   9  40
ATOM     40  C   LIG d   1       4.131  -0.939  -6.434  0.00  0.00     0.116 A 
ATOM     41  S   LIG d   1       5.760  -0.521  -5.830  0.00  0.00    -0.067 SA
ATOM     42  C   LIG d   1       5.254   0.126  -4.255  0.00  0.00     0.040 A 
ATOM     43  C   LIG d   1       3.848  -0.028  -4.304  0.00  0.00     0.079 A 
ATOM     44  C   LIG d   1       5.902   0.664  -3.171  0.00  0.00    -0.046 A 
ATOM     45  N   LIG d   1       3.358  -0.566  -5.437  0.00  0.00    -0.239 NA
ATOM     46  C   LIG d   1       3.134   0.409  -3.163  0.00  0.00    -0.035 A 
ATOM     47  C   LIG d   1       3.785   0.941  -2.094  0.00  0.00    -0.060 A 
ATOM     48  H   LIG d   1       2.057   0.318  -3.140  0.00  0.00     0.064 H 
ATOM     49  C   LIG d   1       5.165   1.079  -2.075  0.00  0.00    -0.061 A 
ATOM     50  H   LIG d   1       3.212   1.265  -1.237  0.00  0.00     0.062 H 
ATOM     51  H   LIG d   1       5.660   1.505  -1.215  0.00  0.00     0.062 H 
ATOM     52  H   LIG d   1       6.977   0.764  -3.173  0.00  0.00     0.063 H 
ENDBRANCH   9  40
TORSDOF 8
ENDMDL
MODEL 4
REMARK VINA RESULT:      -6.1      8.944     14.196
REMARK  8 active torsions:
REMARK  status: ('A' for Active; 'I' for Inactive)
REMARK    1  A    between atoms: C_1  and  C_2 
REMARK    2  A    between atoms: C_3  and  O_23 
REMARK    3  A    between atoms: C_9  and  C_22 
REMARK    4  A    between atoms: C_10  and  C_13 
REMARK    5  A    between atoms: O_23  and  C_24 
REMARK    6  A    between atoms: C_24  and  C_26 
REMARK    7  A    between atoms: C_29  and  O_32 
REMARK    8  A    between atoms: O_32  and  C_33 
ROOT
ATOM      1  C   LIG d   1       7.541  -8.407  -5.840  0.00  0.00     0.035 A 
ATOM      2  C   LIG d   1       6.835  -9.534  -6.225  0.00  0.00     0.138 A 
ATOM      3  C   LIG d   1       5.455  -9.479  -6.408  0.00  0.00    -0.018 A 
ATOM      4  C   LIG d   1       4.782  -8.306  -6.219  0.00  0.00    -0.044 A 
ATOM      5  C   LIG d   1       5.479  -7.161  -5.832  0.00  0.00     0.065 A 
ATOM      6  C   LIG d   1       6.871  -7.207  -5.640  0.00  0.00     0.145 A 
ATOM      7  O   LIG d   1       7.544  -6.101  -5.267  0.00  0.00    -0.459 OA
ATOM      8  C   LIG d   1       6.958  -4.921  -5.058  0.00  0.00     0.116 A 
ATOM      9  C   LIG d   1       5.617  -4.733  -5.207  0.00  0.00     0.092 A 
ATOM     10  C   LIG d   1       4.783  -5.879  -5.615  0.00  0.00     0.202 A 
ATOM     11  O   LIG d   1       3.579  -5.773  -5.764  0.00  0.00    -0.286 OA
ATOM     12  H   LIG d   1       4.917 -10.367  -6.703  0.00  0.00     0.066 H 
ATOM     13  H   LIG d   1       3.713  -8.265  -6.365  0.00  0.00     0.063 H 
ENDROOT
BRANCH   2  14
ATOM     14  O   LIG d   1       7.494 -10.706  -6.420  0.00  0.00    -0.422 OA
BRANCH  14  15
ATOM     15  C   LIG d   1       7.157 -11.737  -5.619  0.00  0.00     0.344 C 
ATOM     16  O   LIG d   1       6.590 -12.706  -6.081  0.00  0.00    -0.244 OA
BRANCH  15  17
ATOM     17  C   LIG d   1       7.478 -11.687  -4.180  0.00  0.00     0.060 A 
ATOM     18  C   LIG d   1       6.450 -11.656  -3.233  0.00  0.00    -0.044 A 
ATOM     19  C   LIG d   1       6.753 -11.610  -1.891  0.00  0.00    -0.019 A 
ATOM     20  H   LIG d   1       5.419 -11.669  -3.554  0.00  0.00     0.063 H 
ATOM     21  C   LIG d   1       8.080 -11.594  -1.477  0.00  0.00     0.120 A 
ATOM     22  H   LIG d   1       5.960 -11.586  -1.160  0.00  0.00     0.065 H 
ATOM     23  C   LIG d   1       9.106 -11.624  -2.415  0.00  0.00    -0.019 A 
ATOM     24  C   LIG d   1       8.811 -11.676  -3.759  0.00  0.00    -0.044 A 
ATOM     25  H   LIG d   1      10.135 -11.612  -2.089  0.00  0.00     0.065 H 
ATOM     26  H   LIG d   1       9.609 -11.706  -4.487  0.00  0.00     0.063 H 
BRANCH  21  27
ATOM     27  O   LIG d   1       8.375 -11.547  -0.153  0.00  0.00    -0.495 OA
BRANCH  27  28
ATOM     28  C   LIG d   1       9.641 -12.073   0.248  0.00  0.00     0.079 C 
ATOM     29  H   LIG d   1       9.808 -13.033  -0.242  0.00  0.00     0.066 H 
ATOM     30  H   LIG d   1      10.432 -11.379  -0.037  0.00  0.00     0.066 H 
ATOM     31  H   LIG d   1       9.651 -12.212   1.329  0.00  0.00     0.066 H 
ENDBRANCH  27  28
ENDBRANCH  21  27
ENDBRANCH  15  17
ENDBRANCH  14  15
ENDBRANCH   2  14
BRANCH   1  32
ATOM     32  C   LIG d   1       9.033  -8.482  -5.640  0.00  0.00    -0.033 C 
ATOM     33  H   LIG d   1       9.253  -9.104  -4.774  0.00  0.00     0.028 H 
ATOM     34  H   LIG d   1       9.497  -8.915  -6.526  0.00  0.00     0.028 H 
ATOM     35  H   LIG d   1       9.428  -7.479  -5.477  0.00  0.00     0.028 H 
ENDBRANCH   1  32
BRANCH   8  36
ATOM     36  C   LIG d   1       7.812  -3.752  -4.642  0.00  0.00    -0.005 C 
ATOM     37  H   LIG d   1       8.864  -4.007  -4.769  0.00  0.00     0.031 H 
ATOM     38  H   LIG d   1       7.571  -2.887  -5.260  0.00  0.00     0.031 H 
ATOM     39  H   LIG d   1       7.620  -3.515  -3.595  0.00  0.00     0.031 H 
ENDBRANCH   8  36
BRANCH   9  40
ATOM     40  C   LIG d   1       5.011  -3.409  -4.967  0.00  0.00     0.116 A 
ATOM     41  S   LIG d   1       4.703  -2.088  -6.131  0.00  0.00    -0.067 SA
ATOM     42  C   LIG d   1       3.981  -0.942  -4.982  0.00  0.00     0.040 A 
ATOM     43  C   LIG d   1       4.028  -1.664  -3.766  0.00  0.00     0.079 A 
ATOM     44  C   LIG d   1       3.466   0.328  -5.069  0.00  0.00    -0.046 A 
ATOM     45  N   LIG d   1       4.555  -2.901  -3.841  0.00  0.00    -0.239 NA
ATOM     46  C   LIG d   1       3.509  -1.001  -2.628  0.00  0.00    -0.035 A 
ATOM     47  C   LIG d   1       3.002   0.257  -2.725  0.00  0.00    -0.060 A 
ATOM     48  H   LIG d   1       3.517  -1.501  -1.671  0.00  0.00     0.064 H 
ATOM     49  C   LIG d   1       2.970   0.940  -3.932  0.00  0.00    -0.061 A 
ATOM     50  H   LIG d   1       2.614   0.737  -1.838  0.00  0.00     0.062 H 
ATOM     51  H   LIG d   1       2.561   1.938  -3.984  0.00  0.00     0.062 H 
ATOM     52  H   LIG d   1       3.449   0.845  -6.017  0.00  0.00     0.063 H 
ENDBRANCH   9  40
TORSDOF 8
ENDMDL
MODEL 5
REMARK VINA RESULT:      -6.0      7.488     10.122
REMARK  8 active torsions:
REMARK  status: ('A' for Active; 'I' for Inactive)
REMARK    1  A    between atoms: C_1  and  C_2 
REMARK    2  A    between atoms: C_3  and  O_23 
REMARK    3  A    between atoms: C_9  and  C_22 
REMARK    4  A    between atoms: C_10  and  C_13 
REMARK    5  A    between atoms: O_23  and  C_24 
REMARK    6  A    between atoms: C_24  and  C_26 
REMARK    7  A    between atoms: C_29  and  O_32 
REMARK    8  A    between atoms: O_32  and  C_33 
ROOT
ATOM      1  C   LIG d   1       5.623  -1.337  -7.951  0.00  0.00     0.035 A 
ATOM      2  C   LIG d   1       4.903  -0.303  -7.376  0.00  0.00     0.138 A 
ATOM      3  C   LIG d   1       4.206  -0.499  -6.187  0.00  0.00    -0.018 A 
ATOM      4  C   LIG d   1       4.233  -1.716  -5.566  0.00  0.00    -0.044 A 
ATOM      5  C   LIG d   1       4.953  -2.768  -6.132  0.00  0.00     0.065 A 
ATOM      6  C   LIG d   1       5.656  -2.581  -7.335  0.00  0.00     0.145 A 
ATOM      7  O   LIG d   1       6.352  -3.597  -7.882  0.00  0.00    -0.459 OA
ATOM      8  C   LIG d   1       6.422  -4.814  -7.340  0.00  0.00     0.116 A 
ATOM      9  C   LIG d   1       5.790  -5.135  -6.176  0.00  0.00     0.092 A 
ATOM     10  C   LIG d   1       4.999  -4.095  -5.492  0.00  0.00     0.202 A 
ATOM     11  O   LIG d   1       4.411  -4.322  -4.449  0.00  0.00    -0.286 OA
ATOM     12  H   LIG d   1       3.646   0.314  -5.751  0.00  0.00     0.066 H 
ATOM     13  H   LIG d   1       3.694  -1.864  -4.641  0.00  0.00     0.063 H 
ENDROOT
BRANCH   2  14
ATOM     14  O   LIG d   1       4.873   0.913  -7.981  0.00  0.00    -0.422 OA
BRANCH  14  15
ATOM     15  C   LIG d   1       3.702   1.293  -8.531  0.00  0.00     0.344 C 
ATOM     16  O   LIG d   1       3.127   2.279  -8.115  0.00  0.00    -0.244 OA
BRANCH  15  17
ATOM     17  C   LIG d   1       3.119   0.511  -9.637  0.00  0.00     0.060 A 
ATOM     18  C   LIG d   1       3.731   0.511 -10.895  0.00  0.00    -0.044 A 
ATOM     19  C   LIG d   1       3.184  -0.220 -11.925  0.00  0.00    -0.019 A 
ATOM     20  H   LIG d   1       4.632   1.084 -11.056  0.00  0.00     0.063 H 
ATOM     21  C   LIG d   1       2.025  -0.958 -11.716  0.00  0.00     0.120 A 
ATOM     22  H   LIG d   1       3.657  -0.220 -12.895  0.00  0.00     0.065 H 
ATOM     23  C   LIG d   1       1.412  -0.961 -10.467  0.00  0.00    -0.019 A 
ATOM     24  C   LIG d   1       1.956  -0.237  -9.430  0.00  0.00    -0.044 A 
ATOM     25  H   LIG d   1       0.512  -1.536 -10.310  0.00  0.00     0.065 H 
ATOM     26  H   LIG d   1       1.483  -0.244  -8.459  0.00  0.00     0.063 H 
BRANCH  21  27
ATOM     27  O   LIG d   1       1.488  -1.677 -12.734  0.00  0.00    -0.495 OA
BRANCH  27  28
ATOM     28  C   LIG d   1       0.318  -2.443 -12.441  0.00  0.00     0.079 C 
ATOM     29  H   LIG d   1      -0.043  -2.187 -11.444  0.00  0.00     0.066 H 
ATOM     30  H   LIG d   1      -0.456  -2.221 -13.176  0.00  0.00     0.066 H 
ATOM     31  H   LIG d   1       0.561  -3.505 -12.478  0.00  0.00     0.066 H 
ENDBRANCH  27  28
ENDBRANCH  21  27
ENDBRANCH  15  17
ENDBRANCH  14  15
ENDBRANCH   2  14
BRANCH   1  32
ATOM     32  C   LIG d   1       6.368  -1.112  -9.241  0.00  0.00    -0.033 C 
ATOM     33  H   LIG d   1       7.403  -1.432  -9.124  0.00  0.00     0.028 H 
ATOM     34  H   LIG d   1       5.898  -1.689 -10.038  0.00  0.00     0.028 H 
ATOM     35  H   LIG d   1       6.342  -0.052  -9.496  0.00  0.00     0.028 H 
ENDBRANCH   1  32
BRANCH   8  36
ATOM     36  C   LIG d   1       7.231  -5.874  -8.041  0.00  0.00    -0.005 C 
ATOM     37  H   LIG d   1       8.270  -5.552  -8.109  0.00  0.00     0.031 H 
ATOM     38  H   LIG d   1       7.175  -6.806  -7.478  0.00  0.00     0.031 H 
ATOM     39  H   LIG d   1       6.834  -6.031  -9.045  0.00  0.00     0.031 H 
ENDBRANCH   8  36
BRANCH   9  40
ATOM     40  C   LIG d   1       5.895  -6.495  -5.612  0.00  0.00     0.116 A 
ATOM     41  S   LIG d   1       7.335  -7.329  -4.961  0.00  0.00    -0.067 SA
ATOM     42  C   LIG d   1       6.533  -8.855  -4.532  0.00  0.00     0.040 A 
ATOM     43  C   LIG d   1       5.196  -8.614  -4.926  0.00  0.00     0.079 A 
ATOM     44  C   LIG d   1       6.936 -10.041  -3.971  0.00  0.00    -0.046 A 
ATOM     45  N   LIG d   1       4.952  -7.399  -5.456  0.00  0.00    -0.239 NA
ATOM     46  C   LIG d   1       4.281  -9.672  -4.708  0.00  0.00    -0.035 A 
ATOM     47  C   LIG d   1       4.690 -10.843  -4.151  0.00  0.00    -0.060 A 
ATOM     48  H   LIG d   1       3.245  -9.548  -4.988  0.00  0.00     0.064 H 
ATOM     49  C   LIG d   1       6.010 -11.050  -3.775  0.00  0.00    -0.061 A 
ATOM     50  H   LIG d   1       3.969 -11.633  -3.998  0.00  0.00     0.062 H 
ATOM     51  H   LIG d   1       6.310 -11.989  -3.334  0.00  0.00     0.062 H 
ATOM     52  H   LIG d   1       7.966 -10.186  -3.684  0.00  0.00     0.063 H 
ENDBRANCH   9  40
TORSDOF 8
ENDMDL
MODEL 6
REMARK VINA RESULT:      -6.0      1.965      3.381
REMARK  8 active torsions:
REMARK  status: ('A' for Active; 'I' for Inactive)
REMARK    1  A    between atoms: C_1  and  C_2 
REMARK    2  A    between atoms: C_3  and  O_23 
REMARK    3  A    between atoms: C_9  and  C_22 
REMARK    4  A    between atoms: C_10  and  C_13 
REMARK    5  A    between atoms: O_23  and  C_24 
REMARK    6  A    between atoms: C_24  and  C_26 
REMARK    7  A    between atoms: C_29  and  O_32 
REMARK    8  A    between atoms: O_32  and  C_33 
ROOT
ATOM      1  C   LIG d   1      11.082   4.662  -7.613  0.00  0.00     0.035 A 
ATOM      2  C   LIG d   1      10.921   4.905  -8.967  0.00  0.00     0.138 A 
ATOM      3  C   LIG d   1       9.885   4.304  -9.677  0.00  0.00    -0.018 A 
ATOM      4  C   LIG d   1       9.006   3.472  -9.042  0.00  0.00    -0.044 A 
ATOM      5  C   LIG d   1       9.155   3.217  -7.679  0.00  0.00     0.065 A 
ATOM      6  C   LIG d   1      10.200   3.815  -6.954  0.00  0.00     0.145 A 
ATOM      7  O   LIG d   1      10.343   3.569  -5.636  0.00  0.00    -0.459 OA
ATOM      8  C   LIG d   1       9.532   2.766  -4.947  0.00  0.00     0.116 A 
ATOM      9  C   LIG d   1       8.478   2.122  -5.523  0.00  0.00     0.092 A 
ATOM     10  C   LIG d   1       8.228   2.321  -6.962  0.00  0.00     0.202 A 
ATOM     11  O   LIG d   1       7.302   1.772  -7.533  0.00  0.00    -0.286 OA
ATOM     12  H   LIG d   1       9.773   4.498 -10.733  0.00  0.00     0.066 H 
ATOM     13  H   LIG d   1       8.201   3.010  -9.595  0.00  0.00     0.063 H 
ENDROOT
BRANCH   2  14
ATOM     14  O   LIG d   1      11.785   5.733  -9.608  0.00  0.00    -0.422 OA
BRANCH  14  15
ATOM     15  C   LIG d   1      11.329   6.960  -9.932  0.00  0.00     0.344 C 
ATOM     16  O   LIG d   1      11.276   7.831  -9.087  0.00  0.00    -0.244 OA
BRANCH  15  17
ATOM     17  C   LIG d   1      10.894   7.244 -11.313  0.00  0.00     0.060 A 
ATOM     18  C   LIG d   1      10.147   8.392 -11.590  0.00  0.00    -0.044 A 
ATOM     19  C   LIG d   1       9.743   8.654 -12.880  0.00  0.00    -0.019 A 
ATOM     20  H   LIG d   1       9.887   9.073 -10.794  0.00  0.00     0.063 H 
ATOM     21  C   LIG d   1      10.077   7.777 -13.906  0.00  0.00     0.120 A 
ATOM     22  H   LIG d   1       9.167   9.541 -13.095  0.00  0.00     0.065 H 
ATOM     23  C   LIG d   1      10.820   6.633 -13.634  0.00  0.00    -0.019 A 
ATOM     24  C   LIG d   1      11.233   6.367 -12.348  0.00  0.00    -0.044 A 
ATOM     25  H   LIG d   1      11.078   5.956 -14.435  0.00  0.00     0.065 H 
ATOM     26  H   LIG d   1      11.815   5.482 -12.139  0.00  0.00     0.063 H 
BRANCH  21  27
ATOM     27  O   LIG d   1       9.677   8.038 -15.176  0.00  0.00    -0.495 OA
BRANCH  27  28
ATOM     28  C   LIG d   1       9.741   6.960 -16.111  0.00  0.00     0.079 C 
ATOM     29  H   LIG d   1       9.920   7.356 -17.111  0.00  0.00     0.066 H 
ATOM     30  H   LIG d   1      10.553   6.287 -15.836  0.00  0.00     0.066 H 
ATOM     31  H   LIG d   1       8.797   6.413 -16.100  0.00  0.00     0.066 H 
ENDBRANCH  27  28
ENDBRANCH  21  27
ENDBRANCH  15  17
ENDBRANCH  14  15
ENDBRANCH   2  14
BRANCH   1  32
ATOM     32  C   LIG d   1      12.211   5.314  -6.858  0.00  0.00    -0.033 C 
ATOM     33  H   LIG d   1      11.901   6.304  -6.525  0.00  0.00     0.028 H 
ATOM     34  H   LIG d   1      12.470   4.704  -5.993  0.00  0.00     0.028 H 
ATOM     35  H   LIG d   1      13.079   5.407  -7.511  0.00  0.00     0.028 H 
ENDBRANCH   1  32
BRANCH   8  36
ATOM     36  C   LIG d   1       9.788   2.565  -3.476  0.00  0.00    -0.005 C 
ATOM     37  H   LIG d   1       9.273   1.666  -3.138  0.00  0.00     0.031 H 
ATOM     38  H   LIG d   1      10.859   2.456  -3.306  0.00  0.00     0.031 H 
ATOM     39  H   LIG d   1       9.417   3.427  -2.921  0.00  0.00     0.031 H 
ENDBRANCH   8  36
BRANCH   9  40
ATOM     40  C   LIG d   1       7.604   1.243  -4.721  0.00  0.00     0.116 A 
ATOM     41  S   LIG d   1       7.559  -0.543  -4.664  0.00  0.00    -0.067 SA
ATOM     42  C   LIG d   1       6.249  -0.694  -3.474  0.00  0.00     0.040 A 
ATOM     43  C   LIG d   1       5.932   0.657  -3.200  0.00  0.00     0.079 A 
ATOM     44  C   LIG d   1       5.598  -1.743  -2.872  0.00  0.00    -0.046 A 
ATOM     45  N   LIG d   1       6.662   1.575  -3.864  0.00  0.00    -0.239 NA
ATOM     46  C   LIG d   1       4.895   0.877  -2.262  0.00  0.00    -0.035 A 
ATOM     47  C   LIG d   1       4.257  -0.169  -1.672  0.00  0.00    -0.060 A 
ATOM     48  H   LIG d   1       4.608   1.887  -2.011  0.00  0.00     0.064 H 
ATOM     49  C   LIG d   1       4.590  -1.484  -1.961  0.00  0.00    -0.061 A 
ATOM     50  H   LIG d   1       3.469   0.030  -0.960  0.00  0.00     0.062 H 
ATOM     51  H   LIG d   1       4.069  -2.298  -1.478  0.00  0.00     0.062 H 
ATOM     52  H   LIG d   1       5.870  -2.760  -3.109  0.00  0.00     0.063 H 
ENDBRANCH   9  40
TORSDOF 8
ENDMDL
MODEL 7
REMARK VINA RESULT:      -5.6      4.585      6.286
REMARK  8 active torsions:
REMARK  status: ('A' for Active; 'I' for Inactive)
REMARK    1  A    between atoms: C_1  and  C_2 
REMARK    2  A    between atoms: C_3  and  O_23 
REMARK    3  A    between atoms: C_9  and  C_22 
REMARK    4  A    between atoms: C_10  and  C_13 
REMARK    5  A    between atoms: O_23  and  C_24 
REMARK    6  A    between atoms: C_24  and  C_26 
REMARK    7  A    between atoms: C_29  and  O_32 
REMARK    8  A    between atoms: O_32  and  C_33 
ROOT
ATOM      1  C   LIG d   1       9.299   2.792  -6.027  0.00  0.00     0.035 A 
ATOM      2  C   LIG d   1       9.455   3.011  -4.669  0.00  0.00     0.138 A 
ATOM      3  C   LIG d   1       8.675   2.321  -3.745  0.00  0.00    -0.018 A 
ATOM      4  C   LIG d   1       7.750   1.408  -4.168  0.00  0.00    -0.044 A 
ATOM      5  C   LIG d   1       7.581   1.176  -5.533  0.00  0.00     0.065 A 
ATOM      6  C   LIG d   1       8.360   1.871  -6.475  0.00  0.00     0.145 A 
ATOM      7  O   LIG d   1       8.197   1.646  -7.793  0.00  0.00    -0.459 OA
ATOM      8  C   LIG d   1       7.313   0.777  -8.285  0.00  0.00     0.116 A 
ATOM      9  C   LIG d   1       6.493   0.035  -7.488  0.00  0.00     0.092 A 
ATOM     10  C   LIG d   1       6.589   0.202  -6.026  0.00  0.00     0.202 A 
ATOM     11  O   LIG d   1       5.883  -0.432  -5.262  0.00  0.00    -0.286 OA
ATOM     12  H   LIG d   1       8.804   2.505  -2.689  0.00  0.00     0.066 H 
ATOM     13  H   LIG d   1       7.149   0.872  -3.449  0.00  0.00     0.063 H 
ENDROOT
BRANCH   2  14
ATOM     14  O   LIG d   1      10.374   3.912  -4.235  0.00  0.00    -0.422 OA
BRANCH  14  15
ATOM     15  C   LIG d   1       9.904   5.080  -3.753  0.00  0.00     0.344 C 
ATOM     16  O   LIG d   1       9.146   5.753  -4.422  0.00  0.00    -0.244 OA
BRANCH  15  17
ATOM     17  C   LIG d   1      10.312   5.541  -2.413  0.00  0.00     0.060 A 
ATOM     18  C   LIG d   1      11.259   4.818  -1.680  0.00  0.00    -0.044 A 
ATOM     19  C   LIG d   1      11.637   5.252  -0.430  0.00  0.00    -0.019 A 
ATOM     20  H   LIG d   1      11.692   3.921  -2.096  0.00  0.00     0.063 H 
ATOM     21  C   LIG d   1      11.079   6.407   0.105  0.00  0.00     0.120 A 
ATOM     22  H   LIG d   1      12.368   4.694   0.136  0.00  0.00     0.065 H 
ATOM     23  C   LIG d   1      10.137   7.130  -0.620  0.00  0.00    -0.019 A 
ATOM     24  C   LIG d   1       9.758   6.706  -1.874  0.00  0.00    -0.044 A 
ATOM     25  H   LIG d   1       9.708   8.027  -0.201  0.00  0.00     0.065 H 
ATOM     26  H   LIG d   1       9.031   7.271  -2.438  0.00  0.00     0.063 H 
BRANCH  21  27
ATOM     27  O   LIG d   1      11.454   6.832   1.338  0.00  0.00    -0.495 OA
BRANCH  27  28
ATOM     28  C   LIG d   1      11.433   8.240   1.574  0.00  0.00     0.079 C 
ATOM     29  H   LIG d   1      11.300   8.765   0.627  0.00  0.00     0.066 H 
ATOM     30  H   LIG d   1      10.609   8.486   2.244  0.00  0.00     0.066 H 
ATOM     31  H   LIG d   1      12.375   8.547   2.029  0.00  0.00     0.066 H 
ENDBRANCH  27  28
ENDBRANCH  21  27
ENDBRANCH  15  17
ENDBRANCH  14  15
ENDBRANCH   2  14
BRANCH   1  32
ATOM     32  C   LIG d   1      10.145   3.549  -7.017  0.00  0.00    -0.033 C 
ATOM     33  H   LIG d   1      11.109   3.052  -7.127  0.00  0.00     0.028 H 
ATOM     34  H   LIG d   1       9.639   3.579  -7.982  0.00  0.00     0.028 H 
ATOM     35  H   LIG d   1      10.302   4.567  -6.658  0.00  0.00     0.028 H 
ENDBRANCH   1  32
BRANCH   8  36
ATOM     36  C   LIG d   1       7.217   0.607  -9.779  0.00  0.00    -0.005 C 
ATOM     37  H   LIG d   1       6.306   1.083 -10.141  0.00  0.00     0.031 H 
ATOM     38  H   LIG d   1       8.082   1.070 -10.254  0.00  0.00     0.031 H 
ATOM     39  H   LIG d   1       7.193  -0.455 -10.024  0.00  0.00     0.031 H 
ENDBRANCH   8  36
BRANCH   9  40
ATOM     40  C   LIG d   1       5.530  -0.916  -8.076  0.00  0.00     0.116 A 
ATOM     41  S   LIG d   1       5.709  -2.675  -8.337  0.00  0.00    -0.067 SA
ATOM     42  C   LIG d   1       4.113  -2.956  -9.064  0.00  0.00     0.040 A 
ATOM     43  C   LIG d   1       3.545  -1.660  -9.056  0.00  0.00     0.079 A 
ATOM     44  C   LIG d   1       3.446  -4.052  -9.554  0.00  0.00    -0.046 A 
ATOM     45  N   LIG d   1       4.319  -0.687  -8.537  0.00  0.00    -0.239 NA
ATOM     46  C   LIG d   1       2.237  -1.549  -9.585  0.00  0.00    -0.035 A 
ATOM     47  C   LIG d   1       1.586  -2.641 -10.068  0.00  0.00    -0.060 A 
ATOM     48  H   LIG d   1       1.751  -0.585  -9.606  0.00  0.00     0.064 H 
ATOM     49  C   LIG d   1       2.169  -3.899 -10.063  0.00  0.00    -0.061 A 
ATOM     50  H   LIG d   1       0.589  -2.524 -10.467  0.00  0.00     0.062 H 
ATOM     51  H   LIG d   1       1.631  -4.751 -10.451  0.00  0.00     0.062 H 
ATOM     52  H   LIG d   1       3.915  -5.024  -9.542  0.00  0.00     0.063 H 
ENDBRANCH   9  40
TORSDOF 8
ENDMDL
MODEL 8
REMARK VINA RESULT:      -5.6      1.457      2.548
REMARK  8 active torsions:
REMARK  status: ('A' for Active; 'I' for Inactive)
REMARK    1  A    between atoms: C_1  and  C_2 
REMARK    2  A    between atoms: C_3  and  O_23 
REMARK    3  A    between atoms: C_9  and  C_22 
REMARK    4  A    between atoms: C_10  and  C_13 
REMARK    5  A    between atoms: O_23  and  C_24 
REMARK    6  A    between atoms: C_24  and  C_26 
REMARK    7  A    between atoms: C_29  and  O_32 
REMARK    8  A    between atoms: O_32  and  C_33 
ROOT
ATOM      1  C   LIG d   1      11.544   3.985  -7.872  0.00  0.00     0.035 A 
ATOM      2  C   LIG d   1      12.697   4.538  -7.342  0.00  0.00     0.138 A 
ATOM      3  C   LIG d   1      12.988   4.408  -5.986  0.00  0.00    -0.018 A 
ATOM      4  C   LIG d   1      12.140   3.722  -5.162  0.00  0.00    -0.044 A 
ATOM      5  C   LIG d   1      10.974   3.159  -5.681  0.00  0.00     0.065 A 
ATOM      6  C   LIG d   1      10.669   3.289  -7.048  0.00  0.00     0.145 A 
ATOM      7  O   LIG d   1       9.543   2.745  -7.548  0.00  0.00    -0.459 OA
ATOM      8  C   LIG d   1       8.664   2.067  -6.809  0.00  0.00     0.116 A 
ATOM      9  C   LIG d   1       8.833   1.864  -5.472  0.00  0.00     0.092 A 
ATOM     10  C   LIG d   1      10.035   2.417  -4.821  0.00  0.00     0.202 A 
ATOM     11  O   LIG d   1      10.241   2.269  -3.629  0.00  0.00    -0.286 OA
ATOM     12  H   LIG d   1      13.888   4.848  -5.585  0.00  0.00     0.066 H 
ATOM     13  H   LIG d   1      12.370   3.620  -4.112  0.00  0.00     0.063 H 
ENDROOT
BRANCH   2  14
ATOM     14  O   LIG d   1      13.550   5.218  -8.151  0.00  0.00    -0.422 OA
BRANCH  14  15
ATOM     15  C   LIG d   1      13.836   6.489  -7.806  0.00  0.00     0.344 C 
ATOM     16  O   LIG d   1      14.966   6.792  -7.481  0.00  0.00    -0.244 OA
BRANCH  15  17
ATOM     17  C   LIG d   1      12.775   7.514  -7.824  0.00  0.00     0.060 A 
ATOM     18  C   LIG d   1      12.340   8.094  -6.629  0.00  0.00    -0.044 A 
ATOM     19  C   LIG d   1      11.350   9.050  -6.650  0.00  0.00    -0.019 A 
ATOM     20  H   LIG d   1      12.781   7.793  -5.691  0.00  0.00     0.063 H 
ATOM     21  C   LIG d   1      10.782   9.439  -7.858  0.00  0.00     0.120 A 
ATOM     22  H   LIG d   1      11.014   9.499  -5.727  0.00  0.00     0.065 H 
ATOM     23  C   LIG d   1      11.211   8.864  -9.049  0.00  0.00    -0.019 A 
ATOM     24  C   LIG d   1      12.205   7.912  -9.038  0.00  0.00    -0.044 A 
ATOM     25  H   LIG d   1      10.767   9.170  -9.985  0.00  0.00     0.065 H 
ATOM     26  H   LIG d   1      12.542   7.470  -9.964  0.00  0.00     0.063 H 
BRANCH  21  27
ATOM     27  O   LIG d   1       9.805  10.381  -7.875  0.00  0.00    -0.495 OA
BRANCH  27  28
ATOM     28  C   LIG d   1      10.149  11.681  -7.394  0.00  0.00     0.079 C 
ATOM     29  H   LIG d   1      10.770  12.189  -8.132  0.00  0.00     0.066 H 
ATOM     30  H   LIG d   1       9.241  12.259  -7.223  0.00  0.00     0.066 H 
ATOM     31  H   LIG d   1      10.702  11.588  -6.458  0.00  0.00     0.066 H 
ENDBRANCH  27  28
ENDBRANCH  21  27
ENDBRANCH  15  17
ENDBRANCH  14  15
ENDBRANCH   2  14
BRANCH   1  32
ATOM     32  C   LIG d   1      11.238   4.138  -9.340  0.00  0.00    -0.033 C 
ATOM     33  H   LIG d   1      12.116   4.526  -9.855  0.00  0.00     0.028 H 
ATOM     34  H   LIG d   1      10.969   3.169  -9.758  0.00  0.00     0.028 H 
ATOM     35  H   LIG d   1      10.407   4.833  -9.467  0.00  0.00     0.028 H 
ENDBRANCH   1  32
BRANCH   8  36
ATOM     36  C   LIG d   1       7.437   1.502  -7.478  0.00  0.00    -0.005 C 
ATOM     37  H   LIG d   1       6.587   1.579  -6.801  0.00  0.00     0.031 H 
ATOM     38  H   LIG d   1       7.228   2.064  -8.388  0.00  0.00     0.031 H 
ATOM     39  H   LIG d   1       7.609   0.455  -7.728  0.00  0.00     0.031 H 
ENDBRANCH   8  36
BRANCH   9  40
ATOM     40  C   LIG d   1       7.835   1.106  -4.693  0.00  0.00     0.116 A 
ATOM     41  S   LIG d   1       7.610  -0.663  -4.579  0.00  0.00    -0.067 SA
ATOM     42  C   LIG d   1       6.230  -0.641  -3.461  0.00  0.00     0.040 A 
ATOM     43  C   LIG d   1       6.034   0.745  -3.251  0.00  0.00     0.079 A 
ATOM     44  C   LIG d   1       5.447  -1.597  -2.863  0.00  0.00    -0.046 A 
ATOM     45  N   LIG d   1       6.886   1.560  -3.902  0.00  0.00    -0.239 NA
ATOM     46  C   LIG d   1       4.976   1.100  -2.381  0.00  0.00    -0.035 A 
ATOM     47  C   LIG d   1       4.206   0.145  -1.794  0.00  0.00    -0.060 A 
ATOM     48  H   LIG d   1       4.777   2.143  -2.181  0.00  0.00     0.064 H 
ATOM     49  C   LIG d   1       4.422  -1.207  -2.019  0.00  0.00    -0.061 A 
ATOM     50  H   LIG d   1       3.405   0.447  -1.135  0.00  0.00     0.062 H 
ATOM     51  H   LIG d   1       3.798  -1.947  -1.541  0.00  0.00     0.062 H 
ATOM     52  H   LIG d   1       5.629  -2.645  -3.050  0.00  0.00     0.063 H 
ENDBRANCH   9  40
TORSDOF 8
ENDMDL
MODEL 9
REMARK VINA RESULT:      -5.6      4.822      8.872
REMARK  8 active torsions:
REMARK  status: ('A' for Active; 'I' for Inactive)
REMARK    1  A    between atoms: C_1  and  C_2 
REMARK    2  A    between atoms: C_3  and  O_23 
REMARK    3  A    between atoms: C_9  and  C_22 
REMARK    4  A    between atoms: C_10  and  C_13 
REMARK    5  A    between atoms: O_23  and  C_24 
REMARK    6  A    between atoms: C_24  and  C_26 
REMARK    7  A    between atoms: C_29  and  O_32 
REMARK    8  A    between atoms: O_32  and  C_33 
ROOT
ATOM      1  C   LIG d   1       9.918   7.748  -2.786  0.00  0.00     0.035 A 
ATOM      2  C   LIG d   1       9.919   6.725  -1.853  0.00  0.00     0.138 A 
ATOM      3  C   LIG d   1       9.915   5.393  -2.261  0.00  0.00    -0.018 A 
ATOM      4  C   LIG d   1       9.921   5.080  -3.591  0.00  0.00    -0.044 A 
ATOM      5  C   LIG d   1       9.920   6.099  -4.543  0.00  0.00     0.065 A 
ATOM      6  C   LIG d   1       9.919   7.447  -4.142  0.00  0.00     0.145 A 
ATOM      7  O   LIG d   1       9.919   8.431  -5.062  0.00  0.00    -0.459 OA
ATOM      8  C   LIG d   1       9.919   8.207  -6.377  0.00  0.00     0.116 A 
ATOM      9  C   LIG d   1       9.920   6.951  -6.905  0.00  0.00     0.092 A 
ATOM     10  C   LIG d   1       9.921   5.797  -5.986  0.00  0.00     0.202 A 
ATOM     11  O   LIG d   1       9.922   4.651  -6.399  0.00  0.00    -0.286 OA
ATOM     12  H   LIG d   1       9.912   4.605  -1.523  0.00  0.00     0.066 H 
ATOM     13  H   LIG d   1       9.922   4.046  -3.904  0.00  0.00     0.063 H 
ENDROOT
BRANCH   2  14
ATOM     14  O   LIG d   1       9.918   7.023  -0.529  0.00  0.00    -0.422 OA
BRANCH  14  15
ATOM     15  C   LIG d   1      10.923   6.515   0.213  0.00  0.00     0.344 C 
ATOM     16  O   LIG d   1      10.677   5.791   1.157  0.00  0.00    -0.244 OA
BRANCH  15  17
ATOM     17  C   LIG d   1      12.322   6.840  -0.122  0.00  0.00     0.060 A 
ATOM     18  C   LIG d   1      12.769   8.164  -0.062  0.00  0.00    -0.044 A 
ATOM     19  C   LIG d   1      14.076   8.462  -0.375  0.00  0.00    -0.019 A 
ATOM     20  H   LIG d   1      12.089   8.950   0.230  0.00  0.00     0.063 H 
ATOM     21  C   LIG d   1      14.951   7.450  -0.751  0.00  0.00     0.120 A 
ATOM     22  H   LIG d   1      14.421   9.484  -0.329  0.00  0.00     0.065 H 
ATOM     23  C   LIG d   1      14.511   6.132  -0.812  0.00  0.00    -0.019 A 
ATOM     24  C   LIG d   1      13.208   5.823  -0.495  0.00  0.00    -0.044 A 
ATOM     25  H   LIG d   1      15.195   5.349  -1.103  0.00  0.00     0.065 H 
ATOM     26  H   LIG d   1      12.868   4.799  -0.537  0.00  0.00     0.063 H 
BRANCH  21  27
ATOM     27  O   LIG d   1      16.238   7.748  -1.059  0.00  0.00    -0.495 OA
BRANCH  27  28
ATOM     28  C   LIG d   1      16.824   7.041  -2.153  0.00  0.00     0.079 C 
ATOM     29  H   LIG d   1      16.204   6.178  -2.402  0.00  0.00     0.066 H 
ATOM     30  H   LIG d   1      16.892   7.700  -3.019  0.00  0.00     0.066 H 
ATOM     31  H   LIG d   1      17.822   6.702  -1.875  0.00  0.00     0.066 H 
ENDBRANCH  27  28
ENDBRANCH  21  27
ENDBRANCH  15  17
ENDBRANCH  14  15
ENDBRANCH   2  14
BRANCH   1  32
ATOM     32  C   LIG d   1       9.916   9.185  -2.332  0.00  0.00    -0.033 C 
ATOM     33  H   LIG d   1      10.080   9.837  -3.188  0.00  0.00     0.028 H 
ATOM     34  H   LIG d   1       8.956   9.420  -1.873  0.00  0.00     0.028 H 
ATOM     35  H   LIG d   1      10.714   9.336  -1.603  0.00  0.00     0.028 H 
ENDBRANCH   1  32
BRANCH   8  36
ATOM     36  C   LIG d   1       9.918   9.387  -7.313  0.00  0.00    -0.005 C 
ATOM     37  H   LIG d   1      10.648   9.222  -8.106  0.00  0.00     0.031 H 
ATOM     38  H   LIG d   1       8.927   9.504  -7.751  0.00  0.00     0.031 H 
ATOM     39  H   LIG d   1      10.181  10.290  -6.761  0.00  0.00     0.031 H 
ENDBRANCH   8  36
BRANCH   9  40
ATOM     40  C   LIG d   1       9.921   6.749  -8.367  0.00  0.00     0.116 A 
ATOM     41  S   LIG d   1       8.564   6.292  -9.437  0.00  0.00    -0.067 SA
ATOM     42  C   LIG d   1       9.474   6.288 -10.962  0.00  0.00     0.040 A 
ATOM     43  C   LIG d   1      10.776   6.643 -10.537  0.00  0.00     0.079 A 
ATOM     44  C   LIG d   1       9.168   6.037 -12.277  0.00  0.00    -0.046 A 
ATOM     45  N   LIG d   1      10.920   6.864  -9.216  0.00  0.00    -0.239 NA
ATOM     46  C   LIG d   1      11.761   6.727 -11.550  0.00  0.00    -0.035 A 
ATOM     47  C   LIG d   1      11.447   6.476 -12.850  0.00  0.00    -0.060 A 
ATOM     48  H   LIG d   1      12.774   6.994 -11.288  0.00  0.00     0.064 H 
ATOM     49  C   LIG d   1      10.161   6.131 -13.236  0.00  0.00    -0.061 A 
ATOM     50  H   LIG d   1      12.221   6.548 -13.601  0.00  0.00     0.062 H 
ATOM     51  H   LIG d   1       9.936   5.937 -14.274  0.00  0.00     0.062 H 
ATOM     52  H   LIG d   1       8.161   5.770 -12.560  0.00  0.00     0.063 H 
ENDBRANCH   9  40
TORSDOF 8
ENDMDL
MODEL 10
REMARK VINA RESULT:      -5.5      9.173     12.156
REMARK  8 active torsions:
REMARK  status: ('A' for Active; 'I' for Inactive)
REMARK    1  A    between atoms: C_1  and  C_2 
REMARK    2  A    between atoms: C_3  and  O_23 
REMARK    3  A    between atoms: C_9  and  C_22 
REMARK    4  A    between atoms: C_10  and  C_13 
REMARK    5  A    between atoms: O_23  and  C_24 
REMARK    6  A    between atoms: C_24  and  C_26 
REMARK    7  A    between atoms: C_29  and  O_32 
REMARK    8  A    between atoms: O_32  and  C_33 
ROOT
ATOM      1  C   LIG d   1       3.442  -2.577  -9.632  0.00  0.00     0.035 A 
ATOM      2  C   LIG d   1       3.067  -1.262  -9.848  0.00  0.00     0.138 A 
ATOM      3  C   LIG d   1       1.818  -0.959 -10.382  0.00  0.00    -0.018 A 
ATOM      4  C   LIG d   1       0.940  -1.960 -10.692  0.00  0.00    -0.044 A 
ATOM      5  C   LIG d   1       1.303  -3.290 -10.481  0.00  0.00     0.065 A 
ATOM      6  C   LIG d   1       2.564  -3.606  -9.946  0.00  0.00     0.145 A 
ATOM      7  O   LIG d   1       2.914  -4.892  -9.741  0.00  0.00    -0.459 OA
ATOM      8  C   LIG d   1       2.117  -5.923 -10.022  0.00  0.00     0.116 A 
ATOM      9  C   LIG d   1       0.868  -5.763 -10.545  0.00  0.00     0.092 A 
ATOM     10  C   LIG d   1       0.383  -4.395 -10.808  0.00  0.00     0.202 A 
ATOM     11  O   LIG d   1      -0.723  -4.188 -11.274  0.00  0.00    -0.286 OA
ATOM     12  H   LIG d   1       1.540   0.070 -10.550  0.00  0.00     0.066 H 
ATOM     13  H   LIG d   1      -0.030  -1.722 -11.103  0.00  0.00     0.063 H 
ENDROOT
BRANCH   2  14
ATOM     14  O   LIG d   1       3.929  -0.259  -9.540  0.00  0.00    -0.422 OA
BRANCH  14  15
ATOM     15  C   LIG d   1       3.566   0.575  -8.544  0.00  0.00     0.344 C 
ATOM     16  O   LIG d   1       3.033   1.635  -8.802  0.00  0.00    -0.244 OA
BRANCH  15  17
ATOM     17  C   LIG d   1       3.816   0.198  -7.140  0.00  0.00     0.060 A 
ATOM     18  C   LIG d   1       5.070  -0.288  -6.757  0.00  0.00    -0.044 A 
ATOM     19  C   LIG d   1       5.300  -0.638  -5.446  0.00  0.00    -0.019 A 
ATOM     20  H   LIG d   1       5.857  -0.387  -7.489  0.00  0.00     0.063 H 
ATOM     21  C   LIG d   1       4.287  -0.510  -4.503  0.00  0.00     0.120 A 
ATOM     22  H   LIG d   1       6.268  -1.012  -5.150  0.00  0.00     0.065 H 
ATOM     23  C   LIG d   1       3.037  -0.028  -4.879  0.00  0.00    -0.019 A 
ATOM     24  C   LIG d   1       2.801   0.330  -6.187  0.00  0.00    -0.044 A 
ATOM     25  H   LIG d   1       2.254   0.070  -4.143  0.00  0.00     0.065 H 
ATOM     26  H   LIG d   1       1.833   0.710  -6.477  0.00  0.00     0.063 H 
BRANCH  21  27
ATOM     27  O   LIG d   1       4.516  -0.857  -3.211  0.00  0.00    -0.495 OA
BRANCH  27  28
ATOM     28  C   LIG d   1       3.537  -1.681  -2.577  0.00  0.00     0.079 C 
ATOM     29  H   LIG d   1       3.637  -1.597  -1.494  0.00  0.00     0.066 H 
ATOM     30  H   LIG d   1       2.540  -1.358  -2.875  0.00  0.00     0.066 H 
ATOM     31  H   LIG d   1       3.687  -2.719  -2.875  0.00  0.00     0.066 H 
ENDBRANCH  27  28
ENDBRANCH  21  27
ENDBRANCH  15  17
ENDBRANCH  14  15
ENDBRANCH   2  14
BRANCH   1  32
ATOM     32  C   LIG d   1       4.800  -2.892  -9.058  0.00  0.00    -0.033 C 
ATOM     33  H   LIG d   1       5.221  -1.994  -8.607  0.00  0.00     0.028 H 
ATOM     34  H   LIG d   1       4.703  -3.668  -8.300  0.00  0.00     0.028 H 
ATOM     35  H   LIG d   1       5.459  -3.241  -9.854  0.00  0.00     0.028 H 
ENDBRANCH   1  32
BRANCH   8  36
ATOM     36  C   LIG d   1       2.614  -7.319  -9.752  0.00  0.00    -0.005 C 
ATOM     37  H   LIG d   1       1.871  -8.041 -10.088  0.00  0.00     0.031 H 
ATOM     38  H   LIG d   1       3.548  -7.483 -10.289  0.00  0.00     0.031 H 
ATOM     39  H   LIG d   1       2.784  -7.444  -8.682  0.00  0.00     0.031 H 
ENDBRANCH   8  36
BRANCH   9  40
ATOM     40  C   LIG d   1       0.019  -6.933 -10.840  0.00  0.00     0.116 A 
ATOM     41  S   LIG d   1       0.038  -7.999 -12.274  0.00  0.00    -0.067 SA
ATOM     42  C   LIG d   1      -1.277  -9.079 -11.766  0.00  0.00     0.040 A 
ATOM     43  C   LIG d   1      -1.645  -8.538 -10.512  0.00  0.00     0.079 A 
ATOM     44  C   LIG d   1      -1.896 -10.179 -12.307  0.00  0.00    -0.046 A 
ATOM     45  N   LIG d   1      -0.942  -7.461 -10.111  0.00  0.00    -0.239 NA
ATOM     46  C   LIG d   1      -2.697  -9.198  -9.833  0.00  0.00    -0.035 A 
ATOM     47  C   LIG d   1      -3.303 -10.286 -10.377  0.00  0.00    -0.060 A 
ATOM     48  H   LIG d   1      -3.023  -8.831  -8.870  0.00  0.00     0.064 H 
ATOM     49  C   LIG d   1      -2.921 -10.794 -11.610  0.00  0.00    -0.061 A 
ATOM     50  H   LIG d   1      -4.104 -10.768  -9.835  0.00  0.00     0.062 H 
ATOM     51  H   LIG d   1      -3.417 -11.661 -12.021  0.00  0.00     0.062 H 
ATOM     52  H   LIG d   1      -1.585 -10.562 -13.268  0.00  0.00     0.063 H 
ENDBRANCH   9  40
TORSDOF 8
ENDMDL
