MODEL 1
REMARK VINA RESULT:      -6.6      0.000      0.000
REMARK  9 active torsions:
REMARK  status: ('A' for Active; 'I' for Inactive)
REMARK    1  A    between atoms: C_1  and  O_2 
REMARK    2  A    between atoms: O_2  and  C_3 
REMARK    3  A    between atoms: C_6  and  C_9 
REMARK    4  A    between atoms: C_9  and  N_10 
REMARK       I    between atoms: N_10  and  C_11 
REMARK    5  A    between atoms: C_11  and  C_13 
REMARK    6  A    between atoms: C_13  and  O_14 
REMARK    7  A    between atoms: O_14  and  C_15 
REMARK    8  A    between atoms: C_20  and  C_21 
REMARK    9  A    between atoms: C_21  and  C_22 
ROOT
ATOM      1  C   LIG d   1       5.774  -3.762  -4.864  0.00  0.00     0.126 A 
ATOM      2  C   LIG d   1       7.026  -4.285  -5.180  0.00  0.00    -0.018 A 
ATOM      3  C   LIG d   1       8.125  -3.478  -5.260  0.00  0.00    -0.032 A 
ATOM      4  C   LIG d   1       8.001  -2.109  -5.015  0.00  0.00     0.079 A 
ATOM      5  C   LIG d   1       6.735  -1.574  -4.689  0.00  0.00     0.072 A 
ATOM      6  C   LIG d   1       5.624  -2.411  -4.613  0.00  0.00     0.012 A 
ATOM      7  C   LIG d   1       6.645  -0.130  -4.441  0.00  0.00     0.262 A 
ATOM      8  O   LIG d   1       5.584   0.393  -4.156  0.00  0.00    -0.267 OA
ATOM      9  N   LIG d   1       7.784   0.605  -4.540  0.00  0.00    -0.296 N 
ATOM     10  C   LIG d   1       8.966   0.009  -4.855  0.00  0.00     0.113 A 
ATOM     11  N   LIG d   1       9.066  -1.273  -5.081  0.00  0.00    -0.234 NA
ATOM     12  C   LIG d   1      10.068   1.056  -4.889  0.00  0.00     0.007 C 
ATOM     13  C   LIG d   1       9.473   2.264  -4.136  0.00  0.00    -0.028 C 
ATOM     14  C   LIG d   1       7.959   2.054  -4.345  0.00  0.00     0.028 C 
ATOM     15  H   LIG d   1       7.128  -5.344  -5.370  0.00  0.00     0.066 H 
ATOM     16  H   LIG d   1       9.087  -3.899  -5.511  0.00  0.00     0.064 H 
ATOM     17  H   LIG d   1      10.964   0.660  -4.389  0.00  0.00     0.034 H 
ATOM     18  H   LIG d   1      10.308   1.301  -5.934  0.00  0.00     0.034 H 
ATOM     19  H   LIG d   1       9.772   2.221  -3.079  0.00  0.00     0.029 H 
ATOM     20  H   LIG d   1       9.845   3.196  -4.585  0.00  0.00     0.029 H 
ATOM     21  H   LIG d   1       7.599   2.590  -5.236  0.00  0.00     0.049 H 
ATOM     22  H   LIG d   1       7.384   2.378  -3.465  0.00  0.00     0.049 H 
ENDROOT
BRANCH   1  23
ATOM     23  O   LIG d   1       4.695  -4.585  -4.797  0.00  0.00    -0.482 OA
BRANCH  23  24
ATOM     24  C   LIG d   1       4.606  -5.620  -5.779  0.00  0.00     0.165 C 
ATOM     25  H   LIG d   1       3.729  -6.250  -5.568  0.00  0.00     0.080 H 
ATOM     26  H   LIG d   1       5.516  -6.235  -5.746  0.00  0.00     0.080 H 
BRANCH  24  27
ATOM     27  C   LIG d   1       4.465  -5.005  -7.147  0.00  0.00     0.251 C 
ATOM     28  N   LIG d   1       3.486  -4.110  -7.386  0.00  0.00    -0.308 N 
ATOM     29  H   LIG d   1       2.789  -3.830  -6.583  0.00  0.00     0.149 HD
ATOM     30  O   LIG d   1       5.233  -5.314  -8.033  0.00  0.00    -0.272 OA
BRANCH  28  31
ATOM     31  C   LIG d   1       3.349  -3.512  -8.716  0.00  0.00     0.037 C 
ATOM     32  H   LIG d   1       2.400  -3.836  -9.169  0.00  0.00     0.051 H 
ATOM     33  H   LIG d   1       4.186  -3.835  -9.352  0.00  0.00     0.051 H 
BRANCH  31  34
ATOM     34  C   LIG d   1       3.360  -2.009  -8.595  0.00  0.00    -0.030 A 
ATOM     35  C   LIG d   1       2.403  -1.258  -9.250  0.00  0.00    -0.054 A 
ATOM     36  C   LIG d   1       2.411   0.119  -9.141  0.00  0.00    -0.020 A 
ATOM     37  H   LIG d   1       1.648  -1.747  -9.849  0.00  0.00     0.062 H 
ATOM     38  C   LIG d   1       3.381   0.748  -8.373  0.00  0.00     0.120 A 
ATOM     39  H   LIG d   1       1.663   0.706  -9.653  0.00  0.00     0.065 H 
ATOM     40  C   LIG d   1       4.340  -0.010  -7.717  0.00  0.00    -0.020 A 
ATOM     41  C   LIG d   1       4.324  -1.387  -7.825  0.00  0.00    -0.054 A 
ATOM     42  H   LIG d   1       5.096   0.477  -7.118  0.00  0.00     0.065 H 
ATOM     43  H   LIG d   1       5.068  -1.977  -7.310  0.00  0.00     0.062 H 
BRANCH  38  44
ATOM     44  O   LIG d   1       3.390   2.102  -8.265  0.00  0.00    -0.495 OA
BRANCH  44  45
ATOM     45  C   LIG d   1       3.986   2.833  -9.338  0.00  0.00     0.079 C 
ATOM     46  H   LIG d   1       5.081   2.734  -9.287  0.00  0.00     0.066 H 
ATOM     47  H   LIG d   1       3.711   3.895  -9.256  0.00  0.00     0.066 H 
ATOM     48  H   LIG d   1       3.628   2.435 -10.298  0.00  0.00     0.066 H 
ENDBRANCH  44  45
ENDBRANCH  38  44
ENDBRANCH  31  34
ENDBRANCH  28  31
ENDBRANCH  24  27
ENDBRANCH  23  24
ENDBRANCH   1  23
BRANCH   6  49
ATOM     49  C   LIG d   1       4.270  -1.847  -4.265  0.00  0.00    -0.005 C 
ATOM     50  H   LIG d   1       4.295  -0.751  -4.354  0.00  0.00     0.036 H 
ATOM     51  H   LIG d   1       3.515  -2.255  -4.954  0.00  0.00     0.036 H 
BRANCH  49  52
ATOM     52  C   LIG d   1       3.915  -2.228  -2.851  0.00  0.00    -0.087 C 
ATOM     53  C   LIG d   1       4.306  -1.474  -1.853  0.00  0.00    -0.102 C 
ATOM     54  H   LIG d   1       4.047  -1.752  -0.819  0.00  0.00     0.053 H 
ATOM     55  H   LIG d   1       4.891  -0.564  -2.047  0.00  0.00     0.053 H 
ATOM     56  H   LIG d   1       3.330  -3.139  -2.656  0.00  0.00     0.057 H 
ENDBRANCH  49  52
ENDBRANCH   6  49
TORSDOF 9
ENDMDL
MODEL 2
REMARK VINA RESULT:      -6.5      2.750      5.355
REMARK  9 active torsions:
REMARK  status: ('A' for Active; 'I' for Inactive)
REMARK    1  A    between atoms: C_1  and  O_2 
REMARK    2  A    between atoms: O_2  and  C_3 
REMARK    3  A    between atoms: C_6  and  C_9 
REMARK    4  A    between atoms: C_9  and  N_10 
REMARK       I    between atoms: N_10  and  C_11 
REMARK    5  A    between atoms: C_11  and  C_13 
REMARK    6  A    between atoms: C_13  and  O_14 
REMARK    7  A    between atoms: O_14  and  C_15 
REMARK    8  A    between atoms: C_20  and  C_21 
REMARK    9  A    between atoms: C_21  and  C_22 
ROOT
ATOM      1  C   LIG d   1       9.498   0.303  -5.271  0.00  0.00     0.126 A 
ATOM      2  C   LIG d   1       9.521  -1.067  -5.519  0.00  0.00    -0.018 A 
ATOM      3  C   LIG d   1       8.506  -1.876  -5.093  0.00  0.00    -0.032 A 
ATOM      4  C   LIG d   1       7.422  -1.327  -4.405  0.00  0.00     0.079 A 
ATOM      5  C   LIG d   1       7.390   0.064  -4.156  0.00  0.00     0.072 A 
ATOM      6  C   LIG d   1       8.435   0.874  -4.596  0.00  0.00     0.012 A 
ATOM      7  C   LIG d   1       6.236   0.603  -3.428  0.00  0.00     0.262 A 
ATOM      8  O   LIG d   1       6.149   1.792  -3.181  0.00  0.00    -0.267 OA
ATOM      9  N   LIG d   1       5.267  -0.266  -3.038  0.00  0.00    -0.296 N 
ATOM     10  C   LIG d   1       5.372  -1.593  -3.323  0.00  0.00     0.113 A 
ATOM     11  N   LIG d   1       6.393  -2.092  -3.967  0.00  0.00    -0.234 NA
ATOM     12  C   LIG d   1       4.156  -2.326  -2.782  0.00  0.00     0.007 C 
ATOM     13  C   LIG d   1       3.119  -1.211  -2.524  0.00  0.00    -0.028 C 
ATOM     14  C   LIG d   1       4.025   0.017  -2.300  0.00  0.00     0.028 C 
ATOM     15  H   LIG d   1      10.357  -1.498  -6.051  0.00  0.00     0.066 H 
ATOM     16  H   LIG d   1       8.541  -2.937  -5.289  0.00  0.00     0.064 H 
ATOM     17  H   LIG d   1       3.803  -3.050  -3.530  0.00  0.00     0.034 H 
ATOM     18  H   LIG d   1       4.428  -2.856  -1.857  0.00  0.00     0.034 H 
ATOM     19  H   LIG d   1       2.464  -1.110  -3.401  0.00  0.00     0.029 H 
ATOM     20  H   LIG d   1       2.515  -1.470  -1.642  0.00  0.00     0.029 H 
ATOM     21  H   LIG d   1       4.255   0.156  -1.233  0.00  0.00     0.049 H 
ATOM     22  H   LIG d   1       3.562   0.933  -2.697  0.00  0.00     0.049 H 
ENDROOT
BRANCH   1  23
ATOM     23  O   LIG d   1      10.523   1.085  -5.700  0.00  0.00    -0.482 OA
BRANCH  23  24
ATOM     24  C   LIG d   1      10.807   1.073  -7.101  0.00  0.00     0.165 C 
ATOM     25  H   LIG d   1      10.901   0.033  -7.447  0.00  0.00     0.080 H 
ATOM     26  H   LIG d   1      11.748   1.609  -7.288  0.00  0.00     0.080 H 
BRANCH  24  27
ATOM     27  C   LIG d   1       9.687   1.751  -7.847  0.00  0.00     0.251 C 
ATOM     28  N   LIG d   1       8.849   1.023  -8.612  0.00  0.00    -0.308 N 
ATOM     29  H   LIG d   1       8.984  -0.065  -8.693  0.00  0.00     0.149 HD
ATOM     30  O   LIG d   1       9.538   2.951  -7.757  0.00  0.00    -0.272 OA
BRANCH  28  31
ATOM     31  C   LIG d   1       7.760   1.682  -9.337  0.00  0.00     0.037 C 
ATOM     32  H   LIG d   1       7.805   1.403 -10.400  0.00  0.00     0.051 H 
ATOM     33  H   LIG d   1       7.863   2.773  -9.240  0.00  0.00     0.051 H 
BRANCH  31  34
ATOM     34  C   LIG d   1       6.437   1.249  -8.760  0.00  0.00    -0.030 A 
ATOM     35  C   LIG d   1       5.263   1.800  -9.236  0.00  0.00    -0.054 A 
ATOM     36  C   LIG d   1       4.049   1.405  -8.709  0.00  0.00    -0.020 A 
ATOM     37  H   LIG d   1       5.294   2.542 -10.021  0.00  0.00     0.062 H 
ATOM     38  C   LIG d   1       4.009   0.452  -7.700  0.00  0.00     0.120 A 
ATOM     39  H   LIG d   1       3.132   1.836  -9.081  0.00  0.00     0.065 H 
ATOM     40  C   LIG d   1       5.190  -0.099  -7.225  0.00  0.00    -0.020 A 
ATOM     41  C   LIG d   1       6.401   0.296  -7.759  0.00  0.00    -0.054 A 
ATOM     42  H   LIG d   1       5.162  -0.841  -6.439  0.00  0.00     0.065 H 
ATOM     43  H   LIG d   1       7.319  -0.137  -7.392  0.00  0.00     0.062 H 
BRANCH  38  44
ATOM     44  O   LIG d   1       2.816   0.062  -7.180  0.00  0.00    -0.495 OA
BRANCH  44  45
ATOM     45  C   LIG d   1       2.611   0.294  -5.785  0.00  0.00     0.079 C 
ATOM     46  H   LIG d   1       3.385   0.979  -5.408  0.00  0.00     0.066 H 
ATOM     47  H   LIG d   1       2.672  -0.661  -5.241  0.00  0.00     0.066 H 
ATOM     48  H   LIG d   1       1.619   0.743  -5.629  0.00  0.00     0.066 H 
ENDBRANCH  44  45
ENDBRANCH  38  44
ENDBRANCH  31  34
ENDBRANCH  28  31
ENDBRANCH  24  27
ENDBRANCH  23  24
ENDBRANCH   1  23
BRANCH   6  49
ATOM     49  C   LIG d   1       8.408   2.358  -4.334  0.00  0.00    -0.005 C 
ATOM     50  H   LIG d   1       8.619   2.899  -5.268  0.00  0.00     0.036 H 
ATOM     51  H   LIG d   1       7.415   2.647  -3.958  0.00  0.00     0.036 H 
BRANCH  49  52
ATOM     52  C   LIG d   1       9.453   2.706  -3.305  0.00  0.00    -0.087 C 
ATOM     53  C   LIG d   1       9.785   3.957  -3.107  0.00  0.00    -0.102 C 
ATOM     54  H   LIG d   1      10.549   4.212  -2.356  0.00  0.00     0.053 H 
ATOM     55  H   LIG d   1       9.301   4.754  -3.691  0.00  0.00     0.053 H 
ATOM     56  H   LIG d   1       9.938   1.909  -2.722  0.00  0.00     0.057 H 
ENDBRANCH  49  52
ENDBRANCH   6  49
TORSDOF 9
ENDMDL
MODEL 3
REMARK VINA RESULT:      -6.4      4.206      8.543
REMARK  9 active torsions:
REMARK  status: ('A' for Active; 'I' for Inactive)
REMARK    1  A    between atoms: C_1  and  O_2 
REMARK    2  A    between atoms: O_2  and  C_3 
REMARK    3  A    between atoms: C_6  and  C_9 
REMARK    4  A    between atoms: C_9  and  N_10 
REMARK       I    between atoms: N_10  and  C_11 
REMARK    5  A    between atoms: C_11  and  C_13 
REMARK    6  A    between atoms: C_13  and  O_14 
REMARK    7  A    between atoms: O_14  and  C_15 
REMARK    8  A    between atoms: C_20  and  C_21 
REMARK    9  A    between atoms: C_21  and  C_22 
ROOT
ATOM      1  C   LIG d   1       9.654   0.076  -4.968  0.00  0.00     0.126 A 
ATOM      2  C   LIG d   1       9.609  -1.289  -5.239  0.00  0.00    -0.018 A 
ATOM      3  C   LIG d   1       8.521  -2.039  -4.892  0.00  0.00    -0.032 A 
ATOM      4  C   LIG d   1       7.432  -1.433  -4.262  0.00  0.00     0.079 A 
ATOM      5  C   LIG d   1       7.470  -0.048  -3.990  0.00  0.00     0.072 A 
ATOM      6  C   LIG d   1       8.588   0.702  -4.349  0.00  0.00     0.012 A 
ATOM      7  C   LIG d   1       6.307   0.551  -3.325  0.00  0.00     0.262 A 
ATOM      8  O   LIG d   1       6.278   1.740  -3.062  0.00  0.00    -0.267 OA
ATOM      9  N   LIG d   1       5.265  -0.261  -3.012  0.00  0.00    -0.296 N 
ATOM     10  C   LIG d   1       5.306  -1.587  -3.314  0.00  0.00     0.113 A 
ATOM     11  N   LIG d   1       6.333  -2.139  -3.903  0.00  0.00    -0.234 NA
ATOM     12  C   LIG d   1       4.015  -2.251  -2.863  0.00  0.00     0.007 C 
ATOM     13  C   LIG d   1       3.035  -1.078  -2.649  0.00  0.00    -0.028 C 
ATOM     14  C   LIG d   1       3.998   0.089  -2.347  0.00  0.00     0.028 C 
ATOM     15  H   LIG d   1      10.449  -1.763  -5.726  0.00  0.00     0.066 H 
ATOM     16  H   LIG d   1       8.504  -3.098  -5.105  0.00  0.00     0.064 H 
ATOM     17  H   LIG d   1       3.666  -2.941  -3.645  0.00  0.00     0.034 H 
ATOM     18  H   LIG d   1       4.196  -2.810  -1.933  0.00  0.00     0.034 H 
ATOM     19  H   LIG d   1       2.443  -0.923  -3.563  0.00  0.00     0.029 H 
ATOM     20  H   LIG d   1       2.362  -1.311  -1.811  0.00  0.00     0.029 H 
ATOM     21  H   LIG d   1       4.169   0.197  -1.266  0.00  0.00     0.049 H 
ATOM     22  H   LIG d   1       3.619   1.037  -2.755  0.00  0.00     0.049 H 
ENDROOT
BRANCH   1  23
ATOM     23  O   LIG d   1      10.751   0.798  -5.318  0.00  0.00    -0.482 OA
BRANCH  23  24
ATOM     24  C   LIG d   1      11.844   0.807  -4.398  0.00  0.00     0.165 C 
ATOM     25  H   LIG d   1      12.630   0.125  -4.756  0.00  0.00     0.080 H 
ATOM     26  H   LIG d   1      11.494   0.475  -3.410  0.00  0.00     0.080 H 
BRANCH  24  27
ATOM     27  C   LIG d   1      12.401   2.202  -4.291  0.00  0.00     0.251 C 
ATOM     28  N   LIG d   1      12.268   2.895  -3.143  0.00  0.00    -0.308 N 
ATOM     29  H   LIG d   1      11.752   2.442  -2.284  0.00  0.00     0.149 HD
ATOM     30  O   LIG d   1      12.970   2.702  -5.238  0.00  0.00    -0.272 OA
BRANCH  28  31
ATOM     31  C   LIG d   1      12.810   4.252  -3.039  0.00  0.00     0.037 C 
ATOM     32  H   LIG d   1      13.088   4.614  -4.040  0.00  0.00     0.051 H 
ATOM     33  H   LIG d   1      13.699   4.244  -2.392  0.00  0.00     0.051 H 
BRANCH  31  34
ATOM     34  C   LIG d   1      11.767   5.166  -2.447  0.00  0.00    -0.030 A 
ATOM     35  C   LIG d   1      11.083   6.050  -3.261  0.00  0.00    -0.054 A 
ATOM     36  C   LIG d   1      10.127   6.888  -2.722  0.00  0.00    -0.020 A 
ATOM     37  H   LIG d   1      11.298   6.086  -4.319  0.00  0.00     0.062 H 
ATOM     38  C   LIG d   1       9.852   6.842  -1.362  0.00  0.00     0.120 A 
ATOM     39  H   LIG d   1       9.593   7.579  -3.358  0.00  0.00     0.065 H 
ATOM     40  C   LIG d   1      10.540   5.954  -0.549  0.00  0.00    -0.020 A 
ATOM     41  C   LIG d   1      11.492   5.113  -1.094  0.00  0.00    -0.054 A 
ATOM     42  H   LIG d   1      10.329   5.915   0.510  0.00  0.00     0.065 H 
ATOM     43  H   LIG d   1      12.024   4.418  -0.461  0.00  0.00     0.062 H 
BRANCH  38  44
ATOM     44  O   LIG d   1       8.913   7.666  -0.830  0.00  0.00    -0.495 OA
BRANCH  44  45
ATOM     45  C   LIG d   1       9.142   9.071  -0.948  0.00  0.00     0.079 C 
ATOM     46  H   LIG d   1       9.544   9.296  -1.947  0.00  0.00     0.066 H 
ATOM     47  H   LIG d   1       9.865   9.391  -0.183  0.00  0.00     0.066 H 
ATOM     48  H   LIG d   1       8.194   9.612  -0.805  0.00  0.00     0.066 H 
ENDBRANCH  44  45
ENDBRANCH  38  44
ENDBRANCH  31  34
ENDBRANCH  28  31
ENDBRANCH  24  27
ENDBRANCH  23  24
ENDBRANCH   1  23
BRANCH   6  49
ATOM     49  C   LIG d   1       8.636   2.181  -4.062  0.00  0.00    -0.005 C 
ATOM     50  H   LIG d   1       7.776   2.461  -3.435  0.00  0.00     0.036 H 
ATOM     51  H   LIG d   1       9.570   2.422  -3.533  0.00  0.00     0.036 H 
BRANCH  49  52
ATOM     52  C   LIG d   1       8.582   2.947  -5.358  0.00  0.00    -0.087 C 
ATOM     53  C   LIG d   1       9.431   3.920  -5.580  0.00  0.00    -0.102 C 
ATOM     54  H   LIG d   1       9.392   4.480  -6.527  0.00  0.00     0.053 H 
ATOM     55  H   LIG d   1      10.184   4.176  -4.820  0.00  0.00     0.053 H 
ATOM     56  H   LIG d   1       7.829   2.691  -6.119  0.00  0.00     0.057 H 
ENDBRANCH  49  52
ENDBRANCH   6  49
TORSDOF 9
ENDMDL
MODEL 4
REMARK VINA RESULT:      -6.3      4.230      6.026
REMARK  9 active torsions:
REMARK  status: ('A' for Active; 'I' for Inactive)
REMARK    1  A    between atoms: C_1  and  O_2 
REMARK    2  A    between atoms: O_2  and  C_3 
REMARK    3  A    between atoms: C_6  and  C_9 
REMARK    4  A    between atoms: C_9  and  N_10 
REMARK       I    between atoms: N_10  and  C_11 
REMARK    5  A    between atoms: C_11  and  C_13 
REMARK    6  A    between atoms: C_13  and  O_14 
REMARK    7  A    between atoms: O_14  and  C_15 
REMARK    8  A    between atoms: C_20  and  C_21 
REMARK    9  A    between atoms: C_21  and  C_22 
ROOT
ATOM      1  C   LIG d   1       3.883  -2.003  -8.045  0.00  0.00     0.126 A 
ATOM      2  C   LIG d   1       3.169  -0.833  -8.290  0.00  0.00    -0.018 A 
ATOM      3  C   LIG d   1       2.933   0.070  -7.291  0.00  0.00    -0.032 A 
ATOM      4  C   LIG d   1       3.418  -0.176  -6.004  0.00  0.00     0.079 A 
ATOM      5  C   LIG d   1       4.148  -1.359  -5.752  0.00  0.00     0.072 A 
ATOM      6  C   LIG d   1       4.379  -2.269  -6.782  0.00  0.00     0.012 A 
ATOM      7  C   LIG d   1       4.639  -1.582  -4.387  0.00  0.00     0.262 A 
ATOM      8  O   LIG d   1       5.274  -2.582  -4.104  0.00  0.00    -0.267 OA
ATOM      9  N   LIG d   1       4.364  -0.638  -3.450  0.00  0.00    -0.296 N 
ATOM     10  C   LIG d   1       3.658   0.477  -3.778  0.00  0.00     0.113 A 
ATOM     11  N   LIG d   1       3.210   0.693  -4.986  0.00  0.00    -0.234 NA
ATOM     12  C   LIG d   1       3.503   1.360  -2.550  0.00  0.00     0.007 C 
ATOM     13  C   LIG d   1       4.571   0.837  -1.565  0.00  0.00    -0.028 C 
ATOM     14  C   LIG d   1       4.736  -0.626  -2.025  0.00  0.00     0.028 C 
ATOM     15  H   LIG d   1       2.791  -0.637  -9.283  0.00  0.00     0.066 H 
ATOM     16  H   LIG d   1       2.374   0.970  -7.496  0.00  0.00     0.064 H 
ATOM     17  H   LIG d   1       3.680   2.409  -2.829  0.00  0.00     0.034 H 
ATOM     18  H   LIG d   1       2.485   1.253  -2.148  0.00  0.00     0.034 H 
ATOM     19  H   LIG d   1       5.490   1.430  -1.673  0.00  0.00     0.029 H 
ATOM     20  H   LIG d   1       4.194   0.927  -0.536  0.00  0.00     0.029 H 
ATOM     21  H   LIG d   1       4.069  -1.300  -1.466  0.00  0.00     0.049 H 
ATOM     22  H   LIG d   1       5.777  -0.966  -1.914  0.00  0.00     0.049 H 
ENDROOT
BRANCH   1  23
ATOM     23  O   LIG d   1       4.098  -2.887  -9.054  0.00  0.00    -0.482 OA
BRANCH  23  24
ATOM     24  C   LIG d   1       3.137  -2.912 -10.111  0.00  0.00     0.165 C 
ATOM     25  H   LIG d   1       3.647  -2.763 -11.075  0.00  0.00     0.080 H 
ATOM     26  H   LIG d   1       2.402  -2.109  -9.957  0.00  0.00     0.080 H 
BRANCH  24  27
ATOM     27  C   LIG d   1       2.431  -4.244 -10.118  0.00  0.00     0.251 C 
ATOM     28  N   LIG d   1       1.092  -4.296 -10.258  0.00  0.00    -0.308 N 
ATOM     29  H   LIG d   1       0.513  -3.367 -10.367  0.00  0.00     0.149 HD
ATOM     30  O   LIG d   1       3.069  -5.268  -9.998  0.00  0.00    -0.272 OA
BRANCH  28  31
ATOM     31  C   LIG d   1       0.407  -5.591 -10.265  0.00  0.00     0.037 C 
ATOM     32  H   LIG d   1       0.643  -6.136  -9.339  0.00  0.00     0.051 H 
ATOM     33  H   LIG d   1       0.741  -6.178 -11.132  0.00  0.00     0.051 H 
BRANCH  31  34
ATOM     34  C   LIG d   1      -1.082  -5.371 -10.350  0.00  0.00    -0.030 A 
ATOM     35  C   LIG d   1      -1.613  -4.649 -11.404  0.00  0.00    -0.054 A 
ATOM     36  C   LIG d   1      -2.976  -4.446 -11.485  0.00  0.00    -0.020 A 
ATOM     37  H   LIG d   1      -0.960  -4.244 -12.163  0.00  0.00     0.062 H 
ATOM     38  C   LIG d   1      -3.814  -4.967 -10.509  0.00  0.00     0.120 A 
ATOM     39  H   LIG d   1      -3.391  -3.883 -12.308  0.00  0.00     0.065 H 
ATOM     40  C   LIG d   1      -3.278  -5.689  -9.453  0.00  0.00    -0.020 A 
ATOM     41  C   LIG d   1      -1.914  -5.895  -9.379  0.00  0.00    -0.054 A 
ATOM     42  H   LIG d   1      -3.928  -6.096  -8.692  0.00  0.00     0.065 H 
ATOM     43  H   LIG d   1      -1.498  -6.462  -8.560  0.00  0.00     0.062 H 
BRANCH  38  44
ATOM     44  O   LIG d   1      -5.156  -4.767 -10.587  0.00  0.00    -0.495 OA
BRANCH  44  45
ATOM     45  C   LIG d   1      -5.665  -3.558 -10.020  0.00  0.00     0.079 C 
ATOM     46  H   LIG d   1      -4.892  -3.093  -9.391  0.00  0.00     0.066 H 
ATOM     47  H   LIG d   1      -6.548  -3.785  -9.404  0.00  0.00     0.066 H 
ATOM     48  H   LIG d   1      -5.948  -2.865 -10.825  0.00  0.00     0.066 H 
ENDBRANCH  44  45
ENDBRANCH  38  44
ENDBRANCH  31  34
ENDBRANCH  28  31
ENDBRANCH  24  27
ENDBRANCH  23  24
ENDBRANCH   1  23
BRANCH   6  49
ATOM     49  C   LIG d   1       5.156  -3.533  -6.520  0.00  0.00    -0.005 C 
ATOM     50  H   LIG d   1       5.864  -3.705  -7.344  0.00  0.00     0.036 H 
ATOM     51  H   LIG d   1       5.710  -3.434  -5.574  0.00  0.00     0.036 H 
BRANCH  49  52
ATOM     52  C   LIG d   1       4.205  -4.697  -6.423  0.00  0.00    -0.087 C 
ATOM     53  C   LIG d   1       4.512  -5.734  -5.684  0.00  0.00    -0.102 C 
ATOM     54  H   LIG d   1       3.818  -6.586  -5.614  0.00  0.00     0.053 H 
ATOM     55  H   LIG d   1       5.464  -5.755  -5.134  0.00  0.00     0.053 H 
ATOM     56  H   LIG d   1       3.252  -4.678  -6.974  0.00  0.00     0.057 H 
ENDBRANCH  49  52
ENDBRANCH   6  49
TORSDOF 9
ENDMDL
MODEL 5
REMARK VINA RESULT:      -6.3      2.723      5.210
REMARK  9 active torsions:
REMARK  status: ('A' for Active; 'I' for Inactive)
REMARK    1  A    between atoms: C_1  and  O_2 
REMARK    2  A    between atoms: O_2  and  C_3 
REMARK    3  A    between atoms: C_6  and  C_9 
REMARK    4  A    between atoms: C_9  and  N_10 
REMARK       I    between atoms: N_10  and  C_11 
REMARK    5  A    between atoms: C_11  and  C_13 
REMARK    6  A    between atoms: C_13  and  O_14 
REMARK    7  A    between atoms: O_14  and  C_15 
REMARK    8  A    between atoms: C_20  and  C_21 
REMARK    9  A    between atoms: C_21  and  C_22 
ROOT
ATOM      1  C   LIG d   1       3.567  -1.981  -8.850  0.00  0.00     0.126 A 
ATOM      2  C   LIG d   1       4.171  -3.176  -8.465  0.00  0.00    -0.018 A 
ATOM      3  C   LIG d   1       4.600  -3.365  -7.182  0.00  0.00    -0.032 A 
ATOM      4  C   LIG d   1       4.426  -2.354  -6.234  0.00  0.00     0.079 A 
ATOM      5  C   LIG d   1       3.808  -1.142  -6.618  0.00  0.00     0.072 A 
ATOM      6  C   LIG d   1       3.378  -0.965  -7.932  0.00  0.00     0.012 A 
ATOM      7  C   LIG d   1       3.645  -0.103  -5.595  0.00  0.00     0.262 A 
ATOM      8  O   LIG d   1       3.122   0.963  -5.862  0.00  0.00    -0.267 OA
ATOM      9  N   LIG d   1       4.097  -0.367  -4.342  0.00  0.00    -0.296 N 
ATOM     10  C   LIG d   1       4.677  -1.564  -4.054  0.00  0.00     0.113 A 
ATOM     11  N   LIG d   1       4.833  -2.501  -4.951  0.00  0.00    -0.234 NA
ATOM     12  C   LIG d   1       5.079  -1.594  -2.588  0.00  0.00     0.007 C 
ATOM     13  C   LIG d   1       4.278  -0.440  -1.947  0.00  0.00    -0.028 C 
ATOM     14  C   LIG d   1       4.057   0.499  -3.151  0.00  0.00     0.028 C 
ATOM     15  H   LIG d   1       4.309  -3.962  -9.193  0.00  0.00     0.066 H 
ATOM     16  H   LIG d   1       5.071  -4.295  -6.901  0.00  0.00     0.064 H 
ATOM     17  H   LIG d   1       4.813  -2.569  -2.156  0.00  0.00     0.034 H 
ATOM     18  H   LIG d   1       6.164  -1.438  -2.502  0.00  0.00     0.034 H 
ATOM     19  H   LIG d   1       3.341  -0.833  -1.529  0.00  0.00     0.029 H 
ATOM     20  H   LIG d   1       4.875   0.019  -1.146  0.00  0.00     0.029 H 
ATOM     21  H   LIG d   1       4.853   1.255  -3.221  0.00  0.00     0.049 H 
ATOM     22  H   LIG d   1       3.079   1.000  -3.095  0.00  0.00     0.049 H 
ENDROOT
BRANCH   1  23
ATOM     23  O   LIG d   1       3.155  -1.816 -10.134  0.00  0.00    -0.482 OA
BRANCH  23  24
ATOM     24  C   LIG d   1       4.100  -2.117 -11.163  0.00  0.00     0.165 C 
ATOM     25  H   LIG d   1       3.586  -2.148 -12.135  0.00  0.00     0.080 H 
ATOM     26  H   LIG d   1       4.562  -3.094 -10.962  0.00  0.00     0.080 H 
BRANCH  24  27
ATOM     27  C   LIG d   1       5.168  -1.054 -11.193  0.00  0.00     0.251 C 
ATOM     28  N   LIG d   1       6.326  -1.244 -10.530  0.00  0.00    -0.308 N 
ATOM     29  H   LIG d   1       6.492  -2.174  -9.967  0.00  0.00     0.149 HD
ATOM     30  O   LIG d   1       4.985  -0.029 -11.814  0.00  0.00    -0.272 OA
BRANCH  28  31
ATOM     31  C   LIG d   1       7.364  -0.210 -10.559  0.00  0.00     0.037 C 
ATOM     32  H   LIG d   1       7.079   0.576 -11.274  0.00  0.00     0.051 H 
ATOM     33  H   LIG d   1       8.319  -0.658 -10.868  0.00  0.00     0.051 H 
BRANCH  31  34
ATOM     34  C   LIG d   1       7.512   0.391  -9.184  0.00  0.00    -0.030 A 
ATOM     35  C   LIG d   1       7.069  -0.305  -8.076  0.00  0.00    -0.054 A 
ATOM     36  C   LIG d   1       7.204   0.243  -6.815  0.00  0.00    -0.020 A 
ATOM     37  H   LIG d   1       6.617  -1.279  -8.195  0.00  0.00     0.062 H 
ATOM     38  C   LIG d   1       7.785   1.494  -6.662  0.00  0.00     0.120 A 
ATOM     39  H   LIG d   1       6.858  -0.302  -5.949  0.00  0.00     0.065 H 
ATOM     40  C   LIG d   1       8.228   2.190  -7.777  0.00  0.00    -0.020 A 
ATOM     41  C   LIG d   1       8.097   1.635  -9.036  0.00  0.00    -0.054 A 
ATOM     42  H   LIG d   1       8.681   3.164  -7.661  0.00  0.00     0.065 H 
ATOM     43  H   LIG d   1       8.446   2.175  -9.903  0.00  0.00     0.062 H 
BRANCH  38  44
ATOM     44  O   LIG d   1       7.918   2.035  -5.424  0.00  0.00    -0.495 OA
BRANCH  44  45
ATOM     45  C   LIG d   1       7.596   1.196  -4.312  0.00  0.00     0.079 C 
ATOM     46  H   LIG d   1       7.553   1.802  -3.395  0.00  0.00     0.066 H 
ATOM     47  H   LIG d   1       8.369   0.421  -4.201  0.00  0.00     0.066 H 
ATOM     48  H   LIG d   1       6.620   0.719  -4.482  0.00  0.00     0.066 H 
ENDBRANCH  44  45
ENDBRANCH  38  44
ENDBRANCH  31  34
ENDBRANCH  28  31
ENDBRANCH  24  27
ENDBRANCH  23  24
ENDBRANCH   1  23
BRANCH   6  49
ATOM     49  C   LIG d   1       2.718   0.324  -8.348  0.00  0.00    -0.005 C 
ATOM     50  H   LIG d   1       1.944   0.113  -9.101  0.00  0.00     0.036 H 
ATOM     51  H   LIG d   1       2.258   0.801  -7.470  0.00  0.00     0.036 H 
BRANCH  49  52
ATOM     52  C   LIG d   1       3.751   1.250  -8.937  0.00  0.00    -0.087 C 
ATOM     53  C   LIG d   1       3.493   2.529  -9.055  0.00  0.00    -0.102 C 
ATOM     54  H   LIG d   1       4.247   3.206  -9.486  0.00  0.00     0.053 H 
ATOM     55  H   LIG d   1       2.523   2.927  -8.723  0.00  0.00     0.053 H 
ATOM     56  H   LIG d   1       4.722   0.852  -9.269  0.00  0.00     0.057 H 
ENDBRANCH  49  52
ENDBRANCH   6  49
TORSDOF 9
ENDMDL
MODEL 6
REMARK VINA RESULT:      -6.1      2.823      5.385
REMARK  9 active torsions:
REMARK  status: ('A' for Active; 'I' for Inactive)
REMARK    1  A    between atoms: C_1  and  O_2 
REMARK    2  A    between atoms: O_2  and  C_3 
REMARK    3  A    between atoms: C_6  and  C_9 
REMARK    4  A    between atoms: C_9  and  N_10 
REMARK       I    between atoms: N_10  and  C_11 
REMARK    5  A    between atoms: C_11  and  C_13 
REMARK    6  A    between atoms: C_13  and  O_14 
REMARK    7  A    between atoms: O_14  and  C_15 
REMARK    8  A    between atoms: C_20  and  C_21 
REMARK    9  A    between atoms: C_21  and  C_22 
ROOT
ATOM      1  C   LIG d   1       3.583  -1.298  -8.436  0.00  0.00     0.126 A 
ATOM      2  C   LIG d   1       2.753  -0.180  -8.442  0.00  0.00    -0.018 A 
ATOM      3  C   LIG d   1       2.545   0.548  -7.304  0.00  0.00    -0.032 A 
ATOM      4  C   LIG d   1       3.178   0.175  -6.116  0.00  0.00     0.079 A 
ATOM      5  C   LIG d   1       4.026  -0.955  -6.106  0.00  0.00     0.072 A 
ATOM      6  C   LIG d   1       4.226  -1.687  -7.275  0.00  0.00     0.012 A 
ATOM      7  C   LIG d   1       4.670  -1.316  -4.838  0.00  0.00     0.262 A 
ATOM      8  O   LIG d   1       5.411  -2.279  -4.762  0.00  0.00    -0.267 OA
ATOM      9  N   LIG d   1       4.413  -0.543  -3.751  0.00  0.00    -0.296 N 
ATOM     10  C   LIG d   1       3.586   0.533  -3.848  0.00  0.00     0.113 A 
ATOM     11  N   LIG d   1       3.002   0.869  -4.966  0.00  0.00    -0.234 NA
ATOM     12  C   LIG d   1       3.484   1.218  -2.494  0.00  0.00     0.007 C 
ATOM     13  C   LIG d   1       4.686   0.670  -1.695  0.00  0.00    -0.028 C 
ATOM     14  C   LIG d   1       4.926  -0.692  -2.378  0.00  0.00     0.028 C 
ATOM     15  H   LIG d   1       2.261   0.113  -9.358  0.00  0.00     0.066 H 
ATOM     16  H   LIG d   1       1.894   1.409  -7.324  0.00  0.00     0.064 H 
ATOM     17  H   LIG d   1       3.542   2.307  -2.630  0.00  0.00     0.034 H 
ATOM     18  H   LIG d   1       2.524   0.957  -2.023  0.00  0.00     0.034 H 
ATOM     19  H   LIG d   1       5.537   1.359  -1.795  0.00  0.00     0.029 H 
ATOM     20  H   LIG d   1       4.410   0.579  -0.635  0.00  0.00     0.029 H 
ATOM     21  H   LIG d   1       4.378  -1.498  -1.868  0.00  0.00     0.049 H 
ATOM     22  H   LIG d   1       5.997  -0.941  -2.411  0.00  0.00     0.049 H 
ENDROOT
BRANCH   1  23
ATOM     23  O   LIG d   1       3.768  -2.008  -9.580  0.00  0.00    -0.482 OA
BRANCH  23  24
ATOM     24  C   LIG d   1       4.286  -1.299 -10.708  0.00  0.00     0.165 C 
ATOM     25  H   LIG d   1       3.754  -0.342 -10.814  0.00  0.00     0.080 H 
ATOM     26  H   LIG d   1       4.142  -1.902 -11.616  0.00  0.00     0.080 H 
BRANCH  24  27
ATOM     27  C   LIG d   1       5.756  -1.038 -10.506  0.00  0.00     0.251 C 
ATOM     28  N   LIG d   1       6.190   0.212 -10.252  0.00  0.00    -0.308 N 
ATOM     29  H   LIG d   1       5.471   1.043 -10.192  0.00  0.00     0.149 HD
ATOM     30  O   LIG d   1       6.549  -1.953 -10.572  0.00  0.00    -0.272 OA
BRANCH  28  31
ATOM     31  C   LIG d   1       7.619   0.467 -10.056  0.00  0.00     0.037 C 
ATOM     32  H   LIG d   1       7.950   1.256 -10.747  0.00  0.00     0.051 H 
ATOM     33  H   LIG d   1       8.186  -0.455 -10.254  0.00  0.00     0.051 H 
BRANCH  31  34
ATOM     34  C   LIG d   1       7.861   0.910  -8.635  0.00  0.00    -0.030 A 
ATOM     35  C   LIG d   1       8.544   2.085  -8.386  0.00  0.00    -0.054 A 
ATOM     36  C   LIG d   1       8.766   2.494  -7.086  0.00  0.00    -0.020 A 
ATOM     37  H   LIG d   1       8.904   2.685  -9.210  0.00  0.00     0.062 H 
ATOM     38  C   LIG d   1       8.304   1.723  -6.028  0.00  0.00     0.120 A 
ATOM     39  H   LIG d   1       9.300   3.413  -6.892  0.00  0.00     0.065 H 
ATOM     40  C   LIG d   1       7.619   0.544  -6.282  0.00  0.00    -0.020 A 
ATOM     41  C   LIG d   1       7.393   0.142  -7.585  0.00  0.00    -0.054 A 
ATOM     42  H   LIG d   1       7.257  -0.058  -5.461  0.00  0.00     0.065 H 
ATOM     43  H   LIG d   1       6.856  -0.773  -7.782  0.00  0.00     0.062 H 
BRANCH  38  44
ATOM     44  O   LIG d   1       8.522   2.123  -4.749  0.00  0.00    -0.495 OA
BRANCH  44  45
ATOM     45  C   LIG d   1       7.592   1.674  -3.762  0.00  0.00     0.079 C 
ATOM     46  H   LIG d   1       6.854   1.006  -4.229  0.00  0.00     0.066 H 
ATOM     47  H   LIG d   1       7.074   2.541  -3.324  0.00  0.00     0.066 H 
ATOM     48  H   LIG d   1       8.129   1.130  -2.971  0.00  0.00     0.066 H 
ENDBRANCH  44  45
ENDBRANCH  38  44
ENDBRANCH  31  34
ENDBRANCH  28  31
ENDBRANCH  24  27
ENDBRANCH  23  24
ENDBRANCH   1  23
BRANCH   6  49
ATOM     49  C   LIG d   1       5.129  -2.893  -7.272  0.00  0.00    -0.005 C 
ATOM     50  H   LIG d   1       5.879  -2.792  -8.070  0.00  0.00     0.036 H 
ATOM     51  H   LIG d   1       5.636  -2.969  -6.298  0.00  0.00     0.036 H 
BRANCH  49  52
ATOM     52  C   LIG d   1       4.309  -4.135  -7.508  0.00  0.00    -0.087 C 
ATOM     53  C   LIG d   1       4.002  -4.918  -6.503  0.00  0.00    -0.102 C 
ATOM     54  H   LIG d   1       3.404  -5.826  -6.675  0.00  0.00     0.053 H 
ATOM     55  H   LIG d   1       4.341  -4.667  -5.487  0.00  0.00     0.053 H 
ATOM     56  H   LIG d   1       3.970  -4.387  -8.524  0.00  0.00     0.057 H 
ENDBRANCH  49  52
ENDBRANCH   6  49
TORSDOF 9
ENDMDL
MODEL 7
REMARK VINA RESULT:      -6.0      3.680      7.196
REMARK  9 active torsions:
REMARK  status: ('A' for Active; 'I' for Inactive)
REMARK    1  A    between atoms: C_1  and  O_2 
REMARK    2  A    between atoms: O_2  and  C_3 
REMARK    3  A    between atoms: C_6  and  C_9 
REMARK    4  A    between atoms: C_9  and  N_10 
REMARK       I    between atoms: N_10  and  C_11 
REMARK    5  A    between atoms: C_11  and  C_13 
REMARK    6  A    between atoms: C_13  and  O_14 
REMARK    7  A    between atoms: O_14  and  C_15 
REMARK    8  A    between atoms: C_20  and  C_21 
REMARK    9  A    between atoms: C_21  and  C_22 
ROOT
ATOM      1  C   LIG d   1       7.916  -4.054  -5.352  0.00  0.00     0.126 A 
ATOM      2  C   LIG d   1       8.907  -3.082  -5.236  0.00  0.00    -0.018 A 
ATOM      3  C   LIG d   1       8.631  -1.857  -4.695  0.00  0.00    -0.032 A 
ATOM      4  C   LIG d   1       7.340  -1.572  -4.244  0.00  0.00     0.079 A 
ATOM      5  C   LIG d   1       6.333  -2.557  -4.355  0.00  0.00     0.072 A 
ATOM      6  C   LIG d   1       6.631  -3.800  -4.909  0.00  0.00     0.012 A 
ATOM      7  C   LIG d   1       4.989  -2.219  -3.872  0.00  0.00     0.262 A 
ATOM      8  O   LIG d   1       4.077  -3.023  -3.939  0.00  0.00    -0.267 OA
ATOM      9  N   LIG d   1       4.794  -0.981  -3.348  0.00  0.00    -0.296 N 
ATOM     10  C   LIG d   1       5.821  -0.092  -3.273  0.00  0.00     0.113 A 
ATOM     11  N   LIG d   1       7.023  -0.373  -3.700  0.00  0.00    -0.234 NA
ATOM     12  C   LIG d   1       5.329   1.201  -2.642  0.00  0.00     0.007 C 
ATOM     13  C   LIG d   1       3.999   0.813  -1.962  0.00  0.00    -0.028 C 
ATOM     14  C   LIG d   1       3.554  -0.401  -2.804  0.00  0.00     0.028 C 
ATOM     15  H   LIG d   1       9.907  -3.296  -5.583  0.00  0.00     0.066 H 
ATOM     16  H   LIG d   1       9.408  -1.113  -4.617  0.00  0.00     0.064 H 
ATOM     17  H   LIG d   1       6.073   1.560  -1.917  0.00  0.00     0.034 H 
ATOM     18  H   LIG d   1       5.184   1.959  -3.426  0.00  0.00     0.034 H 
ATOM     19  H   LIG d   1       4.186   0.562  -0.908  0.00  0.00     0.029 H 
ATOM     20  H   LIG d   1       3.298   1.659  -2.019  0.00  0.00     0.029 H 
ATOM     21  H   LIG d   1       2.898  -0.095  -3.632  0.00  0.00     0.049 H 
ATOM     22  H   LIG d   1       3.039  -1.150  -2.185  0.00  0.00     0.049 H 
ENDROOT
BRANCH   1  23
ATOM     23  O   LIG d   1       8.216  -5.261  -5.899  0.00  0.00    -0.482 OA
BRANCH  23  24
ATOM     24  C   LIG d   1       9.363  -5.941  -5.383  0.00  0.00     0.165 C 
ATOM     25  H   LIG d   1      10.101  -5.202  -5.037  0.00  0.00     0.080 H 
ATOM     26  H   LIG d   1       9.807  -6.560  -6.175  0.00  0.00     0.080 H 
BRANCH  24  27
ATOM     27  C   LIG d   1       8.951  -6.819  -4.230  0.00  0.00     0.251 C 
ATOM     28  N   LIG d   1       8.177  -7.900  -4.449  0.00  0.00    -0.308 N 
ATOM     29  H   LIG d   1       7.845  -8.141  -5.470  0.00  0.00     0.149 HD
ATOM     30  O   LIG d   1       9.317  -6.554  -3.105  0.00  0.00    -0.272 OA
BRANCH  28  31
ATOM     31  C   LIG d   1       7.777  -8.754  -3.328  0.00  0.00     0.037 C 
ATOM     32  H   LIG d   1       7.650  -8.139  -2.425  0.00  0.00     0.051 H 
ATOM     33  H   LIG d   1       8.554  -9.511  -3.149  0.00  0.00     0.051 H 
BRANCH  31  34
ATOM     34  C   LIG d   1       6.475  -9.438  -3.657  0.00  0.00    -0.030 A 
ATOM     35  C   LIG d   1       5.833  -9.162  -4.850  0.00  0.00    -0.054 A 
ATOM     36  C   LIG d   1       4.640  -9.787  -5.154  0.00  0.00    -0.020 A 
ATOM     37  H   LIG d   1       6.265  -8.455  -5.545  0.00  0.00     0.062 H 
ATOM     38  C   LIG d   1       4.085 -10.693  -4.262  0.00  0.00     0.120 A 
ATOM     39  H   LIG d   1       4.139  -9.571  -6.086  0.00  0.00     0.065 H 
ATOM     40  C   LIG d   1       4.732 -10.968  -3.066  0.00  0.00    -0.020 A 
ATOM     41  C   LIG d   1       5.928 -10.344  -2.769  0.00  0.00    -0.054 A 
ATOM     42  H   LIG d   1       4.302 -11.673  -2.369  0.00  0.00     0.065 H 
ATOM     43  H   LIG d   1       6.434 -10.562  -1.840  0.00  0.00     0.062 H 
BRANCH  38  44
ATOM     44  O   LIG d   1       2.911 -11.309  -4.559  0.00  0.00    -0.495 OA
BRANCH  44  45
ATOM     45  C   LIG d   1       2.938 -12.286  -5.601  0.00  0.00     0.079 C 
ATOM     46  H   LIG d   1       2.134 -13.020  -5.437  0.00  0.00     0.066 H 
ATOM     47  H   LIG d   1       3.910 -12.802  -5.597  0.00  0.00     0.066 H 
ATOM     48  H   LIG d   1       2.789 -11.792  -6.573  0.00  0.00     0.066 H 
ENDBRANCH  44  45
ENDBRANCH  38  44
ENDBRANCH  31  34
ENDBRANCH  28  31
ENDBRANCH  24  27
ENDBRANCH  23  24
ENDBRANCH   1  23
BRANCH   6  49
ATOM     49  C   LIG d   1       5.562  -4.855  -5.030  0.00  0.00    -0.005 C 
ATOM     50  H   LIG d   1       5.966  -5.825  -4.703  0.00  0.00     0.036 H 
ATOM     51  H   LIG d   1       4.704  -4.582  -4.399  0.00  0.00     0.036 H 
BRANCH  49  52
ATOM     52  C   LIG d   1       5.115  -4.956  -6.466  0.00  0.00    -0.087 C 
ATOM     53  C   LIG d   1       3.843  -5.083  -6.748  0.00  0.00    -0.102 C 
ATOM     54  H   LIG d   1       3.516  -5.158  -7.797  0.00  0.00     0.053 H 
ATOM     55  H   LIG d   1       3.100  -5.115  -5.937  0.00  0.00     0.053 H 
ATOM     56  H   LIG d   1       5.858  -4.924  -7.277  0.00  0.00     0.057 H 
ENDBRANCH  49  52
ENDBRANCH   6  49
TORSDOF 9
ENDMDL
MODEL 8
REMARK VINA RESULT:      -5.9      5.809      9.491
REMARK  9 active torsions:
REMARK  status: ('A' for Active; 'I' for Inactive)
REMARK    1  A    between atoms: C_1  and  O_2 
REMARK    2  A    between atoms: O_2  and  C_3 
REMARK    3  A    between atoms: C_6  and  C_9 
REMARK    4  A    between atoms: C_9  and  N_10 
REMARK       I    between atoms: N_10  and  C_11 
REMARK    5  A    between atoms: C_11  and  C_13 
REMARK    6  A    between atoms: C_13  and  O_14 
REMARK    7  A    between atoms: O_14  and  C_15 
REMARK    8  A    between atoms: C_20  and  C_21 
REMARK    9  A    between atoms: C_21  and  C_22 
ROOT
ATOM      1  C   LIG d   1       9.913   5.567  -3.287  0.00  0.00     0.126 A 
ATOM      2  C   LIG d   1       9.872   5.595  -4.679  0.00  0.00    -0.018 A 
ATOM      3  C   LIG d   1       9.851   6.781  -5.358  0.00  0.00    -0.032 A 
ATOM      4  C   LIG d   1       9.877   7.986  -4.651  0.00  0.00     0.079 A 
ATOM      5  C   LIG d   1       9.925   7.962  -3.240  0.00  0.00     0.072 A 
ATOM      6  C   LIG d   1       9.946   6.744  -2.563  0.00  0.00     0.012 A 
ATOM      7  C   LIG d   1       9.950   9.249  -2.534  0.00  0.00     0.262 A 
ATOM      8  O   LIG d   1       9.990   9.297  -1.318  0.00  0.00    -0.267 OA
ATOM      9  N   LIG d   1       9.926  10.384  -3.280  0.00  0.00    -0.296 N 
ATOM     10  C   LIG d   1       9.885  10.319  -4.638  0.00  0.00     0.113 A 
ATOM     11  N   LIG d   1       9.860   9.184  -5.284  0.00  0.00    -0.234 NA
ATOM     12  C   LIG d   1       9.875  11.726  -5.214  0.00  0.00     0.007 C 
ATOM     13  C   LIG d   1      10.349  12.621  -4.049  0.00  0.00    -0.028 C 
ATOM     14  C   LIG d   1       9.939  11.783  -2.819  0.00  0.00     0.028 C 
ATOM     15  H   LIG d   1       9.852   4.667  -5.231  0.00  0.00     0.066 H 
ATOM     16  H   LIG d   1       9.814   6.786  -6.436  0.00  0.00     0.064 H 
ATOM     17  H   LIG d   1      10.558  11.774  -6.074  0.00  0.00     0.034 H 
ATOM     18  H   LIG d   1       8.855  11.981  -5.539  0.00  0.00     0.034 H 
ATOM     19  H   LIG d   1      11.434  12.775  -4.123  0.00  0.00     0.029 H 
ATOM     20  H   LIG d   1       9.835  13.592  -4.100  0.00  0.00     0.029 H 
ATOM     21  H   LIG d   1       8.937  12.061  -2.461  0.00  0.00     0.049 H 
ATOM     22  H   LIG d   1      10.665  11.893  -2.000  0.00  0.00     0.049 H 
ENDROOT
BRANCH   1  23
ATOM     23  O   LIG d   1       9.928   4.374  -2.637  0.00  0.00    -0.482 OA
BRANCH  23  24
ATOM     24  C   LIG d   1      11.026   3.500  -2.907  0.00  0.00     0.165 C 
ATOM     25  H   LIG d   1      11.522   3.231  -1.962  0.00  0.00     0.080 H 
ATOM     26  H   LIG d   1      11.744   4.008  -3.566  0.00  0.00     0.080 H 
BRANCH  24  27
ATOM     27  C   LIG d   1      10.521   2.252  -3.582  0.00  0.00     0.251 C 
ATOM     28  N   LIG d   1       9.198   2.073  -3.766  0.00  0.00    -0.308 N 
ATOM     29  H   LIG d   1       8.487   2.838  -3.423  0.00  0.00     0.149 HD
ATOM     30  O   LIG d   1      11.305   1.408  -3.962  0.00  0.00    -0.272 OA
BRANCH  28  31
ATOM     31  C   LIG d   1       8.707   0.859  -4.423  0.00  0.00     0.037 C 
ATOM     32  H   LIG d   1       9.439   0.048  -4.291  0.00  0.00     0.051 H 
ATOM     33  H   LIG d   1       8.566   1.054  -5.496  0.00  0.00     0.051 H 
BRANCH  31  34
ATOM     34  C   LIG d   1       7.392   0.453  -3.809  0.00  0.00    -0.030 A 
ATOM     35  C   LIG d   1       7.049  -0.884  -3.736  0.00  0.00    -0.054 A 
ATOM     36  C   LIG d   1       5.844  -1.260  -3.174  0.00  0.00    -0.020 A 
ATOM     37  H   LIG d   1       7.723  -1.637  -4.120  0.00  0.00     0.062 H 
ATOM     38  C   LIG d   1       4.978  -0.294  -2.682  0.00  0.00     0.120 A 
ATOM     39  H   LIG d   1       5.576  -2.305  -3.117  0.00  0.00     0.065 H 
ATOM     40  C   LIG d   1       5.326   1.047  -2.757  0.00  0.00    -0.020 A 
ATOM     41  C   LIG d   1       6.534   1.417  -3.315  0.00  0.00    -0.054 A 
ATOM     42  H   LIG d   1       4.653   1.802  -2.374  0.00  0.00     0.065 H 
ATOM     43  H   LIG d   1       6.806   2.461  -3.369  0.00  0.00     0.062 H 
BRANCH  38  44
ATOM     44  O   LIG d   1       3.793  -0.661  -2.129  0.00  0.00    -0.495 OA
BRANCH  44  45
ATOM     45  C   LIG d   1       2.730  -0.980  -3.029  0.00  0.00     0.079 C 
ATOM     46  H   LIG d   1       2.261  -0.051  -3.388  0.00  0.00     0.066 H 
ATOM     47  H   LIG d   1       1.978  -1.591  -2.508  0.00  0.00     0.066 H 
ATOM     48  H   LIG d   1       3.129  -1.542  -3.886  0.00  0.00     0.066 H 
ENDBRANCH  44  45
ENDBRANCH  38  44
ENDBRANCH  31  34
ENDBRANCH  28  31
ENDBRANCH  24  27
ENDBRANCH  23  24
ENDBRANCH   1  23
BRANCH   6  49
ATOM     49  C   LIG d   1       9.997   6.711  -1.058  0.00  0.00    -0.005 C 
ATOM     50  H   LIG d   1       9.757   7.709  -0.661  0.00  0.00     0.036 H 
ATOM     51  H   LIG d   1       9.265   5.981  -0.682  0.00  0.00     0.036 H 
BRANCH  49  52
ATOM     52  C   LIG d   1      11.379   6.312  -0.610  0.00  0.00    -0.087 C 
ATOM     53  C   LIG d   1      11.597   6.001   0.644  0.00  0.00    -0.102 C 
ATOM     54  H   LIG d   1      12.606   5.710   0.971  0.00  0.00     0.053 H 
ATOM     55  H   LIG d   1      10.771   6.031   1.369  0.00  0.00     0.053 H 
ATOM     56  H   LIG d   1      12.206   6.281  -1.336  0.00  0.00     0.057 H 
ENDBRANCH  49  52
ENDBRANCH   6  49
TORSDOF 9
ENDMDL
MODEL 9
REMARK VINA RESULT:      -5.8      3.030      6.541
REMARK  9 active torsions:
REMARK  status: ('A' for Active; 'I' for Inactive)
REMARK    1  A    between atoms: C_1  and  O_2 
REMARK    2  A    between atoms: O_2  and  C_3 
REMARK    3  A    between atoms: C_6  and  C_9 
REMARK    4  A    between atoms: C_9  and  N_10 
REMARK       I    between atoms: N_10  and  C_11 
REMARK    5  A    between atoms: C_11  and  C_13 
REMARK    6  A    between atoms: C_13  and  O_14 
REMARK    7  A    between atoms: O_14  and  C_15 
REMARK    8  A    between atoms: C_20  and  C_21 
REMARK    9  A    between atoms: C_21  and  C_22 
ROOT
ATOM      1  C   LIG d   1       4.335  -2.791  -7.610  0.00  0.00     0.126 A 
ATOM      2  C   LIG d   1       3.857  -1.597  -8.145  0.00  0.00    -0.018 A 
ATOM      3  C   LIG d   1       3.620  -0.514  -7.345  0.00  0.00    -0.032 A 
ATOM      4  C   LIG d   1       3.866  -0.597  -5.973  0.00  0.00     0.079 A 
ATOM      5  C   LIG d   1       4.357  -1.804  -5.427  0.00  0.00     0.072 A 
ATOM      6  C   LIG d   1       4.592  -2.899  -6.256  0.00  0.00     0.012 A 
ATOM      7  C   LIG d   1       4.601  -1.852  -3.981  0.00  0.00     0.262 A 
ATOM      8  O   LIG d   1       5.023  -2.862  -3.448  0.00  0.00    -0.267 OA
ATOM      9  N   LIG d   1       4.341  -0.733  -3.254  0.00  0.00    -0.296 N 
ATOM     10  C   LIG d   1       3.873   0.392  -3.860  0.00  0.00     0.113 A 
ATOM     11  N   LIG d   1       3.648   0.453  -5.145  0.00  0.00    -0.234 NA
ATOM     12  C   LIG d   1       3.679   1.484  -2.821  0.00  0.00     0.007 C 
ATOM     13  C   LIG d   1       4.495   1.003  -1.602  0.00  0.00    -0.028 C 
ATOM     14  C   LIG d   1       4.496  -0.526  -1.804  0.00  0.00     0.028 C 
ATOM     15  H   LIG d   1       3.665  -1.527  -9.205  0.00  0.00     0.066 H 
ATOM     16  H   LIG d   1       3.245   0.402  -7.774  0.00  0.00     0.064 H 
ATOM     17  H   LIG d   1       4.056   2.437  -3.218  0.00  0.00     0.034 H 
ATOM     18  H   LIG d   1       2.609   1.581  -2.587  0.00  0.00     0.034 H 
ATOM     19  H   LIG d   1       5.501   1.444  -1.637  0.00  0.00     0.029 H 
ATOM     20  H   LIG d   1       3.990   1.316  -0.676  0.00  0.00     0.029 H 
ATOM     21  H   LIG d   1       3.657  -1.001  -1.274  0.00  0.00     0.049 H 
ATOM     22  H   LIG d   1       5.443  -0.974  -1.468  0.00  0.00     0.049 H 
ENDROOT
BRANCH   1  23
ATOM     23  O   LIG d   1       4.557  -3.855  -8.426  0.00  0.00    -0.482 OA
BRANCH  23  24
ATOM     24  C   LIG d   1       3.476  -4.264  -9.267  0.00  0.00     0.165 C 
ATOM     25  H   LIG d   1       3.740  -4.078 -10.319  0.00  0.00     0.080 H 
ATOM     26  H   LIG d   1       2.574  -3.692  -9.009  0.00  0.00     0.080 H 
BRANCH  24  27
ATOM     27  C   LIG d   1       3.213  -5.734  -9.068  0.00  0.00     0.251 C 
ATOM     28  N   LIG d   1       4.157  -6.520  -8.513  0.00  0.00    -0.308 N 
ATOM     29  H   LIG d   1       5.121  -6.087  -8.207  0.00  0.00     0.149 HD
ATOM     30  O   LIG d   1       2.150  -6.211  -9.406  0.00  0.00    -0.272 OA
BRANCH  28  31
ATOM     31  C   LIG d   1       3.900  -7.949  -8.319  0.00  0.00     0.037 C 
ATOM     32  H   LIG d   1       4.134  -8.493  -9.247  0.00  0.00     0.051 H 
ATOM     33  H   LIG d   1       2.842  -8.099  -8.063  0.00  0.00     0.051 H 
BRANCH  31  34
ATOM     34  C   LIG d   1       4.767  -8.468  -7.201  0.00  0.00    -0.030 A 
ATOM     35  C   LIG d   1       4.847  -7.770  -6.010  0.00  0.00    -0.054 A 
ATOM     36  C   LIG d   1       5.641  -8.244  -4.983  0.00  0.00    -0.020 A 
ATOM     37  H   LIG d   1       4.289  -6.854  -5.882  0.00  0.00     0.062 H 
ATOM     38  C   LIG d   1       6.358  -9.420  -5.148  0.00  0.00     0.120 A 
ATOM     39  H   LIG d   1       5.703  -7.699  -4.053  0.00  0.00     0.065 H 
ATOM     40  C   LIG d   1       6.276 -10.117  -6.344  0.00  0.00    -0.020 A 
ATOM     41  C   LIG d   1       5.476  -9.643  -7.367  0.00  0.00    -0.054 A 
ATOM     42  H   LIG d   1       6.833 -11.033  -6.476  0.00  0.00     0.065 H 
ATOM     43  H   LIG d   1       5.409 -10.188  -8.296  0.00  0.00     0.062 H 
BRANCH  38  44
ATOM     44  O   LIG d   1       7.140  -9.887  -4.140  0.00  0.00    -0.495 OA
BRANCH  44  45
ATOM     45  C   LIG d   1       6.520 -10.054  -2.863  0.00  0.00     0.079 C 
ATOM     46  H   LIG d   1       7.110  -9.531  -2.096  0.00  0.00     0.066 H 
ATOM     47  H   LIG d   1       6.468 -11.125  -2.617  0.00  0.00     0.066 H 
ATOM     48  H   LIG d   1       5.503  -9.635  -2.891  0.00  0.00     0.066 H 
ENDBRANCH  44  45
ENDBRANCH  38  44
ENDBRANCH  31  34
ENDBRANCH  28  31
ENDBRANCH  24  27
ENDBRANCH  23  24
ENDBRANCH   1  23
BRANCH   6  49
ATOM     49  C   LIG d   1       5.115  -4.189  -5.681  0.00  0.00    -0.005 C 
ATOM     50  H   LIG d   1       4.975  -4.188  -4.590  0.00  0.00     0.036 H 
ATOM     51  H   LIG d   1       4.568  -5.036  -6.121  0.00  0.00     0.036 H 
BRANCH  49  52
ATOM     52  C   LIG d   1       6.582  -4.323  -5.998  0.00  0.00    -0.087 C 
ATOM     53  C   LIG d   1       7.362  -5.019  -5.208  0.00  0.00    -0.102 C 
ATOM     54  H   LIG d   1       8.434  -5.116  -5.439  0.00  0.00     0.053 H 
ATOM     55  H   LIG d   1       6.946  -5.507  -4.315  0.00  0.00     0.053 H 
ATOM     56  H   LIG d   1       6.999  -3.834  -6.891  0.00  0.00     0.057 H 
ENDBRANCH  49  52
ENDBRANCH   6  49
TORSDOF 9
ENDMDL
MODEL 10
REMARK VINA RESULT:      -5.7      5.943      9.607
REMARK  9 active torsions:
REMARK  status: ('A' for Active; 'I' for Inactive)
REMARK    1  A    between atoms: C_1  and  O_2 
REMARK    2  A    between atoms: O_2  and  C_3 
REMARK    3  A    between atoms: C_6  and  C_9 
REMARK    4  A    between atoms: C_9  and  N_10 
REMARK       I    between atoms: N_10  and  C_11 
REMARK    5  A    between atoms: C_11  and  C_13 
REMARK    6  A    between atoms: C_13  and  O_14 
REMARK    7  A    between atoms: O_14  and  C_15 
REMARK    8  A    between atoms: C_20  and  C_21 
REMARK    9  A    between atoms: C_21  and  C_22 
ROOT
ATOM      1  C   LIG d   1      10.413   5.155  -1.921  0.00  0.00     0.126 A 
ATOM      2  C   LIG d   1      11.184   4.815  -0.812  0.00  0.00    -0.018 A 
ATOM      3  C   LIG d   1      11.615   5.770   0.065  0.00  0.00    -0.032 A 
ATOM      4  C   LIG d   1      11.274   7.109  -0.143  0.00  0.00     0.079 A 
ATOM      5  C   LIG d   1      10.487   7.458  -1.263  0.00  0.00     0.072 A 
ATOM      6  C   LIG d   1      10.057   6.472  -2.148  0.00  0.00     0.012 A 
ATOM      7  C   LIG d   1      10.152   8.875  -1.448  0.00  0.00     0.262 A 
ATOM      8  O   LIG d   1       9.477   9.242  -2.393  0.00  0.00    -0.267 OA
ATOM      9  N   LIG d   1      10.617   9.764  -0.532  0.00  0.00    -0.296 N 
ATOM     10  C   LIG d   1      11.366   9.342   0.522  0.00  0.00     0.113 A 
ATOM     11  N   LIG d   1      11.677   8.087   0.703  0.00  0.00    -0.234 NA
ATOM     12  C   LIG d   1      11.743  10.535   1.386  0.00  0.00     0.007 C 
ATOM     13  C   LIG d   1      10.767  11.648   0.950  0.00  0.00    -0.028 C 
ATOM     14  C   LIG d   1      10.427  11.224  -0.493  0.00  0.00     0.028 C 
ATOM     15  H   LIG d   1      11.451   3.781  -0.646  0.00  0.00     0.066 H 
ATOM     16  H   LIG d   1      12.216   5.490   0.917  0.00  0.00     0.064 H 
ATOM     17  H   LIG d   1      11.620  10.272   2.446  0.00  0.00     0.034 H 
ATOM     18  H   LIG d   1      12.791  10.810   1.195  0.00  0.00     0.034 H 
ATOM     19  H   LIG d   1       9.893  11.651   1.617  0.00  0.00     0.029 H 
ATOM     20  H   LIG d   1      11.274  12.623   1.006  0.00  0.00     0.029 H 
ATOM     21  H   LIG d   1      11.100  11.701  -1.221  0.00  0.00     0.049 H 
ATOM     22  H   LIG d   1       9.384  11.465  -0.747  0.00  0.00     0.049 H 
ENDROOT
BRANCH   1  23
ATOM     23  O   LIG d   1      10.003   4.187  -2.781  0.00  0.00    -0.482 OA
BRANCH  23  24
ATOM     24  C   LIG d   1      11.009   3.551  -3.571  0.00  0.00     0.165 C 
ATOM     25  H   LIG d   1      11.944   3.489  -2.993  0.00  0.00     0.080 H 
ATOM     26  H   LIG d   1      11.181   4.137  -4.485  0.00  0.00     0.080 H 
BRANCH  24  27
ATOM     27  C   LIG d   1      10.555   2.163  -3.942  0.00  0.00     0.251 C 
ATOM     28  N   LIG d   1       9.263   1.936  -4.248  0.00  0.00    -0.308 N 
ATOM     29  H   LIG d   1       8.538   2.764  -4.226  0.00  0.00     0.149 HD
ATOM     30  O   LIG d   1      11.353   1.250  -3.966  0.00  0.00    -0.272 OA
BRANCH  28  31
ATOM     31  C   LIG d   1       8.821   0.586  -4.608  0.00  0.00     0.037 C 
ATOM     32  H   LIG d   1       9.574  -0.146  -4.281  0.00  0.00     0.051 H 
ATOM     33  H   LIG d   1       8.696   0.521  -5.699  0.00  0.00     0.051 H 
BRANCH  31  34
ATOM     34  C   LIG d   1       7.506   0.290  -3.933  0.00  0.00    -0.030 A 
ATOM     35  C   LIG d   1       6.714   1.329  -3.482  0.00  0.00    -0.054 A 
ATOM     36  C   LIG d   1       5.508   1.062  -2.864  0.00  0.00    -0.020 A 
ATOM     37  H   LIG d   1       7.038   2.352  -3.613  0.00  0.00     0.062 H 
ATOM     38  C   LIG d   1       5.093  -0.252  -2.695  0.00  0.00     0.120 A 
ATOM     39  H   LIG d   1       4.889   1.873  -2.512  0.00  0.00     0.065 H 
ATOM     40  C   LIG d   1       5.891  -1.292  -3.149  0.00  0.00    -0.020 A 
ATOM     41  C   LIG d   1       7.093  -1.019  -3.772  0.00  0.00    -0.054 A 
ATOM     42  H   LIG d   1       5.570  -2.316  -3.019  0.00  0.00     0.065 H 
ATOM     43  H   LIG d   1       7.712  -1.828  -4.130  0.00  0.00     0.062 H 
BRANCH  38  44
ATOM     44  O   LIG d   1       3.908  -0.517  -2.086  0.00  0.00    -0.495 OA
BRANCH  44  45
ATOM     45  C   LIG d   1       2.790  -0.788  -2.934  0.00  0.00     0.079 C 
ATOM     46  H   LIG d   1       3.073  -0.614  -3.983  0.00  0.00     0.066 H 
ATOM     47  H   LIG d   1       1.956  -0.123  -2.666  0.00  0.00     0.066 H 
ATOM     48  H   LIG d   1       2.479  -1.836  -2.809  0.00  0.00     0.066 H 
ENDBRANCH  44  45
ENDBRANCH  38  44
ENDBRANCH  31  34
ENDBRANCH  28  31
ENDBRANCH  24  27
ENDBRANCH  23  24
ENDBRANCH   1  23
BRANCH   6  49
ATOM     49  C   LIG d   1       9.217   6.838  -3.344  0.00  0.00    -0.005 C 
ATOM     50  H   LIG d   1       8.443   6.071  -3.497  0.00  0.00     0.036 H 
ATOM     51  H   LIG d   1       8.739   7.814  -3.173  0.00  0.00     0.036 H 
BRANCH  49  52
ATOM     52  C   LIG d   1      10.093   6.917  -4.568  0.00  0.00    -0.087 C 
ATOM     53  C   LIG d   1       9.633   7.460  -5.668  0.00  0.00    -0.102 C 
ATOM     54  H   LIG d   1      10.272   7.517  -6.563  0.00  0.00     0.053 H 
ATOM     55  H   LIG d   1       8.608   7.858  -5.698  0.00  0.00     0.053 H 
ATOM     56  H   LIG d   1      11.118   6.518  -4.539  0.00  0.00     0.057 H 
ENDBRANCH  49  52
ENDBRANCH   6  49
TORSDOF 9
ENDMDL
