MODEL 1
REMARK VINA RESULT:      -5.6      0.000      0.000
REMARK  5 active torsions:
REMARK  status: ('A' for Active; 'I' for Inactive)
REMARK    1  A    between atoms: C_1  and  C_2 
REMARK    2  A    between atoms: C_2  and  C_4 
REMARK    3  A    between atoms: C_2  and  N_26 
REMARK    4  A    between atoms: C_4  and  C_5 
REMARK    5  A    between atoms: C_9  and  C_11 
ROOT
ATOM      1  C   LIG d   1       5.699  -2.110  -3.940  0.00  0.00    -0.042 A 
ATOM      2  C   LIG d   1       4.681  -2.911  -3.459  0.00  0.00    -0.058 A 
ATOM      3  C   LIG d   1       3.711  -2.374  -2.634  0.00  0.00    -0.061 A 
ATOM      4  C   LIG d   1       3.761  -1.036  -2.288  0.00  0.00    -0.050 A 
ATOM      5  C   LIG d   1       4.779  -0.236  -2.768  0.00  0.00     0.055 A 
ATOM      6  C   LIG d   1       5.752  -0.774  -3.591  0.00  0.00    -0.047 A 
ATOM      7  H   LIG d   1       4.642  -3.956  -3.729  0.00  0.00     0.062 H 
ATOM      8  H   LIG d   1       2.914  -3.000  -2.258  0.00  0.00     0.062 H 
ATOM      9  H   LIG d   1       3.003  -0.617  -1.643  0.00  0.00     0.062 H 
ATOM     10  H   LIG d   1       6.550  -0.149  -3.963  0.00  0.00     0.063 H 
ENDROOT
BRANCH   1  11
ATOM     11  C   LIG d   1       6.756  -2.695  -4.840  0.00  0.00     0.015 C 
ATOM     12  H   LIG d   1       6.980  -1.993  -5.643  0.00  0.00     0.037 H 
ATOM     13  H   LIG d   1       6.395  -3.630  -5.266  0.00  0.00     0.037 H 
BRANCH  11  14
ATOM     14  C   LIG d   1       8.026  -2.963  -4.029  0.00  0.00    -0.023 C 
ATOM     15  H   LIG d   1       7.824  -2.793  -2.971  0.00  0.00     0.085 H 
BRANCH  14  16
ATOM     16  C   LIG d   1       8.469  -4.413  -4.236  0.00  0.00    -0.021 C 
ATOM     17  H   LIG d   1       9.525  -4.510  -3.985  0.00  0.00     0.028 H 
ATOM     18  H   LIG d   1       7.881  -5.068  -3.593  0.00  0.00     0.028 H 
ATOM     19  H   LIG d   1       8.316  -4.693  -5.278  0.00  0.00     0.028 H 
ENDBRANCH  14  16
BRANCH  14  20
ATOM     20  N   LIG d   1       9.081  -2.034  -4.471  0.00  0.00     0.221 N 
ATOM     21  H   LIG d   1       8.689  -1.105  -4.618  0.00  0.00     0.200 HD
ATOM     22  H   LIG d   1       9.818  -1.984  -3.770  0.00  0.00     0.200 HD
ATOM     23  H   LIG d   1       9.482  -2.373  -5.354  0.00  0.00     0.200 HD
ENDBRANCH  14  20
ENDBRANCH  11  14
ENDBRANCH   1  11
BRANCH   5  24
ATOM     24  C   LIG d   1       4.834   1.222  -2.391  0.00  0.00     0.417 C 
ATOM     25  F   LIG d   1       3.761   1.897  -2.983  0.00  0.00    -0.166 F 
ATOM     26  F   LIG d   1       4.753   1.347  -0.999  0.00  0.00    -0.166 F 
ATOM     27  F   LIG d   1       6.038   1.776  -2.840  0.00  0.00    -0.166 F 
ENDBRANCH   5  24
TORSDOF 5
ENDMDL
MODEL 2
REMARK VINA RESULT:      -5.6      2.560      3.406
REMARK  5 active torsions:
REMARK  status: ('A' for Active; 'I' for Inactive)
REMARK    1  A    between atoms: C_1  and  C_2 
REMARK    2  A    between atoms: C_2  and  C_4 
REMARK    3  A    between atoms: C_2  and  N_26 
REMARK    4  A    between atoms: C_4  and  C_5 
REMARK    5  A    between atoms: C_9  and  C_11 
ROOT
ATOM      1  C   LIG d   1       5.569  -0.727  -3.366  0.00  0.00    -0.042 A 
ATOM      2  C   LIG d   1       5.100  -1.620  -2.420  0.00  0.00    -0.058 A 
ATOM      3  C   LIG d   1       3.742  -1.844  -2.295  0.00  0.00    -0.061 A 
ATOM      4  C   LIG d   1       2.853  -1.174  -3.114  0.00  0.00    -0.050 A 
ATOM      5  C   LIG d   1       3.321  -0.280  -4.058  0.00  0.00     0.055 A 
ATOM      6  C   LIG d   1       4.680  -0.054  -4.181  0.00  0.00    -0.047 A 
ATOM      7  H   LIG d   1       5.795  -2.143  -1.780  0.00  0.00     0.062 H 
ATOM      8  H   LIG d   1       3.375  -2.542  -1.557  0.00  0.00     0.062 H 
ATOM      9  H   LIG d   1       1.792  -1.348  -3.016  0.00  0.00     0.062 H 
ATOM     10  H   LIG d   1       5.046   0.647  -4.917  0.00  0.00     0.063 H 
ENDROOT
BRANCH   1  11
ATOM     11  C   LIG d   1       7.050  -0.483  -3.502  0.00  0.00     0.015 C 
ATOM     12  H   LIG d   1       7.540  -1.400  -3.831  0.00  0.00     0.037 H 
ATOM     13  H   LIG d   1       7.459  -0.179  -2.539  0.00  0.00     0.037 H 
BRANCH  11  14
ATOM     14  C   LIG d   1       7.292   0.623  -4.532  0.00  0.00    -0.023 C 
ATOM     15  H   LIG d   1       6.340   0.929  -4.967  0.00  0.00     0.085 H 
BRANCH  14  16
ATOM     16  C   LIG d   1       7.950   1.822  -3.847  0.00  0.00    -0.021 C 
ATOM     17  H   LIG d   1       7.529   2.745  -4.249  0.00  0.00     0.028 H 
ATOM     18  H   LIG d   1       7.763   1.775  -2.774  0.00  0.00     0.028 H 
ATOM     19  H   LIG d   1       9.023   1.802  -4.031  0.00  0.00     0.028 H 
ENDBRANCH  14  16
BRANCH  14  20
ATOM     20  N   LIG d   1       8.161   0.099  -5.601  0.00  0.00     0.221 N 
ATOM     21  H   LIG d   1       7.594  -0.276  -6.359  0.00  0.00     0.200 HD
ATOM     22  H   LIG d   1       8.759   0.841  -5.959  0.00  0.00     0.200 HD
ATOM     23  H   LIG d   1       8.750  -0.651  -5.220  0.00  0.00     0.200 HD
ENDBRANCH  14  20
ENDBRANCH  11  14
ENDBRANCH   1  11
BRANCH   5  24
ATOM     24  C   LIG d   1       2.352   0.450  -4.951  0.00  0.00     0.417 C 
ATOM     25  F   LIG d   1       2.399   1.820  -4.669  0.00  0.00    -0.166 F 
ATOM     26  F   LIG d   1       2.700   0.238  -6.290  0.00  0.00    -0.166 F 
ATOM     27  F   LIG d   1       1.057  -0.028  -4.725  0.00  0.00    -0.166 F 
ENDBRANCH   5  24
TORSDOF 5
ENDMDL
MODEL 3
REMARK VINA RESULT:      -5.6      2.566      3.222
REMARK  5 active torsions:
REMARK  status: ('A' for Active; 'I' for Inactive)
REMARK    1  A    between atoms: C_1  and  C_2 
REMARK    2  A    between atoms: C_2  and  C_4 
REMARK    3  A    between atoms: C_2  and  N_26 
REMARK    4  A    between atoms: C_4  and  C_5 
REMARK    5  A    between atoms: C_9  and  C_11 
ROOT
ATOM      1  C   LIG d   1       4.616  -1.645  -4.711  0.00  0.00    -0.042 A 
ATOM      2  C   LIG d   1       4.300  -2.721  -3.904  0.00  0.00    -0.058 A 
ATOM      3  C   LIG d   1       4.051  -2.527  -2.558  0.00  0.00    -0.061 A 
ATOM      4  C   LIG d   1       4.119  -1.256  -2.020  0.00  0.00    -0.050 A 
ATOM      5  C   LIG d   1       4.436  -0.179  -2.826  0.00  0.00     0.055 A 
ATOM      6  C   LIG d   1       4.689  -0.374  -4.171  0.00  0.00    -0.047 A 
ATOM      7  H   LIG d   1       4.247  -3.714  -4.324  0.00  0.00     0.062 H 
ATOM      8  H   LIG d   1       3.804  -3.368  -1.927  0.00  0.00     0.062 H 
ATOM      9  H   LIG d   1       3.926  -1.104  -0.968  0.00  0.00     0.062 H 
ATOM     10  H   LIG d   1       4.940   0.467  -4.801  0.00  0.00     0.063 H 
ENDROOT
BRANCH   1  11
ATOM     11  C   LIG d   1       4.887  -1.857  -6.177  0.00  0.00     0.015 C 
ATOM     12  H   LIG d   1       4.441  -2.799  -6.497  0.00  0.00     0.037 H 
ATOM     13  H   LIG d   1       5.963  -1.888  -6.348  0.00  0.00     0.037 H 
BRANCH  11  14
ATOM     14  C   LIG d   1       4.277  -0.706  -6.981  0.00  0.00    -0.023 C 
ATOM     15  H   LIG d   1       3.910   0.060  -6.297  0.00  0.00     0.085 H 
BRANCH  14  16
ATOM     16  C   LIG d   1       5.343  -0.103  -7.898  0.00  0.00    -0.021 C 
ATOM     17  H   LIG d   1       5.072  -0.286  -8.939  0.00  0.00     0.028 H 
ATOM     18  H   LIG d   1       5.408   0.971  -7.723  0.00  0.00     0.028 H 
ATOM     19  H   LIG d   1       6.307  -0.565  -7.688  0.00  0.00     0.028 H 
ENDBRANCH  14  16
BRANCH  14  20
ATOM     20  N   LIG d   1       3.147  -1.222  -7.774  0.00  0.00     0.221 N 
ATOM     21  H   LIG d   1       3.241  -2.228  -7.901  0.00  0.00     0.200 HD
ATOM     22  H   LIG d   1       2.268  -1.021  -7.300  0.00  0.00     0.200 HD
ATOM     23  H   LIG d   1       3.144  -0.766  -8.694  0.00  0.00     0.200 HD
ENDBRANCH  14  20
ENDBRANCH  11  14
ENDBRANCH   1  11
BRANCH   5  24
ATOM     24  C   LIG d   1       4.511   1.206  -2.238  0.00  0.00     0.417 C 
ATOM     25  F   LIG d   1       4.789   1.119  -0.870  0.00  0.00    -0.166 F 
ATOM     26  F   LIG d   1       5.526   1.929  -2.876  0.00  0.00    -0.166 F 
ATOM     27  F   LIG d   1       3.287   1.859  -2.424  0.00  0.00    -0.166 F 
ENDBRANCH   5  24
TORSDOF 5
ENDMDL
MODEL 4
REMARK VINA RESULT:      -5.5      3.699      4.298
REMARK  5 active torsions:
REMARK  status: ('A' for Active; 'I' for Inactive)
REMARK    1  A    between atoms: C_1  and  C_2 
REMARK    2  A    between atoms: C_2  and  C_4 
REMARK    3  A    between atoms: C_2  and  N_26 
REMARK    4  A    between atoms: C_4  and  C_5 
REMARK    5  A    between atoms: C_9  and  C_11 
ROOT
ATOM      1  C   LIG d   1       4.003  -0.469  -5.890  0.00  0.00    -0.042 A 
ATOM      2  C   LIG d   1       2.815   0.233  -5.816  0.00  0.00    -0.058 A 
ATOM      3  C   LIG d   1       2.136   0.315  -4.615  0.00  0.00    -0.061 A 
ATOM      4  C   LIG d   1       2.643  -0.307  -3.490  0.00  0.00    -0.050 A 
ATOM      5  C   LIG d   1       3.829  -1.011  -3.564  0.00  0.00     0.055 A 
ATOM      6  C   LIG d   1       4.507  -1.096  -4.766  0.00  0.00    -0.047 A 
ATOM      7  H   LIG d   1       2.418   0.719  -6.695  0.00  0.00     0.062 H 
ATOM      8  H   LIG d   1       1.207   0.865  -4.556  0.00  0.00     0.062 H 
ATOM      9  H   LIG d   1       2.112  -0.243  -2.552  0.00  0.00     0.062 H 
ATOM     10  H   LIG d   1       5.434  -1.649  -4.826  0.00  0.00     0.063 H 
ENDROOT
BRANCH   1  11
ATOM     11  C   LIG d   1       4.744  -0.559  -7.199  0.00  0.00     0.015 C 
ATOM     12  H   LIG d   1       5.607  -1.215  -7.084  0.00  0.00     0.037 H 
ATOM     13  H   LIG d   1       5.080   0.434  -7.496  0.00  0.00     0.037 H 
BRANCH  11  14
ATOM     14  C   LIG d   1       3.814  -1.125  -8.275  0.00  0.00    -0.023 C 
ATOM     15  H   LIG d   1       2.845  -0.628  -8.215  0.00  0.00     0.085 H 
BRANCH  14  16
ATOM     16  C   LIG d   1       4.426  -0.886  -9.657  0.00  0.00    -0.021 C 
ATOM     17  H   LIG d   1       5.012  -1.757  -9.950  0.00  0.00     0.028 H 
ATOM     18  H   LIG d   1       3.630  -0.722 -10.383  0.00  0.00     0.028 H 
ATOM     19  H   LIG d   1       5.071  -0.009  -9.620  0.00  0.00     0.028 H 
ENDBRANCH  14  16
BRANCH  14  20
ATOM     20  N   LIG d   1       3.628  -2.567  -8.036  0.00  0.00     0.221 N 
ATOM     21  H   LIG d   1       4.502  -3.064  -8.202  0.00  0.00     0.200 HD
ATOM     22  H   LIG d   1       3.325  -2.726  -7.078  0.00  0.00     0.200 HD
ATOM     23  H   LIG d   1       2.912  -2.927  -8.678  0.00  0.00     0.200 HD
ENDBRANCH  14  20
ENDBRANCH  11  14
ENDBRANCH   1  11
BRANCH   5  24
ATOM     24  C   LIG d   1       4.382  -1.689  -2.338  0.00  0.00     0.417 C 
ATOM     25  F   LIG d   1       4.364  -0.795  -1.262  0.00  0.00    -0.166 F 
ATOM     26  F   LIG d   1       3.598  -2.806  -2.029  0.00  0.00    -0.166 F 
ATOM     27  F   LIG d   1       5.698  -2.096  -2.583  0.00  0.00    -0.166 F 
ENDBRANCH   5  24
TORSDOF 5
ENDMDL
MODEL 5
REMARK VINA RESULT:      -5.3      2.362      3.180
REMARK  5 active torsions:
REMARK  status: ('A' for Active; 'I' for Inactive)
REMARK    1  A    between atoms: C_1  and  C_2 
REMARK    2  A    between atoms: C_2  and  C_4 
REMARK    3  A    between atoms: C_2  and  N_26 
REMARK    4  A    between atoms: C_4  and  C_5 
REMARK    5  A    between atoms: C_9  and  C_11 
ROOT
ATOM      1  C   LIG d   1       5.345  -2.658  -4.116  0.00  0.00    -0.042 A 
ATOM      2  C   LIG d   1       6.672  -2.296  -3.983  0.00  0.00    -0.058 A 
ATOM      3  C   LIG d   1       7.003  -1.074  -3.428  0.00  0.00    -0.061 A 
ATOM      4  C   LIG d   1       6.006  -0.214  -3.007  0.00  0.00    -0.050 A 
ATOM      5  C   LIG d   1       4.679  -0.575  -3.141  0.00  0.00     0.055 A 
ATOM      6  C   LIG d   1       4.349  -1.796  -3.700  0.00  0.00    -0.047 A 
ATOM      7  H   LIG d   1       7.451  -2.968  -4.312  0.00  0.00     0.062 H 
ATOM      8  H   LIG d   1       8.040  -0.791  -3.323  0.00  0.00     0.062 H 
ATOM      9  H   LIG d   1       6.264   0.741  -2.573  0.00  0.00     0.062 H 
ATOM     10  H   LIG d   1       3.311  -2.078  -3.808  0.00  0.00     0.063 H 
ENDROOT
BRANCH   1  11
ATOM     11  C   LIG d   1       4.985  -3.990  -4.722  0.00  0.00     0.015 C 
ATOM     12  H   LIG d   1       4.179  -4.445  -4.145  0.00  0.00     0.037 H 
ATOM     13  H   LIG d   1       5.856  -4.644  -4.706  0.00  0.00     0.037 H 
BRANCH  11  14
ATOM     14  C   LIG d   1       4.526  -3.786  -6.167  0.00  0.00    -0.023 C 
ATOM     15  H   LIG d   1       4.149  -2.770  -6.289  0.00  0.00     0.085 H 
BRANCH  14  16
ATOM     16  C   LIG d   1       5.707  -4.009  -7.114  0.00  0.00    -0.021 C 
ATOM     17  H   LIG d   1       5.999  -5.060  -7.090  0.00  0.00     0.028 H 
ATOM     18  H   LIG d   1       5.416  -3.737  -8.128  0.00  0.00     0.028 H 
ATOM     19  H   LIG d   1       6.547  -3.392  -6.798  0.00  0.00     0.028 H 
ENDBRANCH  14  16
BRANCH  14  20
ATOM     20  N   LIG d   1       3.441  -4.739  -6.463  0.00  0.00     0.221 N 
ATOM     21  H   LIG d   1       2.607  -4.236  -6.761  0.00  0.00     0.200 HD
ATOM     22  H   LIG d   1       3.731  -5.380  -7.199  0.00  0.00     0.200 HD
ATOM     23  H   LIG d   1       3.223  -5.277  -5.616  0.00  0.00     0.200 HD
ENDBRANCH  14  20
ENDBRANCH  11  14
ENDBRANCH   1  11
BRANCH   5  24
ATOM     24  C   LIG d   1       3.592   0.362  -2.683  0.00  0.00     0.417 C 
ATOM     25  F   LIG d   1       3.978   0.974  -1.486  0.00  0.00    -0.166 F 
ATOM     26  F   LIG d   1       3.378   1.341  -3.660  0.00  0.00    -0.166 F 
ATOM     27  F   LIG d   1       2.410  -0.358  -2.478  0.00  0.00    -0.166 F 
ENDBRANCH   5  24
TORSDOF 5
ENDMDL
MODEL 6
REMARK VINA RESULT:      -5.3      4.024      4.884
REMARK  5 active torsions:
REMARK  status: ('A' for Active; 'I' for Inactive)
REMARK    1  A    between atoms: C_1  and  C_2 
REMARK    2  A    between atoms: C_2  and  C_4 
REMARK    3  A    between atoms: C_2  and  N_26 
REMARK    4  A    between atoms: C_4  and  C_5 
REMARK    5  A    between atoms: C_9  and  C_11 
ROOT
ATOM      1  C   LIG d   1       3.736  -0.203  -6.300  0.00  0.00    -0.042 A 
ATOM      2  C   LIG d   1       5.096  -0.379  -6.467  0.00  0.00    -0.058 A 
ATOM      3  C   LIG d   1       5.920  -0.481  -5.362  0.00  0.00    -0.061 A 
ATOM      4  C   LIG d   1       5.384  -0.405  -4.091  0.00  0.00    -0.050 A 
ATOM      5  C   LIG d   1       4.024  -0.226  -3.923  0.00  0.00     0.055 A 
ATOM      6  C   LIG d   1       3.200  -0.121  -5.029  0.00  0.00    -0.047 A 
ATOM      7  H   LIG d   1       5.516  -0.439  -7.460  0.00  0.00     0.062 H 
ATOM      8  H   LIG d   1       6.984  -0.620  -5.492  0.00  0.00     0.062 H 
ATOM      9  H   LIG d   1       6.028  -0.484  -3.227  0.00  0.00     0.062 H 
ATOM     10  H   LIG d   1       2.137   0.022  -4.898  0.00  0.00     0.063 H 
ENDROOT
BRANCH   1  11
ATOM     11  C   LIG d   1       2.838  -0.091  -7.505  0.00  0.00     0.015 C 
ATOM     12  H   LIG d   1       1.843   0.225  -7.189  0.00  0.00     0.037 H 
ATOM     13  H   LIG d   1       2.770  -1.060  -7.999  0.00  0.00     0.037 H 
BRANCH  11  14
ATOM     14  C   LIG d   1       3.415   0.938  -8.479  0.00  0.00    -0.023 C 
ATOM     15  H   LIG d   1       4.504   0.921  -8.422  0.00  0.00     0.085 H 
BRANCH  14  16
ATOM     16  C   LIG d   1       2.972   0.597  -9.903  0.00  0.00    -0.021 C 
ATOM     17  H   LIG d   1       2.884   1.515 -10.485  0.00  0.00     0.028 H 
ATOM     18  H   LIG d   1       3.711  -0.057 -10.366  0.00  0.00     0.028 H 
ATOM     19  H   LIG d   1       2.008   0.092  -9.872  0.00  0.00     0.028 H 
ENDBRANCH  14  16
BRANCH  14  20
ATOM     20  N   LIG d   1       2.936   2.279  -8.097  0.00  0.00     0.221 N 
ATOM     21  H   LIG d   1       3.689   2.958  -8.193  0.00  0.00     0.200 HD
ATOM     22  H   LIG d   1       2.155   2.552  -8.691  0.00  0.00     0.200 HD
ATOM     23  H   LIG d   1       2.623   2.260  -7.119  0.00  0.00     0.200 HD
ENDBRANCH  14  20
ENDBRANCH  11  14
ENDBRANCH   1  11
BRANCH   5  24
ATOM     24  C   LIG d   1       3.440  -0.143  -2.537  0.00  0.00     0.417 C 
ATOM     25  F   LIG d   1       3.323   1.200  -2.160  0.00  0.00    -0.166 F 
ATOM     26  F   LIG d   1       2.175  -0.742  -2.528  0.00  0.00    -0.166 F 
ATOM     27  F   LIG d   1       4.277  -0.809  -1.636  0.00  0.00    -0.166 F 
ENDBRANCH   5  24
TORSDOF 5
ENDMDL
MODEL 7
REMARK VINA RESULT:      -5.2      3.334      4.331
REMARK  5 active torsions:
REMARK  status: ('A' for Active; 'I' for Inactive)
REMARK    1  A    between atoms: C_1  and  C_2 
REMARK    2  A    between atoms: C_2  and  C_4 
REMARK    3  A    between atoms: C_2  and  N_26 
REMARK    4  A    between atoms: C_4  and  C_5 
REMARK    5  A    between atoms: C_9  and  C_11 
ROOT
ATOM      1  C   LIG d   1       5.480  -0.848  -5.705  0.00  0.00    -0.042 A 
ATOM      2  C   LIG d   1       6.789  -1.212  -5.456  0.00  0.00    -0.058 A 
ATOM      3  C   LIG d   1       7.149  -1.686  -4.208  0.00  0.00    -0.061 A 
ATOM      4  C   LIG d   1       6.199  -1.794  -3.210  0.00  0.00    -0.050 A 
ATOM      5  C   LIG d   1       4.890  -1.428  -3.458  0.00  0.00     0.055 A 
ATOM      6  C   LIG d   1       4.531  -0.951  -4.705  0.00  0.00    -0.047 A 
ATOM      7  H   LIG d   1       7.532  -1.128  -6.235  0.00  0.00     0.062 H 
ATOM      8  H   LIG d   1       8.173  -1.972  -4.013  0.00  0.00     0.062 H 
ATOM      9  H   LIG d   1       6.480  -2.164  -2.235  0.00  0.00     0.062 H 
ATOM     10  H   LIG d   1       3.508  -0.661  -4.899  0.00  0.00     0.063 H 
ENDROOT
BRANCH   1  11
ATOM     11  C   LIG d   1       5.088  -0.331  -7.065  0.00  0.00     0.015 C 
ATOM     12  H   LIG d   1       5.537  -0.959  -7.836  0.00  0.00     0.037 H 
ATOM     13  H   LIG d   1       5.441   0.693  -7.181  0.00  0.00     0.037 H 
BRANCH  11  14
ATOM     14  C   LIG d   1       3.564  -0.364  -7.204  0.00  0.00    -0.023 C 
ATOM     15  H   LIG d   1       3.112  -0.472  -6.218  0.00  0.00     0.085 H 
BRANCH  14  16
ATOM     16  C   LIG d   1       3.082   0.938  -7.847  0.00  0.00    -0.021 C 
ATOM     17  H   LIG d   1       2.546   1.532  -7.106  0.00  0.00     0.028 H 
ATOM     18  H   LIG d   1       3.940   1.502  -8.213  0.00  0.00     0.028 H 
ATOM     19  H   LIG d   1       2.416   0.707  -8.678  0.00  0.00     0.028 H 
ENDBRANCH  14  16
BRANCH  14  20
ATOM     20  N   LIG d   1       3.185  -1.520  -8.035  0.00  0.00     0.221 N 
ATOM     21  H   LIG d   1       3.739  -2.334  -7.774  0.00  0.00     0.200 HD
ATOM     22  H   LIG d   1       2.196  -1.729  -7.911  0.00  0.00     0.200 HD
ATOM     23  H   LIG d   1       3.359  -1.299  -9.022  0.00  0.00     0.200 HD
ENDBRANCH  14  20
ENDBRANCH  11  14
ENDBRANCH   1  11
BRANCH   5  24
ATOM     24  C   LIG d   1       3.855  -1.545  -2.370  0.00  0.00     0.417 C 
ATOM     25  F   LIG d   1       2.675  -0.915  -2.779  0.00  0.00    -0.166 F 
ATOM     26  F   LIG d   1       3.598  -2.898  -2.115  0.00  0.00    -0.166 F 
ATOM     27  F   LIG d   1       4.331  -0.934  -1.205  0.00  0.00    -0.166 F 
ENDBRANCH   5  24
TORSDOF 5
ENDMDL
MODEL 8
REMARK VINA RESULT:      -5.2      3.727      4.764
REMARK  5 active torsions:
REMARK  status: ('A' for Active; 'I' for Inactive)
REMARK    1  A    between atoms: C_1  and  C_2 
REMARK    2  A    between atoms: C_2  and  C_4 
REMARK    3  A    between atoms: C_2  and  N_26 
REMARK    4  A    between atoms: C_4  and  C_5 
REMARK    5  A    between atoms: C_9  and  C_11 
ROOT
ATOM      1  C   LIG d   1       3.385  -0.386  -4.809  0.00  0.00    -0.042 A 
ATOM      2  C   LIG d   1       2.661  -0.579  -3.648  0.00  0.00    -0.058 A 
ATOM      3  C   LIG d   1       3.189  -1.341  -2.623  0.00  0.00    -0.061 A 
ATOM      4  C   LIG d   1       4.441  -1.912  -2.761  0.00  0.00    -0.050 A 
ATOM      5  C   LIG d   1       5.164  -1.721  -3.923  0.00  0.00     0.055 A 
ATOM      6  C   LIG d   1       4.634  -0.961  -4.949  0.00  0.00    -0.047 A 
ATOM      7  H   LIG d   1       1.683  -0.133  -3.540  0.00  0.00     0.062 H 
ATOM      8  H   LIG d   1       2.624  -1.492  -1.715  0.00  0.00     0.062 H 
ATOM      9  H   LIG d   1       4.853  -2.509  -1.961  0.00  0.00     0.062 H 
ATOM     10  H   LIG d   1       5.198  -0.814  -5.859  0.00  0.00     0.063 H 
ENDROOT
BRANCH   1  11
ATOM     11  C   LIG d   1       2.809   0.445  -5.926  0.00  0.00     0.015 C 
ATOM     12  H   LIG d   1       3.008   1.500  -5.735  0.00  0.00     0.037 H 
ATOM     13  H   LIG d   1       1.733   0.284  -5.982  0.00  0.00     0.037 H 
BRANCH  11  14
ATOM     14  C   LIG d   1       3.455   0.036  -7.252  0.00  0.00    -0.023 C 
ATOM     15  H   LIG d   1       4.129  -0.805  -7.084  0.00  0.00     0.085 H 
BRANCH  14  16
ATOM     16  C   LIG d   1       2.366  -0.373  -8.246  0.00  0.00    -0.021 C 
ATOM     17  H   LIG d   1       1.864  -1.271  -7.885  0.00  0.00     0.028 H 
ATOM     18  H   LIG d   1       1.641   0.435  -8.343  0.00  0.00     0.028 H 
ATOM     19  H   LIG d   1       2.818  -0.575  -9.216  0.00  0.00     0.028 H 
ENDBRANCH  14  16
BRANCH  14  20
ATOM     20  N   LIG d   1       4.231   1.174  -7.777  0.00  0.00     0.221 N 
ATOM     21  H   LIG d   1       4.870   1.520  -7.063  0.00  0.00     0.200 HD
ATOM     22  H   LIG d   1       4.762   0.886  -8.596  0.00  0.00     0.200 HD
ATOM     23  H   LIG d   1       3.586   1.928  -8.043  0.00  0.00     0.200 HD
ENDBRANCH  14  20
ENDBRANCH  11  14
ENDBRANCH   1  11
BRANCH   5  24
ATOM     24  C   LIG d   1       6.527  -2.343  -4.073  0.00  0.00     0.417 C 
ATOM     25  F   LIG d   1       6.389  -3.703  -4.372  0.00  0.00    -0.166 F 
ATOM     26  F   LIG d   1       7.220  -1.705  -5.109  0.00  0.00    -0.166 F 
ATOM     27  F   LIG d   1       7.241  -2.199  -2.878  0.00  0.00    -0.166 F 
ENDBRANCH   5  24
TORSDOF 5
ENDMDL
MODEL 9
REMARK VINA RESULT:      -5.0      2.056      2.745
REMARK  5 active torsions:
REMARK  status: ('A' for Active; 'I' for Inactive)
REMARK    1  A    between atoms: C_1  and  C_2 
REMARK    2  A    between atoms: C_2  and  C_4 
REMARK    3  A    between atoms: C_2  and  N_26 
REMARK    4  A    between atoms: C_4  and  C_5 
REMARK    5  A    between atoms: C_9  and  C_11 
ROOT
ATOM      1  C   LIG d   1       6.839  -1.792  -4.606  0.00  0.00    -0.042 A 
ATOM      2  C   LIG d   1       6.372  -1.224  -5.776  0.00  0.00    -0.058 A 
ATOM      3  C   LIG d   1       5.067  -0.778  -5.855  0.00  0.00    -0.061 A 
ATOM      4  C   LIG d   1       4.227  -0.903  -4.764  0.00  0.00    -0.050 A 
ATOM      5  C   LIG d   1       4.692  -1.472  -3.595  0.00  0.00     0.055 A 
ATOM      6  C   LIG d   1       5.998  -1.921  -3.517  0.00  0.00    -0.047 A 
ATOM      7  H   LIG d   1       7.028  -1.126  -6.629  0.00  0.00     0.062 H 
ATOM      8  H   LIG d   1       4.702  -0.333  -6.769  0.00  0.00     0.062 H 
ATOM      9  H   LIG d   1       3.206  -0.555  -4.826  0.00  0.00     0.062 H 
ATOM     10  H   LIG d   1       6.361  -2.370  -2.604  0.00  0.00     0.063 H 
ENDROOT
BRANCH   1  11
ATOM     11  C   LIG d   1       8.263  -2.278  -4.520  0.00  0.00     0.015 C 
ATOM     12  H   LIG d   1       8.879  -1.514  -4.045  0.00  0.00     0.037 H 
ATOM     13  H   LIG d   1       8.641  -2.476  -5.523  0.00  0.00     0.037 H 
BRANCH  11  14
ATOM     14  C   LIG d   1       8.314  -3.563  -3.692  0.00  0.00    -0.023 C 
ATOM     15  H   LIG d   1       7.396  -3.658  -3.111  0.00  0.00     0.085 H 
BRANCH  14  16
ATOM     16  C   LIG d   1       8.454  -4.767  -4.626  0.00  0.00    -0.021 C 
ATOM     17  H   LIG d   1       7.632  -4.767  -5.343  0.00  0.00     0.028 H 
ATOM     18  H   LIG d   1       9.402  -4.705  -5.160  0.00  0.00     0.028 H 
ATOM     19  H   LIG d   1       8.425  -5.685  -4.040  0.00  0.00     0.028 H 
ENDBRANCH  14  16
BRANCH  14  20
ATOM     20  N   LIG d   1       9.461  -3.492  -2.768  0.00  0.00     0.221 N 
ATOM     21  H   LIG d   1       9.921  -4.399  -2.712  0.00  0.00     0.200 HD
ATOM     22  H   LIG d   1      10.127  -2.793  -3.092  0.00  0.00     0.200 HD
ATOM     23  H   LIG d   1       9.126  -3.227  -1.834  0.00  0.00     0.200 HD
ENDBRANCH  14  20
ENDBRANCH  11  14
ENDBRANCH   1  11
BRANCH   5  24
ATOM     24  C   LIG d   1       3.777  -1.608  -2.406  0.00  0.00     0.417 C 
ATOM     25  F   LIG d   1       3.612  -2.963  -2.096  0.00  0.00    -0.166 F 
ATOM     26  F   LIG d   1       4.336  -0.943  -1.308  0.00  0.00    -0.166 F 
ATOM     27  F   LIG d   1       2.532  -1.045  -2.708  0.00  0.00    -0.166 F 
ENDBRANCH   5  24
TORSDOF 5
ENDMDL
MODEL 10
REMARK VINA RESULT:      -4.8      4.129      5.627
REMARK  5 active torsions:
REMARK  status: ('A' for Active; 'I' for Inactive)
REMARK    1  A    between atoms: C_1  and  C_2 
REMARK    2  A    between atoms: C_2  and  C_4 
REMARK    3  A    between atoms: C_2  and  N_26 
REMARK    4  A    between atoms: C_4  and  C_5 
REMARK    5  A    between atoms: C_9  and  C_11 
ROOT
ATOM      1  C   LIG d   1       5.324  -2.022  -3.146  0.00  0.00    -0.042 A 
ATOM      2  C   LIG d   1       6.684  -1.786  -3.206  0.00  0.00    -0.058 A 
ATOM      3  C   LIG d   1       7.473  -2.509  -4.080  0.00  0.00    -0.061 A 
ATOM      4  C   LIG d   1       6.902  -3.469  -4.894  0.00  0.00    -0.050 A 
ATOM      5  C   LIG d   1       5.542  -3.707  -4.833  0.00  0.00     0.055 A 
ATOM      6  C   LIG d   1       4.754  -2.986  -3.956  0.00  0.00    -0.047 A 
ATOM      7  H   LIG d   1       7.131  -1.036  -2.570  0.00  0.00     0.062 H 
ATOM      8  H   LIG d   1       8.537  -2.324  -4.128  0.00  0.00     0.062 H 
ATOM      9  H   LIG d   1       7.518  -4.035  -5.577  0.00  0.00     0.062 H 
ATOM     10  H   LIG d   1       3.690  -3.173  -3.906  0.00  0.00     0.063 H 
ENDROOT
BRANCH   1  11
ATOM     11  C   LIG d   1       4.464  -1.233  -2.193  0.00  0.00     0.015 C 
ATOM     12  H   LIG d   1       5.084  -0.829  -1.392  0.00  0.00     0.037 H 
ATOM     13  H   LIG d   1       3.701  -1.885  -1.767  0.00  0.00     0.037 H 
BRANCH  11  14
ATOM     14  C   LIG d   1       3.790  -0.084  -2.945  0.00  0.00    -0.023 C 
ATOM     15  H   LIG d   1       4.335   0.115  -3.868  0.00  0.00     0.085 H 
BRANCH  14  16
ATOM     16  C   LIG d   1       2.346  -0.467  -3.277  0.00  0.00    -0.021 C 
ATOM     17  H   LIG d   1       2.344  -1.239  -4.048  0.00  0.00     0.028 H 
ATOM     18  H   LIG d   1       1.857  -0.848  -2.381  0.00  0.00     0.028 H 
ATOM     19  H   LIG d   1       1.812   0.410  -3.639  0.00  0.00     0.028 H 
ENDBRANCH  14  16
BRANCH  14  20
ATOM     20  N   LIG d   1       3.821   1.124  -2.100  0.00  0.00     0.221 N 
ATOM     21  H   LIG d   1       3.356   0.941  -1.212  0.00  0.00     0.200 HD
ATOM     22  H   LIG d   1       4.784   1.404  -1.927  0.00  0.00     0.200 HD
ATOM     23  H   LIG d   1       3.332   1.887  -2.584  0.00  0.00     0.200 HD
ENDBRANCH  14  20
ENDBRANCH  11  14
ENDBRANCH   1  11
BRANCH   5  24
ATOM     24  C   LIG d   1       4.919  -4.754  -5.719  0.00  0.00     0.417 C 
ATOM     25  F   LIG d   1       3.926  -4.166  -6.509  0.00  0.00    -0.166 F 
ATOM     26  F   LIG d   1       5.903  -5.311  -6.545  0.00  0.00    -0.166 F 
ATOM     27  F   LIG d   1       4.351  -5.758  -4.928  0.00  0.00    -0.166 F 
ENDBRANCH   5  24
TORSDOF 5
ENDMDL
