MODEL 1
REMARK VINA RESULT:      -7.6      0.000      0.000
REMARK  9 active torsions:
REMARK  status: ('A' for Active; 'I' for Inactive)
REMARK    1  A    between atoms: C_6  and  O_7 
REMARK    2  A    between atoms: O_7  and  C_8 
REMARK    3  A    between atoms: C_8  and  C_9 
REMARK       I    between atoms: C_9  and  N_11 
REMARK    4  A    between atoms: N_11  and  CA_12 
REMARK    5  A    between atoms: CA_12  and  C_14 
REMARK    6  A    between atoms: CA_12  and  C_21 
REMARK    7  A    between atoms: C_14  and  C_15 
REMARK    8  A    between atoms: C_15  and  C_16 
REMARK    9  A    between atoms: C_16  and  N_17 
REMARK       I    between atoms: N_17  and  C_18 
REMARK       I    between atoms: C_18  and  N_20 
ROOT
ATOM      1  C   LIG d   1       9.437   2.129  -3.705  0.00  0.00     0.165 C 
ATOM      2  H   LIG d   1      10.181   1.387  -3.998  0.00  0.00     0.080 H 
ATOM      3  H   LIG d   1       9.521   2.323  -2.636  0.00  0.00     0.080 H 
ENDROOT
BRANCH   1   4
ATOM      4  O   LIG d   1       9.663   3.340  -4.429  0.00  0.00    -0.483 OA
BRANCH   4   5
ATOM      5  C   LIG d   1       9.783   4.480  -3.701  0.00  0.00     0.125 A 
ATOM      6  C   LIG d   1       9.412   5.700  -4.262  0.00  0.00    -0.019 A 
ATOM      7  C   LIG d   1       9.528   6.855  -3.543  0.00  0.00    -0.047 A 
ATOM      8  H   LIG d   1       9.030   5.733  -5.271  0.00  0.00     0.065 H 
ATOM      9  C   LIG d   1      10.022   6.813  -2.234  0.00  0.00     0.021 A 
ATOM     10  H   LIG d   1       9.240   7.798  -3.982  0.00  0.00     0.063 H 
ATOM     11  C   LIG d   1      10.160   8.036  -1.440  0.00  0.00    -0.027 A 
ATOM     12  C   LIG d   1      10.399   5.582  -1.663  0.00  0.00     0.143 A 
ATOM     13  C   LIG d   1      10.639   7.934  -0.175  0.00  0.00     0.041 A 
ATOM     14  C   LIG d   1       9.847   9.477  -1.770  0.00  0.00    -0.026 C 
ATOM     15  C   LIG d   1      11.002   6.665   0.331  0.00  0.00     0.341 A 
ATOM     16  C   LIG d   1      10.705   9.304   0.465  0.00  0.00    -0.020 C 
ATOM     17  O   LIG d   1      10.874   5.548  -0.399  0.00  0.00    -0.422 OA
ATOM     18  O   LIG d   1      11.436   6.584   1.466  0.00  0.00    -0.245 OA
ATOM     19  C   LIG d   1      10.604  10.304  -0.708  0.00  0.00    -0.045 C 
ATOM     20  H   LIG d   1      11.651   9.433   0.992  0.00  0.00     0.032 H 
ATOM     21  H   LIG d   1       9.868   9.439   1.151  0.00  0.00     0.032 H 
ATOM     22  H   LIG d   1      11.595  10.584  -1.066  0.00  0.00     0.027 H 
ATOM     23  H   LIG d   1      10.030  11.184  -0.419  0.00  0.00     0.027 H 
ATOM     24  H   LIG d   1      10.207   9.723  -2.768  0.00  0.00     0.031 H 
ATOM     25  H   LIG d   1       8.775   9.658  -1.698  0.00  0.00     0.031 H 
ATOM     26  C   LIG d   1      10.274   4.419  -2.407  0.00  0.00     0.023 A 
ATOM     27  H   LIG d   1      10.560   3.470  -1.979  0.00  0.00     0.069 H 
ENDBRANCH   4   5
ENDBRANCH   1   4
BRANCH   1  28
ATOM     28  C   LIG d   1       8.057   1.608  -4.015  0.00  0.00     0.251 C 
ATOM     29  O   LIG d   1       7.439   2.053  -4.958  0.00  0.00    -0.272 OA
ATOM     30  N   LIG d   1       7.511   0.647  -3.243  0.00  0.00    -0.304 N 
ATOM     31  H   LIG d   1       8.006   0.292  -2.488  0.00  0.00     0.149 HD
BRANCH  30  32
ATOM     32  CA  LIG d   1       6.170   0.141  -3.544  0.00  0.00     0.063 C 
ATOM     33  HA  LIG d   1       5.768   0.669  -4.408  0.00  0.00     0.056 H 
BRANCH  32  34
ATOM     34  C   LIG d   1       5.257   0.368  -2.337  0.00  0.00    -0.028 C 
ATOM     35  H   LIG d   1       5.853   0.364  -1.425  0.00  0.00     0.029 H 
ATOM     36  H   LIG d   1       4.753   1.329  -2.438  0.00  0.00     0.029 H 
BRANCH  34  37
ATOM     37  C   LIG d   1       4.213  -0.750  -2.269  0.00  0.00    -0.035 C 
ATOM     38  H   LIG d   1       4.554  -1.601  -2.858  0.00  0.00     0.028 H 
ATOM     39  H   LIG d   1       4.078  -1.057  -1.232  0.00  0.00     0.028 H 
BRANCH  37  40
ATOM     40  C   LIG d   1       2.884  -0.241  -2.829  0.00  0.00     0.013 C 
ATOM     41  H   LIG d   1       2.061  -0.663  -2.250  0.00  0.00     0.046 H 
ATOM     42  H   LIG d   1       2.855   0.846  -2.764  0.00  0.00     0.046 H 
BRANCH  40  43
ATOM     43  N   LIG d   1       2.756  -0.650  -4.230  0.00  0.00    -0.300 N 
ATOM     44  C   LIG d   1       2.695   0.282  -5.201  0.00  0.00     0.297 C 
ATOM     45  O   LIG d   1       2.747   1.463  -4.914  0.00  0.00    -0.253 OA
ATOM     46  N   LIG d   1       2.577  -0.094  -6.490  0.00  0.00    -0.313 N 
ATOM     47  H   LIG d   1       2.535  -1.035  -6.719  0.00  0.00     0.146 HD
ATOM     48  H   LIG d   1       2.533   0.578  -7.188  0.00  0.00     0.146 HD
ATOM     49  H   LIG d   1       2.713  -1.592  -4.458  0.00  0.00     0.150 HD
ENDBRANCH  40  43
ENDBRANCH  37  40
ENDBRANCH  34  37
ENDBRANCH  32  34
BRANCH  32  50
ATOM     50  C   LIG d   1       6.246  -1.333  -3.846  0.00  0.00     0.062 C 
ATOM     51  O   LIG d   1       5.576  -1.805  -4.733  0.00  0.00    -0.548 OA
ATOM     52  OXT LIG d   1       7.061  -2.123  -3.128  0.00  0.00    -0.548 OA
ENDBRANCH  32  50
ENDBRANCH  30  32
ENDBRANCH   1  28
TORSDOF 9
ENDMDL
MODEL 2
REMARK VINA RESULT:      -7.6      3.534      9.440
REMARK  9 active torsions:
REMARK  status: ('A' for Active; 'I' for Inactive)
REMARK    1  A    between atoms: C_6  and  O_7 
REMARK    2  A    between atoms: O_7  and  C_8 
REMARK    3  A    between atoms: C_8  and  C_9 
REMARK       I    between atoms: C_9  and  N_11 
REMARK    4  A    between atoms: N_11  and  CA_12 
REMARK    5  A    between atoms: CA_12  and  C_14 
REMARK    6  A    between atoms: CA_12  and  C_21 
REMARK    7  A    between atoms: C_14  and  C_15 
REMARK    8  A    between atoms: C_15  and  C_16 
REMARK    9  A    between atoms: C_16  and  N_17 
REMARK       I    between atoms: N_17  and  C_18 
REMARK       I    between atoms: C_18  and  N_20 
ROOT
ATOM      1  C   LIG d   1      10.498   3.265  -3.965  0.00  0.00     0.165 C 
ATOM      2  H   LIG d   1      10.329   2.746  -3.021  0.00  0.00     0.080 H 
ATOM      3  H   LIG d   1      11.568   3.298  -4.174  0.00  0.00     0.080 H 
ENDROOT
BRANCH   1   4
ATOM      4  O   LIG d   1       9.828   2.567  -5.017  0.00  0.00    -0.483 OA
BRANCH   4   5
ATOM      5  C   LIG d   1       8.881   1.665  -4.654  0.00  0.00     0.125 A 
ATOM      6  C   LIG d   1       8.968   0.351  -5.110  0.00  0.00    -0.019 A 
ATOM      7  C   LIG d   1       8.024  -0.568  -4.753  0.00  0.00    -0.047 A 
ATOM      8  H   LIG d   1       9.787   0.058  -5.749  0.00  0.00     0.065 H 
ATOM      9  C   LIG d   1       6.962  -0.189  -3.924  0.00  0.00     0.021 A 
ATOM     10  H   LIG d   1       8.095  -1.585  -5.110  0.00  0.00     0.063 H 
ATOM     11  C   LIG d   1       5.934  -1.152  -3.527  0.00  0.00    -0.027 A 
ATOM     12  C   LIG d   1       6.870   1.138  -3.460  0.00  0.00     0.143 A 
ATOM     13  C   LIG d   1       4.931  -0.730  -2.717  0.00  0.00     0.041 A 
ATOM     14  C   LIG d   1       5.762  -2.617  -3.857  0.00  0.00    -0.026 C 
ATOM     15  C   LIG d   1       4.900   0.618  -2.294  0.00  0.00     0.341 A 
ATOM     16  C   LIG d   1       3.979  -1.872  -2.433  0.00  0.00    -0.020 C 
ATOM     17  O   LIG d   1       5.844   1.497  -2.660  0.00  0.00    -0.422 OA
ATOM     18  O   LIG d   1       3.993   0.990  -1.571  0.00  0.00    -0.245 OA
ATOM     19  C   LIG d   1       4.292  -2.936  -3.508  0.00  0.00    -0.045 C 
ATOM     20  H   LIG d   1       2.945  -1.537  -2.520  0.00  0.00     0.032 H 
ATOM     21  H   LIG d   1       4.163  -2.275  -1.437  0.00  0.00     0.032 H 
ATOM     22  H   LIG d   1       3.648  -2.810  -4.378  0.00  0.00     0.027 H 
ATOM     23  H   LIG d   1       4.199  -3.942  -3.098  0.00  0.00     0.027 H 
ATOM     24  H   LIG d   1       5.945  -2.790  -4.917  0.00  0.00     0.031 H 
ATOM     25  H   LIG d   1       6.436  -3.223  -3.253  0.00  0.00     0.031 H 
ATOM     26  C   LIG d   1       7.838   2.058  -3.832  0.00  0.00     0.023 A 
ATOM     27  H   LIG d   1       7.777   3.078  -3.482  0.00  0.00     0.069 H 
ENDBRANCH   4   5
ENDBRANCH   1   4
BRANCH   1  28
ATOM     28  C   LIG d   1       9.961   4.669  -3.871  0.00  0.00     0.251 C 
ATOM     29  O   LIG d   1       9.242   5.103  -4.746  0.00  0.00    -0.272 OA
ATOM     30  N   LIG d   1      10.279   5.444  -2.814  0.00  0.00    -0.304 N 
ATOM     31  H   LIG d   1      10.855   5.096  -2.115  0.00  0.00     0.149 HD
BRANCH  30  32
ATOM     32  CA  LIG d   1       9.756   6.809  -2.723  0.00  0.00     0.063 C 
ATOM     33  HA  LIG d   1       8.837   6.886  -3.304  0.00  0.00     0.056 H 
BRANCH  32  34
ATOM     34  C   LIG d   1      10.793   7.789  -3.278  0.00  0.00    -0.028 C 
ATOM     35  H   LIG d   1      10.965   8.584  -2.552  0.00  0.00     0.029 H 
ATOM     36  H   LIG d   1      11.727   7.262  -3.468  0.00  0.00     0.029 H 
BRANCH  34  37
ATOM     37  C   LIG d   1      10.275   8.395  -4.584  0.00  0.00    -0.035 C 
ATOM     38  H   LIG d   1      10.841   7.988  -5.422  0.00  0.00     0.028 H 
ATOM     39  H   LIG d   1       9.220   8.148  -4.705  0.00  0.00     0.028 H 
BRANCH  37  40
ATOM     40  C   LIG d   1      10.443   9.914  -4.544  0.00  0.00     0.013 C 
ATOM     41  H   LIG d   1      11.133  10.183  -3.744  0.00  0.00     0.046 H 
ATOM     42  H   LIG d   1      10.839  10.261  -5.499  0.00  0.00     0.046 H 
BRANCH  40  43
ATOM     43  N   LIG d   1       9.143  10.543  -4.299  0.00  0.00    -0.300 N 
ATOM     44  C   LIG d   1       8.872  11.084  -3.095  0.00  0.00     0.297 C 
ATOM     45  O   LIG d   1       9.707  11.050  -2.211  0.00  0.00    -0.253 OA
ATOM     46  N   LIG d   1       7.675  11.663  -2.870  0.00  0.00    -0.313 N 
ATOM     47  H   LIG d   1       7.009  11.689  -3.574  0.00  0.00     0.146 HD
ATOM     48  H   LIG d   1       7.481  12.052  -2.003  0.00  0.00     0.146 HD
ATOM     49  H   LIG d   1       8.476  10.570  -5.004  0.00  0.00     0.150 HD
ENDBRANCH  40  43
ENDBRANCH  37  40
ENDBRANCH  34  37
ENDBRANCH  32  34
BRANCH  32  50
ATOM     50  C   LIG d   1       9.471   7.142  -1.282  0.00  0.00     0.062 C 
ATOM     51  O   LIG d   1      10.094   6.599  -0.401  0.00  0.00    -0.548 OA
ATOM     52  OXT LIG d   1       8.524   8.043  -0.977  0.00  0.00    -0.548 OA
ENDBRANCH  32  50
ENDBRANCH  30  32
ENDBRANCH   1  28
TORSDOF 9
ENDMDL
MODEL 3
REMARK VINA RESULT:      -7.5      5.839     11.153
REMARK  9 active torsions:
REMARK  status: ('A' for Active; 'I' for Inactive)
REMARK    1  A    between atoms: C_6  and  O_7 
REMARK    2  A    between atoms: O_7  and  C_8 
REMARK    3  A    between atoms: C_8  and  C_9 
REMARK       I    between atoms: C_9  and  N_11 
REMARK    4  A    between atoms: N_11  and  CA_12 
REMARK    5  A    between atoms: CA_12  and  C_14 
REMARK    6  A    between atoms: CA_12  and  C_21 
REMARK    7  A    between atoms: C_14  and  C_15 
REMARK    8  A    between atoms: C_15  and  C_16 
REMARK    9  A    between atoms: C_16  and  N_17 
REMARK       I    between atoms: N_17  and  C_18 
REMARK       I    between atoms: C_18  and  N_20 
ROOT
ATOM      1  C   LIG d   1       2.502   0.796  -6.588  0.00  0.00     0.165 C 
ATOM      2  H   LIG d   1       1.852   1.430  -5.984  0.00  0.00     0.080 H 
ATOM      3  H   LIG d   1       1.917  -0.018  -7.017  0.00  0.00     0.080 H 
ENDROOT
BRANCH   1   4
ATOM      4  O   LIG d   1       3.083   1.572  -7.637  0.00  0.00    -0.483 OA
BRANCH   4   5
ATOM      5  C   LIG d   1       3.145   0.998  -8.866  0.00  0.00     0.125 A 
ATOM      6  C   LIG d   1       4.149   1.377  -9.755  0.00  0.00    -0.019 A 
ATOM      7  C   LIG d   1       4.225   0.809 -10.995  0.00  0.00    -0.047 A 
ATOM      8  H   LIG d   1       4.871   2.124  -9.463  0.00  0.00     0.065 H 
ATOM      9  C   LIG d   1       3.289  -0.159 -11.374  0.00  0.00     0.021 A 
ATOM     10  H   LIG d   1       5.004   1.108 -11.680  0.00  0.00     0.063 H 
ATOM     11  C   LIG d   1       3.345  -0.784 -12.698  0.00  0.00    -0.027 A 
ATOM     12  C   LIG d   1       2.274  -0.546 -10.479  0.00  0.00     0.143 A 
ATOM     13  C   LIG d   1       2.416  -1.722 -13.009  0.00  0.00     0.041 A 
ATOM     14  C   LIG d   1       4.296  -0.582 -13.854  0.00  0.00    -0.026 C 
ATOM     15  C   LIG d   1       1.422  -2.057 -12.062  0.00  0.00     0.341 A 
ATOM     16  C   LIG d   1       2.648  -2.234 -14.415  0.00  0.00    -0.020 C 
ATOM     17  O   LIG d   1       1.375  -1.483 -10.851  0.00  0.00    -0.422 OA
ATOM     18  O   LIG d   1       0.588  -2.897 -12.352  0.00  0.00    -0.245 OA
ATOM     19  C   LIG d   1       3.577  -1.192 -15.077  0.00  0.00    -0.045 C 
ATOM     20  H   LIG d   1       1.704  -2.299 -14.957  0.00  0.00     0.032 H 
ATOM     21  H   LIG d   1       3.135  -3.209 -14.384  0.00  0.00     0.032 H 
ATOM     22  H   LIG d   1       2.997  -0.435 -15.605  0.00  0.00     0.027 H 
ATOM     23  H   LIG d   1       4.288  -1.675 -15.746  0.00  0.00     0.027 H 
ATOM     24  H   LIG d   1       4.478   0.481 -14.014  0.00  0.00     0.031 H 
ATOM     25  H   LIG d   1       5.236  -1.102 -13.668  0.00  0.00     0.031 H 
ATOM     26  C   LIG d   1       2.211   0.040  -9.225  0.00  0.00     0.023 A 
ATOM     27  H   LIG d   1       1.437  -0.250  -8.530  0.00  0.00     0.069 H 
ENDBRANCH   4   5
ENDBRANCH   1   4
BRANCH   1  28
ATOM     28  C   LIG d   1       3.595   0.225  -5.721  0.00  0.00     0.251 C 
ATOM     29  O   LIG d   1       4.480  -0.437  -6.219  0.00  0.00    -0.272 OA
ATOM     30  N   LIG d   1       3.588   0.450  -4.391  0.00  0.00    -0.304 N 
ATOM     31  H   LIG d   1       2.878   0.979  -3.993  0.00  0.00     0.149 HD
BRANCH  30  32
ATOM     32  CA  LIG d   1       4.650  -0.105  -3.549  0.00  0.00     0.063 C 
ATOM     33  HA  LIG d   1       5.228  -0.829  -4.124  0.00  0.00     0.056 H 
BRANCH  32  34
ATOM     34  C   LIG d   1       4.028  -0.799  -2.336  0.00  0.00    -0.028 C 
ATOM     35  H   LIG d   1       4.634  -0.598  -1.452  0.00  0.00     0.029 H 
ATOM     36  H   LIG d   1       3.019  -0.420  -2.177  0.00  0.00     0.029 H 
BRANCH  34  37
ATOM     37  C   LIG d   1       3.972  -2.308  -2.583  0.00  0.00    -0.035 C 
ATOM     38  H   LIG d   1       4.346  -2.834  -1.704  0.00  0.00     0.028 H 
ATOM     39  H   LIG d   1       2.941  -2.607  -2.774  0.00  0.00     0.028 H 
BRANCH  37  40
ATOM     40  C   LIG d   1       4.838  -2.659  -3.794  0.00  0.00     0.013 C 
ATOM     41  H   LIG d   1       5.345  -1.762  -4.151  0.00  0.00     0.046 H 
ATOM     42  H   LIG d   1       5.579  -3.405  -3.507  0.00  0.00     0.046 H 
BRANCH  40  43
ATOM     43  N   LIG d   1       3.991  -3.198  -4.861  0.00  0.00    -0.300 N 
ATOM     44  C   LIG d   1       4.394  -4.278  -5.560  0.00  0.00     0.297 C 
ATOM     45  O   LIG d   1       5.460  -4.804  -5.305  0.00  0.00    -0.253 OA
ATOM     46  N   LIG d   1       3.614  -4.774  -6.541  0.00  0.00    -0.313 N 
ATOM     47  H   LIG d   1       2.764  -4.354  -6.745  0.00  0.00     0.146 HD
ATOM     48  H   LIG d   1       3.904  -5.551  -7.044  0.00  0.00     0.146 HD
ATOM     49  H   LIG d   1       3.141  -2.778  -5.064  0.00  0.00     0.150 HD
ENDBRANCH  40  43
ENDBRANCH  37  40
ENDBRANCH  34  37
ENDBRANCH  32  34
BRANCH  32  50
ATOM     50  C   LIG d   1       5.554   1.007  -3.084  0.00  0.00     0.062 C 
ATOM     51  O   LIG d   1       5.388   1.506  -1.997  0.00  0.00    -0.548 OA
ATOM     52  OXT LIG d   1       6.543   1.443  -3.880  0.00  0.00    -0.548 OA
ENDBRANCH  32  50
ENDBRANCH  30  32
ENDBRANCH   1  28
TORSDOF 9
ENDMDL
MODEL 4
REMARK VINA RESULT:      -7.4      3.432      9.118
REMARK  9 active torsions:
REMARK  status: ('A' for Active; 'I' for Inactive)
REMARK    1  A    between atoms: C_6  and  O_7 
REMARK    2  A    between atoms: O_7  and  C_8 
REMARK    3  A    between atoms: C_8  and  C_9 
REMARK       I    between atoms: C_9  and  N_11 
REMARK    4  A    between atoms: N_11  and  CA_12 
REMARK    5  A    between atoms: CA_12  and  C_14 
REMARK    6  A    between atoms: CA_12  and  C_21 
REMARK    7  A    between atoms: C_14  and  C_15 
REMARK    8  A    between atoms: C_15  and  C_16 
REMARK    9  A    between atoms: C_16  and  N_17 
REMARK       I    between atoms: N_17  and  C_18 
REMARK       I    between atoms: C_18  and  N_20 
ROOT
ATOM      1  C   LIG d   1      10.496   3.330  -3.991  0.00  0.00     0.165 C 
ATOM      2  H   LIG d   1      10.337   2.805  -3.048  0.00  0.00     0.080 H 
ATOM      3  H   LIG d   1      11.562   3.358  -4.214  0.00  0.00     0.080 H 
ENDROOT
BRANCH   1   4
ATOM      4  O   LIG d   1       9.807   2.645  -5.039  0.00  0.00    -0.483 OA
BRANCH   4   5
ATOM      5  C   LIG d   1       8.870   1.734  -4.668  0.00  0.00     0.125 A 
ATOM      6  C   LIG d   1       8.969   0.420  -5.118  0.00  0.00    -0.019 A 
ATOM      7  C   LIG d   1       8.035  -0.508  -4.754  0.00  0.00    -0.047 A 
ATOM      8  H   LIG d   1       9.789   0.131  -5.757  0.00  0.00     0.065 H 
ATOM      9  C   LIG d   1       6.971  -0.134  -3.925  0.00  0.00     0.021 A 
ATOM     10  H   LIG d   1       8.115  -1.525  -5.106  0.00  0.00     0.063 H 
ATOM     11  C   LIG d   1       5.953  -1.106  -3.521  0.00  0.00    -0.027 A 
ATOM     12  C   LIG d   1       6.866   1.193  -3.468  0.00  0.00     0.143 A 
ATOM     13  C   LIG d   1       4.948  -0.690  -2.711  0.00  0.00     0.041 A 
ATOM     14  C   LIG d   1       5.795  -2.574  -3.843  0.00  0.00    -0.026 C 
ATOM     15  C   LIG d   1       4.904   0.660  -2.295  0.00  0.00     0.341 A 
ATOM     16  C   LIG d   1       4.008  -1.840  -2.419  0.00  0.00    -0.020 C 
ATOM     17  O   LIG d   1       5.838   1.547  -2.667  0.00  0.00    -0.422 OA
ATOM     18  O   LIG d   1       3.994   1.027  -1.572  0.00  0.00    -0.245 OA
ATOM     19  C   LIG d   1       4.329  -2.907  -3.489  0.00  0.00    -0.045 C 
ATOM     20  H   LIG d   1       2.970  -1.516  -2.506  0.00  0.00     0.032 H 
ATOM     21  H   LIG d   1       4.198  -2.236  -1.421  0.00  0.00     0.032 H 
ATOM     22  H   LIG d   1       3.683  -2.792  -4.359  0.00  0.00     0.027 H 
ATOM     23  H   LIG d   1       4.248  -3.911  -3.074  0.00  0.00     0.027 H 
ATOM     24  H   LIG d   1       5.978  -2.751  -4.903  0.00  0.00     0.031 H 
ATOM     25  H   LIG d   1       6.476  -3.171  -3.237  0.00  0.00     0.031 H 
ATOM     26  C   LIG d   1       7.824   2.121  -3.846  0.00  0.00     0.023 A 
ATOM     27  H   LIG d   1       7.754   3.142  -3.502  0.00  0.00     0.069 H 
ENDBRANCH   4   5
ENDBRANCH   1   4
BRANCH   1  28
ATOM     28  C   LIG d   1       9.969   4.737  -3.878  0.00  0.00     0.251 C 
ATOM     29  O   LIG d   1       9.283   5.199  -4.765  0.00  0.00    -0.272 OA
ATOM     30  N   LIG d   1      10.260   5.482  -2.793  0.00  0.00    -0.304 N 
ATOM     31  H   LIG d   1      10.809   5.111  -2.084  0.00  0.00     0.149 HD
BRANCH  30  32
ATOM     32  CA  LIG d   1       9.747   6.849  -2.684  0.00  0.00     0.063 C 
ATOM     33  HA  LIG d   1       8.841   6.946  -3.282  0.00  0.00     0.056 H 
BRANCH  32  34
ATOM     34  C   LIG d   1      10.803   7.831  -3.196  0.00  0.00    -0.028 C 
ATOM     35  H   LIG d   1      11.221   8.385  -2.355  0.00  0.00     0.029 H 
ATOM     36  H   LIG d   1      11.597   7.281  -3.699  0.00  0.00     0.029 H 
BRANCH  34  37
ATOM     37  C   LIG d   1      10.157   8.809  -4.180  0.00  0.00    -0.035 C 
ATOM     38  H   LIG d   1       9.075   8.800  -4.043  0.00  0.00     0.028 H 
ATOM     39  H   LIG d   1      10.537   9.814  -3.996  0.00  0.00     0.028 H 
BRANCH  37  40
ATOM     40  C   LIG d   1      10.494   8.389  -5.611  0.00  0.00     0.013 C 
ATOM     41  H   LIG d   1      11.317   8.999  -5.985  0.00  0.00     0.046 H 
ATOM     42  H   LIG d   1      10.784   7.338  -5.623  0.00  0.00     0.046 H 
BRANCH  40  43
ATOM     43  N   LIG d   1       9.319   8.579  -6.466  0.00  0.00    -0.300 N 
ATOM     44  C   LIG d   1       9.474   8.800  -7.786  0.00  0.00     0.297 C 
ATOM     45  O   LIG d   1      10.590   8.843  -8.268  0.00  0.00    -0.253 OA
ATOM     46  N   LIG d   1       8.393   8.975  -8.572  0.00  0.00    -0.313 N 
ATOM     47  H   LIG d   1       7.503   8.942  -8.187  0.00  0.00     0.146 HD
ATOM     48  H   LIG d   1       8.505   9.135  -9.522  0.00  0.00     0.146 HD
ATOM     49  H   LIG d   1       8.429   8.546  -6.081  0.00  0.00     0.150 HD
ENDBRANCH  40  43
ENDBRANCH  37  40
ENDBRANCH  34  37
ENDBRANCH  32  34
BRANCH  32  50
ATOM     50  C   LIG d   1       9.434   7.154  -1.242  0.00  0.00     0.062 C 
ATOM     51  O   LIG d   1       8.567   7.948  -0.966  0.00  0.00    -0.548 OA
ATOM     52  OXT LIG d   1      10.120   6.543  -0.264  0.00  0.00    -0.548 OA
ENDBRANCH  32  50
ENDBRANCH  30  32
ENDBRANCH   1  28
TORSDOF 9
ENDMDL
MODEL 5
REMARK VINA RESULT:      -7.3      3.390      9.199
REMARK  9 active torsions:
REMARK  status: ('A' for Active; 'I' for Inactive)
REMARK    1  A    between atoms: C_6  and  O_7 
REMARK    2  A    between atoms: O_7  and  C_8 
REMARK    3  A    between atoms: C_8  and  C_9 
REMARK       I    between atoms: C_9  and  N_11 
REMARK    4  A    between atoms: N_11  and  CA_12 
REMARK    5  A    between atoms: CA_12  and  C_14 
REMARK    6  A    between atoms: CA_12  and  C_21 
REMARK    7  A    between atoms: C_14  and  C_15 
REMARK    8  A    between atoms: C_15  and  C_16 
REMARK    9  A    between atoms: C_16  and  N_17 
REMARK       I    between atoms: N_17  and  C_18 
REMARK       I    between atoms: C_18  and  N_20 
ROOT
ATOM      1  C   LIG d   1      11.153   2.513  -4.515  0.00  0.00     0.165 C 
ATOM      2  H   LIG d   1      11.158   1.696  -3.793  0.00  0.00     0.080 H 
ATOM      3  H   LIG d   1      11.979   2.385  -5.214  0.00  0.00     0.080 H 
ENDROOT
BRANCH   1   4
ATOM      4  O   LIG d   1       9.917   2.506  -5.232  0.00  0.00    -0.483 OA
BRANCH   4   5
ATOM      5  C   LIG d   1       8.964   1.635  -4.809  0.00  0.00     0.125 A 
ATOM      6  C   LIG d   1       9.004   0.309  -5.233  0.00  0.00    -0.019 A 
ATOM      7  C   LIG d   1       8.053  -0.579  -4.817  0.00  0.00    -0.047 A 
ATOM      8  H   LIG d   1       9.791  -0.020  -5.894  0.00  0.00     0.065 H 
ATOM      9  C   LIG d   1       7.032  -0.152  -3.960  0.00  0.00     0.021 A 
ATOM     10  H   LIG d   1       8.087  -1.605  -5.149  0.00  0.00     0.063 H 
ATOM     11  C   LIG d   1       5.997  -1.081  -3.499  0.00  0.00    -0.027 A 
ATOM     12  C   LIG d   1       6.988   1.188  -3.529  0.00  0.00     0.143 A 
ATOM     13  C   LIG d   1       5.036  -0.614  -2.664  0.00  0.00     0.041 A 
ATOM     14  C   LIG d   1       5.780  -2.549  -3.783  0.00  0.00    -0.026 C 
ATOM     15  C   LIG d   1       5.051   0.746  -2.277  0.00  0.00     0.341 A 
ATOM     16  C   LIG d   1       4.069  -1.725  -2.314  0.00  0.00    -0.020 C 
ATOM     17  O   LIG d   1       6.000   1.592  -2.701  0.00  0.00    -0.422 OA
ATOM     18  O   LIG d   1       4.181   1.158  -1.531  0.00  0.00    -0.245 OA
ATOM     19  C   LIG d   1       4.317  -2.824  -3.371  0.00  0.00    -0.045 C 
ATOM     20  H   LIG d   1       3.041  -1.368  -2.373  0.00  0.00     0.032 H 
ATOM     21  H   LIG d   1       4.281  -2.106  -1.315  0.00  0.00     0.032 H 
ATOM     22  H   LIG d   1       3.644  -2.705  -4.220  0.00  0.00     0.027 H 
ATOM     23  H   LIG d   1       4.217  -3.816  -2.931  0.00  0.00     0.027 H 
ATOM     24  H   LIG d   1       5.919  -2.754  -4.844  0.00  0.00     0.031 H 
ATOM     25  H   LIG d   1       6.462  -3.155  -3.188  0.00  0.00     0.031 H 
ATOM     26  C   LIG d   1       7.961   2.075  -3.960  0.00  0.00     0.023 A 
ATOM     27  H   LIG d   1       7.937   3.104  -3.636  0.00  0.00     0.069 H 
ENDBRANCH   4   5
ENDBRANCH   1   4
BRANCH   1  28
ATOM     28  C   LIG d   1      11.305   3.826  -3.790  0.00  0.00     0.251 C 
ATOM     29  O   LIG d   1      12.034   3.904  -2.825  0.00  0.00    -0.272 OA
ATOM     30  N   LIG d   1      10.632   4.913  -4.216  0.00  0.00    -0.304 N 
ATOM     31  H   LIG d   1      10.048   4.850  -4.989  0.00  0.00     0.149 HD
BRANCH  30  32
ATOM     32  CA  LIG d   1      10.781   6.189  -3.512  0.00  0.00     0.063 C 
ATOM     33  HA  LIG d   1      11.713   6.186  -2.948  0.00  0.00     0.056 H 
BRANCH  32  34
ATOM     34  C   LIG d   1       9.605   6.380  -2.551  0.00  0.00    -0.028 C 
ATOM     35  H   LIG d   1       9.102   7.321  -2.775  0.00  0.00     0.029 H 
ATOM     36  H   LIG d   1       8.902   5.556  -2.668  0.00  0.00     0.029 H 
BRANCH  34  37
ATOM     37  C   LIG d   1      10.122   6.409  -1.111  0.00  0.00    -0.035 C 
ATOM     38  H   LIG d   1       9.472   5.803  -0.480  0.00  0.00     0.028 H 
ATOM     39  H   LIG d   1      11.135   6.006  -1.081  0.00  0.00     0.028 H 
BRANCH  37  40
ATOM     40  C   LIG d   1      10.130   7.851  -0.601  0.00  0.00     0.013 C 
ATOM     41  H   LIG d   1       9.880   7.862   0.460  0.00  0.00     0.046 H 
ATOM     42  H   LIG d   1      11.121   8.282  -0.745  0.00  0.00     0.046 H 
BRANCH  40  43
ATOM     43  N   LIG d   1       9.143   8.638  -1.344  0.00  0.00    -0.300 N 
ATOM     44  C   LIG d   1       9.113   9.979  -1.213  0.00  0.00     0.297 C 
ATOM     45  O   LIG d   1       9.905  10.535  -0.476  0.00  0.00    -0.253 OA
ATOM     46  N   LIG d   1       8.205  10.703  -1.897  0.00  0.00    -0.313 N 
ATOM     47  H   LIG d   1       7.573  10.259  -2.483  0.00  0.00     0.146 HD
ATOM     48  H   LIG d   1       8.184  11.668  -1.802  0.00  0.00     0.146 HD
ATOM     49  H   LIG d   1       8.511   8.194  -1.931  0.00  0.00     0.150 HD
ENDBRANCH  40  43
ENDBRANCH  37  40
ENDBRANCH  34  37
ENDBRANCH  32  34
BRANCH  32  50
ATOM     50  C   LIG d   1      10.800   7.315  -4.513  0.00  0.00     0.062 C 
ATOM     51  O   LIG d   1      11.393   7.186  -5.557  0.00  0.00    -0.548 OA
ATOM     52  OXT LIG d   1      10.159   8.463  -4.242  0.00  0.00    -0.548 OA
ENDBRANCH  32  50
ENDBRANCH  30  32
ENDBRANCH   1  28
TORSDOF 9
ENDMDL
MODEL 6
REMARK VINA RESULT:      -7.0      3.493      9.116
REMARK  9 active torsions:
REMARK  status: ('A' for Active; 'I' for Inactive)
REMARK    1  A    between atoms: C_6  and  O_7 
REMARK    2  A    between atoms: O_7  and  C_8 
REMARK    3  A    between atoms: C_8  and  C_9 
REMARK       I    between atoms: C_9  and  N_11 
REMARK    4  A    between atoms: N_11  and  CA_12 
REMARK    5  A    between atoms: CA_12  and  C_14 
REMARK    6  A    between atoms: CA_12  and  C_21 
REMARK    7  A    between atoms: C_14  and  C_15 
REMARK    8  A    between atoms: C_15  and  C_16 
REMARK    9  A    between atoms: C_16  and  N_17 
REMARK       I    between atoms: N_17  and  C_18 
REMARK       I    between atoms: C_18  and  N_20 
ROOT
ATOM      1  C   LIG d   1       9.458   3.361  -6.495  0.00  0.00     0.165 C 
ATOM      2  H   LIG d   1       9.706   3.256  -7.552  0.00  0.00     0.080 H 
ATOM      3  H   LIG d   1       8.379   3.465  -6.384  0.00  0.00     0.080 H 
ENDROOT
BRANCH   1   4
ATOM      4  O   LIG d   1       9.902   2.203  -5.785  0.00  0.00    -0.483 OA
BRANCH   4   5
ATOM      5  C   LIG d   1       8.943   1.406  -5.246  0.00  0.00     0.125 A 
ATOM      6  C   LIG d   1       8.843   0.077  -5.651  0.00  0.00    -0.019 A 
ATOM      7  C   LIG d   1       7.885  -0.738  -5.119  0.00  0.00    -0.047 A 
ATOM      8  H   LIG d   1       9.527  -0.313  -6.390  0.00  0.00     0.065 H 
ATOM      9  C   LIG d   1       6.998  -0.233  -4.161  0.00  0.00     0.021 A 
ATOM     10  H   LIG d   1       7.811  -1.767  -5.436  0.00  0.00     0.063 H 
ATOM     11  C   LIG d   1       5.959  -1.082  -3.575  0.00  0.00    -0.027 A 
ATOM     12  C   LIG d   1       7.095   1.109  -3.749  0.00  0.00     0.143 A 
ATOM     13  C   LIG d   1       5.131  -0.542  -2.646  0.00  0.00     0.041 A 
ATOM     14  C   LIG d   1       5.609  -2.533  -3.809  0.00  0.00    -0.026 C 
ATOM     15  C   LIG d   1       5.284   0.816  -2.284  0.00  0.00     0.341 A 
ATOM     16  C   LIG d   1       4.134  -1.579  -2.174  0.00  0.00    -0.020 C 
ATOM     17  O   LIG d   1       6.237   1.590  -2.823  0.00  0.00    -0.422 OA
ATOM     18  O   LIG d   1       4.533   1.295  -1.453  0.00  0.00    -0.245 OA
ATOM     19  C   LIG d   1       4.186  -2.701  -3.234  0.00  0.00    -0.045 C 
ATOM     20  H   LIG d   1       3.133  -1.150  -2.124  0.00  0.00     0.032 H 
ATOM     21  H   LIG d   1       4.429  -1.967  -1.199  0.00  0.00     0.032 H 
ATOM     22  H   LIG d   1       3.433  -2.541  -4.006  0.00  0.00     0.027 H 
ATOM     23  H   LIG d   1       4.067  -3.680  -2.770  0.00  0.00     0.027 H 
ATOM     24  H   LIG d   1       5.615  -2.756  -4.876  0.00  0.00     0.031 H 
ATOM     25  H   LIG d   1       6.310  -3.182  -3.284  0.00  0.00     0.031 H 
ATOM     26  C   LIG d   1       8.075   1.922  -4.299  0.00  0.00     0.023 A 
ATOM     27  H   LIG d   1       8.159   2.953  -3.990  0.00  0.00     0.069 H 
ENDBRANCH   4   5
ENDBRANCH   1   4
BRANCH   1  28
ATOM     28  C   LIG d   1      10.141   4.584  -5.938  0.00  0.00     0.251 C 
ATOM     29  O   LIG d   1      10.905   4.478  -5.003  0.00  0.00    -0.272 OA
ATOM     30  N   LIG d   1       9.903   5.795  -6.480  0.00  0.00    -0.304 N 
ATOM     31  H   LIG d   1       9.291   5.879  -7.229  0.00  0.00     0.149 HD
BRANCH  30  32
ATOM     32  CA  LIG d   1      10.567   6.983  -5.939  0.00  0.00     0.063 C 
ATOM     33  HA  LIG d   1      11.464   6.683  -5.397  0.00  0.00     0.056 H 
BRANCH  32  34
ATOM     34  C   LIG d   1       9.615   7.708  -4.985  0.00  0.00    -0.028 C 
ATOM     35  H   LIG d   1       9.501   8.744  -5.304  0.00  0.00     0.029 H 
ATOM     36  H   LIG d   1       8.643   7.216  -4.997  0.00  0.00     0.029 H 
BRANCH  34  37
ATOM     37  C   LIG d   1      10.187   7.671  -3.566  0.00  0.00    -0.035 C 
ATOM     38  H   LIG d   1      11.235   7.373  -3.605  0.00  0.00     0.028 H 
ATOM     39  H   LIG d   1      10.107   8.661  -3.117  0.00  0.00     0.028 H 
BRANCH  37  40
ATOM     40  C   LIG d   1       9.401   6.663  -2.726  0.00  0.00     0.013 C 
ATOM     41  H   LIG d   1       8.898   7.184  -1.910  0.00  0.00     0.046 H 
ATOM     42  H   LIG d   1       8.660   6.166  -3.352  0.00  0.00     0.046 H 
BRANCH  40  43
ATOM     43  N   LIG d   1      10.321   5.665  -2.174  0.00  0.00    -0.300 N 
ATOM     44  C   LIG d   1      10.636   5.690  -0.864  0.00  0.00     0.297 C 
ATOM     45  O   LIG d   1      10.156   6.542  -0.139  0.00  0.00    -0.253 OA
ATOM     46  N   LIG d   1      11.482   4.772  -0.356  0.00  0.00    -0.313 N 
ATOM     47  H   LIG d   1      11.865   4.093  -0.934  0.00  0.00     0.146 HD
ATOM     48  H   LIG d   1      11.708   4.790   0.587  0.00  0.00     0.146 HD
ATOM     49  H   LIG d   1      10.704   4.986  -2.752  0.00  0.00     0.150 HD
ENDBRANCH  40  43
ENDBRANCH  37  40
ENDBRANCH  34  37
ENDBRANCH  32  34
BRANCH  32  50
ATOM     50  C   LIG d   1      10.945   7.905  -7.069  0.00  0.00     0.062 C 
ATOM     51  O   LIG d   1      11.951   8.570  -6.996  0.00  0.00    -0.548 OA
ATOM     52  OXT LIG d   1      10.163   7.987  -8.156  0.00  0.00    -0.548 OA
ENDBRANCH  32  50
ENDBRANCH  30  32
ENDBRANCH   1  28
TORSDOF 9
ENDMDL
MODEL 7
REMARK VINA RESULT:      -6.9      1.493      2.020
REMARK  9 active torsions:
REMARK  status: ('A' for Active; 'I' for Inactive)
REMARK    1  A    between atoms: C_6  and  O_7 
REMARK    2  A    between atoms: O_7  and  C_8 
REMARK    3  A    between atoms: C_8  and  C_9 
REMARK       I    between atoms: C_9  and  N_11 
REMARK    4  A    between atoms: N_11  and  CA_12 
REMARK    5  A    between atoms: CA_12  and  C_14 
REMARK    6  A    between atoms: CA_12  and  C_21 
REMARK    7  A    between atoms: C_14  and  C_15 
REMARK    8  A    between atoms: C_15  and  C_16 
REMARK    9  A    between atoms: C_16  and  N_17 
REMARK       I    between atoms: N_17  and  C_18 
REMARK       I    between atoms: C_18  and  N_20 
ROOT
ATOM      1  C   LIG d   1       9.129   3.324  -4.717  0.00  0.00     0.165 C 
ATOM      2  H   LIG d   1       8.425   4.156  -4.681  0.00  0.00     0.080 H 
ATOM      3  H   LIG d   1       9.412   3.133  -5.752  0.00  0.00     0.080 H 
ENDROOT
BRANCH   1   4
ATOM      4  O   LIG d   1      10.294   3.652  -3.957  0.00  0.00    -0.483 OA
BRANCH   4   5
ATOM      5  C   LIG d   1      10.280   4.833  -3.287  0.00  0.00     0.125 A 
ATOM      6  C   LIG d   1       9.836   5.986  -3.931  0.00  0.00    -0.019 A 
ATOM      7  C   LIG d   1       9.816   7.182  -3.271  0.00  0.00    -0.047 A 
ATOM      8  H   LIG d   1       9.504   5.935  -4.956  0.00  0.00     0.065 H 
ATOM      9  C   LIG d   1      10.246   7.248  -1.941  0.00  0.00     0.021 A 
ATOM     10  H   LIG d   1       9.472   8.073  -3.774  0.00  0.00     0.063 H 
ATOM     11  C   LIG d   1      10.239   8.517  -1.209  0.00  0.00    -0.027 A 
ATOM     12  C   LIG d   1      10.696   6.086  -1.287  0.00  0.00     0.143 A 
ATOM     13  C   LIG d   1      10.661   8.522   0.080  0.00  0.00     0.041 A 
ATOM     14  C   LIG d   1       9.823   9.907  -1.631  0.00  0.00    -0.026 C 
ATOM     15  C   LIG d   1      11.104   7.316   0.671  0.00  0.00     0.341 A 
ATOM     16  C   LIG d   1      10.579   9.923   0.647  0.00  0.00    -0.020 C 
ATOM     17  O   LIG d   1      11.109   6.157  -0.003  0.00  0.00    -0.422 OA
ATOM     18  O   LIG d   1      11.486   7.330   1.828  0.00  0.00    -0.245 OA
ATOM     19  C   LIG d   1      10.452  10.850  -0.582  0.00  0.00    -0.045 C 
ATOM     20  H   LIG d   1      11.482  10.160   1.209  0.00  0.00     0.032 H 
ATOM     21  H   LIG d   1       9.700  10.019   1.285  0.00  0.00     0.032 H 
ATOM     22  H   LIG d   1      11.432  11.197  -0.909  0.00  0.00     0.027 H 
ATOM     23  H   LIG d   1       9.792  11.690  -0.369  0.00  0.00     0.027 H 
ATOM     24  H   LIG d   1      10.210  10.133  -2.624  0.00  0.00     0.031 H 
ATOM     25  H   LIG d   1       8.737   9.997  -1.619  0.00  0.00     0.031 H 
ATOM     26  C   LIG d   1      10.709   4.881  -1.971  0.00  0.00     0.023 A 
ATOM     27  H   LIG d   1      11.051   3.983  -1.479  0.00  0.00     0.069 H 
ENDBRANCH   4   5
ENDBRANCH   1   4
BRANCH   1  28
ATOM     28  C   LIG d   1       8.481   2.092  -4.138  0.00  0.00     0.251 C 
ATOM     29  O   LIG d   1       9.160   1.132  -3.843  0.00  0.00    -0.272 OA
ATOM     30  N   LIG d   1       7.147   2.058  -3.948  0.00  0.00    -0.304 N 
ATOM     31  H   LIG d   1       6.604   2.827  -4.185  0.00  0.00     0.149 HD
BRANCH  30  32
ATOM     32  CA  LIG d   1       6.518   0.861  -3.385  0.00  0.00     0.063 C 
ATOM     33  HA  LIG d   1       7.158   0.446  -2.607  0.00  0.00     0.056 H 
BRANCH  32  34
ATOM     34  C   LIG d   1       6.320  -0.178  -4.491  0.00  0.00    -0.028 C 
ATOM     35  H   LIG d   1       5.306  -0.100  -4.885  0.00  0.00     0.029 H 
ATOM     36  H   LIG d   1       7.036   0.002  -5.292  0.00  0.00     0.029 H 
BRANCH  34  37
ATOM     37  C   LIG d   1       6.537  -1.580  -3.918  0.00  0.00    -0.035 C 
ATOM     38  H   LIG d   1       7.427  -2.022  -4.368  0.00  0.00     0.028 H 
ATOM     39  H   LIG d   1       6.671  -1.515  -2.838  0.00  0.00     0.028 H 
BRANCH  37  40
ATOM     40  C   LIG d   1       5.321  -2.453  -4.230  0.00  0.00     0.013 C 
ATOM     41  H   LIG d   1       5.527  -3.063  -5.110  0.00  0.00     0.046 H 
ATOM     42  H   LIG d   1       5.111  -3.102  -3.379  0.00  0.00     0.046 H 
BRANCH  40  43
ATOM     43  N   LIG d   1       4.159  -1.598  -4.488  0.00  0.00    -0.300 N 
ATOM     44  C   LIG d   1       3.194  -1.473  -3.556  0.00  0.00     0.297 C 
ATOM     45  O   LIG d   1       3.288  -2.070  -2.500  0.00  0.00    -0.253 OA
ATOM     46  N   LIG d   1       2.126  -0.687  -3.794  0.00  0.00    -0.313 N 
ATOM     47  H   LIG d   1       2.051  -0.212  -4.636  0.00  0.00     0.146 HD
ATOM     48  H   LIG d   1       1.431  -0.597  -3.122  0.00  0.00     0.146 HD
ATOM     49  H   LIG d   1       4.085  -1.123  -5.331  0.00  0.00     0.150 HD
ENDBRANCH  40  43
ENDBRANCH  37  40
ENDBRANCH  34  37
ENDBRANCH  32  34
BRANCH  32  50
ATOM     50  C   LIG d   1       5.181   1.228  -2.794  0.00  0.00     0.062 C 
ATOM     51  O   LIG d   1       4.286   1.604  -3.512  0.00  0.00    -0.548 OA
ATOM     52  OXT LIG d   1       4.986   1.135  -1.469  0.00  0.00    -0.548 OA
ENDBRANCH  32  50
ENDBRANCH  30  32
ENDBRANCH   1  28
TORSDOF 9
ENDMDL
MODEL 8
REMARK VINA RESULT:      -6.9      2.013      3.231
REMARK  9 active torsions:
REMARK  status: ('A' for Active; 'I' for Inactive)
REMARK    1  A    between atoms: C_6  and  O_7 
REMARK    2  A    between atoms: O_7  and  C_8 
REMARK    3  A    between atoms: C_8  and  C_9 
REMARK       I    between atoms: C_9  and  N_11 
REMARK    4  A    between atoms: N_11  and  CA_12 
REMARK    5  A    between atoms: CA_12  and  C_14 
REMARK    6  A    between atoms: CA_12  and  C_21 
REMARK    7  A    between atoms: C_14  and  C_15 
REMARK    8  A    between atoms: C_15  and  C_16 
REMARK    9  A    between atoms: C_16  and  N_17 
REMARK       I    between atoms: N_17  and  C_18 
REMARK       I    between atoms: C_18  and  N_20 
ROOT
ATOM      1  C   LIG d   1       8.239   0.238  -5.313  0.00  0.00     0.165 C 
ATOM      2  H   LIG d   1       7.899   0.989  -6.027  0.00  0.00     0.080 H 
ATOM      3  H   LIG d   1       8.572  -0.650  -5.851  0.00  0.00     0.080 H 
ENDROOT
BRANCH   1   4
ATOM      4  O   LIG d   1       9.323   0.766  -4.547  0.00  0.00    -0.483 OA
BRANCH   4   5
ATOM      5  C   LIG d   1       9.417   2.117  -4.460  0.00  0.00     0.125 A 
ATOM      6  C   LIG d   1       9.188   2.899  -5.591  0.00  0.00    -0.019 A 
ATOM      7  C   LIG d   1       9.277   4.260  -5.520  0.00  0.00    -0.047 A 
ATOM      8  H   LIG d   1       8.937   2.427  -6.528  0.00  0.00     0.065 H 
ATOM      9  C   LIG d   1       9.602   4.873  -4.305  0.00  0.00     0.021 A 
ATOM     10  H   LIG d   1       9.100   4.861  -6.399  0.00  0.00     0.063 H 
ATOM     11  C   LIG d   1       9.708   6.329  -4.200  0.00  0.00    -0.027 A 
ATOM     12  C   LIG d   1       9.834   4.087  -3.160  0.00  0.00     0.143 A 
ATOM     13  C   LIG d   1      10.019   6.869  -2.995  0.00  0.00     0.041 A 
ATOM     14  C   LIG d   1       9.521   7.418  -5.231  0.00  0.00    -0.026 C 
ATOM     15  C   LIG d   1      10.244   6.018  -1.889  0.00  0.00     0.341 A 
ATOM     16  C   LIG d   1      10.083   8.378  -3.104  0.00  0.00    -0.020 C 
ATOM     17  O   LIG d   1      10.146   4.685  -1.990  0.00  0.00    -0.422 OA
ATOM     18  O   LIG d   1      10.528   6.511  -0.812  0.00  0.00    -0.245 OA
ATOM     19  C   LIG d   1      10.185   8.670  -4.617  0.00  0.00    -0.045 C 
ATOM     20  H   LIG d   1      10.961   8.761  -2.584  0.00  0.00     0.032 H 
ATOM     21  H   LIG d   1       9.176   8.822  -2.694  0.00  0.00     0.032 H 
ATOM     22  H   LIG d   1      11.227   8.750  -4.928  0.00  0.00     0.027 H 
ATOM     23  H   LIG d   1       9.631   9.571  -4.878  0.00  0.00     0.027 H 
ATOM     24  H   LIG d   1      10.016   7.145  -6.163  0.00  0.00     0.031 H 
ATOM     25  H   LIG d   1       8.460   7.598  -5.404  0.00  0.00     0.031 H 
ATOM     26  C   LIG d   1       9.738   2.707  -3.249  0.00  0.00     0.023 A 
ATOM     27  H   LIG d   1       9.914   2.095  -2.377  0.00  0.00     0.069 H 
ENDBRANCH   4   5
ENDBRANCH   1   4
BRANCH   1  28
ATOM     28  C   LIG d   1       7.104  -0.130  -4.392  0.00  0.00     0.251 C 
ATOM     29  O   LIG d   1       7.301  -0.874  -3.455  0.00  0.00    -0.272 OA
ATOM     30  N   LIG d   1       5.871   0.370  -4.608  0.00  0.00    -0.304 N 
ATOM     31  H   LIG d   1       5.714   0.965  -5.358  0.00  0.00     0.149 HD
BRANCH  30  32
ATOM     32  CA  LIG d   1       4.768   0.013  -3.712  0.00  0.00     0.063 C 
ATOM     33  HA  LIG d   1       5.064  -0.833  -3.092  0.00  0.00     0.056 H 
BRANCH  32  34
ATOM     34  C   LIG d   1       3.541  -0.369  -4.542  0.00  0.00    -0.028 C 
ATOM     35  H   LIG d   1       3.182  -1.350  -4.230  0.00  0.00     0.029 H 
ATOM     36  H   LIG d   1       2.755   0.370  -4.391  0.00  0.00     0.029 H 
BRANCH  34  37
ATOM     37  C   LIG d   1       3.920  -0.413  -6.024  0.00  0.00    -0.035 C 
ATOM     38  H   LIG d   1       4.823   0.176  -6.185  0.00  0.00     0.028 H 
ATOM     39  H   LIG d   1       4.104  -1.446  -6.321  0.00  0.00     0.028 H 
BRANCH  37  40
ATOM     40  C   LIG d   1       2.778   0.164  -6.861  0.00  0.00     0.013 C 
ATOM     41  H   LIG d   1       1.948  -0.543  -6.880  0.00  0.00     0.046 H 
ATOM     42  H   LIG d   1       2.445   1.104  -6.421  0.00  0.00     0.046 H 
BRANCH  40  43
ATOM     43  N   LIG d   1       3.247   0.405  -8.228  0.00  0.00    -0.300 N 
ATOM     44  C   LIG d   1       3.242   1.655  -8.732  0.00  0.00     0.297 C 
ATOM     45  O   LIG d   1       2.848   2.583  -8.051  0.00  0.00    -0.253 OA
ATOM     46  N   LIG d   1       3.673   1.876  -9.990  0.00  0.00    -0.313 N 
ATOM     47  H   LIG d   1       3.986   1.136 -10.532  0.00  0.00     0.146 HD
ATOM     48  H   LIG d   1       3.669   2.776 -10.352  0.00  0.00     0.146 HD
ATOM     49  H   LIG d   1       3.560  -0.336  -8.771  0.00  0.00     0.150 HD
ENDBRANCH  40  43
ENDBRANCH  37  40
ENDBRANCH  34  37
ENDBRANCH  32  34
BRANCH  32  50
ATOM     50  C   LIG d   1       4.435   1.190  -2.834  0.00  0.00     0.062 C 
ATOM     51  O   LIG d   1       3.748   2.087  -3.259  0.00  0.00    -0.548 OA
ATOM     52  OXT LIG d   1       4.902   1.242  -1.576  0.00  0.00    -0.548 OA
ENDBRANCH  32  50
ENDBRANCH  30  32
ENDBRANCH   1  28
TORSDOF 9
ENDMDL
MODEL 9
REMARK VINA RESULT:      -6.8      1.820      3.108
REMARK  9 active torsions:
REMARK  status: ('A' for Active; 'I' for Inactive)
REMARK    1  A    between atoms: C_6  and  O_7 
REMARK    2  A    between atoms: O_7  and  C_8 
REMARK    3  A    between atoms: C_8  and  C_9 
REMARK       I    between atoms: C_9  and  N_11 
REMARK    4  A    between atoms: N_11  and  CA_12 
REMARK    5  A    between atoms: CA_12  and  C_14 
REMARK    6  A    between atoms: CA_12  and  C_21 
REMARK    7  A    between atoms: C_14  and  C_15 
REMARK    8  A    between atoms: C_15  and  C_16 
REMARK    9  A    between atoms: C_16  and  N_17 
REMARK       I    between atoms: N_17  and  C_18 
REMARK       I    between atoms: C_18  and  N_20 
ROOT
ATOM      1  C   LIG d   1       8.433   2.729  -4.966  0.00  0.00     0.165 C 
ATOM      2  H   LIG d   1       7.796   3.612  -4.907  0.00  0.00     0.080 H 
ATOM      3  H   LIG d   1       8.576   2.453  -6.011  0.00  0.00     0.080 H 
ENDROOT
BRANCH   1   4
ATOM      4  O   LIG d   1       9.701   3.017  -4.372  0.00  0.00    -0.483 OA
BRANCH   4   5
ATOM      5  C   LIG d   1       9.813   4.189  -3.696  0.00  0.00     0.125 A 
ATOM      6  C   LIG d   1       9.427   5.379  -4.308  0.00  0.00    -0.019 A 
ATOM      7  C   LIG d   1       9.534   6.566  -3.641  0.00  0.00    -0.047 A 
ATOM      8  H   LIG d   1       9.040   5.363  -5.316  0.00  0.00     0.065 H 
ATOM      9  C   LIG d   1      10.035   6.586  -2.335  0.00  0.00     0.021 A 
ATOM     10  H   LIG d   1       9.234   7.485  -4.121  0.00  0.00     0.063 H 
ATOM     11  C   LIG d   1      10.163   7.844  -1.596  0.00  0.00    -0.027 A 
ATOM     12  C   LIG d   1      10.426   5.386  -1.712  0.00  0.00     0.143 A 
ATOM     13  C   LIG d   1      10.649   7.804  -0.331  0.00  0.00     0.041 A 
ATOM     14  C   LIG d   1       9.834   9.266  -1.988  0.00  0.00    -0.026 C 
ATOM     15  C   LIG d   1      11.027   6.562   0.230  0.00  0.00     0.341 A 
ATOM     16  C   LIG d   1      10.704   9.201   0.249  0.00  0.00    -0.020 C 
ATOM     17  O   LIG d   1      10.908   5.413  -0.450  0.00  0.00    -0.422 OA
ATOM     18  O   LIG d   1      11.467   6.535   1.365  0.00  0.00    -0.245 OA
ATOM     19  C   LIG d   1      10.587  10.147  -0.967  0.00  0.00    -0.045 C 
ATOM     20  H   LIG d   1      11.651   9.363   0.765  0.00  0.00     0.032 H 
ATOM     21  H   LIG d   1       9.869   9.358   0.931  0.00  0.00     0.032 H 
ATOM     22  H   LIG d   1      11.573  10.422  -1.342  0.00  0.00     0.027 H 
ATOM     23  H   LIG d   1      10.006  11.034  -0.715  0.00  0.00     0.027 H 
ATOM     24  H   LIG d   1      10.187   9.472  -2.998  0.00  0.00     0.031 H 
ATOM     25  H   LIG d   1       8.760   9.440  -1.919  0.00  0.00     0.031 H 
ATOM     26  C   LIG d   1      10.310   4.190  -2.403  0.00  0.00     0.023 A 
ATOM     27  H   LIG d   1      10.607   3.264  -1.934  0.00  0.00     0.069 H 
ENDBRANCH   4   5
ENDBRANCH   1   4
BRANCH   1  28
ATOM     28  C   LIG d   1       7.781   1.588  -4.229  0.00  0.00     0.251 C 
ATOM     29  O   LIG d   1       8.423   0.597  -3.955  0.00  0.00    -0.272 OA
ATOM     30  N   LIG d   1       6.482   1.669  -3.875  0.00  0.00    -0.304 N 
ATOM     31  H   LIG d   1       5.968   2.462  -4.095  0.00  0.00     0.149 HD
BRANCH  30  32
ATOM     32  CA  LIG d   1       5.848   0.560  -3.159  0.00  0.00     0.063 C 
ATOM     33  HA  LIG d   1       6.583   0.073  -2.518  0.00  0.00     0.056 H 
BRANCH  32  34
ATOM     34  C   LIG d   1       5.303  -0.453  -4.168  0.00  0.00    -0.028 C 
ATOM     35  H   LIG d   1       4.285  -0.178  -4.444  0.00  0.00     0.029 H 
ATOM     36  H   LIG d   1       5.932  -0.455  -5.058  0.00  0.00     0.029 H 
BRANCH  34  37
ATOM     37  C   LIG d   1       5.302  -1.849  -3.542  0.00  0.00    -0.035 C 
ATOM     38  H   LIG d   1       5.723  -1.796  -2.537  0.00  0.00     0.028 H 
ATOM     39  H   LIG d   1       4.279  -2.222  -3.487  0.00  0.00     0.028 H 
BRANCH  37  40
ATOM     40  C   LIG d   1       6.145  -2.794  -4.399  0.00  0.00     0.013 C 
ATOM     41  H   LIG d   1       6.291  -3.735  -3.868  0.00  0.00     0.046 H 
ATOM     42  H   LIG d   1       5.633  -2.984  -5.342  0.00  0.00     0.046 H 
BRANCH  40  43
ATOM     43  N   LIG d   1       7.447  -2.178  -4.668  0.00  0.00    -0.300 N 
ATOM     44  C   LIG d   1       8.579  -2.797  -4.279  0.00  0.00     0.297 C 
ATOM     45  O   LIG d   1       8.519  -3.868  -3.704  0.00  0.00    -0.253 OA
ATOM     46  N   LIG d   1       9.777  -2.231  -4.526  0.00  0.00    -0.313 N 
ATOM     47  H   LIG d   1       9.824  -1.377  -4.983  0.00  0.00     0.146 HD
ATOM     48  H   LIG d   1      10.591  -2.677  -4.245  0.00  0.00     0.146 HD
ATOM     49  H   LIG d   1       7.495  -1.324  -5.126  0.00  0.00     0.150 HD
ENDBRANCH  40  43
ENDBRANCH  37  40
ENDBRANCH  34  37
ENDBRANCH  32  34
BRANCH  32  50
ATOM     50  C   LIG d   1       4.716   1.088  -2.316  0.00  0.00     0.062 C 
ATOM     51  O   LIG d   1       4.815   1.106  -1.113  0.00  0.00    -0.548 OA
ATOM     52  OXT LIG d   1       3.597   1.540  -2.904  0.00  0.00    -0.548 OA
ENDBRANCH  32  50
ENDBRANCH  30  32
ENDBRANCH   1  28
TORSDOF 9
ENDMDL
