MODEL 1
REMARK VINA RESULT:      -4.9      0.000      0.000
REMARK  6 active torsions:
REMARK  status: ('A' for Active; 'I' for Inactive)
REMARK    1  A    between atoms: C_1  and  O_2 
REMARK    2  A    between atoms: O_2  and  C_3 
REMARK    3  A    between atoms: C_8  and  O_9 
REMARK    4  A    between atoms: O_9  and  C_10 
REMARK    5  A    between atoms: CA_13  and  C_17 
REMARK    6  A    between atoms: C_14  and  C_15 
ROOT
ATOM      1  C   LIG d   1       9.949   4.640  -4.669  0.00  0.00     0.162 A 
ATOM      2  C   LIG d   1       9.771   5.660  -3.759  0.00  0.00    -0.006 A 
ATOM      3  C   LIG d   1      10.259   5.520  -2.457  0.00  0.00     0.014 A 
ATOM      4  C   LIG d   1      10.940   4.348  -2.079  0.00  0.00     0.051 A 
ATOM      5  C   LIG d   1      11.116   3.329  -3.013  0.00  0.00     0.008 A 
ATOM      6  C   LIG d   1      10.625   3.475  -4.294  0.00  0.00     0.164 A 
ATOM      7  N   LIG d   1      11.311   4.480  -0.761  0.00  0.00    -0.353 N 
ATOM      8  H   LIG d   1      11.796   3.810  -0.254  0.00  0.00     0.166 HD
ATOM      9  CA  LIG d   1      10.903   5.686  -0.268  0.00  0.00     0.073 A 
ATOM     10  C   LIG d   1      10.240   6.386  -1.269  0.00  0.00     0.048 A 
ATOM     11  H   LIG d   1       9.252   6.563  -4.049  0.00  0.00     0.066 H 
ATOM     12  H   LIG d   1      11.637   2.425  -2.734  0.00  0.00     0.068 H 
ENDROOT
BRANCH   1  13
ATOM     13  O   LIG d   1       9.471   4.771  -5.935  0.00  0.00    -0.491 OA
BRANCH  13  14
ATOM     14  C   LIG d   1      10.102   5.744  -6.770  0.00  0.00     0.079 C 
ATOM     15  H   LIG d   1      11.174   5.554  -6.802  0.00  0.00     0.066 H 
ATOM     16  H   LIG d   1       9.692   5.680  -7.777  0.00  0.00     0.066 H 
ATOM     17  H   LIG d   1       9.921   6.741  -6.367  0.00  0.00     0.066 H 
ENDBRANCH  13  14
ENDBRANCH   1  13
BRANCH   6  18
ATOM     18  O   LIG d   1      10.800   2.477  -5.200  0.00  0.00    -0.491 OA
BRANCH  18  19
ATOM     19  C   LIG d   1      10.893   1.146  -4.690  0.00  0.00     0.079 C 
ATOM     20  H   LIG d   1      10.187   1.021  -3.869  0.00  0.00     0.066 H 
ATOM     21  H   LIG d   1      10.659   0.436  -5.483  0.00  0.00     0.066 H 
ATOM     22  H   LIG d   1      11.905   0.965  -4.328  0.00  0.00     0.066 H 
ENDBRANCH  18  19
ENDBRANCH   6  18
BRANCH  10  23
ATOM     23  C   LIG d   1       9.642   7.720  -1.161  0.00  0.00     0.153 C 
ATOM     24  O   LIG d   1       8.477   7.839  -0.841  0.00  0.00    -0.296 OA
ATOM     25  H   LIG d   1      10.237   8.597  -1.367  0.00  0.00     0.108 H 
ENDBRANCH  10  23
BRANCH   9  26
ATOM     26  C   LIG d   1      11.129   6.167   1.106  0.00  0.00     0.088 C 
ATOM     27  O   LIG d   1      10.640   5.572   2.046  0.00  0.00    -0.543 OA
ATOM     28  OXT LIG d   1      11.878   7.267   1.322  0.00  0.00    -0.543 OA
ENDBRANCH   9  26
TORSDOF 6
ENDMDL
MODEL 2
REMARK VINA RESULT:      -4.8      7.270      9.540
REMARK  6 active torsions:
REMARK  status: ('A' for Active; 'I' for Inactive)
REMARK    1  A    between atoms: C_1  and  O_2 
REMARK    2  A    between atoms: O_2  and  C_3 
REMARK    3  A    between atoms: C_8  and  O_9 
REMARK    4  A    between atoms: O_9  and  C_10 
REMARK    5  A    between atoms: CA_13  and  C_17 
REMARK    6  A    between atoms: C_14  and  C_15 
ROOT
ATOM      1  C   LIG d   1       7.199  -3.806  -4.840  0.00  0.00     0.162 A 
ATOM      2  C   LIG d   1       7.181  -2.526  -4.327  0.00  0.00    -0.006 A 
ATOM      3  C   LIG d   1       5.968  -1.842  -4.215  0.00  0.00     0.014 A 
ATOM      4  C   LIG d   1       4.768  -2.460  -4.612  0.00  0.00     0.051 A 
ATOM      5  C   LIG d   1       4.803  -3.755  -5.124  0.00  0.00     0.008 A 
ATOM      6  C   LIG d   1       6.007  -4.420  -5.236  0.00  0.00     0.164 A 
ATOM      7  N   LIG d   1       3.741  -1.573  -4.389  0.00  0.00    -0.353 N 
ATOM      8  H   LIG d   1       2.806  -1.751  -4.578  0.00  0.00     0.166 HD
ATOM      9  CA  LIG d   1       4.221  -0.408  -3.863  0.00  0.00     0.073 A 
ATOM     10  C   LIG d   1       5.601  -0.505  -3.728  0.00  0.00     0.048 A 
ATOM     11  H   LIG d   1       8.102  -2.053  -4.018  0.00  0.00     0.066 H 
ATOM     12  H   LIG d   1       3.888  -4.239  -5.431  0.00  0.00     0.068 H 
ENDROOT
BRANCH   1  13
ATOM     13  O   LIG d   1       8.378  -4.474  -4.956  0.00  0.00    -0.491 OA
BRANCH  13  14
ATOM     14  C   LIG d   1       9.128  -4.679  -3.757  0.00  0.00     0.079 C 
ATOM     15  H   LIG d   1       9.107  -3.771  -3.156  0.00  0.00     0.066 H 
ATOM     16  H   LIG d   1       8.689  -5.499  -3.190  0.00  0.00     0.066 H 
ATOM     17  H   LIG d   1      10.159  -4.925  -4.011  0.00  0.00     0.066 H 
ENDBRANCH  13  14
ENDBRANCH   1  13
BRANCH   6  18
ATOM     18  O   LIG d   1       6.035  -5.684  -5.735  0.00  0.00    -0.491 OA
BRANCH  18  19
ATOM     19  C   LIG d   1       4.853  -6.472  -5.574  0.00  0.00     0.079 C 
ATOM     20  H   LIG d   1       4.275  -6.454  -6.498  0.00  0.00     0.066 H 
ATOM     21  H   LIG d   1       5.130  -7.499  -5.337  0.00  0.00     0.066 H 
ATOM     22  H   LIG d   1       4.251  -6.062  -4.763  0.00  0.00     0.066 H 
ENDBRANCH  18  19
ENDBRANCH   6  18
BRANCH  10  23
ATOM     23  C   LIG d   1       6.508   0.522  -3.205  0.00  0.00     0.153 C 
ATOM     24  O   LIG d   1       6.746   1.513  -3.864  0.00  0.00    -0.296 OA
ATOM     25  H   LIG d   1       6.964   0.396  -2.235  0.00  0.00     0.108 H 
ENDBRANCH  10  23
BRANCH   9  26
ATOM     26  C   LIG d   1       3.406   0.764  -3.498  0.00  0.00     0.088 C 
ATOM     27  O   LIG d   1       2.915   1.456  -4.367  0.00  0.00    -0.543 OA
ATOM     28  OXT LIG d   1       3.205   1.068  -2.200  0.00  0.00    -0.543 OA
ENDBRANCH   9  26
TORSDOF 6
ENDMDL
MODEL 3
REMARK VINA RESULT:      -4.8      8.066      9.903
REMARK  6 active torsions:
REMARK  status: ('A' for Active; 'I' for Inactive)
REMARK    1  A    between atoms: C_1  and  O_2 
REMARK    2  A    between atoms: O_2  and  C_3 
REMARK    3  A    between atoms: C_8  and  O_9 
REMARK    4  A    between atoms: O_9  and  C_10 
REMARK    5  A    between atoms: CA_13  and  C_17 
REMARK    6  A    between atoms: C_14  and  C_15 
ROOT
ATOM      1  C   LIG d   1       4.154  -2.275  -7.865  0.00  0.00     0.162 A 
ATOM      2  C   LIG d   1       4.672  -2.309  -6.588  0.00  0.00    -0.006 A 
ATOM      3  C   LIG d   1       4.409  -1.257  -5.706  0.00  0.00     0.014 A 
ATOM      4  C   LIG d   1       3.610  -0.174  -6.115  0.00  0.00     0.051 A 
ATOM      5  C   LIG d   1       3.090  -0.158  -7.407  0.00  0.00     0.008 A 
ATOM      6  C   LIG d   1       3.360  -1.198  -8.272  0.00  0.00     0.164 A 
ATOM      7  N   LIG d   1       3.511   0.703  -5.059  0.00  0.00    -0.353 N 
ATOM      8  H   LIG d   1       3.014   1.536  -5.077  0.00  0.00     0.166 HD
ATOM      9  CA  LIG d   1       4.210   0.235  -3.984  0.00  0.00     0.073 A 
ATOM     10  C   LIG d   1       4.796  -0.981  -4.315  0.00  0.00     0.048 A 
ATOM     11  H   LIG d   1       5.282  -3.142  -6.271  0.00  0.00     0.066 H 
ATOM     12  H   LIG d   1       2.474   0.668  -7.732  0.00  0.00     0.068 H 
ENDROOT
BRANCH   1  13
ATOM     13  O   LIG d   1       4.411  -3.294  -8.728  0.00  0.00    -0.491 OA
BRANCH  13  14
ATOM     14  C   LIG d   1       3.726  -4.527  -8.499  0.00  0.00     0.079 C 
ATOM     15  H   LIG d   1       3.062  -4.734  -9.337  0.00  0.00     0.066 H 
ATOM     16  H   LIG d   1       4.452  -5.334  -8.404  0.00  0.00     0.066 H 
ATOM     17  H   LIG d   1       3.143  -4.453  -7.581  0.00  0.00     0.066 H 
ENDBRANCH  13  14
ENDBRANCH   1  13
BRANCH   6  18
ATOM     18  O   LIG d   1       2.849  -1.177  -9.532  0.00  0.00    -0.491 OA
BRANCH  18  19
ATOM     19  C   LIG d   1       1.588  -0.528  -9.710  0.00  0.00     0.079 C 
ATOM     20  H   LIG d   1       1.712   0.333 -10.367  0.00  0.00     0.066 H 
ATOM     21  H   LIG d   1       0.880  -1.227 -10.155  0.00  0.00     0.066 H 
ATOM     22  H   LIG d   1       1.211  -0.195  -8.743  0.00  0.00     0.066 H 
ENDBRANCH  18  19
ENDBRANCH   6  18
BRANCH  10  23
ATOM     23  C   LIG d   1       5.632  -1.820  -3.450  0.00  0.00     0.153 C 
ATOM     24  O   LIG d   1       6.817  -1.584  -3.339  0.00  0.00    -0.296 OA
ATOM     25  H   LIG d   1       5.193  -2.647  -2.912  0.00  0.00     0.108 H 
ENDBRANCH  10  23
BRANCH   9  26
ATOM     26  C   LIG d   1       4.325   0.912  -2.680  0.00  0.00     0.088 C 
ATOM     27  O   LIG d   1       3.360   0.981  -1.945  0.00  0.00    -0.543 OA
ATOM     28  OXT LIG d   1       5.499   1.456  -2.302  0.00  0.00    -0.543 OA
ENDBRANCH   9  26
TORSDOF 6
ENDMDL
MODEL 4
REMARK VINA RESULT:      -4.8      8.980      9.804
REMARK  6 active torsions:
REMARK  status: ('A' for Active; 'I' for Inactive)
REMARK    1  A    between atoms: C_1  and  O_2 
REMARK    2  A    between atoms: O_2  and  C_3 
REMARK    3  A    between atoms: C_8  and  O_9 
REMARK    4  A    between atoms: O_9  and  C_10 
REMARK    5  A    between atoms: CA_13  and  C_17 
REMARK    6  A    between atoms: C_14  and  C_15 
ROOT
ATOM      1  C   LIG d   1       3.154   0.479  -8.513  0.00  0.00     0.162 A 
ATOM      2  C   LIG d   1       3.045   0.720  -7.160  0.00  0.00    -0.006 A 
ATOM      3  C   LIG d   1       3.518  -0.227  -6.248  0.00  0.00     0.014 A 
ATOM      4  C   LIG d   1       4.115  -1.415  -6.708  0.00  0.00     0.051 A 
ATOM      5  C   LIG d   1       4.223  -1.640  -8.078  0.00  0.00     0.008 A 
ATOM      6  C   LIG d   1       3.746  -0.702  -8.971  0.00  0.00     0.164 A 
ATOM      7  N   LIG d   1       4.492  -2.153  -5.609  0.00  0.00    -0.353 N 
ATOM      8  H   LIG d   1       4.928  -3.019  -5.648  0.00  0.00     0.166 HD
ATOM      9  CA  LIG d   1       4.166  -1.495  -4.458  0.00  0.00     0.073 A 
ATOM     10  C   LIG d   1       3.556  -0.288  -4.781  0.00  0.00     0.048 A 
ATOM     11  H   LIG d   1       2.591   1.635  -6.807  0.00  0.00     0.066 H 
ATOM     12  H   LIG d   1       4.679  -2.549  -8.442  0.00  0.00     0.068 H 
ENDROOT
BRANCH   1  13
ATOM     13  O   LIG d   1       2.690   1.396  -9.405  0.00  0.00    -0.491 OA
BRANCH  13  14
ATOM     14  C   LIG d   1       3.537   2.512  -9.688  0.00  0.00     0.079 C 
ATOM     15  H   LIG d   1       4.392   2.178 -10.275  0.00  0.00     0.066 H 
ATOM     16  H   LIG d   1       2.978   3.257 -10.254  0.00  0.00     0.066 H 
ATOM     17  H   LIG d   1       3.885   2.950  -8.754  0.00  0.00     0.066 H 
ENDBRANCH  13  14
ENDBRANCH   1  13
BRANCH   6  18
ATOM     18  O   LIG d   1       3.855  -0.927 -10.307  0.00  0.00    -0.491 OA
BRANCH  18  19
ATOM     19  C   LIG d   1       5.132  -0.692 -10.904  0.00  0.00     0.079 C 
ATOM     20  H   LIG d   1       5.328  -1.455 -11.656  0.00  0.00     0.066 H 
ATOM     21  H   LIG d   1       5.138   0.292 -11.373  0.00  0.00     0.066 H 
ATOM     22  H   LIG d   1       5.904  -0.731 -10.136  0.00  0.00     0.066 H 
ENDBRANCH  18  19
ENDBRANCH   6  18
BRANCH  10  23
ATOM     23  C   LIG d   1       3.052   0.721  -3.843  0.00  0.00     0.153 C 
ATOM     24  O   LIG d   1       3.621   1.787  -3.735  0.00  0.00    -0.296 OA
ATOM     25  H   LIG d   1       2.174   0.515  -3.250  0.00  0.00     0.108 H 
ENDBRANCH  10  23
BRANCH   9  26
ATOM     26  C   LIG d   1       4.421  -1.986  -3.093  0.00  0.00     0.088 C 
ATOM     27  O   LIG d   1       3.631  -2.741  -2.561  0.00  0.00    -0.543 OA
ATOM     28  OXT LIG d   1       5.531  -1.600  -2.432  0.00  0.00    -0.543 OA
ENDBRANCH   9  26
TORSDOF 6
ENDMDL
MODEL 5
REMARK VINA RESULT:      -4.7     13.549     16.147
REMARK  6 active torsions:
REMARK  status: ('A' for Active; 'I' for Inactive)
REMARK    1  A    between atoms: C_1  and  O_2 
REMARK    2  A    between atoms: O_2  and  C_3 
REMARK    3  A    between atoms: C_8  and  O_9 
REMARK    4  A    between atoms: O_9  and  C_10 
REMARK    5  A    between atoms: CA_13  and  C_17 
REMARK    6  A    between atoms: C_14  and  C_15 
ROOT
ATOM      1  C   LIG d   1       8.997  -9.289  -2.050  0.00  0.00     0.162 A 
ATOM      2  C   LIG d   1       8.048  -9.035  -3.018  0.00  0.00    -0.006 A 
ATOM      3  C   LIG d   1       6.772  -9.592  -2.899  0.00  0.00     0.014 A 
ATOM      4  C   LIG d   1       6.452 -10.398  -1.791  0.00  0.00     0.051 A 
ATOM      5  C   LIG d   1       7.421 -10.640  -0.820  0.00  0.00     0.008 A 
ATOM      6  C   LIG d   1       8.680 -10.090  -0.949  0.00  0.00     0.164 A 
ATOM      7  N   LIG d   1       5.144 -10.802  -1.925  0.00  0.00    -0.353 N 
ATOM      8  H   LIG d   1       4.673 -11.369  -1.293  0.00  0.00     0.166 HD
ATOM      9  CA  LIG d   1       4.602 -10.293  -3.070  0.00  0.00     0.073 A 
ATOM     10  C   LIG d   1       5.559  -9.529  -3.727  0.00  0.00     0.048 A 
ATOM     11  H   LIG d   1       8.292  -8.413  -3.867  0.00  0.00     0.066 H 
ATOM     12  H   LIG d   1       7.186 -11.256   0.035  0.00  0.00     0.068 H 
ENDROOT
BRANCH   1  13
ATOM     13  O   LIG d   1      10.242  -8.753  -2.165  0.00  0.00    -0.491 OA
BRANCH  13  14
ATOM     14  C   LIG d   1      10.398  -7.385  -1.782  0.00  0.00     0.079 C 
ATOM     15  H   LIG d   1      11.380  -7.031  -2.094  0.00  0.00     0.066 H 
ATOM     16  H   LIG d   1       9.626  -6.784  -2.262  0.00  0.00     0.066 H 
ATOM     17  H   LIG d   1      10.305  -7.298  -0.700  0.00  0.00     0.066 H 
ENDBRANCH  13  14
ENDBRANCH   1  13
BRANCH   6  18
ATOM     18  O   LIG d   1       9.621 -10.330   0.002  0.00  0.00    -0.491 OA
BRANCH  18  19
ATOM     19  C   LIG d   1       9.853 -11.695   0.356  0.00  0.00     0.079 C 
ATOM     20  H   LIG d   1       9.067 -12.035   1.029  0.00  0.00     0.066 H 
ATOM     21  H   LIG d   1       9.853 -12.309  -0.545  0.00  0.00     0.066 H 
ATOM     22  H   LIG d   1      10.819 -11.782   0.853  0.00  0.00     0.066 H 
ENDBRANCH  18  19
ENDBRANCH   6  18
BRANCH  10  23
ATOM     23  C   LIG d   1       5.392  -8.807  -4.992  0.00  0.00     0.153 C 
ATOM     24  O   LIG d   1       4.626  -7.868  -5.058  0.00  0.00    -0.296 OA
ATOM     25  H   LIG d   1       5.951  -9.111  -5.865  0.00  0.00     0.108 H 
ENDBRANCH  10  23
BRANCH   9  26
ATOM     26  C   LIG d   1       3.221 -10.517  -3.533  0.00  0.00     0.088 C 
ATOM     27  O   LIG d   1       2.311  -9.858  -3.072  0.00  0.00    -0.543 OA
ATOM     28  OXT LIG d   1       2.967 -11.453  -4.470  0.00  0.00    -0.543 OA
ENDBRANCH   9  26
TORSDOF 6
ENDMDL
MODEL 6
REMARK VINA RESULT:      -4.7      6.901      8.257
REMARK  6 active torsions:
REMARK  status: ('A' for Active; 'I' for Inactive)
REMARK    1  A    between atoms: C_1  and  O_2 
REMARK    2  A    between atoms: O_2  and  C_3 
REMARK    3  A    between atoms: C_8  and  O_9 
REMARK    4  A    between atoms: O_9  and  C_10 
REMARK    5  A    between atoms: CA_13  and  C_17 
REMARK    6  A    between atoms: C_14  and  C_15 
ROOT
ATOM      1  C   LIG d   1       8.501  -2.600  -4.530  0.00  0.00     0.162 A 
ATOM      2  C   LIG d   1       7.304  -2.540  -3.849  0.00  0.00    -0.006 A 
ATOM      3  C   LIG d   1       6.656  -1.312  -3.695  0.00  0.00     0.014 A 
ATOM      4  C   LIG d   1       7.216  -0.142  -4.242  0.00  0.00     0.051 A 
ATOM      5  C   LIG d   1       8.424  -0.222  -4.931  0.00  0.00     0.008 A 
ATOM      6  C   LIG d   1       9.059  -1.439  -5.073  0.00  0.00     0.164 A 
ATOM      7  N   LIG d   1       6.376   0.907  -3.949  0.00  0.00    -0.353 N 
ATOM      8  H   LIG d   1       6.530   1.828  -4.212  0.00  0.00     0.166 HD
ATOM      9  CA  LIG d   1       5.296   0.470  -3.238  0.00  0.00     0.073 A 
ATOM     10  C   LIG d   1       5.404  -0.902  -3.042  0.00  0.00     0.048 A 
ATOM     11  H   LIG d   1       6.870  -3.438  -3.432  0.00  0.00     0.066 H 
ATOM     12  H   LIG d   1       8.862   0.669  -5.356  0.00  0.00     0.068 H 
ENDROOT
BRANCH   1  13
ATOM     13  O   LIG d   1       9.137  -3.793  -4.679  0.00  0.00    -0.491 OA
BRANCH  13  14
ATOM     14  C   LIG d   1       9.175  -4.654  -3.539  0.00  0.00     0.079 C 
ATOM     15  H   LIG d   1       8.189  -4.687  -3.076  0.00  0.00     0.066 H 
ATOM     16  H   LIG d   1       9.462  -5.658  -3.852  0.00  0.00     0.066 H 
ATOM     17  H   LIG d   1       9.903  -4.276  -2.822  0.00  0.00     0.066 H 
ENDBRANCH  13  14
ENDBRANCH   1  13
BRANCH   6  18
ATOM     18  O   LIG d   1      10.237  -1.509  -5.748  0.00  0.00    -0.491 OA
BRANCH  18  19
ATOM     19  C   LIG d   1      11.378  -0.915  -5.125  0.00  0.00     0.079 C 
ATOM     20  H   LIG d   1      12.256  -1.073  -5.750  0.00  0.00     0.066 H 
ATOM     21  H   LIG d   1      11.207   0.154  -5.000  0.00  0.00     0.066 H 
ATOM     22  H   LIG d   1      11.539  -1.373  -4.150  0.00  0.00     0.066 H 
ENDBRANCH  18  19
ENDBRANCH   6  18
BRANCH  10  23
ATOM     23  C   LIG d   1       4.459  -1.766  -2.327  0.00  0.00     0.153 C 
ATOM     24  O   LIG d   1       3.901  -2.670  -2.914  0.00  0.00    -0.296 OA
ATOM     25  H   LIG d   1       4.261  -1.598  -1.280  0.00  0.00     0.108 H 
ENDBRANCH  10  23
BRANCH   9  26
ATOM     26  C   LIG d   1       4.192   1.318  -2.755  0.00  0.00     0.088 C 
ATOM     27  O   LIG d   1       3.953   1.385  -1.565  0.00  0.00    -0.543 OA
ATOM     28  OXT LIG d   1       3.447   2.021  -3.631  0.00  0.00    -0.543 OA
ENDBRANCH   9  26
TORSDOF 6
ENDMDL
MODEL 7
REMARK VINA RESULT:      -4.6      5.482      7.469
REMARK  6 active torsions:
REMARK  status: ('A' for Active; 'I' for Inactive)
REMARK    1  A    between atoms: C_1  and  O_2 
REMARK    2  A    between atoms: O_2  and  C_3 
REMARK    3  A    between atoms: C_8  and  O_9 
REMARK    4  A    between atoms: O_9  and  C_10 
REMARK    5  A    between atoms: CA_13  and  C_17 
REMARK    6  A    between atoms: C_14  and  C_15 
ROOT
ATOM      1  C   LIG d   1       8.930   1.441  -4.376  0.00  0.00     0.162 A 
ATOM      2  C   LIG d   1       7.704   1.595  -3.765  0.00  0.00    -0.006 A 
ATOM      3  C   LIG d   1       6.786   0.541  -3.777  0.00  0.00     0.014 A 
ATOM      4  C   LIG d   1       7.116  -0.677  -4.400  0.00  0.00     0.051 A 
ATOM      5  C   LIG d   1       8.362  -0.818  -5.008  0.00  0.00     0.008 A 
ATOM      6  C   LIG d   1       9.258   0.231  -4.996  0.00  0.00     0.164 A 
ATOM      7  N   LIG d   1       6.046  -1.529  -4.258  0.00  0.00    -0.353 N 
ATOM      8  H   LIG d   1       6.013  -2.437  -4.598  0.00  0.00     0.166 HD
ATOM      9  CA  LIG d   1       5.037  -0.918  -3.570  0.00  0.00     0.073 A 
ATOM     10  C   LIG d   1       5.429   0.374  -3.240  0.00  0.00     0.048 A 
ATOM     11  H   LIG d   1       7.451   2.529  -3.283  0.00  0.00     0.066 H 
ATOM     12  H   LIG d   1       8.626  -1.748  -5.488  0.00  0.00     0.068 H 
ENDROOT
BRANCH   1  13
ATOM     13  O   LIG d   1       9.824   2.466  -4.371  0.00  0.00    -0.491 OA
BRANCH  13  14
ATOM     14  C   LIG d   1      10.535   2.700  -3.154  0.00  0.00     0.079 C 
ATOM     15  H   LIG d   1      10.906   1.753  -2.762  0.00  0.00     0.066 H 
ATOM     16  H   LIG d   1      11.376   3.366  -3.347  0.00  0.00     0.066 H 
ATOM     17  H   LIG d   1       9.868   3.159  -2.426  0.00  0.00     0.066 H 
ENDBRANCH  13  14
ENDBRANCH   1  13
BRANCH   6  18
ATOM     18  O   LIG d   1      10.472   0.087  -5.590  0.00  0.00    -0.491 OA
BRANCH  18  19
ATOM     19  C   LIG d   1      11.351  -0.897  -5.041  0.00  0.00     0.079 C 
ATOM     20  H   LIG d   1      11.861  -1.420  -5.849  0.00  0.00     0.066 H 
ATOM     21  H   LIG d   1      12.087  -0.410  -4.401  0.00  0.00     0.066 H 
ATOM     22  H   LIG d   1      10.775  -1.611  -4.453  0.00  0.00     0.066 H 
ENDBRANCH  18  19
ENDBRANCH   6  18
BRANCH  10  23
ATOM     23  C   LIG d   1       4.644   1.370  -2.502  0.00  0.00     0.153 C 
ATOM     24  O   LIG d   1       3.873   2.095  -3.096  0.00  0.00    -0.296 OA
ATOM     25  H   LIG d   1       4.753   1.458  -1.432  0.00  0.00     0.108 H 
ENDBRANCH  10  23
BRANCH   9  26
ATOM     26  C   LIG d   1       3.740  -1.531  -3.232  0.00  0.00     0.088 C 
ATOM     27  O   LIG d   1       2.709  -1.031  -3.635  0.00  0.00    -0.543 OA
ATOM     28  OXT LIG d   1       3.697  -2.647  -2.477  0.00  0.00    -0.543 OA
ENDBRANCH   9  26
TORSDOF 6
ENDMDL
MODEL 8
REMARK VINA RESULT:      -4.5      8.872     11.474
REMARK  6 active torsions:
REMARK  status: ('A' for Active; 'I' for Inactive)
REMARK    1  A    between atoms: C_1  and  O_2 
REMARK    2  A    between atoms: O_2  and  C_3 
REMARK    3  A    between atoms: C_8  and  O_9 
REMARK    4  A    between atoms: O_9  and  C_10 
REMARK    5  A    between atoms: CA_13  and  C_17 
REMARK    6  A    between atoms: C_14  and  C_15 
ROOT
ATOM      1  C   LIG d   1       4.248  -1.313  -4.633  0.00  0.00     0.162 A 
ATOM      2  C   LIG d   1       4.626  -1.584  -5.930  0.00  0.00    -0.006 A 
ATOM      3  C   LIG d   1       4.071  -0.849  -6.981  0.00  0.00     0.014 A 
ATOM      4  C   LIG d   1       3.139   0.171  -6.716  0.00  0.00     0.051 A 
ATOM      5  C   LIG d   1       2.771   0.435  -5.399  0.00  0.00     0.008 A 
ATOM      6  C   LIG d   1       3.321  -0.300  -4.368  0.00  0.00     0.164 A 
ATOM      7  N   LIG d   1       2.766   0.727  -7.918  0.00  0.00    -0.353 N 
ATOM      8  H   LIG d   1       2.131   1.454  -8.017  0.00  0.00     0.166 HD
ATOM      9  CA  LIG d   1       3.416   0.113  -8.950  0.00  0.00     0.073 A 
ATOM     10  C   LIG d   1       4.245  -0.879  -8.440  0.00  0.00     0.048 A 
ATOM     11  H   LIG d   1       5.345  -2.364  -6.134  0.00  0.00     0.066 H 
ATOM     12  H   LIG d   1       2.057   1.216  -5.184  0.00  0.00     0.068 H 
ENDROOT
BRANCH   1  13
ATOM     13  O   LIG d   1       4.782  -2.029  -3.607  0.00  0.00    -0.491 OA
BRANCH  13  14
ATOM     14  C   LIG d   1       6.113  -1.695  -3.207  0.00  0.00     0.079 C 
ATOM     15  H   LIG d   1       6.076  -0.974  -2.391  0.00  0.00     0.066 H 
ATOM     16  H   LIG d   1       6.628  -2.595  -2.872  0.00  0.00     0.066 H 
ATOM     17  H   LIG d   1       6.649  -1.263  -4.051  0.00  0.00     0.066 H 
ENDBRANCH  13  14
ENDBRANCH   1  13
BRANCH   6  18
ATOM     18  O   LIG d   1       2.959  -0.037  -3.085  0.00  0.00    -0.491 OA
BRANCH  18  19
ATOM     19  C   LIG d   1       3.584   1.081  -2.450  0.00  0.00     0.079 C 
ATOM     20  H   LIG d   1       2.822   1.792  -2.133  0.00  0.00     0.066 H 
ATOM     21  H   LIG d   1       4.146   0.737  -1.582  0.00  0.00     0.066 H 
ATOM     22  H   LIG d   1       4.263   1.565  -3.153  0.00  0.00     0.066 H 
ENDBRANCH  18  19
ENDBRANCH   6  18
BRANCH  10  23
ATOM     23  C   LIG d   1       5.117  -1.776  -9.206  0.00  0.00     0.153 C 
ATOM     24  O   LIG d   1       4.677  -2.814  -9.654  0.00  0.00    -0.296 OA
ATOM     25  H   LIG d   1       6.151  -1.512  -9.370  0.00  0.00     0.108 H 
ENDBRANCH  10  23
BRANCH   9  26
ATOM     26  C   LIG d   1       3.262   0.450 -10.376  0.00  0.00     0.088 C 
ATOM     27  O   LIG d   1       3.817   1.430 -10.832  0.00  0.00    -0.543 OA
ATOM     28  OXT LIG d   1       2.506  -0.328 -11.177  0.00  0.00    -0.543 OA
ENDBRANCH   9  26
TORSDOF 6
ENDMDL
MODEL 9
REMARK VINA RESULT:      -4.5      2.995      5.286
REMARK  6 active torsions:
REMARK  status: ('A' for Active; 'I' for Inactive)
REMARK    1  A    between atoms: C_1  and  O_2 
REMARK    2  A    between atoms: O_2  and  C_3 
REMARK    3  A    between atoms: C_8  and  O_9 
REMARK    4  A    between atoms: O_9  and  C_10 
REMARK    5  A    between atoms: CA_13  and  C_17 
REMARK    6  A    between atoms: C_14  and  C_15 
ROOT
ATOM      1  C   LIG d   1      10.774   6.193  -0.364  0.00  0.00     0.162 A 
ATOM      2  C   LIG d   1      10.569   7.522  -0.059  0.00  0.00    -0.006 A 
ATOM      3  C   LIG d   1      10.171   8.409  -1.063  0.00  0.00     0.014 A 
ATOM      4  C   LIG d   1       9.968   7.946  -2.376  0.00  0.00     0.051 A 
ATOM      5  C   LIG d   1      10.175   6.599  -2.666  0.00  0.00     0.008 A 
ATOM      6  C   LIG d   1      10.574   5.733  -1.668  0.00  0.00     0.164 A 
ATOM      7  N   LIG d   1       9.578   9.016  -3.147  0.00  0.00    -0.353 N 
ATOM      8  H   LIG d   1       9.374   8.970  -4.095  0.00  0.00     0.166 HD
ATOM      9  CA  LIG d   1       9.518  10.152  -2.392  0.00  0.00     0.073 A 
ATOM     10  C   LIG d   1       9.875   9.848  -1.083  0.00  0.00     0.048 A 
ATOM     11  H   LIG d   1      10.720   7.877   0.950  0.00  0.00     0.066 H 
ATOM     12  H   LIG d   1      10.022   6.233  -3.670  0.00  0.00     0.068 H 
ENDROOT
BRANCH   1  13
ATOM     13  O   LIG d   1      11.167   5.328   0.609  0.00  0.00    -0.491 OA
BRANCH  13  14
ATOM     14  C   LIG d   1      10.949   5.730   1.963  0.00  0.00     0.079 C 
ATOM     15  H   LIG d   1      11.905   5.966   2.430  0.00  0.00     0.066 H 
ATOM     16  H   LIG d   1      10.310   6.613   1.981  0.00  0.00     0.066 H 
ATOM     17  H   LIG d   1      10.466   4.921   2.509  0.00  0.00     0.066 H 
ENDBRANCH  13  14
ENDBRANCH   1  13
BRANCH   6  18
ATOM     18  O   LIG d   1      10.774   4.420  -1.957  0.00  0.00    -0.491 OA
BRANCH  18  19
ATOM     19  C   LIG d   1       9.970   3.854  -2.995  0.00  0.00     0.079 C 
ATOM     20  H   LIG d   1      10.596   3.628  -3.857  0.00  0.00     0.066 H 
ATOM     21  H   LIG d   1       9.504   2.937  -2.633  0.00  0.00     0.066 H 
ATOM     22  H   LIG d   1       9.197   4.565  -3.284  0.00  0.00     0.066 H 
ENDBRANCH  18  19
ENDBRANCH   6  18
BRANCH  10  23
ATOM     23  C   LIG d   1       9.942  10.778   0.049  0.00  0.00     0.153 C 
ATOM     24  O   LIG d   1      11.019  11.160   0.456  0.00  0.00    -0.296 OA
ATOM     25  H   LIG d   1       9.033  11.122   0.519  0.00  0.00     0.108 H 
ENDBRANCH  10  23
BRANCH   9  26
ATOM     26  C   LIG d   1       9.135  11.487  -2.886  0.00  0.00     0.088 C 
ATOM     27  O   LIG d   1       7.995  11.695  -3.250  0.00  0.00    -0.543 OA
ATOM     28  OXT LIG d   1      10.049  12.476  -2.935  0.00  0.00    -0.543 OA
ENDBRANCH   9  26
TORSDOF 6
ENDMDL
MODEL 10
REMARK VINA RESULT:      -4.4      4.249      6.632
REMARK  6 active torsions:
REMARK  status: ('A' for Active; 'I' for Inactive)
REMARK    1  A    between atoms: C_1  and  O_2 
REMARK    2  A    between atoms: O_2  and  C_3 
REMARK    3  A    between atoms: C_8  and  O_9 
REMARK    4  A    between atoms: O_9  and  C_10 
REMARK    5  A    between atoms: CA_13  and  C_17 
REMARK    6  A    between atoms: C_14  and  C_15 
ROOT
ATOM      1  C   LIG d   1      10.501   7.630   0.126  0.00  0.00     0.162 A 
ATOM      2  C   LIG d   1      11.179   8.582   0.856  0.00  0.00    -0.006 A 
ATOM      3  C   LIG d   1      10.931   9.938   0.626  0.00  0.00     0.014 A 
ATOM      4  C   LIG d   1       9.985  10.331  -0.338  0.00  0.00     0.051 A 
ATOM      5  C   LIG d   1       9.304   9.355  -1.063  0.00  0.00     0.008 A 
ATOM      6  C   LIG d   1       9.560   8.019  -0.833  0.00  0.00     0.164 A 
ATOM      7  N   LIG d   1       9.938  11.705  -0.351  0.00  0.00    -0.353 N 
ATOM      8  H   LIG d   1       9.364  12.233  -0.928  0.00  0.00     0.166 HD
ATOM      9  CA  LIG d   1      10.812  12.221   0.563  0.00  0.00     0.073 A 
ATOM     10  C   LIG d   1      11.465  11.177   1.208  0.00  0.00     0.048 A 
ATOM     11  H   LIG d   1      11.903   8.281   1.600  0.00  0.00     0.066 H 
ATOM     12  H   LIG d   1       8.575   9.645  -1.805  0.00  0.00     0.068 H 
ENDROOT
BRANCH   1  13
ATOM     13  O   LIG d   1      10.742   6.309   0.343  0.00  0.00    -0.491 OA
BRANCH  13  14
ATOM     14  C   LIG d   1      11.016   5.912   1.688  0.00  0.00     0.079 C 
ATOM     15  H   LIG d   1      10.230   5.242   2.036  0.00  0.00     0.066 H 
ATOM     16  H   LIG d   1      11.975   5.396   1.727  0.00  0.00     0.066 H 
ATOM     17  H   LIG d   1      11.052   6.794   2.327  0.00  0.00     0.066 H 
ENDBRANCH  13  14
ENDBRANCH   1  13
BRANCH   6  18
ATOM     18  O   LIG d   1       8.892   7.073  -1.544  0.00  0.00    -0.491 OA
BRANCH  18  19
ATOM     19  C   LIG d   1       9.465   6.673  -2.791  0.00  0.00     0.079 C 
ATOM     20  H   LIG d   1       9.940   5.700  -2.677  0.00  0.00     0.066 H 
ATOM     21  H   LIG d   1       8.681   6.610  -3.547  0.00  0.00     0.066 H 
ATOM     22  H   LIG d   1      10.209   7.407  -3.101  0.00  0.00     0.066 H 
ENDBRANCH  18  19
ENDBRANCH   6  18
BRANCH  10  23
ATOM     23  C   LIG d   1      12.483  11.292   2.258  0.00  0.00     0.153 C 
ATOM     24  O   LIG d   1      12.227  10.942   3.391  0.00  0.00    -0.296 OA
ATOM     25  H   LIG d   1      13.459  11.686   2.022  0.00  0.00     0.108 H 
ENDBRANCH  10  23
BRANCH   9  26
ATOM     26  C   LIG d   1      11.027  13.656   0.823  0.00  0.00     0.088 C 
ATOM     27  O   LIG d   1      11.923  14.247   0.255  0.00  0.00    -0.543 OA
ATOM     28  OXT LIG d   1      10.229  14.312   1.689  0.00  0.00    -0.543 OA
ENDBRANCH   9  26
TORSDOF 6
ENDMDL
