MODEL 1
REMARK VINA RESULT:      -6.8      0.000      0.000
REMARK  8 active torsions:
REMARK  status: ('A' for Active; 'I' for Inactive)
REMARK    1  A    between atoms: C_1  and  O_2 
REMARK    2  A    between atoms: O_2  and  C_3 
REMARK    3  A    between atoms: C_6  and  C_9 
REMARK    4  A    between atoms: C_11  and  C_14 
REMARK    5  A    between atoms: C_23  and  C_24 
REMARK    6  A    between atoms: C_23  and  N_50 
REMARK    7  A    between atoms: C_27  and  C_29 
REMARK    8  A    between atoms: C_29  and  O_30 
ROOT
ATOM      1  C   LIG d   1       8.960   1.742  -5.359  0.00  0.00     0.068 C 
ATOM      2  H   LIG d   1       9.575   0.869  -5.575  0.00  0.00     0.096 H 
ATOM      3  C   LIG d   1       8.841   2.609  -6.621  0.00  0.00     0.065 C 
ATOM      4  C   LIG d   1       7.960   1.877  -7.602  0.00  0.00     0.156 A 
ATOM      5  C   LIG d   1       7.165   0.839  -7.260  0.00  0.00     0.190 A 
ATOM      6  C   LIG d   1       6.900   1.171  -9.371  0.00  0.00     0.243 A 
ATOM      7  N   LIG d   1       7.795   2.089  -8.933  0.00  0.00    -0.247 N 
ATOM      8  H   LIG d   1       8.246   2.790  -9.486  0.00  0.00     0.310 HD
ATOM      9  C   LIG d   1       7.064   0.301  -5.854  0.00  0.00     0.036 C 
ATOM     10  H   LIG d   1       8.392   3.570  -6.368  0.00  0.00     0.041 H 
ATOM     11  H   LIG d   1       9.828   2.764  -7.056  0.00  0.00     0.041 H 
ATOM     12  H   LIG d   1       6.550   1.069 -10.387  0.00  0.00     0.158 H 
ATOM     13  H   LIG d   1       6.020   0.115  -5.605  0.00  0.00     0.090 H 
ATOM     14  H   LIG d   1       7.632  -0.626  -5.775  0.00  0.00     0.090 H 
ATOM     15  N   LIG d   1       7.603   1.331  -4.933  0.00  0.00     0.256 N 
ATOM     16  H   LIG d   1       6.985   2.151  -4.953  0.00  0.00     0.205 HD
ATOM     17  N   LIG d   1       6.532   0.430  -8.359  0.00  0.00    -0.243 N 
ATOM     18  H   LIG d   1       5.861  -0.346  -8.405  0.00  0.00     0.311 HD
ENDROOT
BRANCH   1  19
ATOM     19  C   LIG d   1       9.599   2.547  -4.257  0.00  0.00     0.276 A 
ATOM     20  N   LIG d   1       9.284   3.767  -3.901  0.00  0.00    -0.186 NA
ATOM     21  C   LIG d   1      10.114   4.073  -2.879  0.00  0.00     0.202 A 
ATOM     22  N   LIG d   1      10.879   3.031  -2.676  0.00  0.00    -0.056 NA
ATOM     23  O   LIG d   1      10.592   2.147  -3.456  0.00  0.00    -0.332 OA
BRANCH  21  24
ATOM     24  C   LIG d   1      10.152   5.352  -2.127  0.00  0.00     0.023 A 
ATOM     25  C   LIG d   1      10.796   5.417  -0.892  0.00  0.00    -0.048 A 
ATOM     26  C   LIG d   1      10.830   6.607  -0.196  0.00  0.00    -0.019 A 
ATOM     27  H   LIG d   1      11.268   4.537  -0.481  0.00  0.00     0.063 H 
ATOM     28  C   LIG d   1      10.224   7.739  -0.724  0.00  0.00     0.120 A 
ATOM     29  H   LIG d   1      11.329   6.658   0.761  0.00  0.00     0.065 H 
ATOM     30  C   LIG d   1       9.581   7.677  -1.954  0.00  0.00    -0.019 A 
ATOM     31  C   LIG d   1       9.549   6.492  -2.657  0.00  0.00    -0.048 A 
ATOM     32  H   LIG d   1       9.111   8.558  -2.362  0.00  0.00     0.065 H 
ATOM     33  H   LIG d   1       9.054   6.444  -3.615  0.00  0.00     0.063 H 
BRANCH  28  34
ATOM     34  O   LIG d   1      10.259   8.910  -0.036  0.00  0.00    -0.495 OA
BRANCH  34  35
ATOM     35  C   LIG d   1       9.336   9.926  -0.436  0.00  0.00     0.079 C 
ATOM     36  H   LIG d   1       9.866  10.701  -0.989  0.00  0.00     0.066 H 
ATOM     37  H   LIG d   1       8.566   9.487  -1.071  0.00  0.00     0.066 H 
ATOM     38  H   LIG d   1       8.872  10.363   0.448  0.00  0.00     0.066 H 
ENDBRANCH  34  35
ENDBRANCH  28  34
ENDBRANCH  21  24
ENDBRANCH   1  19
BRANCH  15  39
ATOM     39  C   LIG d   1       7.647   0.799  -3.555  0.00  0.00     0.029 C 
ATOM     40  H   LIG d   1       8.293  -0.077  -3.502  0.00  0.00     0.090 H 
ATOM     41  H   LIG d   1       8.030   1.572  -2.889  0.00  0.00     0.090 H 
BRANCH  39  42
ATOM     42  C   LIG d   1       6.250   0.421  -3.138  0.00  0.00     0.150 A 
ATOM     43  O   LIG d   1       5.764  -0.828  -3.062  0.00  0.00    -0.457 OA
ATOM     44  C   LIG d   1       4.485  -0.787  -2.653  0.00  0.00     0.131 A 
ATOM     45  C   LIG d   1       4.137   0.499  -2.472  0.00  0.00    -0.018 A 
ATOM     46  C   LIG d   1       5.275   1.279  -2.784  0.00  0.00    -0.015 A 
ATOM     47  H   LIG d   1       3.174   0.867  -2.150  0.00  0.00     0.065 H 
ATOM     48  H   LIG d   1       5.348   2.355  -2.747  0.00  0.00     0.065 H 
BRANCH  44  49
ATOM     49  C   LIG d   1       3.589  -1.980  -2.441  0.00  0.00     0.102 C 
ATOM     50  H   LIG d   1       3.642  -2.293  -1.399  0.00  0.00     0.064 H 
ATOM     51  H   LIG d   1       2.562  -1.711  -2.689  0.00  0.00     0.064 H 
BRANCH  49  52
ATOM     52  O   LIG d   1       4.016  -3.053  -3.283  0.00  0.00    -0.387 OA
ATOM     53  H   LIG d   1       3.847  -2.907  -4.223  0.00  0.00     0.210 HD
ENDBRANCH  49  52
ENDBRANCH  44  49
ENDBRANCH  39  42
ENDBRANCH  15  39
TORSDOF 8
ENDMDL
MODEL 2
REMARK VINA RESULT:      -6.6      2.553      4.078
REMARK  8 active torsions:
REMARK  status: ('A' for Active; 'I' for Inactive)
REMARK    1  A    between atoms: C_1  and  O_2 
REMARK    2  A    between atoms: O_2  and  C_3 
REMARK    3  A    between atoms: C_6  and  C_9 
REMARK    4  A    between atoms: C_11  and  C_14 
REMARK    5  A    between atoms: C_23  and  C_24 
REMARK    6  A    between atoms: C_23  and  N_50 
REMARK    7  A    between atoms: C_27  and  C_29 
REMARK    8  A    between atoms: C_29  and  O_30 
ROOT
ATOM      1  C   LIG d   1       6.113  -0.375  -7.741  0.00  0.00     0.068 C 
ATOM      2  H   LIG d   1       6.468  -1.144  -8.427  0.00  0.00     0.096 H 
ATOM      3  C   LIG d   1       5.368   0.711  -8.531  0.00  0.00     0.065 C 
ATOM      4  C   LIG d   1       4.060   0.124  -8.998  0.00  0.00     0.156 A 
ATOM      5  C   LIG d   1       3.531  -1.014  -8.495  0.00  0.00     0.190 A 
ATOM      6  C   LIG d   1       2.173  -0.297 -10.005  0.00  0.00     0.243 A 
ATOM      7  N   LIG d   1       3.205   0.579  -9.950  0.00  0.00    -0.247 N 
ATOM      8  H   LIG d   1       3.314   1.403 -10.505  0.00  0.00     0.310 HD
ATOM      9  C   LIG d   1       4.188  -1.821  -7.403  0.00  0.00     0.036 C 
ATOM     10  H   LIG d   1       5.177   1.570  -7.887  0.00  0.00     0.041 H 
ATOM     11  H   LIG d   1       5.963   1.016  -9.391  0.00  0.00     0.041 H 
ATOM     12  H   LIG d   1       1.320  -0.224 -10.663  0.00  0.00     0.158 H 
ATOM     13  H   LIG d   1       3.441  -2.124  -6.670  0.00  0.00     0.090 H 
ATOM     14  H   LIG d   1       4.661  -2.704  -7.833  0.00  0.00     0.090 H 
ATOM     15  N   LIG d   1       5.191  -0.954  -6.739  0.00  0.00     0.256 N 
ATOM     16  H   LIG d   1       4.704  -0.191  -6.254  0.00  0.00     0.205 HD
ATOM     17  N   LIG d   1       2.381  -1.245  -9.129  0.00  0.00    -0.243 N 
ATOM     18  H   LIG d   1       1.757  -2.042  -8.957  0.00  0.00     0.311 HD
ENDROOT
BRANCH   1  19
ATOM     19  C   LIG d   1       7.290   0.243  -7.029  0.00  0.00     0.276 A 
ATOM     20  N   LIG d   1       7.286   1.361  -6.347  0.00  0.00    -0.186 NA
ATOM     21  C   LIG d   1       8.551   1.512  -5.893  0.00  0.00     0.202 A 
ATOM     22  N   LIG d   1       9.242   0.488  -6.322  0.00  0.00    -0.056 NA
ATOM     23  O   LIG d   1       8.530  -0.251  -6.971  0.00  0.00    -0.332 OA
BRANCH  21  24
ATOM     24  C   LIG d   1       9.061   2.632  -5.063  0.00  0.00     0.023 A 
ATOM     25  C   LIG d   1       9.268   3.887  -5.634  0.00  0.00    -0.048 A 
ATOM     26  C   LIG d   1       9.742   4.925  -4.861  0.00  0.00    -0.019 A 
ATOM     27  H   LIG d   1       9.057   4.045  -6.682  0.00  0.00     0.063 H 
ATOM     28  C   LIG d   1      10.013   4.722  -3.514  0.00  0.00     0.120 A 
ATOM     29  H   LIG d   1       9.903   5.898  -5.303  0.00  0.00     0.065 H 
ATOM     30  C   LIG d   1       9.808   3.473  -2.943  0.00  0.00    -0.019 A 
ATOM     31  C   LIG d   1       9.329   2.433  -3.710  0.00  0.00    -0.048 A 
ATOM     32  H   LIG d   1      10.020   3.318  -1.896  0.00  0.00     0.065 H 
ATOM     33  H   LIG d   1       9.165   1.463  -3.264  0.00  0.00     0.063 H 
BRANCH  28  34
ATOM     34  O   LIG d   1      10.480   5.747  -2.755  0.00  0.00    -0.495 OA
BRANCH  34  35
ATOM     35  C   LIG d   1       9.522   6.707  -2.302  0.00  0.00     0.079 C 
ATOM     36  H   LIG d   1       9.703   7.662  -2.794  0.00  0.00     0.066 H 
ATOM     37  H   LIG d   1       8.517   6.359  -2.540  0.00  0.00     0.066 H 
ATOM     38  H   LIG d   1       9.616   6.831  -1.222  0.00  0.00     0.066 H 
ENDBRANCH  34  35
ENDBRANCH  28  34
ENDBRANCH  21  24
ENDBRANCH   1  19
BRANCH  15  39
ATOM     39  C   LIG d   1       5.955  -1.740  -5.746  0.00  0.00     0.029 C 
ATOM     40  H   LIG d   1       5.867  -2.807  -5.951  0.00  0.00     0.090 H 
ATOM     41  H   LIG d   1       7.004  -1.446  -5.793  0.00  0.00     0.090 H 
BRANCH  39  42
ATOM     42  C   LIG d   1       5.410  -1.444  -4.373  0.00  0.00     0.150 A 
ATOM     43  O   LIG d   1       5.359  -0.234  -3.792  0.00  0.00    -0.457 OA
ATOM     44  C   LIG d   1       4.809  -0.347  -2.572  0.00  0.00     0.131 A 
ATOM     45  C   LIG d   1       4.512  -1.641  -2.357  0.00  0.00    -0.018 A 
ATOM     46  C   LIG d   1       4.899  -2.349  -3.518  0.00  0.00    -0.015 A 
ATOM     47  H   LIG d   1       4.063  -2.060  -1.468  0.00  0.00     0.065 H 
ATOM     48  H   LIG d   1       4.803  -3.411  -3.687  0.00  0.00     0.065 H 
BRANCH  44  49
ATOM     49  C   LIG d   1       4.574   0.784  -1.604  0.00  0.00     0.102 C 
ATOM     50  H   LIG d   1       4.431   0.381  -0.603  0.00  0.00     0.064 H 
ATOM     51  H   LIG d   1       5.437   1.451  -1.609  0.00  0.00     0.064 H 
BRANCH  49  52
ATOM     52  O   LIG d   1       3.408   1.512  -1.996  0.00  0.00    -0.387 OA
ATOM     53  H   LIG d   1       2.968   1.971  -1.268  0.00  0.00     0.210 HD
ENDBRANCH  49  52
ENDBRANCH  44  49
ENDBRANCH  39  42
ENDBRANCH  15  39
TORSDOF 8
ENDMDL
MODEL 3
REMARK VINA RESULT:      -6.5      6.283     11.540
REMARK  8 active torsions:
REMARK  status: ('A' for Active; 'I' for Inactive)
REMARK    1  A    between atoms: C_1  and  O_2 
REMARK    2  A    between atoms: O_2  and  C_3 
REMARK    3  A    between atoms: C_6  and  C_9 
REMARK    4  A    between atoms: C_11  and  C_14 
REMARK    5  A    between atoms: C_23  and  C_24 
REMARK    6  A    between atoms: C_23  and  N_50 
REMARK    7  A    between atoms: C_27  and  C_29 
REMARK    8  A    between atoms: C_29  and  O_30 
ROOT
ATOM      1  C   LIG d   1       5.087  -2.696  -4.757  0.00  0.00     0.068 C 
ATOM      2  H   LIG d   1       6.169  -2.629  -4.640  0.00  0.00     0.096 H 
ATOM      3  C   LIG d   1       4.411  -2.482  -3.395  0.00  0.00     0.065 C 
ATOM      4  C   LIG d   1       4.566  -1.028  -3.028  0.00  0.00     0.156 A 
ATOM      5  C   LIG d   1       4.920  -0.068  -3.912  0.00  0.00     0.190 A 
ATOM      6  C   LIG d   1       4.656   0.895  -2.004  0.00  0.00     0.243 A 
ATOM      7  N   LIG d   1       4.399  -0.423  -1.823  0.00  0.00    -0.247 N 
ATOM      8  H   LIG d   1       4.135  -0.864  -0.966  0.00  0.00     0.310 HD
ATOM      9  C   LIG d   1       5.191  -0.345  -5.370  0.00  0.00     0.036 C 
ATOM     10  H   LIG d   1       3.353  -2.733  -3.465  0.00  0.00     0.041 H 
ATOM     11  H   LIG d   1       4.891  -3.106  -2.642  0.00  0.00     0.041 H 
ATOM     12  H   LIG d   1       4.613   1.655  -1.239  0.00  0.00     0.158 H 
ATOM     13  H   LIG d   1       4.716   0.419  -5.984  0.00  0.00     0.090 H 
ATOM     14  H   LIG d   1       6.266  -0.346  -5.549  0.00  0.00     0.090 H 
ATOM     15  N   LIG d   1       4.600  -1.665  -5.700  0.00  0.00     0.256 N 
ATOM     16  H   LIG d   1       3.578  -1.600  -5.623  0.00  0.00     0.205 HD
ATOM     17  N   LIG d   1       4.967   1.092  -3.259  0.00  0.00    -0.243 N 
ATOM     18  H   LIG d   1       5.209   1.999  -3.675  0.00  0.00     0.311 HD
ENDROOT
BRANCH   1  19
ATOM     19  C   LIG d   1       4.723  -4.059  -5.288  0.00  0.00     0.276 A 
ATOM     20  N   LIG d   1       5.464  -5.138  -5.234  0.00  0.00    -0.186 NA
ATOM     21  C   LIG d   1       4.735  -6.109  -5.828  0.00  0.00     0.202 A 
ATOM     22  N   LIG d   1       3.605  -5.569  -6.205  0.00  0.00    -0.056 NA
ATOM     23  O   LIG d   1       3.582  -4.395  -5.898  0.00  0.00    -0.332 OA
BRANCH  21  24
ATOM     24  C   LIG d   1       5.140  -7.524  -6.018  0.00  0.00     0.023 A 
ATOM     25  C   LIG d   1       4.650  -8.252  -7.101  0.00  0.00    -0.048 A 
ATOM     26  C   LIG d   1       5.028  -9.566  -7.275  0.00  0.00    -0.019 A 
ATOM     27  H   LIG d   1       3.975  -7.786  -7.804  0.00  0.00     0.063 H 
ATOM     28  C   LIG d   1       5.897 -10.165  -6.372  0.00  0.00     0.120 A 
ATOM     29  H   LIG d   1       4.649 -10.130  -8.115  0.00  0.00     0.065 H 
ATOM     30  C   LIG d   1       6.386  -9.443  -5.291  0.00  0.00    -0.019 A 
ATOM     31  C   LIG d   1       6.015  -8.127  -5.115  0.00  0.00    -0.048 A 
ATOM     32  H   LIG d   1       7.060  -9.911  -4.590  0.00  0.00     0.065 H 
ATOM     33  H   LIG d   1       6.400  -7.564  -4.278  0.00  0.00     0.063 H 
BRANCH  28  34
ATOM     34  O   LIG d   1       6.268 -11.460  -6.546  0.00  0.00    -0.495 OA
BRANCH  34  35
ATOM     35  C   LIG d   1       5.494 -12.453  -5.869  0.00  0.00     0.079 C 
ATOM     36  H   LIG d   1       5.304 -12.131  -4.845  0.00  0.00     0.066 H 
ATOM     37  H   LIG d   1       4.546 -12.592  -6.389  0.00  0.00     0.066 H 
ATOM     38  H   LIG d   1       6.043 -13.396  -5.857  0.00  0.00     0.066 H 
ENDBRANCH  34  35
ENDBRANCH  28  34
ENDBRANCH  21  24
ENDBRANCH   1  19
BRANCH  15  39
ATOM     39  C   LIG d   1       4.952  -2.041  -7.085  0.00  0.00     0.029 C 
ATOM     40  H   LIG d   1       5.845  -1.509  -7.412  0.00  0.00     0.090 H 
ATOM     41  H   LIG d   1       5.135  -3.115  -7.125  0.00  0.00     0.090 H 
BRANCH  39  42
ATOM     42  C   LIG d   1       3.799  -1.693  -7.989  0.00  0.00     0.150 A 
ATOM     43  O   LIG d   1       3.272  -2.490  -8.933  0.00  0.00    -0.457 OA
ATOM     44  C   LIG d   1       2.257  -1.854  -9.541  0.00  0.00     0.131 A 
ATOM     45  C   LIG d   1       2.133  -0.631  -8.994  0.00  0.00    -0.018 A 
ATOM     46  C   LIG d   1       3.127  -0.527  -7.994  0.00  0.00    -0.015 A 
ATOM     47  H   LIG d   1       1.412   0.126  -9.265  0.00  0.00     0.065 H 
ATOM     48  H   LIG d   1       3.311   0.324  -7.355  0.00  0.00     0.065 H 
BRANCH  44  49
ATOM     49  C   LIG d   1       1.407  -2.412 -10.653  0.00  0.00     0.102 C 
ATOM     50  H   LIG d   1       0.901  -1.596 -11.167  0.00  0.00     0.064 H 
ATOM     51  H   LIG d   1       2.041  -2.950 -11.359  0.00  0.00     0.064 H 
BRANCH  49  52
ATOM     52  O   LIG d   1       0.435  -3.307 -10.108  0.00  0.00    -0.387 OA
ATOM     53  H   LIG d   1      -0.362  -3.398 -10.647  0.00  0.00     0.210 HD
ENDBRANCH  49  52
ENDBRANCH  44  49
ENDBRANCH  39  42
ENDBRANCH  15  39
TORSDOF 8
ENDMDL
MODEL 4
REMARK VINA RESULT:      -6.5      6.031      9.268
REMARK  8 active torsions:
REMARK  status: ('A' for Active; 'I' for Inactive)
REMARK    1  A    between atoms: C_1  and  O_2 
REMARK    2  A    between atoms: O_2  and  C_3 
REMARK    3  A    between atoms: C_6  and  C_9 
REMARK    4  A    between atoms: C_11  and  C_14 
REMARK    5  A    between atoms: C_23  and  C_24 
REMARK    6  A    between atoms: C_23  and  N_50 
REMARK    7  A    between atoms: C_27  and  C_29 
REMARK    8  A    between atoms: C_29  and  O_30 
ROOT
ATOM      1  C   LIG d   1      10.852   6.165  -0.044  0.00  0.00     0.068 C 
ATOM      2  H   LIG d   1       9.997   5.525   0.175  0.00  0.00     0.096 H 
ATOM      3  C   LIG d   1      12.034   5.300  -0.506  0.00  0.00     0.065 C 
ATOM      4  C   LIG d   1      11.711   4.776  -1.882  0.00  0.00     0.156 A 
ATOM      5  C   LIG d   1      10.730   5.283  -2.662  0.00  0.00     0.190 A 
ATOM      6  C   LIG d   1      11.649   3.675  -3.763  0.00  0.00     0.243 A 
ATOM      7  N   LIG d   1      12.293   3.763  -2.574  0.00  0.00    -0.247 N 
ATOM      8  H   LIG d   1      13.053   3.190  -2.267  0.00  0.00     0.310 HD
ATOM      9  C   LIG d   1       9.851   6.435  -2.245  0.00  0.00     0.036 C 
ATOM     10  H   LIG d   1      12.940   5.905  -0.545  0.00  0.00     0.041 H 
ATOM     11  H   LIG d   1      12.173   4.467   0.183  0.00  0.00     0.041 H 
ATOM     12  H   LIG d   1      11.869   2.966  -4.547  0.00  0.00     0.158 H 
ATOM     13  H   LIG d   1       9.741   7.133  -3.074  0.00  0.00     0.090 H 
ATOM     14  H   LIG d   1       8.872   6.060  -1.946  0.00  0.00     0.090 H 
ATOM     15  N   LIG d   1      10.518   7.130  -1.116  0.00  0.00     0.256 N 
ATOM     16  H   LIG d   1      11.386   7.561  -1.457  0.00  0.00     0.205 HD
ATOM     17  N   LIG d   1      10.716   4.591  -3.801  0.00  0.00    -0.243 N 
ATOM     18  H   LIG d   1      10.073   4.750  -4.586  0.00  0.00     0.311 HD
ENDROOT
BRANCH   1  19
ATOM     19  C   LIG d   1      11.242   6.925   1.198  0.00  0.00     0.276 A 
ATOM     20  N   LIG d   1      11.010   6.564   2.435  0.00  0.00    -0.186 NA
ATOM     21  C   LIG d   1      11.535   7.545   3.204  0.00  0.00     0.202 A 
ATOM     22  N   LIG d   1      12.049   8.436   2.396  0.00  0.00    -0.056 NA
ATOM     23  O   LIG d   1      11.893   8.091   1.243  0.00  0.00    -0.332 OA
BRANCH  21  24
ATOM     24  C   LIG d   1      11.529   7.601   4.686  0.00  0.00     0.023 A 
ATOM     25  C   LIG d   1      11.892   8.776   5.342  0.00  0.00    -0.048 A 
ATOM     26  C   LIG d   1      11.886   8.825   6.721  0.00  0.00    -0.019 A 
ATOM     27  H   LIG d   1      12.178   9.648   4.772  0.00  0.00     0.063 H 
ATOM     28  C   LIG d   1      11.517   7.705   7.454  0.00  0.00     0.120 A 
ATOM     29  H   LIG d   1      12.167   9.736   7.229  0.00  0.00     0.065 H 
ATOM     30  C   LIG d   1      11.156   6.533   6.803  0.00  0.00    -0.019 A 
ATOM     31  C   LIG d   1      11.155   6.480   5.426  0.00  0.00    -0.048 A 
ATOM     32  H   LIG d   1      10.871   5.664   7.377  0.00  0.00     0.065 H 
ATOM     33  H   LIG d   1      10.869   5.570   4.920  0.00  0.00     0.063 H 
BRANCH  28  34
ATOM     34  O   LIG d   1      11.512   7.757   8.812  0.00  0.00    -0.495 OA
BRANCH  34  35
ATOM     35  C   LIG d   1      10.364   7.223   9.477  0.00  0.00     0.079 C 
ATOM     36  H   LIG d   1       9.914   6.447   8.859  0.00  0.00     0.066 H 
ATOM     37  H   LIG d   1      10.664   6.799  10.435  0.00  0.00     0.066 H 
ATOM     38  H   LIG d   1       9.638   8.020   9.643  0.00  0.00     0.066 H 
ENDBRANCH  34  35
ENDBRANCH  28  34
ENDBRANCH  21  24
ENDBRANCH   1  19
BRANCH  15  39
ATOM     39  C   LIG d   1       9.634   8.188  -0.585  0.00  0.00     0.029 C 
ATOM     40  H   LIG d   1       8.587   7.916  -0.717  0.00  0.00     0.090 H 
ATOM     41  H   LIG d   1       9.843   8.325   0.476  0.00  0.00     0.090 H 
BRANCH  39  42
ATOM     42  C   LIG d   1       9.918   9.471  -1.322  0.00  0.00     0.150 A 
ATOM     43  O   LIG d   1       8.998  10.345  -1.761  0.00  0.00    -0.457 OA
ATOM     44  C   LIG d   1       9.611  11.372  -2.371  0.00  0.00     0.131 A 
ATOM     45  C   LIG d   1      10.938  11.157  -2.336  0.00  0.00    -0.018 A 
ATOM     46  C   LIG d   1      11.137   9.931  -1.660  0.00  0.00    -0.015 A 
ATOM     47  H   LIG d   1      11.706  11.797  -2.745  0.00  0.00     0.065 H 
ATOM     48  H   LIG d   1      12.084   9.455  -1.453  0.00  0.00     0.065 H 
BRANCH  44  49
ATOM     49  C   LIG d   1       8.927  12.561  -2.996  0.00  0.00     0.102 C 
ATOM     50  H   LIG d   1       9.048  13.430  -2.351  0.00  0.00     0.064 H 
ATOM     51  H   LIG d   1       9.374  12.766  -3.970  0.00  0.00     0.064 H 
BRANCH  49  52
ATOM     52  O   LIG d   1       7.536  12.279  -3.161  0.00  0.00    -0.387 OA
ATOM     53  H   LIG d   1       7.244  11.469  -2.721  0.00  0.00     0.210 HD
ENDBRANCH  49  52
ENDBRANCH  44  49
ENDBRANCH  39  42
ENDBRANCH  15  39
TORSDOF 8
ENDMDL
MODEL 5
REMARK VINA RESULT:      -6.5      6.057     11.562
REMARK  8 active torsions:
REMARK  status: ('A' for Active; 'I' for Inactive)
REMARK    1  A    between atoms: C_1  and  O_2 
REMARK    2  A    between atoms: O_2  and  C_3 
REMARK    3  A    between atoms: C_6  and  C_9 
REMARK    4  A    between atoms: C_11  and  C_14 
REMARK    5  A    between atoms: C_23  and  C_24 
REMARK    6  A    between atoms: C_23  and  N_50 
REMARK    7  A    between atoms: C_27  and  C_29 
REMARK    8  A    between atoms: C_29  and  O_30 
ROOT
ATOM      1  C   LIG d   1       5.053  -2.672  -4.766  0.00  0.00     0.068 C 
ATOM      2  H   LIG d   1       6.136  -2.567  -4.692  0.00  0.00     0.096 H 
ATOM      3  C   LIG d   1       4.426  -2.478  -3.378  0.00  0.00     0.065 C 
ATOM      4  C   LIG d   1       4.545  -1.018  -3.018  0.00  0.00     0.156 A 
ATOM      5  C   LIG d   1       4.829  -0.049  -3.917  0.00  0.00     0.190 A 
ATOM      6  C   LIG d   1       4.609   0.908  -2.001  0.00  0.00     0.243 A 
ATOM      7  N   LIG d   1       4.405  -0.417  -1.809  0.00  0.00    -0.247 N 
ATOM      8  H   LIG d   1       4.191  -0.865  -0.941  0.00  0.00     0.310 HD
ATOM      9  C   LIG d   1       5.051  -0.319  -5.384  0.00  0.00     0.036 C 
ATOM     10  H   LIG d   1       3.374  -2.765  -3.405  0.00  0.00     0.041 H 
ATOM     11  H   LIG d   1       4.957  -3.083  -2.644  0.00  0.00     0.041 H 
ATOM     12  H   LIG d   1       4.570   1.669  -1.234  0.00  0.00     0.158 H 
ATOM     13  H   LIG d   1       4.526   0.427  -5.979  0.00  0.00     0.090 H 
ATOM     14  H   LIG d   1       6.118  -0.283  -5.606  0.00  0.00     0.090 H 
ATOM     15  N   LIG d   1       4.493  -1.659  -5.689  0.00  0.00     0.256 N 
ATOM     16  H   LIG d   1       3.473  -1.630  -5.571  0.00  0.00     0.205 HD
ATOM     17  N   LIG d   1       4.862   1.114  -3.267  0.00  0.00    -0.243 N 
ATOM     18  H   LIG d   1       5.056   2.028  -3.693  0.00  0.00     0.311 HD
ENDROOT
BRANCH   1  19
ATOM     19  C   LIG d   1       4.716  -4.047  -5.280  0.00  0.00     0.276 A 
ATOM     20  N   LIG d   1       5.459  -5.121  -5.176  0.00  0.00    -0.186 NA
ATOM     21  C   LIG d   1       4.757  -6.108  -5.776  0.00  0.00     0.202 A 
ATOM     22  N   LIG d   1       3.640  -5.582  -6.207  0.00  0.00    -0.056 NA
ATOM     23  O   LIG d   1       3.601  -4.402  -5.926  0.00  0.00    -0.332 OA
BRANCH  21  24
ATOM     24  C   LIG d   1       5.175  -7.524  -5.919  0.00  0.00     0.023 A 
ATOM     25  C   LIG d   1       4.603  -8.325  -6.907  0.00  0.00    -0.048 A 
ATOM     26  C   LIG d   1       4.993  -9.641  -7.038  0.00  0.00    -0.019 A 
ATOM     27  H   LIG d   1       3.854  -7.915  -7.568  0.00  0.00     0.063 H 
ATOM     28  C   LIG d   1       5.957 -10.168  -6.188  0.00  0.00     0.120 A 
ATOM     29  H   LIG d   1       4.550 -10.262  -7.803  0.00  0.00     0.065 H 
ATOM     30  C   LIG d   1       6.528  -9.373  -5.203  0.00  0.00    -0.019 A 
ATOM     31  C   LIG d   1       6.146  -8.056  -5.071  0.00  0.00    -0.048 A 
ATOM     32  H   LIG d   1       7.276  -9.786  -4.544  0.00  0.00     0.065 H 
ATOM     33  H   LIG d   1       6.594  -7.436  -4.309  0.00  0.00     0.063 H 
BRANCH  28  34
ATOM     34  O   LIG d   1       6.340 -11.465  -6.320  0.00  0.00    -0.495 OA
BRANCH  34  35
ATOM     35  C   LIG d   1       5.325 -12.460  -6.166  0.00  0.00     0.079 C 
ATOM     36  H   LIG d   1       4.992 -12.482  -5.128  0.00  0.00     0.066 H 
ATOM     37  H   LIG d   1       4.481 -12.223  -6.814  0.00  0.00     0.066 H 
ATOM     38  H   LIG d   1       5.729 -13.436  -6.438  0.00  0.00     0.066 H 
ENDBRANCH  34  35
ENDBRANCH  28  34
ENDBRANCH  21  24
ENDBRANCH   1  19
BRANCH  15  39
ATOM     39  C   LIG d   1       4.803  -2.026  -7.087  0.00  0.00     0.029 C 
ATOM     40  H   LIG d   1       5.877  -1.985  -7.266  0.00  0.00     0.090 H 
ATOM     41  H   LIG d   1       4.442  -3.037  -7.277  0.00  0.00     0.090 H 
BRANCH  39  42
ATOM     42  C   LIG d   1       4.102  -1.060  -8.007  0.00  0.00     0.150 A 
ATOM     43  O   LIG d   1       4.687  -0.327  -8.968  0.00  0.00    -0.457 OA
ATOM     44  C   LIG d   1       3.758   0.418  -9.590  0.00  0.00     0.131 A 
ATOM     45  C   LIG d   1       2.565   0.172  -9.020  0.00  0.00    -0.018 A 
ATOM     46  C   LIG d   1       2.786  -0.781  -8.000  0.00  0.00    -0.015 A 
ATOM     47  H   LIG d   1       1.618   0.617  -9.291  0.00  0.00     0.065 H 
ATOM     48  H   LIG d   1       2.043  -1.204  -7.341  0.00  0.00     0.065 H 
BRANCH  44  49
ATOM     49  C   LIG d   1       4.012   1.373 -10.728  0.00  0.00     0.102 C 
ATOM     50  H   LIG d   1       3.136   2.004 -10.874  0.00  0.00     0.064 H 
ATOM     51  H   LIG d   1       4.875   1.996 -10.493  0.00  0.00     0.064 H 
BRANCH  49  52
ATOM     52  O   LIG d   1       4.270   0.633 -11.923  0.00  0.00    -0.387 OA
ATOM     53  H   LIG d   1       3.529   0.615 -12.543  0.00  0.00     0.210 HD
ENDBRANCH  49  52
ENDBRANCH  44  49
ENDBRANCH  39  42
ENDBRANCH  15  39
TORSDOF 8
ENDMDL
MODEL 6
REMARK VINA RESULT:      -6.3      6.499      9.334
REMARK  8 active torsions:
REMARK  status: ('A' for Active; 'I' for Inactive)
REMARK    1  A    between atoms: C_1  and  O_2 
REMARK    2  A    between atoms: O_2  and  C_3 
REMARK    3  A    between atoms: C_6  and  C_9 
REMARK    4  A    between atoms: C_11  and  C_14 
REMARK    5  A    between atoms: C_23  and  C_24 
REMARK    6  A    between atoms: C_23  and  N_50 
REMARK    7  A    between atoms: C_27  and  C_29 
REMARK    8  A    between atoms: C_29  and  O_30 
ROOT
ATOM      1  C   LIG d   1       4.730  -5.922  -7.637  0.00  0.00     0.068 C 
ATOM      2  H   LIG d   1       5.579  -5.748  -8.299  0.00  0.00     0.096 H 
ATOM      3  C   LIG d   1       3.424  -5.757  -8.427  0.00  0.00     0.065 C 
ATOM      4  C   LIG d   1       3.299  -6.933  -9.362  0.00  0.00     0.156 A 
ATOM      5  C   LIG d   1       4.030  -8.064  -9.240  0.00  0.00     0.190 A 
ATOM      6  C   LIG d   1       2.749  -8.318 -10.953  0.00  0.00     0.243 A 
ATOM      7  N   LIG d   1       2.490  -7.091 -10.442  0.00  0.00    -0.247 N 
ATOM      8  H   LIG d   1       1.828  -6.429 -10.793  0.00  0.00     0.310 HD
ATOM      9  C   LIG d   1       5.048  -8.279  -8.148  0.00  0.00     0.036 C 
ATOM     10  H   LIG d   1       2.578  -5.740  -7.741  0.00  0.00     0.041 H 
ATOM     11  H   LIG d   1       3.454  -4.831  -9.001  0.00  0.00     0.041 H 
ATOM     12  H   LIG d   1       2.273  -8.752 -11.820  0.00  0.00     0.158 H 
ATOM     13  H   LIG d   1       4.942  -9.283  -7.739  0.00  0.00     0.090 H 
ATOM     14  H   LIG d   1       6.052  -8.149  -8.552  0.00  0.00     0.090 H 
ATOM     15  N   LIG d   1       4.779  -7.290  -7.075  0.00  0.00     0.256 N 
ATOM     16  H   LIG d   1       3.872  -7.505  -6.645  0.00  0.00     0.205 HD
ATOM     17  N   LIG d   1       3.673  -8.889 -10.224  0.00  0.00    -0.243 N 
ATOM     18  H   LIG d   1       4.062  -9.825 -10.385  0.00  0.00     0.311 HD
ENDROOT
BRANCH   1  19
ATOM     19  C   LIG d   1       4.763  -4.924  -6.508  0.00  0.00     0.276 A 
ATOM     20  N   LIG d   1       5.445  -3.807  -6.477  0.00  0.00    -0.186 NA
ATOM     21  C   LIG d   1       5.167  -3.245  -5.278  0.00  0.00     0.202 A 
ATOM     22  N   LIG d   1       4.342  -4.048  -4.657  0.00  0.00    -0.056 NA
ATOM     23  O   LIG d   1       4.097  -5.012  -5.352  0.00  0.00    -0.332 OA
BRANCH  21  24
ATOM     24  C   LIG d   1       5.700  -1.960  -4.763  0.00  0.00     0.023 A 
ATOM     25  C   LIG d   1       6.356  -1.080  -5.623  0.00  0.00    -0.048 A 
ATOM     26  C   LIG d   1       6.850   0.113  -5.141  0.00  0.00    -0.019 A 
ATOM     27  H   LIG d   1       6.476  -1.334  -6.666  0.00  0.00     0.063 H 
ATOM     28  C   LIG d   1       6.694   0.439  -3.801  0.00  0.00     0.120 A 
ATOM     29  H   LIG d   1       7.358   0.795  -5.807  0.00  0.00     0.065 H 
ATOM     30  C   LIG d   1       6.043  -0.435  -2.941  0.00  0.00    -0.019 A 
ATOM     31  C   LIG d   1       5.542  -1.627  -3.418  0.00  0.00    -0.048 A 
ATOM     32  H   LIG d   1       5.924  -0.180  -1.899  0.00  0.00     0.065 H 
ATOM     33  H   LIG d   1       5.030  -2.305  -2.751  0.00  0.00     0.063 H 
BRANCH  28  34
ATOM     34  O   LIG d   1       7.182   1.616  -3.329  0.00  0.00    -0.495 OA
BRANCH  34  35
ATOM     35  C   LIG d   1       8.407   2.085  -3.897  0.00  0.00     0.079 C 
ATOM     36  H   LIG d   1       8.258   3.082  -4.311  0.00  0.00     0.066 H 
ATOM     37  H   LIG d   1       9.175   2.123  -3.125  0.00  0.00     0.066 H 
ATOM     38  H   LIG d   1       8.723   1.406  -4.690  0.00  0.00     0.066 H 
ENDBRANCH  34  35
ENDBRANCH  28  34
ENDBRANCH  21  24
ENDBRANCH   1  19
BRANCH  15  39
ATOM     39  C   LIG d   1       5.831  -7.373  -6.041  0.00  0.00     0.029 C 
ATOM     40  H   LIG d   1       6.798  -7.592  -6.493  0.00  0.00     0.090 H 
ATOM     41  H   LIG d   1       5.885  -6.421  -5.512  0.00  0.00     0.090 H 
BRANCH  39  42
ATOM     42  C   LIG d   1       5.470  -8.467  -5.070  0.00  0.00     0.150 A 
ATOM     43  O   LIG d   1       4.232  -8.934  -4.838  0.00  0.00    -0.457 OA
ATOM     44  C   LIG d   1       4.287  -9.908  -3.916  0.00  0.00     0.131 A 
ATOM     45  C   LIG d   1       5.568 -10.067  -3.539  0.00  0.00    -0.018 A 
ATOM     46  C   LIG d   1       6.331  -9.138  -4.284  0.00  0.00    -0.015 A 
ATOM     47  H   LIG d   1       5.944 -10.769  -2.809  0.00  0.00     0.065 H 
ATOM     48  H   LIG d   1       7.400  -8.994  -4.232  0.00  0.00     0.065 H 
BRANCH  44  49
ATOM     49  C   LIG d   1       3.110 -10.687  -3.385  0.00  0.00     0.102 C 
ATOM     50  H   LIG d   1       2.701 -11.312  -4.178  0.00  0.00     0.064 H 
ATOM     51  H   LIG d   1       3.435 -11.316  -2.556  0.00  0.00     0.064 H 
BRANCH  49  52
ATOM     52  O   LIG d   1       2.105  -9.779  -2.928  0.00  0.00    -0.387 OA
ATOM     53  H   LIG d   1       1.220  -9.969  -3.268  0.00  0.00     0.210 HD
ENDBRANCH  49  52
ENDBRANCH  44  49
ENDBRANCH  39  42
ENDBRANCH  15  39
TORSDOF 8
ENDMDL
MODEL 7
REMARK VINA RESULT:      -6.3      2.028      2.459
REMARK  8 active torsions:
REMARK  status: ('A' for Active; 'I' for Inactive)
REMARK    1  A    between atoms: C_1  and  O_2 
REMARK    2  A    between atoms: O_2  and  C_3 
REMARK    3  A    between atoms: C_6  and  C_9 
REMARK    4  A    between atoms: C_11  and  C_14 
REMARK    5  A    between atoms: C_23  and  C_24 
REMARK    6  A    between atoms: C_23  and  N_50 
REMARK    7  A    between atoms: C_27  and  C_29 
REMARK    8  A    between atoms: C_29  and  O_30 
ROOT
ATOM      1  C   LIG d   1       8.986   0.846  -4.658  0.00  0.00     0.068 C 
ATOM      2  H   LIG d   1       9.587   0.220  -3.998  0.00  0.00     0.096 H 
ATOM      3  C   LIG d   1       9.411   0.609  -6.114  0.00  0.00     0.065 C 
ATOM      4  C   LIG d   1       8.934  -0.765  -6.515  0.00  0.00     0.156 A 
ATOM      5  C   LIG d   1       8.011  -1.466  -5.820  0.00  0.00     0.190 A 
ATOM      6  C   LIG d   1       8.597  -2.680  -7.500  0.00  0.00     0.243 A 
ATOM      7  N   LIG d   1       9.305  -1.528  -7.575  0.00  0.00    -0.247 N 
ATOM      8  H   LIG d   1       9.972  -1.286  -8.280  0.00  0.00     0.310 HD
ATOM      9  C   LIG d   1       7.348  -0.949  -4.567  0.00  0.00     0.036 C 
ATOM     10  H   LIG d   1       8.954   1.360  -6.758  0.00  0.00     0.041 H 
ATOM     11  H   LIG d   1      10.496   0.661  -6.195  0.00  0.00     0.041 H 
ATOM     12  H   LIG d   1       8.659  -3.503  -8.195  0.00  0.00     0.158 H 
ATOM     13  H   LIG d   1       6.280  -1.159  -4.603  0.00  0.00     0.090 H 
ATOM     14  H   LIG d   1       7.789  -1.430  -3.694  0.00  0.00     0.090 H 
ATOM     15  N   LIG d   1       7.549   0.519  -4.520  0.00  0.00     0.256 N 
ATOM     16  H   LIG d   1       7.034   0.951  -5.296  0.00  0.00     0.205 HD
ATOM     17  N   LIG d   1       7.827  -2.629  -6.444  0.00  0.00    -0.243 N 
ATOM     18  H   LIG d   1       7.182  -3.370  -6.143  0.00  0.00     0.311 HD
ENDROOT
BRANCH   1  19
ATOM     19  C   LIG d   1       9.198   2.296  -4.304  0.00  0.00     0.276 A 
ATOM     20  N   LIG d   1       9.722   2.757  -3.196  0.00  0.00    -0.186 NA
ATOM     21  C   LIG d   1       9.710   4.104  -3.323  0.00  0.00     0.202 A 
ATOM     22  N   LIG d   1       9.183   4.378  -4.488  0.00  0.00    -0.056 NA
ATOM     23  O   LIG d   1       8.889   3.351  -5.064  0.00  0.00    -0.332 OA
BRANCH  21  24
ATOM     24  C   LIG d   1      10.202   5.087  -2.326  0.00  0.00     0.023 A 
ATOM     25  C   LIG d   1       9.630   6.357  -2.257  0.00  0.00    -0.048 A 
ATOM     26  C   LIG d   1      10.089   7.268  -1.329  0.00  0.00    -0.019 A 
ATOM     27  H   LIG d   1       8.829   6.626  -2.929  0.00  0.00     0.063 H 
ATOM     28  C   LIG d   1      11.119   6.922  -0.465  0.00  0.00     0.120 A 
ATOM     29  H   LIG d   1       9.647   8.252  -1.275  0.00  0.00     0.065 H 
ATOM     30  C   LIG d   1      11.691   5.658  -0.532  0.00  0.00    -0.019 A 
ATOM     31  C   LIG d   1      11.232   4.741  -1.453  0.00  0.00    -0.048 A 
ATOM     32  H   LIG d   1      12.492   5.392   0.141  0.00  0.00     0.065 H 
ATOM     33  H   LIG d   1      11.673   3.756  -1.502  0.00  0.00     0.063 H 
BRANCH  28  34
ATOM     34  O   LIG d   1      11.569   7.822   0.448  0.00  0.00    -0.495 OA
BRANCH  34  35
ATOM     35  C   LIG d   1      12.740   8.566   0.102  0.00  0.00     0.079 C 
ATOM     36  H   LIG d   1      12.709   8.821  -0.957  0.00  0.00     0.066 H 
ATOM     37  H   LIG d   1      12.778   9.480   0.696  0.00  0.00     0.066 H 
ATOM     38  H   LIG d   1      13.626   7.964   0.306  0.00  0.00     0.066 H 
ENDBRANCH  34  35
ENDBRANCH  28  34
ENDBRANCH  21  24
ENDBRANCH   1  19
BRANCH  15  39
ATOM     39  C   LIG d   1       7.031   1.056  -3.244  0.00  0.00     0.029 C 
ATOM     40  H   LIG d   1       7.506   0.560  -2.397  0.00  0.00     0.090 H 
ATOM     41  H   LIG d   1       7.235   2.126  -3.200  0.00  0.00     0.090 H 
BRANCH  39  42
ATOM     42  C   LIG d   1       5.543   0.826  -3.192  0.00  0.00     0.150 A 
ATOM     43  O   LIG d   1       4.729   0.708  -4.254  0.00  0.00    -0.457 OA
ATOM     44  C   LIG d   1       3.469   0.507  -3.832  0.00  0.00     0.131 A 
ATOM     45  C   LIG d   1       3.466   0.507  -2.487  0.00  0.00    -0.018 A 
ATOM     46  C   LIG d   1       4.802   0.712  -2.074  0.00  0.00    -0.015 A 
ATOM     47  H   LIG d   1       2.608   0.374  -1.845  0.00  0.00     0.065 H 
ATOM     48  H   LIG d   1       5.161   0.767  -1.057  0.00  0.00     0.065 H 
BRANCH  44  49
ATOM     49  C   LIG d   1       2.263   0.323  -4.717  0.00  0.00     0.102 C 
ATOM     50  H   LIG d   1       1.564  -0.361  -4.239  0.00  0.00     0.064 H 
ATOM     51  H   LIG d   1       1.779   1.288  -4.875  0.00  0.00     0.064 H 
BRANCH  49  52
ATOM     52  O   LIG d   1       2.672  -0.216  -5.975  0.00  0.00    -0.387 OA
ATOM     53  H   LIG d   1       3.283  -0.962  -5.904  0.00  0.00     0.210 HD
ENDBRANCH  49  52
ENDBRANCH  44  49
ENDBRANCH  39  42
ENDBRANCH  15  39
TORSDOF 8
ENDMDL
MODEL 8
REMARK VINA RESULT:      -6.2      2.662      8.050
REMARK  8 active torsions:
REMARK  status: ('A' for Active; 'I' for Inactive)
REMARK    1  A    between atoms: C_1  and  O_2 
REMARK    2  A    between atoms: O_2  and  C_3 
REMARK    3  A    between atoms: C_6  and  C_9 
REMARK    4  A    between atoms: C_11  and  C_14 
REMARK    5  A    between atoms: C_23  and  C_24 
REMARK    6  A    between atoms: C_23  and  N_50 
REMARK    7  A    between atoms: C_27  and  C_29 
REMARK    8  A    between atoms: C_29  and  O_30 
ROOT
ATOM      1  C   LIG d   1      11.887   2.509  -4.692  0.00  0.00     0.068 C 
ATOM      2  H   LIG d   1      12.286   2.764  -5.675  0.00  0.00     0.096 H 
ATOM      3  C   LIG d   1      12.698   1.348  -4.098  0.00  0.00     0.065 C 
ATOM      4  C   LIG d   1      14.058   1.880  -3.722  0.00  0.00     0.156 A 
ATOM      5  C   LIG d   1      14.339   3.198  -3.615  0.00  0.00     0.190 A 
ATOM      6  C   LIG d   1      16.150   2.125  -3.162  0.00  0.00     0.243 A 
ATOM      7  N   LIG d   1      15.198   1.201  -3.436  0.00  0.00    -0.247 N 
ATOM      8  H   LIG d   1      15.314   0.208  -3.428  0.00  0.00     0.310 HD
ATOM      9  C   LIG d   1      13.320   4.285  -3.852  0.00  0.00     0.036 C 
ATOM     10  H   LIG d   1      12.195   0.963  -3.210  0.00  0.00     0.041 H 
ATOM     11  H   LIG d   1      12.804   0.555  -4.837  0.00  0.00     0.041 H 
ATOM     12  H   LIG d   1      17.175   1.912  -2.897  0.00  0.00     0.158 H 
ATOM     13  H   LIG d   1      13.405   5.045  -3.076  0.00  0.00     0.090 H 
ATOM     14  H   LIG d   1      13.487   4.737  -4.830  0.00  0.00     0.090 H 
ATOM     15  N   LIG d   1      11.973   3.669  -3.778  0.00  0.00     0.256 N 
ATOM     16  H   LIG d   1      11.806   3.348  -2.817  0.00  0.00     0.205 HD
ATOM     17  N   LIG d   1      15.622   3.315  -3.273  0.00  0.00    -0.243 N 
ATOM     18  H   LIG d   1      16.118   4.201  -3.121  0.00  0.00     0.311 HD
ENDROOT
BRANCH   1  19
ATOM     19  C   LIG d   1      10.445   2.094  -4.829  0.00  0.00     0.276 A 
ATOM     20  N   LIG d   1       9.705   1.538  -3.902  0.00  0.00    -0.186 NA
ATOM     21  C   LIG d   1       8.493   1.348  -4.471  0.00  0.00     0.202 A 
ATOM     22  N   LIG d   1       8.567   1.795  -5.699  0.00  0.00    -0.056 NA
ATOM     23  O   LIG d   1       9.679   2.230  -5.916  0.00  0.00    -0.332 OA
BRANCH  21  24
ATOM     24  C   LIG d   1       7.301   0.745  -3.826  0.00  0.00     0.023 A 
ATOM     25  C   LIG d   1       6.324   1.562  -3.259  0.00  0.00    -0.048 A 
ATOM     26  C   LIG d   1       5.218   0.999  -2.660  0.00  0.00    -0.019 A 
ATOM     27  H   LIG d   1       6.434   2.637  -3.290  0.00  0.00     0.063 H 
ATOM     28  C   LIG d   1       5.076  -0.382  -2.621  0.00  0.00     0.120 A 
ATOM     29  H   LIG d   1       4.460   1.632  -2.221  0.00  0.00     0.065 H 
ATOM     30  C   LIG d   1       6.047  -1.199  -3.184  0.00  0.00    -0.019 A 
ATOM     31  C   LIG d   1       7.153  -0.641  -3.789  0.00  0.00    -0.048 A 
ATOM     32  H   LIG d   1       5.935  -2.272  -3.151  0.00  0.00     0.065 H 
ATOM     33  H   LIG d   1       7.906  -1.276  -4.231  0.00  0.00     0.063 H 
BRANCH  28  34
ATOM     34  O   LIG d   1       3.984  -0.934  -2.030  0.00  0.00    -0.495 OA
BRANCH  34  35
ATOM     35  C   LIG d   1       2.816  -1.089  -2.840  0.00  0.00     0.079 C 
ATOM     36  H   LIG d   1       3.057  -0.848  -3.875  0.00  0.00     0.066 H 
ATOM     37  H   LIG d   1       2.465  -2.119  -2.778  0.00  0.00     0.066 H 
ATOM     38  H   LIG d   1       2.035  -0.417  -2.483  0.00  0.00     0.066 H 
ENDBRANCH  34  35
ENDBRANCH  28  34
ENDBRANCH  21  24
ENDBRANCH   1  19
BRANCH  15  39
ATOM     39  C   LIG d   1      10.943   4.668  -4.134  0.00  0.00     0.029 C 
ATOM     40  H   LIG d   1      11.319   5.353  -4.894  0.00  0.00     0.090 H 
ATOM     41  H   LIG d   1      10.063   4.150  -4.514  0.00  0.00     0.090 H 
BRANCH  39  42
ATOM     42  C   LIG d   1      10.575   5.444  -2.896  0.00  0.00     0.150 A 
ATOM     43  O   LIG d   1       9.989   6.653  -2.872  0.00  0.00    -0.457 OA
ATOM     44  C   LIG d   1       9.807   7.036  -1.598  0.00  0.00     0.131 A 
ATOM     45  C   LIG d   1      10.288   6.074  -0.791  0.00  0.00    -0.018 A 
ATOM     46  C   LIG d   1      10.782   5.047  -1.627  0.00  0.00    -0.015 A 
ATOM     47  H   LIG d   1      10.294   6.082   0.290  0.00  0.00     0.065 H 
ATOM     48  H   LIG d   1      11.238   4.121  -1.310  0.00  0.00     0.065 H 
BRANCH  44  49
ATOM     49  C   LIG d   1       9.179   8.331  -1.148  0.00  0.00     0.102 C 
ATOM     50  H   LIG d   1       9.642   8.655  -0.218  0.00  0.00     0.064 H 
ATOM     51  H   LIG d   1       9.329   9.092  -1.915  0.00  0.00     0.064 H 
BRANCH  49  52
ATOM     52  O   LIG d   1       7.779   8.134  -0.940  0.00  0.00    -0.387 OA
ATOM     53  H   LIG d   1       7.542   7.932  -0.025  0.00  0.00     0.210 HD
ENDBRANCH  49  52
ENDBRANCH  44  49
ENDBRANCH  39  42
ENDBRANCH  15  39
TORSDOF 8
ENDMDL
MODEL 9
REMARK VINA RESULT:      -6.2      3.075      3.695
REMARK  8 active torsions:
REMARK  status: ('A' for Active; 'I' for Inactive)
REMARK    1  A    between atoms: C_1  and  O_2 
REMARK    2  A    between atoms: O_2  and  C_3 
REMARK    3  A    between atoms: C_6  and  C_9 
REMARK    4  A    between atoms: C_11  and  C_14 
REMARK    5  A    between atoms: C_23  and  C_24 
REMARK    6  A    between atoms: C_23  and  N_50 
REMARK    7  A    between atoms: C_27  and  C_29 
REMARK    8  A    between atoms: C_29  and  O_30 
ROOT
ATOM      1  C   LIG d   1       8.975   0.478  -4.545  0.00  0.00     0.068 C 
ATOM      2  H   LIG d   1       9.537  -0.058  -3.780  0.00  0.00     0.096 H 
ATOM      3  C   LIG d   1       9.424   0.004  -5.935  0.00  0.00     0.065 C 
ATOM      4  C   LIG d   1       8.907  -1.398  -6.134  0.00  0.00     0.156 A 
ATOM      5  C   LIG d   1       7.943  -1.953  -5.366  0.00  0.00     0.190 A 
ATOM      6  C   LIG d   1       8.522  -3.430  -6.822  0.00  0.00     0.243 A 
ATOM      7  N   LIG d   1       9.273  -2.327  -7.054  0.00  0.00    -0.247 N 
ATOM      8  H   LIG d   1       9.965  -2.219  -7.768  0.00  0.00     0.310 HD
ATOM      9  C   LIG d   1       7.270  -1.228  -4.227  0.00  0.00     0.036 C 
ATOM     10  H   LIG d   1       9.010   0.661  -6.700  0.00  0.00     0.041 H 
ATOM     11  H   LIG d   1      10.512   0.008  -5.993  0.00  0.00     0.041 H 
ATOM     12  H   LIG d   1       8.570  -4.353  -7.381  0.00  0.00     0.158 H 
ATOM     13  H   LIG d   1       6.196  -1.406  -4.261  0.00  0.00     0.090 H 
ATOM     14  H   LIG d   1       7.673  -1.582  -3.278  0.00  0.00     0.090 H 
ATOM     15  N   LIG d   1       7.524   0.223  -4.400  0.00  0.00     0.256 N 
ATOM     16  H   LIG d   1       7.043   0.547  -5.247  0.00  0.00     0.205 HD
ATOM     17  N   LIG d   1       7.730  -3.192  -5.809  0.00  0.00    -0.243 N 
ATOM     18  H   LIG d   1       7.052  -3.856  -5.417  0.00  0.00     0.311 HD
ENDROOT
BRANCH   1  19
ATOM     19  C   LIG d   1       9.231   1.957  -4.412  0.00  0.00     0.276 A 
ATOM     20  N   LIG d   1       9.132   2.852  -5.363  0.00  0.00    -0.186 NA
ATOM     21  C   LIG d   1       9.452   4.032  -4.786  0.00  0.00     0.202 A 
ATOM     22  N   LIG d   1       9.725   3.787  -3.530  0.00  0.00    -0.056 NA
ATOM     23  O   LIG d   1       9.598   2.602  -3.301  0.00  0.00    -0.332 OA
BRANCH  21  24
ATOM     24  C   LIG d   1       9.487   5.357  -5.451  0.00  0.00     0.023 A 
ATOM     25  C   LIG d   1       9.168   6.509  -4.733  0.00  0.00    -0.048 A 
ATOM     26  C   LIG d   1       9.202   7.740  -5.354  0.00  0.00    -0.019 A 
ATOM     27  H   LIG d   1       8.895   6.437  -3.690  0.00  0.00     0.063 H 
ATOM     28  C   LIG d   1       9.554   7.832  -6.694  0.00  0.00     0.120 A 
ATOM     29  H   LIG d   1       8.955   8.632  -4.797  0.00  0.00     0.065 H 
ATOM     30  C   LIG d   1       9.872   6.687  -7.413  0.00  0.00    -0.019 A 
ATOM     31  C   LIG d   1       9.845   5.455  -6.795  0.00  0.00    -0.048 A 
ATOM     32  H   LIG d   1      10.144   6.762  -8.454  0.00  0.00     0.065 H 
ATOM     33  H   LIG d   1      10.097   4.565  -7.353  0.00  0.00     0.063 H 
BRANCH  28  34
ATOM     34  O   LIG d   1       9.587   9.046  -7.303  0.00  0.00    -0.495 OA
BRANCH  34  35
ATOM     35  C   LIG d   1      10.147  10.131  -6.558  0.00  0.00     0.079 C 
ATOM     36  H   LIG d   1       9.345  10.708  -6.099  0.00  0.00     0.066 H 
ATOM     37  H   LIG d   1      10.804   9.738  -5.783  0.00  0.00     0.066 H 
ATOM     38  H   LIG d   1      10.719  10.773  -7.228  0.00  0.00     0.066 H 
ENDBRANCH  34  35
ENDBRANCH  28  34
ENDBRANCH  21  24
ENDBRANCH   1  19
BRANCH  15  39
ATOM     39  C   LIG d   1       6.996   0.967  -3.237  0.00  0.00     0.029 C 
ATOM     40  H   LIG d   1       7.440   0.599  -2.312  0.00  0.00     0.090 H 
ATOM     41  H   LIG d   1       7.231   2.025  -3.356  0.00  0.00     0.090 H 
BRANCH  39  42
ATOM     42  C   LIG d   1       5.502   0.786  -3.185  0.00  0.00     0.150 A 
ATOM     43  O   LIG d   1       4.689   0.654  -4.246  0.00  0.00    -0.457 OA
ATOM     44  C   LIG d   1       3.422   0.509  -3.825  0.00  0.00     0.131 A 
ATOM     45  C   LIG d   1       3.413   0.557  -2.481  0.00  0.00    -0.018 A 
ATOM     46  C   LIG d   1       4.753   0.735  -2.068  0.00  0.00    -0.015 A 
ATOM     47  H   LIG d   1       2.548   0.474  -1.839  0.00  0.00     0.065 H 
ATOM     48  H   LIG d   1       5.109   0.815  -1.052  0.00  0.00     0.065 H 
BRANCH  44  49
ATOM     49  C   LIG d   1       2.215   0.331  -4.709  0.00  0.00     0.102 C 
ATOM     50  H   LIG d   1       1.545  -0.404  -4.264  0.00  0.00     0.064 H 
ATOM     51  H   LIG d   1       1.695   1.284  -4.809  0.00  0.00     0.064 H 
BRANCH  49  52
ATOM     52  O   LIG d   1       2.630  -0.123  -5.999  0.00  0.00    -0.387 OA
ATOM     53  H   LIG d   1       1.940  -0.076  -6.674  0.00  0.00     0.210 HD
ENDBRANCH  49  52
ENDBRANCH  44  49
ENDBRANCH  39  42
ENDBRANCH  15  39
TORSDOF 8
ENDMDL
MODEL 10
REMARK VINA RESULT:      -6.1      3.027      4.102
REMARK  8 active torsions:
REMARK  status: ('A' for Active; 'I' for Inactive)
REMARK    1  A    between atoms: C_1  and  O_2 
REMARK    2  A    between atoms: O_2  and  C_3 
REMARK    3  A    between atoms: C_6  and  C_9 
REMARK    4  A    between atoms: C_11  and  C_14 
REMARK    5  A    between atoms: C_23  and  C_24 
REMARK    6  A    between atoms: C_23  and  N_50 
REMARK    7  A    between atoms: C_27  and  C_29 
REMARK    8  A    between atoms: C_29  and  O_30 
ROOT
ATOM      1  C   LIG d   1       8.354  -1.670  -5.397  0.00  0.00     0.068 C 
ATOM      2  H   LIG d   1       9.240  -2.035  -4.878  0.00  0.00     0.096 H 
ATOM      3  C   LIG d   1       8.428  -2.068  -6.878  0.00  0.00     0.065 C 
ATOM      4  C   LIG d   1       8.213  -3.558  -6.966  0.00  0.00     0.156 A 
ATOM      5  C   LIG d   1       7.704  -4.299  -5.956  0.00  0.00     0.190 A 
ATOM      6  C   LIG d   1       8.108  -5.644  -7.589  0.00  0.00     0.243 A 
ATOM      7  N   LIG d   1       8.468  -4.404  -7.997  0.00  0.00    -0.247 N 
ATOM      8  H   LIG d   1       8.848  -4.159  -8.889  0.00  0.00     0.310 HD
ATOM      9  C   LIG d   1       7.286  -3.716  -4.629  0.00  0.00     0.036 C 
ATOM     10  H   LIG d   1       7.649  -1.550  -7.438  0.00  0.00     0.041 H 
ATOM     11  H   LIG d   1       9.407  -1.812  -7.281  0.00  0.00     0.041 H 
ATOM     12  H   LIG d   1       8.185  -6.547  -8.176  0.00  0.00     0.158 H 
ATOM     13  H   LIG d   1       6.330  -4.141  -4.326  0.00  0.00     0.090 H 
ATOM     14  H   LIG d   1       8.043  -3.936  -3.877  0.00  0.00     0.090 H 
ATOM     15  N   LIG d   1       7.128  -2.252  -4.806  0.00  0.00     0.256 N 
ATOM     16  H   LIG d   1       6.338  -2.076  -5.439  0.00  0.00     0.205 HD
ATOM     17  N   LIG d   1       7.653  -5.566  -6.366  0.00  0.00    -0.243 N 
ATOM     18  H   LIG d   1       7.310  -6.358  -5.808  0.00  0.00     0.311 HD
ENDROOT
BRANCH   1  19
ATOM     19  C   LIG d   1       8.290  -0.168  -5.284  0.00  0.00     0.276 A 
ATOM     20  N   LIG d   1       9.099   0.595  -4.592  0.00  0.00    -0.186 NA
ATOM     21  C   LIG d   1       8.661   1.859  -4.788  0.00  0.00     0.202 A 
ATOM     22  N   LIG d   1       7.621   1.791  -5.579  0.00  0.00    -0.056 NA
ATOM     23  O   LIG d   1       7.400   0.635  -5.875  0.00  0.00    -0.332 OA
BRANCH  21  24
ATOM     24  C   LIG d   1       9.249   3.094  -4.212  0.00  0.00     0.023 A 
ATOM     25  C   LIG d   1       9.077   4.317  -4.859  0.00  0.00    -0.048 A 
ATOM     26  C   LIG d   1       9.624   5.463  -4.322  0.00  0.00    -0.019 A 
ATOM     27  H   LIG d   1       8.515   4.367  -5.781  0.00  0.00     0.063 H 
ATOM     28  C   LIG d   1      10.346   5.399  -3.138  0.00  0.00     0.120 A 
ATOM     29  H   LIG d   1       9.491   6.411  -4.823  0.00  0.00     0.065 H 
ATOM     30  C   LIG d   1      10.520   4.183  -2.491  0.00  0.00    -0.019 A 
ATOM     31  C   LIG d   1       9.970   3.035  -3.021  0.00  0.00    -0.048 A 
ATOM     32  H   LIG d   1      11.082   4.136  -1.571  0.00  0.00     0.065 H 
ATOM     33  H   LIG d   1      10.101   2.090  -2.515  0.00  0.00     0.063 H 
BRANCH  28  34
ATOM     34  O   LIG d   1      10.884   6.530  -2.611  0.00  0.00    -0.495 OA
BRANCH  34  35
ATOM     35  C   LIG d   1       9.981   7.595  -2.302  0.00  0.00     0.079 C 
ATOM     36  H   LIG d   1       9.064   7.184  -1.882  0.00  0.00     0.066 H 
ATOM     37  H   LIG d   1      10.445   8.266  -1.579  0.00  0.00     0.066 H 
ATOM     38  H   LIG d   1       9.748   8.148  -3.213  0.00  0.00     0.066 H 
ENDBRANCH  34  35
ENDBRANCH  28  34
ENDBRANCH  21  24
ENDBRANCH   1  19
BRANCH  15  39
ATOM     39  C   LIG d   1       6.846  -1.616  -3.502  0.00  0.00     0.029 C 
ATOM     40  H   LIG d   1       7.118  -2.282  -2.683  0.00  0.00     0.090 H 
ATOM     41  H   LIG d   1       7.421  -0.693  -3.426  0.00  0.00     0.090 H 
BRANCH  39  42
ATOM     42  C   LIG d   1       5.375  -1.299  -3.427  0.00  0.00     0.150 A 
ATOM     43  O   LIG d   1       4.682  -0.569  -4.316  0.00  0.00    -0.457 OA
ATOM     44  C   LIG d   1       3.397  -0.496  -3.932  0.00  0.00     0.131 A 
ATOM     45  C   LIG d   1       3.259  -1.175  -2.779  0.00  0.00    -0.018 A 
ATOM     46  C   LIG d   1       4.534  -1.693  -2.453  0.00  0.00    -0.015 A 
ATOM     47  H   LIG d   1       2.349  -1.302  -2.211  0.00  0.00     0.065 H 
ATOM     48  H   LIG d   1       4.785  -2.290  -1.589  0.00  0.00     0.065 H 
BRANCH  44  49
ATOM     49  C   LIG d   1       2.299   0.231  -4.664  0.00  0.00     0.102 C 
ATOM     50  H   LIG d   1       2.133  -0.241  -5.631  0.00  0.00     0.064 H 
ATOM     51  H   LIG d   1       1.381   0.188  -4.075  0.00  0.00     0.064 H 
BRANCH  49  52
ATOM     52  O   LIG d   1       2.676   1.595  -4.858  0.00  0.00    -0.387 OA
ATOM     53  H   LIG d   1       2.273   2.009  -5.633  0.00  0.00     0.210 HD
ENDBRANCH  49  52
ENDBRANCH  44  49
ENDBRANCH  39  42
ENDBRANCH  15  39
TORSDOF 8
ENDMDL
