MODEL 1
REMARK VINA RESULT:      -6.2      0.000      0.000
REMARK  8 active torsions:
REMARK  status: ('A' for Active; 'I' for Inactive)
REMARK    1  A    between atoms: C_1  and  C_2 
REMARK    2  A    between atoms: C_2  and  C_3 
REMARK    3  A    between atoms: C_2  and  C_4 
REMARK    4  A    between atoms: C_2  and  N_5 
REMARK    5  A    between atoms: N_5  and  C_6 
REMARK    6  A    between atoms: C_8  and  N_13 
REMARK    7  A    between atoms: N_13  and  C_14 
REMARK    8  A    between atoms: N_13  and  C_20 
ROOT
ATOM      1  N   LIG d   1       4.527  -0.932  -5.961  0.00  0.00    -0.238 N 
ENDROOT
BRANCH   1   2
ATOM      2  C   LIG d   1       3.945  -0.362  -7.078  0.00  0.00     0.232 A 
ATOM      3  N   LIG d   1       2.962  -0.992  -7.711  0.00  0.00    -0.180 NA
ATOM      4  C   LIG d   1       2.407  -0.440  -8.785  0.00  0.00     0.221 A 
ATOM      5  N   LIG d   1       2.836   0.741  -9.223  0.00  0.00    -0.184 NA
ATOM      6  C   LIG d   1       3.815   1.366  -8.590  0.00  0.00     0.229 A 
ATOM      7  N   LIG d   1       4.370   0.820  -7.521  0.00  0.00    -0.183 NA
ATOM      8 CL   LIG d   1       4.372   2.907  -9.164  0.00  0.00    -0.041 Cl
BRANCH   4   9
ATOM      9  N   LIG d   1       1.385  -1.093  -9.446  0.00  0.00    -0.309 N 
ATOM     10  H   LIG d   1       0.469  -0.992  -9.144  0.00  0.00     0.149 HD
BRANCH   9  11
ATOM     11  C   LIG d   1       1.685  -1.936 -10.606  0.00  0.00     0.026 C 
BRANCH  11  12
ATOM     12  C   LIG d   1       0.973  -3.282 -10.455  0.00  0.00    -0.044 C 
ATOM     13  H   LIG d   1       0.407  -3.291  -9.525  0.00  0.00     0.025 H 
ATOM     14  H   LIG d   1       0.295  -3.431 -11.295  0.00  0.00     0.025 H 
ATOM     15  H   LIG d   1       1.713  -4.083 -10.438  0.00  0.00     0.025 H 
ENDBRANCH  11  12
BRANCH  11  16
ATOM     16  C   LIG d   1       1.200  -1.242 -11.880  0.00  0.00    -0.044 C 
ATOM     17  H   LIG d   1       2.028  -0.699 -12.336  0.00  0.00     0.025 H 
ATOM     18  H   LIG d   1       0.826  -1.989 -12.580  0.00  0.00     0.025 H 
ATOM     19  H   LIG d   1       0.400  -0.544 -11.631  0.00  0.00     0.025 H 
ENDBRANCH  11  16
BRANCH  11  20
ATOM     20  C   LIG d   1       3.196  -2.165 -10.694  0.00  0.00    -0.044 C 
ATOM     21  H   LIG d   1       3.581  -2.423  -9.707  0.00  0.00     0.025 H 
ATOM     22  H   LIG d   1       3.400  -2.979 -11.388  0.00  0.00     0.025 H 
ATOM     23  H   LIG d   1       3.681  -1.255 -11.047  0.00  0.00     0.025 H 
ENDBRANCH  11  20
ENDBRANCH   9  11
ENDBRANCH   4   9
ENDBRANCH   1   2
BRANCH   1  24
ATOM     24  C   LIG d   1       4.476  -0.269  -4.729  0.00  0.00     0.042 A 
ATOM     25  C   LIG d   1       3.250  -0.006  -4.131  0.00  0.00    -0.040 A 
ATOM     26  C   LIG d   1       3.203   0.648  -2.915  0.00  0.00    -0.060 A 
ATOM     27  H   LIG d   1       2.335  -0.314  -4.615  0.00  0.00     0.064 H 
ATOM     28  C   LIG d   1       4.375   1.040  -2.294  0.00  0.00    -0.062 A 
ATOM     29  H   LIG d   1       2.251   0.852  -2.449  0.00  0.00     0.062 H 
ATOM     30  C   LIG d   1       5.596   0.780  -2.887  0.00  0.00    -0.060 A 
ATOM     31  H   LIG d   1       4.336   1.551  -1.344  0.00  0.00     0.062 H 
ATOM     32  C   LIG d   1       5.651   0.122  -4.100  0.00  0.00    -0.040 A 
ATOM     33  H   LIG d   1       6.510   1.087  -2.399  0.00  0.00     0.062 H 
ATOM     34  H   LIG d   1       6.605  -0.085  -4.560  0.00  0.00     0.064 H 
ENDBRANCH   1  24
BRANCH   1  35
ATOM     35  C   LIG d   1       5.166  -2.173  -6.061  0.00  0.00     0.042 A 
ATOM     36  C   LIG d   1       4.731  -3.244  -5.291  0.00  0.00    -0.040 A 
ATOM     37  C   LIG d   1       5.363  -4.468  -5.393  0.00  0.00    -0.060 A 
ATOM     38  H   LIG d   1       3.899  -3.120  -4.614  0.00  0.00     0.064 H 
ATOM     39  C   LIG d   1       6.429  -4.628  -6.260  0.00  0.00    -0.062 A 
ATOM     40  H   LIG d   1       5.025  -5.300  -4.794  0.00  0.00     0.062 H 
ATOM     41  C   LIG d   1       6.864  -3.564  -7.029  0.00  0.00    -0.060 A 
ATOM     42  H   LIG d   1       6.921  -5.585  -6.337  0.00  0.00     0.062 H 
ATOM     43  C   LIG d   1       6.233  -2.338  -6.935  0.00  0.00    -0.040 A 
ATOM     44  H   LIG d   1       7.696  -3.691  -7.706  0.00  0.00     0.062 H 
ATOM     45  H   LIG d   1       6.570  -1.508  -7.539  0.00  0.00     0.064 H 
ENDBRANCH   1  35
TORSDOF 8
ENDMDL
MODEL 2
REMARK VINA RESULT:      -6.2      2.708      3.690
REMARK  8 active torsions:
REMARK  status: ('A' for Active; 'I' for Inactive)
REMARK    1  A    between atoms: C_1  and  C_2 
REMARK    2  A    between atoms: C_2  and  C_3 
REMARK    3  A    between atoms: C_2  and  C_4 
REMARK    4  A    between atoms: C_2  and  N_5 
REMARK    5  A    between atoms: N_5  and  C_6 
REMARK    6  A    between atoms: C_8  and  N_13 
REMARK    7  A    between atoms: N_13  and  C_14 
REMARK    8  A    between atoms: N_13  and  C_20 
ROOT
ATOM      1  N   LIG d   1       6.286  -1.703  -4.801  0.00  0.00    -0.238 N 
ENDROOT
BRANCH   1   2
ATOM      2  C   LIG d   1       5.541  -1.999  -5.929  0.00  0.00     0.232 A 
ATOM      3  N   LIG d   1       5.311  -1.059  -6.839  0.00  0.00    -0.180 NA
ATOM      4  C   LIG d   1       4.594  -1.348  -7.920  0.00  0.00     0.221 A 
ATOM      5  N   LIG d   1       4.110  -2.576  -8.089  0.00  0.00    -0.184 NA
ATOM      6  C   LIG d   1       4.341  -3.510  -7.180  0.00  0.00     0.229 A 
ATOM      7  N   LIG d   1       5.054  -3.226  -6.103  0.00  0.00    -0.183 NA
ATOM      8 CL   LIG d   1       3.708  -5.110  -7.403  0.00  0.00    -0.041 Cl
BRANCH   4   9
ATOM      9  N   LIG d   1       4.351  -0.374  -8.868  0.00  0.00    -0.309 N 
ATOM     10  H   LIG d   1       4.980  -0.235  -9.594  0.00  0.00     0.149 HD
BRANCH   9  11
ATOM     11  C   LIG d   1       3.143   0.450  -8.779  0.00  0.00     0.026 C 
BRANCH  11  12
ATOM     12  C   LIG d   1       3.445   1.856  -9.302  0.00  0.00    -0.044 C 
ATOM     13  H   LIG d   1       3.868   1.788 -10.304  0.00  0.00     0.025 H 
ATOM     14  H   LIG d   1       2.524   2.437  -9.336  0.00  0.00     0.025 H 
ATOM     15  H   LIG d   1       4.159   2.345  -8.639  0.00  0.00     0.025 H 
ENDBRANCH  11  12
BRANCH  11  16
ATOM     16  C   LIG d   1       2.032  -0.180  -9.620  0.00  0.00    -0.044 C 
ATOM     17  H   LIG d   1       1.377  -0.767  -8.977  0.00  0.00     0.025 H 
ATOM     18  H   LIG d   1       1.455   0.606 -10.107  0.00  0.00     0.025 H 
ATOM     19  H   LIG d   1       2.474  -0.828 -10.378  0.00  0.00     0.025 H 
ENDBRANCH  11  16
BRANCH  11  20
ATOM     20  C   LIG d   1       2.691   0.536  -7.319  0.00  0.00    -0.044 C 
ATOM     21  H   LIG d   1       3.480   0.152  -6.672  0.00  0.00     0.025 H 
ATOM     22  H   LIG d   1       2.484   1.574  -7.063  0.00  0.00     0.025 H 
ATOM     23  H   LIG d   1       1.788  -0.059  -7.183  0.00  0.00     0.025 H 
ENDBRANCH  11  20
ENDBRANCH   9  11
ENDBRANCH   4   9
ENDBRANCH   1   2
BRANCH   1  24
ATOM     24  C   LIG d   1       5.714  -0.962  -3.760  0.00  0.00     0.042 A 
ATOM     25  C   LIG d   1       6.002   0.390  -3.630  0.00  0.00    -0.040 A 
ATOM     26  C   LIG d   1       5.436   1.119  -2.602  0.00  0.00    -0.060 A 
ATOM     27  H   LIG d   1       6.666   0.872  -4.332  0.00  0.00     0.064 H 
ATOM     28  C   LIG d   1       4.584   0.502  -1.704  0.00  0.00    -0.062 A 
ATOM     29  H   LIG d   1       5.659   2.170  -2.500  0.00  0.00     0.062 H 
ATOM     30  C   LIG d   1       4.296  -0.844  -1.831  0.00  0.00    -0.060 A 
ATOM     31  H   LIG d   1       4.143   1.074  -0.901  0.00  0.00     0.062 H 
ATOM     32  C   LIG d   1       4.855  -1.577  -2.860  0.00  0.00    -0.040 A 
ATOM     33  H   LIG d   1       3.630  -1.322  -1.128  0.00  0.00     0.062 H 
ATOM     34  H   LIG d   1       4.626  -2.627  -2.960  0.00  0.00     0.064 H 
ENDBRANCH   1  24
BRANCH   1  35
ATOM     35  C   LIG d   1       7.609  -2.146  -4.701  0.00  0.00     0.042 A 
ATOM     36  C   LIG d   1       7.931  -3.191  -3.844  0.00  0.00    -0.040 A 
ATOM     37  C   LIG d   1       9.238  -3.625  -3.748  0.00  0.00    -0.060 A 
ATOM     38  H   LIG d   1       7.159  -3.663  -3.254  0.00  0.00     0.064 H 
ATOM     39  C   LIG d   1      10.227  -3.022  -4.503  0.00  0.00    -0.062 A 
ATOM     40  H   LIG d   1       9.488  -4.437  -3.081  0.00  0.00     0.062 H 
ATOM     41  C   LIG d   1       9.910  -1.982  -5.358  0.00  0.00    -0.060 A 
ATOM     42  H   LIG d   1      11.248  -3.363  -4.426  0.00  0.00     0.062 H 
ATOM     43  C   LIG d   1       8.603  -1.545  -5.462  0.00  0.00    -0.040 A 
ATOM     44  H   LIG d   1      10.684  -1.512  -5.947  0.00  0.00     0.062 H 
ATOM     45  H   LIG d   1       8.356  -0.735  -6.133  0.00  0.00     0.064 H 
ENDBRANCH   1  35
TORSDOF 8
ENDMDL
MODEL 3
REMARK VINA RESULT:      -6.1      2.449      4.787
REMARK  8 active torsions:
REMARK  status: ('A' for Active; 'I' for Inactive)
REMARK    1  A    between atoms: C_1  and  C_2 
REMARK    2  A    between atoms: C_2  and  C_3 
REMARK    3  A    between atoms: C_2  and  C_4 
REMARK    4  A    between atoms: C_2  and  N_5 
REMARK    5  A    between atoms: N_5  and  C_6 
REMARK    6  A    between atoms: C_8  and  N_13 
REMARK    7  A    between atoms: N_13  and  C_14 
REMARK    8  A    between atoms: N_13  and  C_20 
ROOT
ATOM      1  N   LIG d   1       6.195  -0.658  -5.060  0.00  0.00    -0.238 N 
ENDROOT
BRANCH   1   2
ATOM      2  C   LIG d   1       6.557   0.116  -6.148  0.00  0.00     0.232 A 
ATOM      3  N   LIG d   1       5.919  -0.022  -7.304  0.00  0.00    -0.180 NA
ATOM      4  C   LIG d   1       6.271   0.724  -8.346  0.00  0.00     0.221 A 
ATOM      5  N   LIG d   1       7.262   1.605  -8.229  0.00  0.00    -0.184 NA
ATOM      6  C   LIG d   1       7.896   1.739  -7.075  0.00  0.00     0.229 A 
ATOM      7  N   LIG d   1       7.547   0.999  -6.036  0.00  0.00    -0.183 NA
ATOM      8 CL   LIG d   1       9.187   2.889  -6.926  0.00  0.00    -0.041 Cl
BRANCH   4   9
ATOM      9  N   LIG d   1       5.611   0.584  -9.551  0.00  0.00    -0.309 N 
ATOM     10  H   LIG d   1       6.036   0.112 -10.285  0.00  0.00     0.149 HD
BRANCH   9  11
ATOM     11  C   LIG d   1       4.269   1.145  -9.720  0.00  0.00     0.026 C 
BRANCH  11  12
ATOM     12  C   LIG d   1       3.274   0.355  -8.866  0.00  0.00    -0.044 C 
ATOM     13  H   LIG d   1       2.709  -0.325  -9.503  0.00  0.00     0.025 H 
ATOM     14  H   LIG d   1       3.816  -0.218  -8.114  0.00  0.00     0.025 H 
ATOM     15  H   LIG d   1       2.590   1.046  -8.374  0.00  0.00     0.025 H 
ENDBRANCH  11  12
BRANCH  11  16
ATOM     16  C   LIG d   1       4.268   2.610  -9.279  0.00  0.00    -0.044 C 
ATOM     17  H   LIG d   1       3.435   2.784  -8.599  0.00  0.00     0.025 H 
ATOM     18  H   LIG d   1       5.205   2.837  -8.771  0.00  0.00     0.025 H 
ATOM     19  H   LIG d   1       4.164   3.252 -10.154  0.00  0.00     0.025 H 
ENDBRANCH  11  16
BRANCH  11  20
ATOM     20  C   LIG d   1       3.860   1.056 -11.192  0.00  0.00    -0.044 C 
ATOM     21  H   LIG d   1       3.122   1.827 -11.411  0.00  0.00     0.025 H 
ATOM     22  H   LIG d   1       4.737   1.203 -11.822  0.00  0.00     0.025 H 
ATOM     23  H   LIG d   1       3.431   0.074 -11.391  0.00  0.00     0.025 H 
ENDBRANCH  11  20
ENDBRANCH   9  11
ENDBRANCH   4   9
ENDBRANCH   1   2
BRANCH   1  24
ATOM     24  C   LIG d   1       6.735  -1.940  -4.902  0.00  0.00     0.042 A 
ATOM     25  C   LIG d   1       7.952  -2.107  -4.254  0.00  0.00    -0.040 A 
ATOM     26  C   LIG d   1       8.482  -3.372  -4.099  0.00  0.00    -0.060 A 
ATOM     27  H   LIG d   1       8.483  -1.248  -3.870  0.00  0.00     0.064 H 
ATOM     28  C   LIG d   1       7.802  -4.473  -4.588  0.00  0.00    -0.062 A 
ATOM     29  H   LIG d   1       9.428  -3.503  -3.595  0.00  0.00     0.062 H 
ATOM     30  C   LIG d   1       6.591  -4.310  -5.234  0.00  0.00    -0.060 A 
ATOM     31  H   LIG d   1       8.219  -5.461  -4.466  0.00  0.00     0.062 H 
ATOM     32  C   LIG d   1       6.053  -3.047  -5.388  0.00  0.00    -0.040 A 
ATOM     33  H   LIG d   1       6.062  -5.172  -5.615  0.00  0.00     0.062 H 
ATOM     34  H   LIG d   1       5.105  -2.922  -5.889  0.00  0.00     0.064 H 
ENDBRANCH   1  24
BRANCH   1  35
ATOM     35  C   LIG d   1       5.288  -0.160  -4.118  0.00  0.00     0.042 A 
ATOM     36  C   LIG d   1       5.753   0.453  -2.962  0.00  0.00    -0.040 A 
ATOM     37  C   LIG d   1       4.856   0.944  -2.034  0.00  0.00    -0.060 A 
ATOM     38  H   LIG d   1       6.815   0.545  -2.788  0.00  0.00     0.064 H 
ATOM     39  C   LIG d   1       3.496   0.826  -2.254  0.00  0.00    -0.062 A 
ATOM     40  H   LIG d   1       5.218   1.420  -1.134  0.00  0.00     0.062 H 
ATOM     41  C   LIG d   1       3.030   0.218  -3.405  0.00  0.00    -0.060 A 
ATOM     42  H   LIG d   1       2.797   1.211  -1.527  0.00  0.00     0.062 H 
ATOM     43  C   LIG d   1       3.922  -0.272  -4.339  0.00  0.00    -0.040 A 
ATOM     44  H   LIG d   1       1.967   0.128  -3.576  0.00  0.00     0.062 H 
ATOM     45  H   LIG d   1       3.557  -0.744  -5.241  0.00  0.00     0.064 H 
ENDBRANCH   1  35
TORSDOF 8
ENDMDL
MODEL 4
REMARK VINA RESULT:      -6.1      0.045      3.773
REMARK  8 active torsions:
REMARK  status: ('A' for Active; 'I' for Inactive)
REMARK    1  A    between atoms: C_1  and  C_2 
REMARK    2  A    between atoms: C_2  and  C_3 
REMARK    3  A    between atoms: C_2  and  C_4 
REMARK    4  A    between atoms: C_2  and  N_5 
REMARK    5  A    between atoms: N_5  and  C_6 
REMARK    6  A    between atoms: C_8  and  N_13 
REMARK    7  A    between atoms: N_13  and  C_14 
REMARK    8  A    between atoms: N_13  and  C_20 
ROOT
ATOM      1  N   LIG d   1       4.520  -0.945  -5.969  0.00  0.00    -0.238 N 
ENDROOT
BRANCH   1   2
ATOM      2  C   LIG d   1       3.935  -0.378  -7.087  0.00  0.00     0.232 A 
ATOM      3  N   LIG d   1       2.966  -1.021  -7.728  0.00  0.00    -0.180 NA
ATOM      4  C   LIG d   1       2.407  -0.472  -8.802  0.00  0.00     0.221 A 
ATOM      5  N   LIG d   1       2.820   0.717  -9.232  0.00  0.00    -0.184 NA
ATOM      6  C   LIG d   1       3.786   1.355  -8.591  0.00  0.00     0.229 A 
ATOM      7  N   LIG d   1       4.344   0.813  -7.521  0.00  0.00    -0.183 NA
ATOM      8 CL   LIG d   1       4.322   2.907  -9.155  0.00  0.00    -0.041 Cl
BRANCH   4   9
ATOM      9  N   LIG d   1       1.400  -1.138  -9.472  0.00  0.00    -0.309 N 
ATOM     10  H   LIG d   1       0.479  -1.042  -9.182  0.00  0.00     0.149 HD
BRANCH   9  11
ATOM     11  C   LIG d   1       1.721  -1.987 -10.621  0.00  0.00     0.026 C 
BRANCH  11  12
ATOM     12  C   LIG d   1       1.316  -1.272 -11.912  0.00  0.00    -0.044 C 
ATOM     13  H   LIG d   1       1.796  -0.295 -11.952  0.00  0.00     0.025 H 
ATOM     14  H   LIG d   1       1.629  -1.866 -12.770  0.00  0.00     0.025 H 
ATOM     15  H   LIG d   1       0.233  -1.146 -11.932  0.00  0.00     0.025 H 
ENDBRANCH  11  12
BRANCH  11  16
ATOM     16  C   LIG d   1       3.225  -2.267 -10.644  0.00  0.00    -0.044 C 
ATOM     17  H   LIG d   1       3.704  -1.750  -9.812  0.00  0.00     0.025 H 
ATOM     18  H   LIG d   1       3.396  -3.339 -10.553  0.00  0.00     0.025 H 
ATOM     19  H   LIG d   1       3.646  -1.910 -11.585  0.00  0.00     0.025 H 
ENDBRANCH  11  16
BRANCH  11  20
ATOM     20  C   LIG d   1       0.958  -3.308 -10.509  0.00  0.00    -0.044 C 
ATOM     21  H   LIG d   1       0.399  -3.484 -11.428  0.00  0.00     0.025 H 
ATOM     22  H   LIG d   1       1.663  -4.123 -10.351  0.00  0.00     0.025 H 
ATOM     23  H   LIG d   1       0.266  -3.258  -9.667  0.00  0.00     0.025 H 
ENDBRANCH  11  20
ENDBRANCH   9  11
ENDBRANCH   4   9
ENDBRANCH   1   2
BRANCH   1  24
ATOM     24  C   LIG d   1       5.164  -2.184  -6.068  0.00  0.00     0.042 A 
ATOM     25  C   LIG d   1       6.239  -2.342  -6.932  0.00  0.00    -0.040 A 
ATOM     26  C   LIG d   1       6.873  -3.566  -7.028  0.00  0.00    -0.060 A 
ATOM     27  H   LIG d   1       6.581  -1.509  -7.529  0.00  0.00     0.064 H 
ATOM     28  C   LIG d   1       6.437  -4.632  -6.263  0.00  0.00    -0.062 A 
ATOM     29  H   LIG d   1       7.709  -3.689  -7.699  0.00  0.00     0.062 H 
ATOM     30  C   LIG d   1       5.366  -4.478  -5.402  0.00  0.00    -0.060 A 
ATOM     31  H   LIG d   1       6.933  -5.588  -6.339  0.00  0.00     0.062 H 
ATOM     32  C   LIG d   1       4.732  -3.255  -5.298  0.00  0.00    -0.040 A 
ATOM     33  H   LIG d   1       5.028  -5.313  -4.806  0.00  0.00     0.062 H 
ATOM     34  H   LIG d   1       3.899  -3.135  -4.622  0.00  0.00     0.064 H 
ENDBRANCH   1  24
BRANCH   1  35
ATOM     35  C   LIG d   1       4.470  -0.279  -4.739  0.00  0.00     0.042 A 
ATOM     36  C   LIG d   1       3.244  -0.030  -4.133  0.00  0.00    -0.040 A 
ATOM     37  C   LIG d   1       3.198   0.627  -2.919  0.00  0.00    -0.060 A 
ATOM     38  H   LIG d   1       2.330  -0.349  -4.611  0.00  0.00     0.064 H 
ATOM     39  C   LIG d   1       4.367   1.036  -2.306  0.00  0.00    -0.062 A 
ATOM     40  H   LIG d   1       2.245   0.822  -2.448  0.00  0.00     0.062 H 
ATOM     41  C   LIG d   1       5.589   0.789  -2.906  0.00  0.00    -0.060 A 
ATOM     42  H   LIG d   1       4.328   1.549  -1.358  0.00  0.00     0.062 H 
ATOM     43  C   LIG d   1       5.643   0.128  -4.119  0.00  0.00    -0.040 A 
ATOM     44  H   LIG d   1       6.501   1.108  -2.425  0.00  0.00     0.062 H 
ATOM     45  H   LIG d   1       6.597  -0.069  -4.585  0.00  0.00     0.064 H 
ENDBRANCH   1  35
TORSDOF 8
ENDMDL
MODEL 5
REMARK VINA RESULT:      -6.1      2.166      2.914
REMARK  8 active torsions:
REMARK  status: ('A' for Active; 'I' for Inactive)
REMARK    1  A    between atoms: C_1  and  C_2 
REMARK    2  A    between atoms: C_2  and  C_3 
REMARK    3  A    between atoms: C_2  and  C_4 
REMARK    4  A    between atoms: C_2  and  N_5 
REMARK    5  A    between atoms: N_5  and  C_6 
REMARK    6  A    between atoms: C_8  and  N_13 
REMARK    7  A    between atoms: N_13  and  C_14 
REMARK    8  A    between atoms: N_13  and  C_20 
ROOT
ATOM      1  N   LIG d   1       6.324  -1.319  -4.946  0.00  0.00    -0.238 N 
ENDROOT
BRANCH   1   2
ATOM      2  C   LIG d   1       6.293  -0.652  -6.157  0.00  0.00     0.232 A 
ATOM      3  N   LIG d   1       5.320  -0.900  -7.028  0.00  0.00    -0.180 NA
ATOM      4  C   LIG d   1       5.294  -0.257  -8.191  0.00  0.00     0.221 A 
ATOM      5  N   LIG d   1       6.242   0.631  -8.481  0.00  0.00    -0.184 NA
ATOM      6  C   LIG d   1       7.209   0.875  -7.612  0.00  0.00     0.229 A 
ATOM      7  N   LIG d   1       7.238   0.238  -6.453  0.00  0.00    -0.183 NA
ATOM      8 CL   LIG d   1       8.443   2.035  -7.993  0.00  0.00    -0.041 Cl
BRANCH   4   9
ATOM      9  N   LIG d   1       4.286  -0.513  -9.098  0.00  0.00    -0.309 N 
ATOM     10  H   LIG d   1       4.239  -1.374  -9.542  0.00  0.00     0.149 HD
BRANCH   9  11
ATOM     11  C   LIG d   1       3.285   0.517  -9.390  0.00  0.00     0.026 C 
BRANCH  11  12
ATOM     12  C   LIG d   1       3.786   1.406 -10.531  0.00  0.00    -0.044 C 
ATOM     13  H   LIG d   1       4.872   1.338 -10.594  0.00  0.00     0.025 H 
ATOM     14  H   LIG d   1       3.346   1.074 -11.470  0.00  0.00     0.025 H 
ATOM     15  H   LIG d   1       3.497   2.439 -10.339  0.00  0.00     0.025 H 
ENDBRANCH  11  12
BRANCH  11  16
ATOM     16  C   LIG d   1       1.972  -0.150  -9.803  0.00  0.00    -0.044 C 
ATOM     17  H   LIG d   1       1.209   0.613  -9.955  0.00  0.00     0.025 H 
ATOM     18  H   LIG d   1       2.121  -0.705 -10.729  0.00  0.00     0.025 H 
ATOM     19  H   LIG d   1       1.650  -0.834  -9.017  0.00  0.00     0.025 H 
ENDBRANCH  11  16
BRANCH  11  20
ATOM     20  C   LIG d   1       3.053   1.371  -8.142  0.00  0.00    -0.044 C 
ATOM     21  H   LIG d   1       3.629   2.293  -8.221  0.00  0.00     0.025 H 
ATOM     22  H   LIG d   1       1.993   1.610  -8.058  0.00  0.00     0.025 H 
ATOM     23  H   LIG d   1       3.372   0.818  -7.259  0.00  0.00     0.025 H 
ENDBRANCH  11  20
ENDBRANCH   9  11
ENDBRANCH   4   9
ENDBRANCH   1   2
BRANCH   1  24
ATOM     24  C   LIG d   1       5.672  -0.777  -3.832  0.00  0.00     0.042 A 
ATOM     25  C   LIG d   1       4.841  -1.576  -3.056  0.00  0.00    -0.040 A 
ATOM     26  C   LIG d   1       4.199  -1.039  -1.957  0.00  0.00    -0.060 A 
ATOM     27  H   LIG d   1       4.698  -2.615  -3.311  0.00  0.00     0.064 H 
ATOM     28  C   LIG d   1       4.384   0.292  -1.630  0.00  0.00    -0.062 A 
ATOM     29  H   LIG d   1       3.554  -1.659  -1.353  0.00  0.00     0.062 H 
ATOM     30  C   LIG d   1       5.210   1.089  -2.401  0.00  0.00    -0.060 A 
ATOM     31  H   LIG d   1       3.881   0.710  -0.771  0.00  0.00     0.062 H 
ATOM     32  C   LIG d   1       5.858   0.557  -3.498  0.00  0.00    -0.040 A 
ATOM     33  H   LIG d   1       5.352   2.129  -2.142  0.00  0.00     0.062 H 
ATOM     34  H   LIG d   1       6.506   1.180  -4.096  0.00  0.00     0.064 H 
ENDBRANCH   1  24
BRANCH   1  35
ATOM     35  C   LIG d   1       7.007  -2.535  -4.834  0.00  0.00     0.042 A 
ATOM     36  C   LIG d   1       6.534  -3.662  -5.494  0.00  0.00    -0.040 A 
ATOM     37  C   LIG d   1       7.210  -4.861  -5.382  0.00  0.00    -0.060 A 
ATOM     38  H   LIG d   1       5.637  -3.601  -6.093  0.00  0.00     0.064 H 
ATOM     39  C   LIG d   1       8.358  -4.940  -4.615  0.00  0.00    -0.062 A 
ATOM     40  H   LIG d   1       6.842  -5.737  -5.894  0.00  0.00     0.062 H 
ATOM     41  C   LIG d   1       8.833  -3.820  -3.957  0.00  0.00    -0.060 A 
ATOM     42  H   LIG d   1       8.885  -5.878  -4.529  0.00  0.00     0.062 H 
ATOM     43  C   LIG d   1       8.163  -2.617  -4.069  0.00  0.00    -0.040 A 
ATOM     44  H   LIG d   1       9.729  -3.884  -3.359  0.00  0.00     0.062 H 
ATOM     45  H   LIG d   1       8.537  -1.740  -3.559  0.00  0.00     0.064 H 
ENDBRANCH   1  35
TORSDOF 8
ENDMDL
MODEL 6
REMARK VINA RESULT:      -6.0      2.506      4.633
REMARK  8 active torsions:
REMARK  status: ('A' for Active; 'I' for Inactive)
REMARK    1  A    between atoms: C_1  and  C_2 
REMARK    2  A    between atoms: C_2  and  C_3 
REMARK    3  A    between atoms: C_2  and  C_4 
REMARK    4  A    between atoms: C_2  and  N_5 
REMARK    5  A    between atoms: N_5  and  C_6 
REMARK    6  A    between atoms: C_8  and  N_13 
REMARK    7  A    between atoms: N_13  and  C_14 
REMARK    8  A    between atoms: N_13  and  C_20 
ROOT
ATOM      1  N   LIG d   1       5.642  -1.299  -5.104  0.00  0.00    -0.238 N 
ENDROOT
BRANCH   1   2
ATOM      2  C   LIG d   1       4.931  -1.462  -6.279  0.00  0.00     0.232 A 
ATOM      3  N   LIG d   1       4.484  -0.398  -6.939  0.00  0.00    -0.180 NA
ATOM      4  C   LIG d   1       3.801  -0.559  -8.067  0.00  0.00     0.221 A 
ATOM      5  N   LIG d   1       3.565  -1.783  -8.532  0.00  0.00    -0.184 NA
ATOM      6  C   LIG d   1       4.011  -2.841  -7.873  0.00  0.00     0.229 A 
ATOM      7  N   LIG d   1       4.692  -2.684  -6.750  0.00  0.00    -0.183 NA
ATOM      8 CL   LIG d   1       3.702  -4.436  -8.483  0.00  0.00    -0.041 Cl
BRANCH   4   9
ATOM      9  N   LIG d   1       3.334   0.543  -8.755  0.00  0.00    -0.309 N 
ATOM     10  H   LIG d   1       2.409   0.818  -8.659  0.00  0.00     0.149 HD
BRANCH   9  11
ATOM     11  C   LIG d   1       4.237   1.298  -9.627  0.00  0.00     0.026 C 
BRANCH  11  12
ATOM     12  C   LIG d   1       3.874   1.031 -11.089  0.00  0.00    -0.044 C 
ATOM     13  H   LIG d   1       4.561   1.573 -11.738  0.00  0.00     0.025 H 
ATOM     14  H   LIG d   1       3.948  -0.036 -11.293  0.00  0.00     0.025 H 
ATOM     15  H   LIG d   1       2.854   1.368 -11.277  0.00  0.00     0.025 H 
ENDBRANCH  11  12
BRANCH  11  16
ATOM     16  C   LIG d   1       4.099   2.793  -9.332  0.00  0.00    -0.044 C 
ATOM     17  H   LIG d   1       3.489   3.261 -10.104  0.00  0.00     0.025 H 
ATOM     18  H   LIG d   1       3.624   2.930  -8.361  0.00  0.00     0.025 H 
ATOM     19  H   LIG d   1       5.088   3.253  -9.321  0.00  0.00     0.025 H 
ENDBRANCH  11  16
BRANCH  11  20
ATOM     20  C   LIG d   1       5.680   0.859  -9.371  0.00  0.00    -0.044 C 
ATOM     21  H   LIG d   1       6.033   1.299  -8.438  0.00  0.00     0.025 H 
ATOM     22  H   LIG d   1       5.721  -0.228  -9.298  0.00  0.00     0.025 H 
ATOM     23  H   LIG d   1       6.313   1.192 -10.193  0.00  0.00     0.025 H 
ENDBRANCH  11  20
ENDBRANCH   9  11
ENDBRANCH   4   9
ENDBRANCH   1   2
BRANCH   1  24
ATOM     24  C   LIG d   1       6.907  -1.883  -4.965  0.00  0.00     0.042 A 
ATOM     25  C   LIG d   1       7.113  -2.881  -4.022  0.00  0.00    -0.040 A 
ATOM     26  C   LIG d   1       8.362  -3.456  -3.888  0.00  0.00    -0.060 A 
ATOM     27  H   LIG d   1       6.297  -3.208  -3.394  0.00  0.00     0.064 H 
ATOM     28  C   LIG d   1       9.406  -3.038  -4.693  0.00  0.00    -0.062 A 
ATOM     29  H   LIG d   1       8.522  -4.232  -3.155  0.00  0.00     0.062 H 
ATOM     30  C   LIG d   1       9.204  -2.044  -5.632  0.00  0.00    -0.060 A 
ATOM     31  H   LIG d   1      10.381  -3.488  -4.585  0.00  0.00     0.062 H 
ATOM     32  C   LIG d   1       7.956  -1.469  -5.775  0.00  0.00    -0.040 A 
ATOM     33  H   LIG d   1      10.022  -1.721  -6.260  0.00  0.00     0.062 H 
ATOM     34  H   LIG d   1       7.799  -0.696  -6.512  0.00  0.00     0.064 H 
ENDBRANCH   1  24
BRANCH   1  35
ATOM     35  C   LIG d   1       5.098  -0.550  -4.055  0.00  0.00     0.042 A 
ATOM     36  C   LIG d   1       3.847  -0.875  -3.545  0.00  0.00    -0.040 A 
ATOM     37  C   LIG d   1       3.313  -0.134  -2.508  0.00  0.00    -0.060 A 
ATOM     38  H   LIG d   1       3.293  -1.705  -3.958  0.00  0.00     0.064 H 
ATOM     39  C   LIG d   1       4.021   0.929  -1.979  0.00  0.00    -0.062 A 
ATOM     40  H   LIG d   1       2.340  -0.386  -2.113  0.00  0.00     0.062 H 
ATOM     41  C   LIG d   1       5.267   1.254  -2.484  0.00  0.00    -0.060 A 
ATOM     42  H   LIG d   1       3.601   1.506  -1.169  0.00  0.00     0.062 H 
ATOM     43  C   LIG d   1       5.809   0.514  -3.517  0.00  0.00    -0.040 A 
ATOM     44  H   LIG d   1       5.818   2.084  -2.068  0.00  0.00     0.062 H 
ATOM     45  H   LIG d   1       6.784   0.766  -3.908  0.00  0.00     0.064 H 
ENDBRANCH   1  35
TORSDOF 8
ENDMDL
MODEL 7
REMARK VINA RESULT:      -6.0      2.426      6.126
REMARK  8 active torsions:
REMARK  status: ('A' for Active; 'I' for Inactive)
REMARK    1  A    between atoms: C_1  and  C_2 
REMARK    2  A    between atoms: C_2  and  C_3 
REMARK    3  A    between atoms: C_2  and  C_4 
REMARK    4  A    between atoms: C_2  and  N_5 
REMARK    5  A    between atoms: N_5  and  C_6 
REMARK    6  A    between atoms: C_8  and  N_13 
REMARK    7  A    between atoms: N_13  and  C_14 
REMARK    8  A    between atoms: N_13  and  C_20 
ROOT
ATOM      1  N   LIG d   1       3.986  -1.298  -8.426  0.00  0.00    -0.238 N 
ENDROOT
BRANCH   1   2
ATOM      2  C   LIG d   1       4.293  -1.755  -7.157  0.00  0.00     0.232 A 
ATOM      3  N   LIG d   1       4.494  -0.890  -6.169  0.00  0.00    -0.180 NA
ATOM      4  C   LIG d   1       4.789  -1.333  -4.952  0.00  0.00     0.221 A 
ATOM      5  N   LIG d   1       4.882  -2.641  -4.725  0.00  0.00    -0.184 NA
ATOM      6  C   LIG d   1       4.681  -3.501  -5.711  0.00  0.00     0.229 A 
ATOM      7  N   LIG d   1       4.387  -3.063  -6.924  0.00  0.00    -0.183 NA
ATOM      8 CL   LIG d   1       4.803  -5.206  -5.411  0.00  0.00    -0.041 Cl
BRANCH   4   9
ATOM      9  N   LIG d   1       5.000  -0.437  -3.923  0.00  0.00    -0.309 N 
ATOM     10  H   LIG d   1       5.768   0.156  -3.946  0.00  0.00     0.149 HD
BRANCH   9  11
ATOM     11  C   LIG d   1       4.064  -0.380  -2.797  0.00  0.00     0.026 C 
BRANCH  11  12
ATOM     12  C   LIG d   1       4.293  -1.585  -1.882  0.00  0.00    -0.044 C 
ATOM     13  H   LIG d   1       5.278  -2.007  -2.077  0.00  0.00     0.025 H 
ATOM     14  H   LIG d   1       4.233  -1.268  -0.842  0.00  0.00     0.025 H 
ATOM     15  H   LIG d   1       3.530  -2.338  -2.078  0.00  0.00     0.025 H 
ENDBRANCH  11  12
BRANCH  11  16
ATOM     16  C   LIG d   1       4.293   0.911  -2.008  0.00  0.00    -0.044 C 
ATOM     17  H   LIG d   1       3.344   1.429  -1.877  0.00  0.00     0.025 H 
ATOM     18  H   LIG d   1       4.714   0.670  -1.032  0.00  0.00     0.025 H 
ATOM     19  H   LIG d   1       4.985   1.552  -2.555  0.00  0.00     0.025 H 
ENDBRANCH  11  16
BRANCH  11  20
ATOM     20  C   LIG d   1       2.629  -0.406  -3.326  0.00  0.00    -0.044 C 
ATOM     21  H   LIG d   1       2.125   0.522  -3.055  0.00  0.00     0.025 H 
ATOM     22  H   LIG d   1       2.643  -0.509  -4.411  0.00  0.00     0.025 H 
ATOM     23  H   LIG d   1       2.096  -1.250  -2.888  0.00  0.00     0.025 H 
ENDBRANCH  11  20
ENDBRANCH   9  11
ENDBRANCH   4   9
ENDBRANCH   1   2
BRANCH   1  24
ATOM     24  C   LIG d   1       3.963   0.077  -8.688  0.00  0.00     0.042 A 
ATOM     25  C   LIG d   1       5.098   0.710  -9.178  0.00  0.00    -0.040 A 
ATOM     26  C   LIG d   1       5.072   2.067  -9.437  0.00  0.00    -0.060 A 
ATOM     27  H   LIG d   1       5.999   0.143  -9.358  0.00  0.00     0.064 H 
ATOM     28  C   LIG d   1       3.918   2.793  -9.208  0.00  0.00    -0.062 A 
ATOM     29  H   LIG d   1       5.953   2.560  -9.818  0.00  0.00     0.062 H 
ATOM     30  C   LIG d   1       2.787   2.165  -8.720  0.00  0.00    -0.060 A 
ATOM     31  H   LIG d   1       3.900   3.854  -9.411  0.00  0.00     0.062 H 
ATOM     32  C   LIG d   1       2.805   0.808  -8.464  0.00  0.00    -0.040 A 
ATOM     33  H   LIG d   1       1.887   2.736  -8.543  0.00  0.00     0.062 H 
ATOM     34  H   LIG d   1       1.920   0.318  -8.087  0.00  0.00     0.064 H 
ENDBRANCH   1  24
BRANCH   1  35
ATOM     35  C   LIG d   1       3.700  -2.211  -9.447  0.00  0.00     0.042 A 
ATOM     36  C   LIG d   1       2.385  -2.576  -9.705  0.00  0.00    -0.040 A 
ATOM     37  C   LIG d   1       2.105  -3.476 -10.715  0.00  0.00    -0.060 A 
ATOM     38  H   LIG d   1       1.582  -2.156  -9.117  0.00  0.00     0.064 H 
ATOM     39  C   LIG d   1       3.132  -4.014 -11.468  0.00  0.00    -0.062 A 
ATOM     40  H   LIG d   1       1.083  -3.761 -10.915  0.00  0.00     0.062 H 
ATOM     41  C   LIG d   1       4.443  -3.651 -11.215  0.00  0.00    -0.060 A 
ATOM     42  H   LIG d   1       2.911  -4.717 -12.256  0.00  0.00     0.062 H 
ATOM     43  C   LIG d   1       4.729  -2.748 -10.209  0.00  0.00    -0.040 A 
ATOM     44  H   LIG d   1       5.243  -4.072 -11.805  0.00  0.00     0.062 H 
ATOM     45  H   LIG d   1       5.752  -2.462 -10.014  0.00  0.00     0.064 H 
ENDBRANCH   1  35
TORSDOF 8
ENDMDL
MODEL 8
REMARK VINA RESULT:      -6.0      2.974      6.491
REMARK  8 active torsions:
REMARK  status: ('A' for Active; 'I' for Inactive)
REMARK    1  A    between atoms: C_1  and  C_2 
REMARK    2  A    between atoms: C_2  and  C_3 
REMARK    3  A    between atoms: C_2  and  C_4 
REMARK    4  A    between atoms: C_2  and  N_5 
REMARK    5  A    between atoms: N_5  and  C_6 
REMARK    6  A    between atoms: C_8  and  N_13 
REMARK    7  A    between atoms: N_13  and  C_14 
REMARK    8  A    between atoms: N_13  and  C_20 
ROOT
ATOM      1  N   LIG d   1       4.703  -0.521  -6.504  0.00  0.00    -0.238 N 
ENDROOT
BRANCH   1   2
ATOM      2  C   LIG d   1       6.056  -0.316  -6.707  0.00  0.00     0.232 A 
ATOM      3  N   LIG d   1       6.617   0.831  -6.342  0.00  0.00    -0.180 NA
ATOM      4  C   LIG d   1       7.917   1.024  -6.540  0.00  0.00     0.221 A 
ATOM      5  N   LIG d   1       8.653   0.068  -7.102  0.00  0.00    -0.184 NA
ATOM      6  C   LIG d   1       8.091  -1.074  -7.465  0.00  0.00     0.229 A 
ATOM      7  N   LIG d   1       6.797  -1.269  -7.269  0.00  0.00    -0.183 NA
ATOM      8 CL   LIG d   1       9.053  -2.318  -8.199  0.00  0.00    -0.041 Cl
BRANCH   4   9
ATOM      9  N   LIG d   1       8.504   2.215  -6.162  0.00  0.00    -0.309 N 
ATOM     10  H   LIG d   1       8.571   2.946  -6.798  0.00  0.00     0.149 HD
BRANCH   9  11
ATOM     11  C   LIG d   1       9.024   2.378  -4.803  0.00  0.00     0.026 C 
BRANCH  11  12
ATOM     12  C   LIG d   1       9.244   3.865  -4.515  0.00  0.00    -0.044 C 
ATOM     13  H   LIG d   1       8.280   4.356  -4.387  0.00  0.00     0.025 H 
ATOM     14  H   LIG d   1       9.832   3.975  -3.604  0.00  0.00     0.025 H 
ATOM     15  H   LIG d   1       9.777   4.320  -5.350  0.00  0.00     0.025 H 
ENDBRANCH  11  12
BRANCH  11  16
ATOM     16  C   LIG d   1       8.019   1.807  -3.800  0.00  0.00    -0.044 C 
ATOM     17  H   LIG d   1       7.224   1.290  -4.337  0.00  0.00     0.025 H 
ATOM     18  H   LIG d   1       8.525   1.107  -3.136  0.00  0.00     0.025 H 
ATOM     19  H   LIG d   1       7.590   2.621  -3.213  0.00  0.00     0.025 H 
ENDBRANCH  11  16
BRANCH  11  20
ATOM     20  C   LIG d   1      10.353   1.631  -4.672  0.00  0.00    -0.044 C 
ATOM     21  H   LIG d   1      10.207   0.582  -4.929  0.00  0.00     0.025 H 
ATOM     22  H   LIG d   1      11.085   2.072  -5.348  0.00  0.00     0.025 H 
ATOM     23  H   LIG d   1      10.714   1.707  -3.647  0.00  0.00     0.025 H 
ENDBRANCH  11  20
ENDBRANCH   9  11
ENDBRANCH   4   9
ENDBRANCH   1   2
BRANCH   1  24
ATOM     24  C   LIG d   1       3.808  -0.389  -7.571  0.00  0.00     0.042 A 
ATOM     25  C   LIG d   1       3.414   0.873  -7.997  0.00  0.00    -0.040 A 
ATOM     26  C   LIG d   1       2.530   1.000  -9.051  0.00  0.00    -0.060 A 
ATOM     27  H   LIG d   1       3.798   1.754  -7.505  0.00  0.00     0.064 H 
ATOM     28  C   LIG d   1       2.039  -0.128  -9.683  0.00  0.00    -0.062 A 
ATOM     29  H   LIG d   1       2.224   1.981  -9.383  0.00  0.00     0.062 H 
ATOM     30  C   LIG d   1       2.429  -1.385  -9.261  0.00  0.00    -0.060 A 
ATOM     31  H   LIG d   1       1.348  -0.026 -10.506  0.00  0.00     0.062 H 
ATOM     32  C   LIG d   1       3.316  -1.519  -8.211  0.00  0.00    -0.040 A 
ATOM     33  H   LIG d   1       2.044  -2.265  -9.757  0.00  0.00     0.062 H 
ATOM     34  H   LIG d   1       3.623  -2.502  -7.885  0.00  0.00     0.064 H 
ENDBRANCH   1  24
BRANCH   1  35
ATOM     35  C   LIG d   1       4.230  -0.861  -5.231  0.00  0.00     0.042 A 
ATOM     36  C   LIG d   1       4.742  -1.973  -4.574  0.00  0.00    -0.040 A 
ATOM     37  C   LIG d   1       4.273  -2.305  -3.318  0.00  0.00    -0.060 A 
ATOM     38  H   LIG d   1       5.504  -2.576  -5.044  0.00  0.00     0.064 H 
ATOM     39  C   LIG d   1       3.297  -1.534  -2.715  0.00  0.00    -0.062 A 
ATOM     40  H   LIG d   1       4.670  -3.170  -2.807  0.00  0.00     0.062 H 
ATOM     41  C   LIG d   1       2.787  -0.426  -3.367  0.00  0.00    -0.060 A 
ATOM     42  H   LIG d   1       2.933  -1.796  -1.733  0.00  0.00     0.062 H 
ATOM     43  C   LIG d   1       3.254  -0.085  -4.621  0.00  0.00    -0.040 A 
ATOM     44  H   LIG d   1       2.025   0.176  -2.893  0.00  0.00     0.062 H 
ATOM     45  H   LIG d   1       2.859   0.784  -5.128  0.00  0.00     0.064 H 
ENDBRANCH   1  35
TORSDOF 8
ENDMDL
MODEL 9
REMARK VINA RESULT:      -6.0      2.978      6.121
REMARK  8 active torsions:
REMARK  status: ('A' for Active; 'I' for Inactive)
REMARK    1  A    between atoms: C_1  and  C_2 
REMARK    2  A    between atoms: C_2  and  C_3 
REMARK    3  A    between atoms: C_2  and  C_4 
REMARK    4  A    between atoms: C_2  and  N_5 
REMARK    5  A    between atoms: N_5  and  C_6 
REMARK    6  A    between atoms: C_8  and  N_13 
REMARK    7  A    between atoms: N_13  and  C_14 
REMARK    8  A    between atoms: N_13  and  C_20 
ROOT
ATOM      1  N   LIG d   1       4.716  -0.538  -6.496  0.00  0.00    -0.238 N 
ENDROOT
BRANCH   1   2
ATOM      2  C   LIG d   1       6.067  -0.327  -6.700  0.00  0.00     0.232 A 
ATOM      3  N   LIG d   1       6.621   0.827  -6.343  0.00  0.00    -0.180 NA
ATOM      4  C   LIG d   1       7.920   1.025  -6.542  0.00  0.00     0.221 A 
ATOM      5  N   LIG d   1       8.662   0.071  -7.098  0.00  0.00    -0.184 NA
ATOM      6  C   LIG d   1       8.107  -1.077  -7.452  0.00  0.00     0.229 A 
ATOM      7  N   LIG d   1       6.814  -1.279  -7.255  0.00  0.00    -0.183 NA
ATOM      8 CL   LIG d   1       9.077  -2.321  -8.177  0.00  0.00    -0.041 Cl
BRANCH   4   9
ATOM      9  N   LIG d   1       8.500   2.223  -6.173  0.00  0.00    -0.309 N 
ATOM     10  H   LIG d   1       8.566   2.948  -6.814  0.00  0.00     0.149 HD
BRANCH   9  11
ATOM     11  C   LIG d   1       9.013   2.400  -4.812  0.00  0.00     0.026 C 
BRANCH  11  12
ATOM     12  C   LIG d   1      10.345   1.660  -4.670  0.00  0.00    -0.044 C 
ATOM     13  H   LIG d   1      10.623   1.226  -5.630  0.00  0.00     0.025 H 
ATOM     14  H   LIG d   1      11.117   2.359  -4.350  0.00  0.00     0.025 H 
ATOM     15  H   LIG d   1      10.242   0.867  -3.928  0.00  0.00     0.025 H 
ENDBRANCH  11  12
BRANCH  11  16
ATOM     16  C   LIG d   1       9.226   3.890  -4.537  0.00  0.00    -0.044 C 
ATOM     17  H   LIG d   1       9.911   4.010  -3.697  0.00  0.00     0.025 H 
ATOM     18  H   LIG d   1       9.648   4.367  -5.421  0.00  0.00     0.025 H 
ATOM     19  H   LIG d   1       8.269   4.354  -4.294  0.00  0.00     0.025 H 
ENDBRANCH  11  16
BRANCH  11  20
ATOM     20  C   LIG d   1       8.006   1.835  -3.809  0.00  0.00    -0.044 C 
ATOM     21  H   LIG d   1       7.981   0.748  -3.893  0.00  0.00     0.025 H 
ATOM     22  H   LIG d   1       8.303   2.115  -2.799  0.00  0.00     0.025 H 
ATOM     23  H   LIG d   1       7.016   2.239  -4.022  0.00  0.00     0.025 H 
ENDBRANCH  11  20
ENDBRANCH   9  11
ENDBRANCH   4   9
ENDBRANCH   1   2
BRANCH   1  24
ATOM     24  C   LIG d   1       4.246  -0.881  -5.222  0.00  0.00     0.042 A 
ATOM     25  C   LIG d   1       3.282  -0.096  -4.602  0.00  0.00    -0.040 A 
ATOM     26  C   LIG d   1       2.820  -0.438  -3.346  0.00  0.00    -0.060 A 
ATOM     27  H   LIG d   1       2.894   0.779  -5.102  0.00  0.00     0.064 H 
ATOM     28  C   LIG d   1       3.315  -1.559  -2.707  0.00  0.00    -0.062 A 
ATOM     29  H   LIG d   1       2.070   0.172  -2.863  0.00  0.00     0.062 H 
ATOM     30  C   LIG d   1       4.275  -2.342  -3.322  0.00  0.00    -0.060 A 
ATOM     31  H   LIG d   1       2.953  -1.824  -1.725  0.00  0.00     0.062 H 
ATOM     32  C   LIG d   1       4.738  -2.009  -4.580  0.00  0.00    -0.040 A 
ATOM     33  H   LIG d   1       4.660  -3.218  -2.819  0.00  0.00     0.062 H 
ATOM     34  H   LIG d   1       5.484  -2.623  -5.060  0.00  0.00     0.064 H 
ENDBRANCH   1  24
BRANCH   1  35
ATOM     35  C   LIG d   1       3.818  -0.409  -7.561  0.00  0.00     0.042 A 
ATOM     36  C   LIG d   1       3.331  -1.542  -8.201  0.00  0.00    -0.040 A 
ATOM     37  C   LIG d   1       2.444  -1.410  -9.252  0.00  0.00    -0.060 A 
ATOM     38  H   LIG d   1       3.644  -2.523  -7.877  0.00  0.00     0.064 H 
ATOM     39  C   LIG d   1       2.043  -0.155  -9.669  0.00  0.00    -0.062 A 
ATOM     40  H   LIG d   1       2.066  -2.291  -9.751  0.00  0.00     0.062 H 
ATOM     41  C   LIG d   1       2.526   0.975  -9.033  0.00  0.00    -0.060 A 
ATOM     42  H   LIG d   1       1.351  -0.055 -10.491  0.00  0.00     0.062 H 
ATOM     43  C   LIG d   1       3.409   0.851  -7.978  0.00  0.00    -0.040 A 
ATOM     44  H   LIG d   1       2.211   1.955  -9.360  0.00  0.00     0.062 H 
ATOM     45  H   LIG d   1       3.783   1.733  -7.479  0.00  0.00     0.064 H 
ENDBRANCH   1  35
TORSDOF 8
ENDMDL
MODEL 10
REMARK VINA RESULT:      -5.8      2.942      6.267
REMARK  8 active torsions:
REMARK  status: ('A' for Active; 'I' for Inactive)
REMARK    1  A    between atoms: C_1  and  C_2 
REMARK    2  A    between atoms: C_2  and  C_3 
REMARK    3  A    between atoms: C_2  and  C_4 
REMARK    4  A    between atoms: C_2  and  N_5 
REMARK    5  A    between atoms: N_5  and  C_6 
REMARK    6  A    between atoms: C_8  and  N_13 
REMARK    7  A    between atoms: N_13  and  C_14 
REMARK    8  A    between atoms: N_13  and  C_20 
ROOT
ATOM      1  N   LIG d   1       4.747  -0.600  -6.662  0.00  0.00    -0.238 N 
ENDROOT
BRANCH   1   2
ATOM      2  C   LIG d   1       5.367  -0.201  -5.491  0.00  0.00     0.232 A 
ATOM      3  N   LIG d   1       6.693  -0.158  -5.422  0.00  0.00    -0.180 NA
ATOM      4  C   LIG d   1       7.283   0.225  -4.295  0.00  0.00     0.221 A 
ATOM      5  N   LIG d   1       6.547   0.563  -3.239  0.00  0.00    -0.184 NA
ATOM      6  C   LIG d   1       5.226   0.519  -3.312  0.00  0.00     0.229 A 
ATOM      7  N   LIG d   1       4.635   0.138  -4.432  0.00  0.00    -0.183 NA
ATOM      8 CL   LIG d   1       4.268   0.961  -1.934  0.00  0.00    -0.041 Cl
BRANCH   4   9
ATOM      9  N   LIG d   1       8.661   0.270  -4.218  0.00  0.00    -0.309 N 
ATOM     10  H   LIG d   1       9.155  -0.502  -3.902  0.00  0.00     0.149 HD
BRANCH   9  11
ATOM     11  C   LIG d   1       9.377   1.484  -4.617  0.00  0.00     0.026 C 
BRANCH  11  12
ATOM     12  C   LIG d   1      10.773   1.111  -5.122  0.00  0.00    -0.044 C 
ATOM     13  H   LIG d   1      11.085   0.172  -4.665  0.00  0.00     0.025 H 
ATOM     14  H   LIG d   1      10.749   0.998  -6.205  0.00  0.00     0.025 H 
ATOM     15  H   LIG d   1      11.478   1.897  -4.853  0.00  0.00     0.025 H 
ENDBRANCH  11  12
BRANCH  11  16
ATOM     16  C   LIG d   1       8.604   2.191  -5.732  0.00  0.00    -0.044 C 
ATOM     17  H   LIG d   1       7.608   1.756  -5.815  0.00  0.00     0.025 H 
ATOM     18  H   LIG d   1       8.519   3.252  -5.499  0.00  0.00     0.025 H 
ATOM     19  H   LIG d   1       9.134   2.066  -6.676  0.00  0.00     0.025 H 
ENDBRANCH  11  16
BRANCH  11  20
ATOM     20  C   LIG d   1       9.504   2.420  -3.413  0.00  0.00    -0.044 C 
ATOM     21  H   LIG d   1      10.058   1.918  -2.619  0.00  0.00     0.025 H 
ATOM     22  H   LIG d   1      10.035   3.324  -3.710  0.00  0.00     0.025 H 
ATOM     23  H   LIG d   1       8.510   2.684  -3.051  0.00  0.00     0.025 H 
ENDBRANCH  11  20
ENDBRANCH   9  11
ENDBRANCH   4   9
ENDBRANCH   1   2
BRANCH   1  24
ATOM     24  C   LIG d   1       4.385   0.353  -7.621  0.00  0.00     0.042 A 
ATOM     25  C   LIG d   1       3.078   0.819  -7.679  0.00  0.00    -0.040 A 
ATOM     26  C   LIG d   1       2.724   1.760  -8.626  0.00  0.00    -0.060 A 
ATOM     27  H   LIG d   1       2.339   0.448  -6.984  0.00  0.00     0.064 H 
ATOM     28  C   LIG d   1       3.669   2.238  -9.515  0.00  0.00    -0.062 A 
ATOM     29  H   LIG d   1       1.708   2.123  -8.672  0.00  0.00     0.062 H 
ATOM     30  C   LIG d   1       4.971   1.775  -9.460  0.00  0.00    -0.060 A 
ATOM     31  H   LIG d   1       3.389   2.973 -10.255  0.00  0.00     0.062 H 
ATOM     32  C   LIG d   1       5.333   0.838  -8.512  0.00  0.00    -0.040 A 
ATOM     33  H   LIG d   1       5.707   2.151 -10.156  0.00  0.00     0.062 H 
ATOM     34  H   LIG d   1       6.351   0.481  -8.467  0.00  0.00     0.064 H 
ENDBRANCH   1  24
BRANCH   1  35
ATOM     35  C   LIG d   1       4.484  -1.955  -6.888  0.00  0.00     0.042 A 
ATOM     36  C   LIG d   1       3.967  -2.369  -8.109  0.00  0.00    -0.040 A 
ATOM     37  C   LIG d   1       3.708  -3.708  -8.329  0.00  0.00    -0.060 A 
ATOM     38  H   LIG d   1       3.767  -1.645  -8.885  0.00  0.00     0.064 H 
ATOM     39  C   LIG d   1       3.963  -4.636  -7.336  0.00  0.00    -0.062 A 
ATOM     40  H   LIG d   1       3.305  -4.030  -9.278  0.00  0.00     0.062 H 
ATOM     41  C   LIG d   1       4.479  -4.227  -6.120  0.00  0.00    -0.060 A 
ATOM     42  H   LIG d   1       3.760  -5.681  -7.511  0.00  0.00     0.062 H 
ATOM     43  C   LIG d   1       4.744  -2.890  -5.895  0.00  0.00    -0.040 A 
ATOM     44  H   LIG d   1       4.678  -4.954  -5.346  0.00  0.00     0.062 H 
ATOM     45  H   LIG d   1       5.151  -2.572  -4.946  0.00  0.00     0.064 H 
ENDBRANCH   1  35
TORSDOF 8
ENDMDL
