MODEL 1
REMARK VINA RESULT:      -7.4      0.000      0.000
REMARK  11 active torsions:
REMARK  status: ('A' for Active; 'I' for Inactive)
REMARK    1  A    between atoms: C_1  and  C_2 
REMARK    2  A    between atoms: C_6  and  O_35 
REMARK    3  A    between atoms: C_7  and  O_33 
REMARK       I    between atoms: N_12  and  C_13 
REMARK    4  A    between atoms: C_13  and  C_15 
REMARK    5  A    between atoms: C_15  and  S_16 
REMARK    6  A    between atoms: S_16  and  C_17 
REMARK    7  A    between atoms: N_23  and  C_24 
REMARK    8  A    between atoms: C_29  and  O_30 
REMARK    9  A    between atoms: O_30  and  C_31 
REMARK   10  A    between atoms: O_33  and  C_34 
REMARK   11  A    between atoms: O_35  and  C_36 
ROOT
ATOM      1  C   LIG d   1       9.552   3.429  -3.409  0.00  0.00     0.049 C 
ATOM      2  H   LIG d   1       8.759   3.278  -2.676  0.00  0.00     0.055 H 
ATOM      3  C   LIG d   1       9.688   4.901  -3.706  0.00  0.00    -0.020 A 
ATOM      4  C   LIG d   1       9.758   5.774  -2.628  0.00  0.00    -0.011 A 
ATOM      5  C   LIG d   1       9.894   7.135  -2.834  0.00  0.00     0.162 A 
ATOM      6  C   LIG d   1       9.961   7.630  -4.132  0.00  0.00     0.162 A 
ATOM      7  C   LIG d   1       9.888   6.758  -5.202  0.00  0.00    -0.013 A 
ATOM      8  C   LIG d   1       9.745   5.391  -4.992  0.00  0.00    -0.037 A 
ATOM      9  C   LIG d   1       9.643   4.506  -6.208  0.00  0.00    -0.011 C 
ATOM     10  C   LIG d   1       9.974   3.057  -5.856  0.00  0.00     0.019 C 
ATOM     11  N   LIG d   1       9.222   2.705  -4.641  0.00  0.00    -0.294 N 
ATOM     12  C   LIG d   1       8.267   1.754  -4.660  0.00  0.00     0.226 C 
ATOM     13  O   LIG d   1       7.662   1.481  -3.645  0.00  0.00    -0.275 OA
ATOM     14  H   LIG d   1       9.706   5.386  -1.621  0.00  0.00     0.066 H 
ATOM     15  H   LIG d   1       9.939   7.141  -6.210  0.00  0.00     0.066 H 
ATOM     16  H   LIG d   1       8.629   4.557  -6.604  0.00  0.00     0.033 H 
ATOM     17  H   LIG d   1      10.342   4.859  -6.967  0.00  0.00     0.033 H 
ATOM     18  H   LIG d   1       9.679   2.402  -6.675  0.00  0.00     0.047 H 
ATOM     19  H   LIG d   1      11.042   2.957  -5.669  0.00  0.00     0.047 H 
ENDROOT
BRANCH   1  20
ATOM     20  C   LIG d   1      10.873   2.899  -2.845  0.00  0.00    -0.042 C 
ATOM     21  H   LIG d   1      11.562   2.697  -3.665  0.00  0.00     0.025 H 
ATOM     22  H   LIG d   1      11.308   3.643  -2.179  0.00  0.00     0.025 H 
ATOM     23  H   LIG d   1      10.688   1.979  -2.292  0.00  0.00     0.025 H 
ENDBRANCH   1  20
BRANCH  12  24
ATOM     24  C   LIG d   1       7.952   1.028  -5.943  0.00  0.00     0.078 C 
ATOM     25  H   LIG d   1       7.412   1.695  -6.614  0.00  0.00     0.048 H 
ATOM     26  H   LIG d   1       8.880   0.708  -6.417  0.00  0.00     0.048 H 
BRANCH  24  27
ATOM     27  S   LIG d   1       6.926  -0.423  -5.581  0.00  0.00    -0.078 SA
BRANCH  27  28
ATOM     28  C   LIG d   1       5.381  -0.055  -6.342  0.00  0.00     0.176 A 
ATOM     29  N   LIG d   1       5.350   0.256  -7.623  0.00  0.00    -0.239 NA
ATOM     30  C   LIG d   1       4.198   0.541  -8.237  0.00  0.00    -0.004 A 
ATOM     31  C   LIG d   1       3.011   0.514  -7.524  0.00  0.00     0.014 A 
ATOM     32  O   LIG d   1       4.192   0.857  -9.554  0.00  0.00    -0.860 OA
ATOM     33  C   LIG d   1       3.049   0.184  -6.165  0.00  0.00     0.259 A 
ATOM     34  H   LIG d   1       2.073   0.743  -8.009  0.00  0.00     0.068 H 
ATOM     35  O   LIG d   1       2.022   0.149  -5.505  0.00  0.00    -0.267 OA
ATOM     36  N   LIG d   1       4.240  -0.101  -5.597  0.00  0.00    -0.252 N 
BRANCH  36  37
ATOM     37  C   LIG d   1       4.304  -0.440  -4.238  0.00  0.00     0.093 A 
ATOM     38  C   LIG d   1       4.219  -1.774  -3.845  0.00  0.00     0.144 A 
ATOM     39  C   LIG d   1       4.290  -2.103  -2.502  0.00  0.00    -0.018 A 
ATOM     40  C   LIG d   1       4.433  -1.109  -1.552  0.00  0.00    -0.058 A 
ATOM     41  H   LIG d   1       4.229  -3.138  -2.195  0.00  0.00     0.066 H 
ATOM     42  C   LIG d   1       4.512   0.215  -1.940  0.00  0.00    -0.060 A 
ATOM     43  H   LIG d   1       4.484  -1.367  -0.505  0.00  0.00     0.062 H 
ATOM     44  C   LIG d   1       4.449   0.553  -3.280  0.00  0.00    -0.034 A 
ATOM     45  H   LIG d   1       4.624   0.990  -1.196  0.00  0.00     0.062 H 
ATOM     46  H   LIG d   1       4.511   1.588  -3.580  0.00  0.00     0.064 H 
BRANCH  38  47
ATOM     47  O   LIG d   1       4.072  -2.750  -4.780  0.00  0.00    -0.493 OA
BRANCH  47  48
ATOM     48  C   LIG d   1       5.119  -3.717  -4.879  0.00  0.00     0.079 C 
ATOM     49  H   LIG d   1       5.235  -4.022  -5.920  0.00  0.00     0.066 H 
ATOM     50  H   LIG d   1       6.052  -3.280  -4.523  0.00  0.00     0.066 H 
ATOM     51  H   LIG d   1       4.871  -4.587  -4.271  0.00  0.00     0.066 H 
ENDBRANCH  47  48
ENDBRANCH  38  47
ENDBRANCH  36  37
ENDBRANCH  27  28
ENDBRANCH  24  27
ENDBRANCH  12  24
BRANCH   5  52
ATOM     52  O   LIG d   1       9.959   7.983  -1.773  0.00  0.00    -0.491 OA
BRANCH  52  53
ATOM     53  C   LIG d   1      10.341   7.422  -0.516  0.00  0.00     0.079 C 
ATOM     54  H   LIG d   1      11.425   7.477  -0.407  0.00  0.00     0.066 H 
ATOM     55  H   LIG d   1       9.867   7.981   0.291  0.00  0.00     0.066 H 
ATOM     56  H   LIG d   1      10.023   6.380  -0.471  0.00  0.00     0.066 H 
ENDBRANCH  52  53
ENDBRANCH   5  52
BRANCH   6  57
ATOM     57  O   LIG d   1      10.100   8.965  -4.349  0.00  0.00    -0.491 OA
BRANCH  57  58
ATOM     58  C   LIG d   1       9.571   9.483  -5.572  0.00  0.00     0.079 C 
ATOM     59  H   LIG d   1       8.506   9.258  -5.631  0.00  0.00     0.066 H 
ATOM     60  H   LIG d   1       9.718  10.563  -5.603  0.00  0.00     0.066 H 
ATOM     61  H   LIG d   1      10.087   9.022  -6.414  0.00  0.00     0.066 H 
ENDBRANCH  57  58
ENDBRANCH   6  57
TORSDOF 11
ENDMDL
MODEL 2
REMARK VINA RESULT:      -7.0      1.746      2.996
REMARK  11 active torsions:
REMARK  status: ('A' for Active; 'I' for Inactive)
REMARK    1  A    between atoms: C_1  and  C_2 
REMARK    2  A    between atoms: C_6  and  O_35 
REMARK    3  A    between atoms: C_7  and  O_33 
REMARK       I    between atoms: N_12  and  C_13 
REMARK    4  A    between atoms: C_13  and  C_15 
REMARK    5  A    between atoms: C_15  and  S_16 
REMARK    6  A    between atoms: S_16  and  C_17 
REMARK    7  A    between atoms: N_23  and  C_24 
REMARK    8  A    between atoms: C_29  and  O_30 
REMARK    9  A    between atoms: O_30  and  C_31 
REMARK   10  A    between atoms: O_33  and  C_34 
REMARK   11  A    between atoms: O_35  and  C_36 
ROOT
ATOM      1  C   LIG d   1       9.347   3.892  -3.841  0.00  0.00     0.049 C 
ATOM      2  H   LIG d   1       8.403   4.055  -3.319  0.00  0.00     0.055 H 
ATOM      3  C   LIG d   1       9.537   4.966  -4.882  0.00  0.00    -0.020 A 
ATOM      4  C   LIG d   1       9.341   6.285  -4.492  0.00  0.00    -0.011 A 
ATOM      5  C   LIG d   1       9.509   7.318  -5.397  0.00  0.00     0.162 A 
ATOM      6  C   LIG d   1       9.880   7.030  -6.707  0.00  0.00     0.162 A 
ATOM      7  C   LIG d   1      10.071   5.716  -7.091  0.00  0.00    -0.013 A 
ATOM      8  C   LIG d   1       9.894   4.679  -6.180  0.00  0.00    -0.037 A 
ATOM      9  C   LIG d   1      10.093   3.272  -6.680  0.00  0.00    -0.011 C 
ATOM     10  C   LIG d   1      10.342   2.312  -5.519  0.00  0.00     0.019 C 
ATOM     11  N   LIG d   1       9.326   2.576  -4.488  0.00  0.00    -0.294 N 
ATOM     12  C   LIG d   1       8.411   1.645  -4.152  0.00  0.00     0.226 C 
ATOM     13  O   LIG d   1       7.585   1.887  -3.299  0.00  0.00    -0.275 OA
ATOM     14  H   LIG d   1       9.054   6.506  -3.475  0.00  0.00     0.066 H 
ATOM     15  H   LIG d   1      10.358   5.491  -8.107  0.00  0.00     0.066 H 
ATOM     16  H   LIG d   1       9.201   2.955  -7.222  0.00  0.00     0.033 H 
ATOM     17  H   LIG d   1      10.949   3.249  -7.355  0.00  0.00     0.033 H 
ATOM     18  H   LIG d   1      10.257   1.283  -5.866  0.00  0.00     0.047 H 
ATOM     19  H   LIG d   1      11.337   2.481  -5.107  0.00  0.00     0.047 H 
ENDROOT
BRANCH   1  20
ATOM     20  C   LIG d   1      10.500   3.947  -2.836  0.00  0.00    -0.042 C 
ATOM     21  H   LIG d   1      11.182   4.752  -3.111  0.00  0.00     0.025 H 
ATOM     22  H   LIG d   1      10.104   4.131  -1.838  0.00  0.00     0.025 H 
ATOM     23  H   LIG d   1      11.036   2.998  -2.847  0.00  0.00     0.025 H 
ENDBRANCH   1  20
BRANCH  12  24
ATOM     24  C   LIG d   1       8.417   0.302  -4.837  0.00  0.00     0.078 C 
ATOM     25  H   LIG d   1       9.281   0.235  -5.497  0.00  0.00     0.048 H 
ATOM     26  H   LIG d   1       8.470  -0.488  -4.087  0.00  0.00     0.048 H 
BRANCH  24  27
ATOM     27  S   LIG d   1       6.898   0.112  -5.809  0.00  0.00    -0.078 SA
BRANCH  27  28
ATOM     28  C   LIG d   1       6.445  -1.573  -5.567  0.00  0.00     0.176 A 
ATOM     29  N   LIG d   1       7.061  -2.513  -6.256  0.00  0.00    -0.239 NA
ATOM     30  C   LIG d   1       6.747  -3.802  -6.100  0.00  0.00    -0.004 A 
ATOM     31  C   LIG d   1       5.757  -4.167  -5.203  0.00  0.00     0.014 A 
ATOM     32  O   LIG d   1       7.394  -4.749  -6.820  0.00  0.00    -0.860 OA
ATOM     33  C   LIG d   1       5.106  -3.167  -4.474  0.00  0.00     0.259 A 
ATOM     34  H   LIG d   1       5.494  -5.207  -5.068  0.00  0.00     0.068 H 
ATOM     35  O   LIG d   1       4.229  -3.452  -3.673  0.00  0.00    -0.267 OA
ATOM     36  N   LIG d   1       5.468  -1.881  -4.667  0.00  0.00    -0.252 N 
BRANCH  36  37
ATOM     37  C   LIG d   1       4.834  -0.859  -3.945  0.00  0.00     0.093 A 
ATOM     38  C   LIG d   1       3.755  -0.175  -4.502  0.00  0.00     0.144 A 
ATOM     39  C   LIG d   1       3.128   0.828  -3.782  0.00  0.00    -0.018 A 
ATOM     40  C   LIG d   1       3.579   1.157  -2.517  0.00  0.00    -0.058 A 
ATOM     41  H   LIG d   1       2.289   1.357  -4.210  0.00  0.00     0.066 H 
ATOM     42  C   LIG d   1       4.652   0.482  -1.966  0.00  0.00    -0.060 A 
ATOM     43  H   LIG d   1       3.092   1.942  -1.958  0.00  0.00     0.062 H 
ATOM     44  C   LIG d   1       5.280  -0.525  -2.675  0.00  0.00    -0.034 A 
ATOM     45  H   LIG d   1       5.002   0.742  -0.977  0.00  0.00     0.062 H 
ATOM     46  H   LIG d   1       6.118  -1.050  -2.241  0.00  0.00     0.064 H 
BRANCH  38  47
ATOM     47  O   LIG d   1       3.317  -0.495  -5.749  0.00  0.00    -0.493 OA
BRANCH  47  48
ATOM     48  C   LIG d   1       2.821   0.574  -6.556  0.00  0.00     0.079 C 
ATOM     49  H   LIG d   1       2.810   1.495  -5.972  0.00  0.00     0.066 H 
ATOM     50  H   LIG d   1       3.466   0.703  -7.425  0.00  0.00     0.066 H 
ATOM     51  H   LIG d   1       1.809   0.342  -6.887  0.00  0.00     0.066 H 
ENDBRANCH  47  48
ENDBRANCH  38  47
ENDBRANCH  36  37
ENDBRANCH  27  28
ENDBRANCH  24  27
ENDBRANCH  12  24
BRANCH   5  52
ATOM     52  O   LIG d   1       9.313   8.606  -5.008  0.00  0.00    -0.491 OA
BRANCH  52  53
ATOM     53  C   LIG d   1      10.252   9.154  -4.082  0.00  0.00     0.079 C 
ATOM     54  H   LIG d   1      11.163   9.437  -4.611  0.00  0.00     0.066 H 
ATOM     55  H   LIG d   1       9.821  10.035  -3.606  0.00  0.00     0.066 H 
ATOM     56  H   LIG d   1      10.490   8.410  -3.321  0.00  0.00     0.066 H 
ENDBRANCH  52  53
ENDBRANCH   5  52
BRANCH   6  57
ATOM     57  O   LIG d   1      10.054   8.035  -7.605  0.00  0.00    -0.491 OA
BRANCH  57  58
ATOM     58  C   LIG d   1       8.928   8.387  -8.413  0.00  0.00     0.079 C 
ATOM     59  H   LIG d   1       8.034   8.425  -7.791  0.00  0.00     0.066 H 
ATOM     60  H   LIG d   1       9.099   9.362  -8.868  0.00  0.00     0.066 H 
ATOM     61  H   LIG d   1       8.796   7.639  -9.195  0.00  0.00     0.066 H 
ENDBRANCH  57  58
ENDBRANCH   6  57
TORSDOF 11
ENDMDL
MODEL 3
REMARK VINA RESULT:      -6.4      5.354     10.763
REMARK  11 active torsions:
REMARK  status: ('A' for Active; 'I' for Inactive)
REMARK    1  A    between atoms: C_1  and  C_2 
REMARK    2  A    between atoms: C_6  and  O_35 
REMARK    3  A    between atoms: C_7  and  O_33 
REMARK       I    between atoms: N_12  and  C_13 
REMARK    4  A    between atoms: C_13  and  C_15 
REMARK    5  A    between atoms: C_15  and  S_16 
REMARK    6  A    between atoms: S_16  and  C_17 
REMARK    7  A    between atoms: N_23  and  C_24 
REMARK    8  A    between atoms: C_29  and  O_30 
REMARK    9  A    between atoms: O_30  and  C_31 
REMARK   10  A    between atoms: O_33  and  C_34 
REMARK   11  A    between atoms: O_35  and  C_36 
ROOT
ATOM      1  C   LIG d   1       6.324  -8.680  -4.567  0.00  0.00     0.049 C 
ATOM      2  H   LIG d   1       5.347  -8.667  -4.084  0.00  0.00     0.055 H 
ATOM      3  C   LIG d   1       7.402  -8.746  -3.514  0.00  0.00    -0.020 A 
ATOM      4  C   LIG d   1       7.268  -9.697  -2.511  0.00  0.00    -0.011 A 
ATOM      5  C   LIG d   1       8.227  -9.817  -1.523  0.00  0.00     0.162 A 
ATOM      6  C   LIG d   1       9.336  -8.976  -1.537  0.00  0.00     0.162 A 
ATOM      7  C   LIG d   1       9.464  -8.029  -2.536  0.00  0.00    -0.013 A 
ATOM      8  C   LIG d   1       8.494  -7.908  -3.525  0.00  0.00    -0.037 A 
ATOM      9  C   LIG d   1       8.689  -6.834  -4.563  0.00  0.00    -0.011 C 
ATOM     10  C   LIG d   1       7.852  -7.121  -5.808  0.00  0.00     0.019 C 
ATOM     11  N   LIG d   1       6.490  -7.462  -5.367  0.00  0.00    -0.294 N 
ATOM     12  C   LIG d   1       5.436  -6.685  -5.686  0.00  0.00     0.226 C 
ATOM     13  O   LIG d   1       4.324  -6.988  -5.312  0.00  0.00    -0.275 OA
ATOM     14  H   LIG d   1       6.407 -10.349  -2.503  0.00  0.00     0.066 H 
ATOM     15  H   LIG d   1      10.324  -7.376  -2.547  0.00  0.00     0.066 H 
ATOM     16  H   LIG d   1       8.391  -5.872  -4.144  0.00  0.00     0.033 H 
ATOM     17  H   LIG d   1       9.742  -6.791  -4.841  0.00  0.00     0.033 H 
ATOM     18  H   LIG d   1       7.824  -6.239  -6.445  0.00  0.00     0.047 H 
ATOM     19  H   LIG d   1       8.282  -7.959  -6.356  0.00  0.00     0.047 H 
ENDROOT
BRANCH   1  20
ATOM     20  C   LIG d   1       6.426  -9.906  -5.478  0.00  0.00    -0.042 C 
ATOM     21  H   LIG d   1       7.277 -10.515  -5.173  0.00  0.00     0.025 H 
ATOM     22  H   LIG d   1       5.511 -10.493  -5.400  0.00  0.00     0.025 H 
ATOM     23  H   LIG d   1       6.563  -9.581  -6.509  0.00  0.00     0.025 H 
ENDBRANCH   1  20
BRANCH  12  24
ATOM     24  C   LIG d   1       5.641  -5.439  -6.511  0.00  0.00     0.078 C 
ATOM     25  H   LIG d   1       6.703  -5.315  -6.723  0.00  0.00     0.048 H 
ATOM     26  H   LIG d   1       5.090  -5.529  -7.447  0.00  0.00     0.048 H 
BRANCH  24  27
ATOM     27  S   LIG d   1       5.038  -3.998  -5.589  0.00  0.00    -0.078 SA
BRANCH  27  28
ATOM     28  C   LIG d   1       6.476  -3.008  -5.356  0.00  0.00     0.176 A 
ATOM     29  N   LIG d   1       7.619  -3.394  -5.888  0.00  0.00    -0.239 NA
ATOM     30  C   LIG d   1       8.732  -2.671  -5.734  0.00  0.00    -0.004 A 
ATOM     31  C   LIG d   1       8.694  -1.494  -5.005  0.00  0.00     0.014 A 
ATOM     32  O   LIG d   1       9.894  -3.088  -6.291  0.00  0.00    -0.860 OA
ATOM     33  C   LIG d   1       7.479  -1.088  -4.443  0.00  0.00     0.259 A 
ATOM     34  H   LIG d   1       9.587  -0.900  -4.874  0.00  0.00     0.068 H 
ATOM     35  O   LIG d   1       7.408  -0.056  -3.794  0.00  0.00    -0.267 OA
ATOM     36  N   LIG d   1       6.385  -1.856  -4.634  0.00  0.00    -0.252 N 
BRANCH  36  37
ATOM     37  C   LIG d   1       5.154  -1.468  -4.085  0.00  0.00     0.093 A 
ATOM     38  C   LIG d   1       4.328  -0.584  -4.776  0.00  0.00     0.144 A 
ATOM     39  C   LIG d   1       3.110  -0.210  -4.232  0.00  0.00    -0.018 A 
ATOM     40  C   LIG d   1       2.721  -0.704  -3.000  0.00  0.00    -0.058 A 
ATOM     41  H   LIG d   1       2.465   0.471  -4.768  0.00  0.00     0.066 H 
ATOM     42  C   LIG d   1       3.543  -1.577  -2.312  0.00  0.00    -0.060 A 
ATOM     43  H   LIG d   1       1.773  -0.409  -2.576  0.00  0.00     0.062 H 
ATOM     44  C   LIG d   1       4.757  -1.961  -2.851  0.00  0.00    -0.034 A 
ATOM     45  H   LIG d   1       3.236  -1.961  -1.350  0.00  0.00     0.062 H 
ATOM     46  H   LIG d   1       5.396  -2.643  -2.310  0.00  0.00     0.064 H 
BRANCH  38  47
ATOM     47  O   LIG d   1       4.714  -0.094  -5.983  0.00  0.00    -0.493 OA
BRANCH  47  48
ATOM     48  C   LIG d   1       3.923  -0.459  -7.116  0.00  0.00     0.079 C 
ATOM     49  H   LIG d   1       3.088   0.234  -7.214  0.00  0.00     0.066 H 
ATOM     50  H   LIG d   1       4.536  -0.420  -8.016  0.00  0.00     0.066 H 
ATOM     51  H   LIG d   1       3.540  -1.472  -6.981  0.00  0.00     0.066 H 
ENDBRANCH  47  48
ENDBRANCH  38  47
ENDBRANCH  36  37
ENDBRANCH  27  28
ENDBRANCH  24  27
ENDBRANCH  12  24
BRANCH   5  52
ATOM     52  O   LIG d   1       8.087 -10.749  -0.542  0.00  0.00    -0.491 OA
BRANCH  52  53
ATOM     53  C   LIG d   1       8.274 -12.115  -0.915  0.00  0.00     0.079 C 
ATOM     54  H   LIG d   1       7.490 -12.412  -1.613  0.00  0.00     0.066 H 
ATOM     55  H   LIG d   1       9.247 -12.232  -1.392  0.00  0.00     0.066 H 
ATOM     56  H   LIG d   1       8.227 -12.745  -0.026  0.00  0.00     0.066 H 
ENDBRANCH  52  53
ENDBRANCH   5  52
BRANCH   6  57
ATOM     57  O   LIG d   1      10.290  -9.086  -0.574  0.00  0.00    -0.491 OA
BRANCH  57  58
ATOM     58  C   LIG d   1      11.153  -7.962  -0.384  0.00  0.00     0.079 C 
ATOM     59  H   LIG d   1      12.083  -8.123  -0.929  0.00  0.00     0.066 H 
ATOM     60  H   LIG d   1      10.663  -7.062  -0.755  0.00  0.00     0.066 H 
ATOM     61  H   LIG d   1      11.370  -7.847   0.678  0.00  0.00     0.066 H 
ENDBRANCH  57  58
ENDBRANCH   6  57
TORSDOF 11
ENDMDL
MODEL 4
REMARK VINA RESULT:      -6.3      1.692      2.829
REMARK  11 active torsions:
REMARK  status: ('A' for Active; 'I' for Inactive)
REMARK    1  A    between atoms: C_1  and  C_2 
REMARK    2  A    between atoms: C_6  and  O_35 
REMARK    3  A    between atoms: C_7  and  O_33 
REMARK       I    between atoms: N_12  and  C_13 
REMARK    4  A    between atoms: C_13  and  C_15 
REMARK    5  A    between atoms: C_15  and  S_16 
REMARK    6  A    between atoms: S_16  and  C_17 
REMARK    7  A    between atoms: N_23  and  C_24 
REMARK    8  A    between atoms: C_29  and  O_30 
REMARK    9  A    between atoms: O_30  and  C_31 
REMARK   10  A    between atoms: O_33  and  C_34 
REMARK   11  A    between atoms: O_35  and  C_36 
ROOT
ATOM      1  C   LIG d   1       9.892   2.822  -3.364  0.00  0.00     0.049 C 
ATOM      2  H   LIG d   1       9.307   2.389  -2.552  0.00  0.00     0.055 H 
ATOM      3  C   LIG d   1       9.961   4.319  -3.190  0.00  0.00    -0.020 A 
ATOM      4  C   LIG d   1      10.308   4.807  -1.938  0.00  0.00    -0.011 A 
ATOM      5  C   LIG d   1      10.400   6.169  -1.715  0.00  0.00     0.162 A 
ATOM      6  C   LIG d   1      10.143   7.054  -2.758  0.00  0.00     0.162 A 
ATOM      7  C   LIG d   1       9.795   6.563  -4.002  0.00  0.00    -0.013 A 
ATOM      8  C   LIG d   1       9.697   5.193  -4.220  0.00  0.00    -0.037 A 
ATOM      9  C   LIG d   1       9.285   4.735  -5.595  0.00  0.00    -0.011 C 
ATOM     10  C   LIG d   1       9.680   3.277  -5.824  0.00  0.00     0.019 C 
ATOM     11  N   LIG d   1       9.255   2.504  -4.647  0.00  0.00    -0.294 N 
ATOM     12  C   LIG d   1       8.318   1.540  -4.743  0.00  0.00     0.226 C 
ATOM     13  O   LIG d   1       7.986   0.916  -3.758  0.00  0.00    -0.275 OA
ATOM     14  H   LIG d   1      10.509   4.118  -1.130  0.00  0.00     0.066 H 
ATOM     15  H   LIG d   1       9.594   7.249  -4.812  0.00  0.00     0.066 H 
ATOM     16  H   LIG d   1       8.204   4.833  -5.697  0.00  0.00     0.033 H 
ATOM     17  H   LIG d   1       9.773   5.360  -6.343  0.00  0.00     0.033 H 
ATOM     18  H   LIG d   1       9.183   2.896  -6.715  0.00  0.00     0.047 H 
ATOM     19  H   LIG d   1      10.761   3.202  -5.944  0.00  0.00     0.047 H 
ENDROOT
BRANCH   1  20
ATOM     20  C   LIG d   1      11.307   2.240  -3.339  0.00  0.00    -0.042 C 
ATOM     21  H   LIG d   1      11.765   2.359  -4.322  0.00  0.00     0.025 H 
ATOM     22  H   LIG d   1      11.903   2.766  -2.594  0.00  0.00     0.025 H 
ATOM     23  H   LIG d   1      11.259   1.181  -3.086  0.00  0.00     0.025 H 
ENDBRANCH   1  20
BRANCH  12  24
ATOM     24  C   LIG d   1       7.683   1.237  -6.077  0.00  0.00     0.078 C 
ATOM     25  H   LIG d   1       6.745   1.784  -6.165  0.00  0.00     0.048 H 
ATOM     26  H   LIG d   1       8.358   1.540  -6.877  0.00  0.00     0.048 H 
BRANCH  24  27
ATOM     27  S   LIG d   1       7.359  -0.543  -6.201  0.00  0.00    -0.078 SA
BRANCH  27  28
ATOM     28  C   LIG d   1       5.821  -0.755  -5.368  0.00  0.00     0.176 A 
ATOM     29  N   LIG d   1       4.887   0.168  -5.490  0.00  0.00    -0.239 NA
ATOM     30  C   LIG d   1       3.708   0.044  -4.874  0.00  0.00    -0.004 A 
ATOM     31  C   LIG d   1       3.453  -1.070  -4.092  0.00  0.00     0.014 A 
ATOM     32  O   LIG d   1       2.765   1.006  -5.016  0.00  0.00    -0.860 OA
ATOM     33  C   LIG d   1       4.446  -2.046  -3.965  0.00  0.00     0.259 A 
ATOM     34  H   LIG d   1       2.503  -1.182  -3.588  0.00  0.00     0.068 H 
ATOM     35  O   LIG d   1       4.256  -3.042  -3.283  0.00  0.00    -0.267 OA
ATOM     36  N   LIG d   1       5.617  -1.872  -4.614  0.00  0.00    -0.252 N 
BRANCH  36  37
ATOM     37  C   LIG d   1       6.628  -2.839  -4.506  0.00  0.00     0.093 A 
ATOM     38  C   LIG d   1       6.610  -3.962  -5.331  0.00  0.00     0.144 A 
ATOM     39  C   LIG d   1       7.614  -4.911  -5.226  0.00  0.00    -0.018 A 
ATOM     40  C   LIG d   1       8.624  -4.748  -4.296  0.00  0.00    -0.058 A 
ATOM     41  H   LIG d   1       7.605  -5.780  -5.867  0.00  0.00     0.066 H 
ATOM     42  C   LIG d   1       8.640  -3.637  -3.475  0.00  0.00    -0.060 A 
ATOM     43  H   LIG d   1       9.404  -5.491  -4.213  0.00  0.00     0.062 H 
ATOM     44  C   LIG d   1       7.645  -2.682  -3.578  0.00  0.00    -0.034 A 
ATOM     45  H   LIG d   1       9.431  -3.514  -2.750  0.00  0.00     0.062 H 
ATOM     46  H   LIG d   1       7.660  -1.815  -2.934  0.00  0.00     0.064 H 
BRANCH  38  47
ATOM     47  O   LIG d   1       5.611  -4.124  -6.239  0.00  0.00    -0.493 OA
BRANCH  47  48
ATOM     48  C   LIG d   1       5.642  -5.313  -7.031  0.00  0.00     0.079 C 
ATOM     49  H   LIG d   1       4.714  -5.868  -6.889  0.00  0.00     0.066 H 
ATOM     50  H   LIG d   1       5.747  -5.047  -8.083  0.00  0.00     0.066 H 
ATOM     51  H   LIG d   1       6.486  -5.932  -6.727  0.00  0.00     0.066 H 
ENDBRANCH  47  48
ENDBRANCH  38  47
ENDBRANCH  36  37
ENDBRANCH  27  28
ENDBRANCH  24  27
ENDBRANCH  12  24
BRANCH   5  52
ATOM     52  O   LIG d   1      10.739   6.641  -0.485  0.00  0.00    -0.491 OA
BRANCH  52  53
ATOM     53  C   LIG d   1      11.398   5.733   0.398  0.00  0.00     0.079 C 
ATOM     54  H   LIG d   1      11.222   4.709   0.066  0.00  0.00     0.066 H 
ATOM     55  H   LIG d   1      12.470   5.935   0.394  0.00  0.00     0.066 H 
ATOM     56  H   LIG d   1      11.008   5.859   1.408  0.00  0.00     0.066 H 
ENDBRANCH  52  53
ENDBRANCH   5  52
BRANCH   6  57
ATOM     57  O   LIG d   1      10.234   8.396  -2.555  0.00  0.00    -0.491 OA
BRANCH  57  58
ATOM     58  C   LIG d   1      10.495   9.209  -3.701  0.00  0.00     0.079 C 
ATOM     59  H   LIG d   1      11.296   8.762  -4.289  0.00  0.00     0.066 H 
ATOM     60  H   LIG d   1       9.593   9.281  -4.308  0.00  0.00     0.066 H 
ATOM     61  H   LIG d   1      10.795  10.206  -3.377  0.00  0.00     0.066 H 
ENDBRANCH  57  58
ENDBRANCH   6  57
TORSDOF 11
ENDMDL
MODEL 5
REMARK VINA RESULT:      -6.3      4.937     10.308
REMARK  11 active torsions:
REMARK  status: ('A' for Active; 'I' for Inactive)
REMARK    1  A    between atoms: C_1  and  C_2 
REMARK    2  A    between atoms: C_6  and  O_35 
REMARK    3  A    between atoms: C_7  and  O_33 
REMARK       I    between atoms: N_12  and  C_13 
REMARK    4  A    between atoms: C_13  and  C_15 
REMARK    5  A    between atoms: C_15  and  S_16 
REMARK    6  A    between atoms: S_16  and  C_17 
REMARK    7  A    between atoms: N_23  and  C_24 
REMARK    8  A    between atoms: C_29  and  O_30 
REMARK    9  A    between atoms: O_30  and  C_31 
REMARK   10  A    between atoms: O_33  and  C_34 
REMARK   11  A    between atoms: O_35  and  C_36 
ROOT
ATOM      1  C   LIG d   1       7.386  -7.669  -5.119  0.00  0.00     0.049 C 
ATOM      2  H   LIG d   1       6.321  -7.888  -5.040  0.00  0.00     0.055 H 
ATOM      3  C   LIG d   1       8.097  -8.190  -3.896  0.00  0.00    -0.020 A 
ATOM      4  C   LIG d   1       7.828  -9.494  -3.499  0.00  0.00    -0.011 A 
ATOM      5  C   LIG d   1       8.456 -10.035  -2.392  0.00  0.00     0.162 A 
ATOM      6  C   LIG d   1       9.364  -9.265  -1.672  0.00  0.00     0.162 A 
ATOM      7  C   LIG d   1       9.626  -7.967  -2.069  0.00  0.00    -0.013 A 
ATOM      8  C   LIG d   1       8.989  -7.424  -3.179  0.00  0.00    -0.037 A 
ATOM      9  C   LIG d   1       9.304  -5.994  -3.532  0.00  0.00    -0.011 C 
ATOM     10  C   LIG d   1       8.935  -5.698  -4.985  0.00  0.00     0.019 C 
ATOM     11  N   LIG d   1       7.580  -6.219  -5.222  0.00  0.00    -0.294 N 
ATOM     12  C   LIG d   1       6.556  -5.395  -5.521  0.00  0.00     0.226 C 
ATOM     13  O   LIG d   1       5.448  -5.849  -5.713  0.00  0.00    -0.275 OA
ATOM     14  H   LIG d   1       7.124 -10.090  -4.060  0.00  0.00     0.066 H 
ATOM     15  H   LIG d   1      10.330  -7.368  -1.511  0.00  0.00     0.066 H 
ATOM     16  H   LIG d   1       8.740  -5.330  -2.877  0.00  0.00     0.033 H 
ATOM     17  H   LIG d   1      10.370  -5.816  -3.390  0.00  0.00     0.033 H 
ATOM     18  H   LIG d   1       8.953  -4.623  -5.158  0.00  0.00     0.047 H 
ATOM     19  H   LIG d   1       9.641  -6.192  -5.653  0.00  0.00     0.047 H 
ENDROOT
BRANCH   1  20
ATOM     20  C   LIG d   1       7.955  -8.349  -6.367  0.00  0.00    -0.042 C 
ATOM     21  H   LIG d   1       7.147  -8.547  -7.072  0.00  0.00     0.025 H 
ATOM     22  H   LIG d   1       8.692  -7.695  -6.833  0.00  0.00     0.025 H 
ATOM     23  H   LIG d   1       8.429  -9.288  -6.084  0.00  0.00     0.025 H 
ENDBRANCH   1  20
BRANCH  12  24
ATOM     24  C   LIG d   1       6.789  -3.909  -5.619  0.00  0.00     0.078 C 
ATOM     25  H   LIG d   1       7.750  -3.662  -5.169  0.00  0.00     0.048 H 
ATOM     26  H   LIG d   1       6.789  -3.610  -6.667  0.00  0.00     0.048 H 
BRANCH  24  27
ATOM     27  S   LIG d   1       5.467  -3.030  -4.740  0.00  0.00    -0.078 SA
BRANCH  27  28
ATOM     28  C   LIG d   1       4.661  -2.102  -6.001  0.00  0.00     0.176 A 
ATOM     29  N   LIG d   1       4.550  -2.616  -7.210  0.00  0.00    -0.239 NA
ATOM     30  C   LIG d   1       3.944  -1.944  -8.193  0.00  0.00    -0.004 A 
ATOM     31  C   LIG d   1       3.421  -0.685  -7.948  0.00  0.00     0.014 A 
ATOM     32  O   LIG d   1       3.843  -2.493  -9.427  0.00  0.00    -0.860 OA
ATOM     33  C   LIG d   1       3.541  -0.144  -6.663  0.00  0.00     0.259 A 
ATOM     34  H   LIG d   1       2.929  -0.131  -8.735  0.00  0.00     0.068 H 
ATOM     35  O   LIG d   1       3.091   0.963  -6.410  0.00  0.00    -0.267 OA
ATOM     36  N   LIG d   1       4.158  -0.870  -5.707  0.00  0.00    -0.252 N 
BRANCH  36  37
ATOM     37  C   LIG d   1       4.286  -0.352  -4.409  0.00  0.00     0.093 A 
ATOM     38  C   LIG d   1       5.449   0.320  -4.037  0.00  0.00     0.144 A 
ATOM     39  C   LIG d   1       5.567   0.836  -2.757  0.00  0.00    -0.018 A 
ATOM     40  C   LIG d   1       4.539   0.672  -1.848  0.00  0.00    -0.058 A 
ATOM     41  H   LIG d   1       6.465   1.361  -2.467  0.00  0.00     0.066 H 
ATOM     42  C   LIG d   1       3.387   0.001  -2.214  0.00  0.00    -0.060 A 
ATOM     43  H   LIG d   1       4.634   1.072  -0.849  0.00  0.00     0.062 H 
ATOM     44  C   LIG d   1       3.258  -0.511  -3.492  0.00  0.00    -0.034 A 
ATOM     45  H   LIG d   1       2.586  -0.124  -1.501  0.00  0.00     0.062 H 
ATOM     46  H   LIG d   1       2.357  -1.035  -3.776  0.00  0.00     0.064 H 
BRANCH  38  47
ATOM     47  O   LIG d   1       6.462   0.473  -4.930  0.00  0.00    -0.493 OA
BRANCH  47  48
ATOM     48  C   LIG d   1       7.654   1.103  -4.457  0.00  0.00     0.079 C 
ATOM     49  H   LIG d   1       7.392   1.987  -3.875  0.00  0.00     0.066 H 
ATOM     50  H   LIG d   1       8.208   0.406  -3.828  0.00  0.00     0.066 H 
ATOM     51  H   LIG d   1       8.273   1.396  -5.305  0.00  0.00     0.066 H 
ENDBRANCH  47  48
ENDBRANCH  38  47
ENDBRANCH  36  37
ENDBRANCH  27  28
ENDBRANCH  24  27
ENDBRANCH  12  24
BRANCH   5  52
ATOM     52  O   LIG d   1       8.186 -11.312  -2.008  0.00  0.00    -0.491 OA
BRANCH  52  53
ATOM     53  C   LIG d   1       7.007 -11.915  -2.544  0.00  0.00     0.079 C 
ATOM     54  H   LIG d   1       6.560 -12.569  -1.795  0.00  0.00     0.066 H 
ATOM     55  H   LIG d   1       6.294 -11.137  -2.818  0.00  0.00     0.066 H 
ATOM     56  H   LIG d   1       7.265 -12.498  -3.428  0.00  0.00     0.066 H 
ENDBRANCH  52  53
ENDBRANCH   5  52
BRANCH   6  57
ATOM     57  O   LIG d   1       9.992  -9.786  -0.585  0.00  0.00    -0.491 OA
BRANCH  57  58
ATOM     58  C   LIG d   1      11.102  -9.052  -0.062  0.00  0.00     0.079 C 
ATOM     59  H   LIG d   1      10.742  -8.306   0.647  0.00  0.00     0.066 H 
ATOM     60  H   LIG d   1      11.784  -9.736   0.444  0.00  0.00     0.066 H 
ATOM     61  H   LIG d   1      11.625  -8.555  -0.879  0.00  0.00     0.066 H 
ENDBRANCH  57  58
ENDBRANCH   6  57
TORSDOF 11
ENDMDL
MODEL 6
REMARK VINA RESULT:      -6.2      1.934      3.475
REMARK  11 active torsions:
REMARK  status: ('A' for Active; 'I' for Inactive)
REMARK    1  A    between atoms: C_1  and  C_2 
REMARK    2  A    between atoms: C_6  and  O_35 
REMARK    3  A    between atoms: C_7  and  O_33 
REMARK       I    between atoms: N_12  and  C_13 
REMARK    4  A    between atoms: C_13  and  C_15 
REMARK    5  A    between atoms: C_15  and  S_16 
REMARK    6  A    between atoms: S_16  and  C_17 
REMARK    7  A    between atoms: N_23  and  C_24 
REMARK    8  A    between atoms: C_29  and  O_30 
REMARK    9  A    between atoms: O_30  and  C_31 
REMARK   10  A    between atoms: O_33  and  C_34 
REMARK   11  A    between atoms: O_35  and  C_36 
ROOT
ATOM      1  C   LIG d   1       9.375   3.679  -3.769  0.00  0.00     0.049 C 
ATOM      2  H   LIG d   1       8.470   3.887  -3.197  0.00  0.00     0.055 H 
ATOM      3  C   LIG d   1       9.565   4.749  -4.815  0.00  0.00    -0.020 A 
ATOM      4  C   LIG d   1       9.460   6.073  -4.410  0.00  0.00    -0.011 A 
ATOM      5  C   LIG d   1       9.635   7.101  -5.318  0.00  0.00     0.162 A 
ATOM      6  C   LIG d   1       9.919   6.803  -6.647  0.00  0.00     0.162 A 
ATOM      7  C   LIG d   1      10.020   5.483  -7.046  0.00  0.00    -0.013 A 
ATOM      8  C   LIG d   1       9.837   4.452  -6.131  0.00  0.00    -0.037 A 
ATOM      9  C   LIG d   1       9.934   3.040  -6.647  0.00  0.00    -0.011 C 
ATOM     10  C   LIG d   1      10.194   2.060  -5.504  0.00  0.00     0.019 C 
ATOM     11  N   LIG d   1       9.249   2.370  -4.419  0.00  0.00    -0.294 N 
ATOM     12  C   LIG d   1       8.306   1.486  -4.039  0.00  0.00     0.226 C 
ATOM     13  O   LIG d   1       7.540   1.765  -3.141  0.00  0.00    -0.275 OA
ATOM     14  H   LIG d   1       9.241   6.302  -3.377  0.00  0.00     0.066 H 
ATOM     15  H   LIG d   1      10.239   5.251  -8.077  0.00  0.00     0.066 H 
ATOM     16  H   LIG d   1       8.999   2.773  -7.141  0.00  0.00     0.033 H 
ATOM     17  H   LIG d   1      10.750   2.976  -7.366  0.00  0.00     0.033 H 
ATOM     18  H   LIG d   1      10.036   1.039  -5.850  0.00  0.00     0.047 H 
ATOM     19  H   LIG d   1      11.217   2.174  -5.145  0.00  0.00     0.047 H 
ENDROOT
BRANCH   1  20
ATOM     20  C   LIG d   1      10.581   3.666  -2.827  0.00  0.00    -0.042 C 
ATOM     21  H   LIG d   1      11.499   3.642  -3.415  0.00  0.00     0.025 H 
ATOM     22  H   LIG d   1      10.568   4.563  -2.208  0.00  0.00     0.025 H 
ATOM     23  H   LIG d   1      10.535   2.783  -2.190  0.00  0.00     0.025 H 
ENDBRANCH   1  20
BRANCH  12  24
ATOM     24  C   LIG d   1       8.205   0.149  -4.728  0.00  0.00     0.078 C 
ATOM     25  H   LIG d   1       9.053   0.022  -5.400  0.00  0.00     0.048 H 
ATOM     26  H   LIG d   1       8.208  -0.645  -3.981  0.00  0.00     0.048 H 
BRANCH  24  27
ATOM     27  S   LIG d   1       6.663   0.076  -5.681  0.00  0.00    -0.078 SA
BRANCH  27  28
ATOM     28  C   LIG d   1       5.452  -0.407  -4.496  0.00  0.00     0.176 A 
ATOM     29  N   LIG d   1       4.823   0.520  -3.800  0.00  0.00    -0.239 NA
ATOM     30  C   LIG d   1       3.898   0.195  -2.893  0.00  0.00    -0.004 A 
ATOM     31  C   LIG d   1       3.587  -1.137  -2.672  0.00  0.00     0.014 A 
ATOM     32  O   LIG d   1       3.267   1.165  -2.191  0.00  0.00    -0.860 OA
ATOM     33  C   LIG d   1       4.257  -2.117  -3.413  0.00  0.00     0.259 A 
ATOM     34  H   LIG d   1       2.841  -1.413  -1.941  0.00  0.00     0.068 H 
ATOM     35  O   LIG d   1       4.008  -3.301  -3.245  0.00  0.00    -0.267 OA
ATOM     36  N   LIG d   1       5.179  -1.730  -4.320  0.00  0.00    -0.252 N 
BRANCH  36  37
ATOM     37  C   LIG d   1       5.860  -2.694  -5.079  0.00  0.00     0.093 A 
ATOM     38  C   LIG d   1       5.383  -3.057  -6.337  0.00  0.00     0.144 A 
ATOM     39  C   LIG d   1       6.064  -4.004  -7.085  0.00  0.00    -0.018 A 
ATOM     40  C   LIG d   1       7.206  -4.594  -6.579  0.00  0.00    -0.058 A 
ATOM     41  H   LIG d   1       5.698  -4.284  -8.063  0.00  0.00     0.066 H 
ATOM     42  C   LIG d   1       7.677  -4.238  -5.329  0.00  0.00    -0.060 A 
ATOM     43  H   LIG d   1       7.733  -5.335  -7.162  0.00  0.00     0.062 H 
ATOM     44  C   LIG d   1       7.008  -3.289  -4.579  0.00  0.00    -0.034 A 
ATOM     45  H   LIG d   1       8.570  -4.701  -4.937  0.00  0.00     0.062 H 
ATOM     46  H   LIG d   1       7.378  -3.013  -3.603  0.00  0.00     0.064 H 
BRANCH  38  47
ATOM     47  O   LIG d   1       4.255  -2.481  -6.830  0.00  0.00    -0.493 OA
BRANCH  47  48
ATOM     48  C   LIG d   1       4.361  -1.828  -8.097  0.00  0.00     0.079 C 
ATOM     49  H   LIG d   1       3.447  -1.993  -8.668  0.00  0.00     0.066 H 
ATOM     50  H   LIG d   1       4.506  -0.758  -7.944  0.00  0.00     0.066 H 
ATOM     51  H   LIG d   1       5.211  -2.234  -8.646  0.00  0.00     0.066 H 
ENDBRANCH  47  48
ENDBRANCH  38  47
ENDBRANCH  36  37
ENDBRANCH  27  28
ENDBRANCH  24  27
ENDBRANCH  12  24
BRANCH   5  52
ATOM     52  O   LIG d   1       9.528   8.396  -4.914  0.00  0.00    -0.491 OA
BRANCH  52  53
ATOM     53  C   LIG d   1      10.271   8.777  -3.755  0.00  0.00     0.079 C 
ATOM     54  H   LIG d   1       9.586   8.945  -2.923  0.00  0.00     0.066 H 
ATOM     55  H   LIG d   1      10.971   7.983  -3.495  0.00  0.00     0.066 H 
ATOM     56  H   LIG d   1      10.823   9.694  -3.963  0.00  0.00     0.066 H 
ENDBRANCH  52  53
ENDBRANCH   5  52
BRANCH   6  57
ATOM     57  O   LIG d   1      10.098   7.804  -7.549  0.00  0.00    -0.491 OA
BRANCH  57  58
ATOM     58  C   LIG d   1       9.196   7.849  -8.657  0.00  0.00     0.079 C 
ATOM     59  H   LIG d   1       9.759   7.784  -9.587  0.00  0.00     0.066 H 
ATOM     60  H   LIG d   1       8.500   7.012  -8.592  0.00  0.00     0.066 H 
ATOM     61  H   LIG d   1       8.640   8.787  -8.634  0.00  0.00     0.066 H 
ENDBRANCH  57  58
ENDBRANCH   6  57
TORSDOF 11
ENDMDL
MODEL 7
REMARK VINA RESULT:      -6.1      4.062      9.916
REMARK  11 active torsions:
REMARK  status: ('A' for Active; 'I' for Inactive)
REMARK    1  A    between atoms: C_1  and  C_2 
REMARK    2  A    between atoms: C_6  and  O_35 
REMARK    3  A    between atoms: C_7  and  O_33 
REMARK       I    between atoms: N_12  and  C_13 
REMARK    4  A    between atoms: C_13  and  C_15 
REMARK    5  A    between atoms: C_15  and  S_16 
REMARK    6  A    between atoms: S_16  and  C_17 
REMARK    7  A    between atoms: N_23  and  C_24 
REMARK    8  A    between atoms: C_29  and  O_30 
REMARK    9  A    between atoms: O_30  and  C_31 
REMARK   10  A    between atoms: O_33  and  C_34 
REMARK   11  A    between atoms: O_35  and  C_36 
ROOT
ATOM      1  C   LIG d   1       2.516  -1.704 -10.270  0.00  0.00     0.049 C 
ATOM      2  H   LIG d   1       2.208  -2.681  -9.896  0.00  0.00     0.055 H 
ATOM      3  C   LIG d   1       2.545  -1.730 -11.778  0.00  0.00    -0.020 A 
ATOM      4  C   LIG d   1       1.437  -2.249 -12.436  0.00  0.00    -0.011 A 
ATOM      5  C   LIG d   1       1.397  -2.292 -13.817  0.00  0.00     0.162 A 
ATOM      6  C   LIG d   1       2.475  -1.808 -14.551  0.00  0.00     0.162 A 
ATOM      7  C   LIG d   1       3.577  -1.295 -13.892  0.00  0.00    -0.013 A 
ATOM      8  C   LIG d   1       3.617  -1.260 -12.503  0.00  0.00    -0.037 A 
ATOM      9  C   LIG d   1       4.863  -0.712 -11.856  0.00  0.00    -0.011 C 
ATOM     10  C   LIG d   1       4.587  -0.292 -10.414  0.00  0.00     0.019 C 
ATOM     11  N   LIG d   1       3.853  -1.385  -9.757  0.00  0.00    -0.294 N 
ATOM     12  C   LIG d   1       4.388  -2.067  -8.725  0.00  0.00     0.226 C 
ATOM     13  O   LIG d   1       3.761  -2.962  -8.200  0.00  0.00    -0.275 OA
ATOM     14  H   LIG d   1       0.601  -2.623 -11.863  0.00  0.00     0.066 H 
ATOM     15  H   LIG d   1       4.415  -0.920 -14.461  0.00  0.00     0.066 H 
ATOM     16  H   LIG d   1       5.638  -1.479 -11.864  0.00  0.00     0.033 H 
ATOM     17  H   LIG d   1       5.209   0.153 -12.421  0.00  0.00     0.033 H 
ATOM     18  H   LIG d   1       5.529  -0.116  -9.895  0.00  0.00     0.047 H 
ATOM     19  H   LIG d   1       3.984   0.615 -10.402  0.00  0.00     0.047 H 
ENDROOT
BRANCH   1  20
ATOM     20  C   LIG d   1       1.522  -0.641  -9.798  0.00  0.00    -0.042 C 
ATOM     21  H   LIG d   1       0.721  -1.118  -9.233  0.00  0.00     0.025 H 
ATOM     22  H   LIG d   1       2.036   0.080  -9.162  0.00  0.00     0.025 H 
ATOM     23  H   LIG d   1       1.101  -0.128 -10.663  0.00  0.00     0.025 H 
ENDBRANCH   1  20
BRANCH  12  24
ATOM     24  C   LIG d   1       5.764  -1.713  -8.221  0.00  0.00     0.078 C 
ATOM     25  H   LIG d   1       6.505  -2.337  -8.721  0.00  0.00     0.048 H 
ATOM     26  H   LIG d   1       5.969  -0.664  -8.432  0.00  0.00     0.048 H 
BRANCH  24  27
ATOM     27  S   LIG d   1       5.844  -1.998  -6.431  0.00  0.00    -0.078 SA
BRANCH  27  28
ATOM     28  C   LIG d   1       6.724  -0.601  -5.817  0.00  0.00     0.176 A 
ATOM     29  N   LIG d   1       7.754  -0.136  -6.495  0.00  0.00    -0.239 NA
ATOM     30  C   LIG d   1       8.447   0.921  -6.063  0.00  0.00    -0.004 A 
ATOM     31  C   LIG d   1       8.083   1.547  -4.882  0.00  0.00     0.014 A 
ATOM     32  O   LIG d   1       9.501   1.379  -6.778  0.00  0.00    -0.860 OA
ATOM     33  C   LIG d   1       6.990   1.051  -4.165  0.00  0.00     0.259 A 
ATOM     34  H   LIG d   1       8.635   2.403  -4.521  0.00  0.00     0.068 H 
ATOM     35  O   LIG d   1       6.641   1.577  -3.120  0.00  0.00    -0.267 OA
ATOM     36  N   LIG d   1       6.323  -0.018  -4.652  0.00  0.00    -0.252 N 
BRANCH  36  37
ATOM     37  C   LIG d   1       5.219  -0.531  -3.954  0.00  0.00     0.093 A 
ATOM     38  C   LIG d   1       3.927  -0.172  -4.331  0.00  0.00     0.144 A 
ATOM     39  C   LIG d   1       2.840  -0.688  -3.642  0.00  0.00    -0.018 A 
ATOM     40  C   LIG d   1       3.040  -1.547  -2.578  0.00  0.00    -0.058 A 
ATOM     41  H   LIG d   1       1.837  -0.415  -3.935  0.00  0.00     0.066 H 
ATOM     42  C   LIG d   1       4.322  -1.899  -2.201  0.00  0.00    -0.060 A 
ATOM     43  H   LIG d   1       2.192  -1.945  -2.040  0.00  0.00     0.062 H 
ATOM     44  C   LIG d   1       5.412  -1.394  -2.886  0.00  0.00    -0.034 A 
ATOM     45  H   LIG d   1       4.474  -2.570  -1.369  0.00  0.00     0.062 H 
ATOM     46  H   LIG d   1       6.413  -1.671  -2.589  0.00  0.00     0.064 H 
BRANCH  38  47
ATOM     47  O   LIG d   1       3.732   0.678  -5.373  0.00  0.00    -0.493 OA
BRANCH  47  48
ATOM     48  C   LIG d   1       2.799   0.272  -6.376  0.00  0.00     0.079 C 
ATOM     49  H   LIG d   1       1.962   0.970  -6.397  0.00  0.00     0.066 H 
ATOM     50  H   LIG d   1       3.291   0.265  -7.349  0.00  0.00     0.066 H 
ATOM     51  H   LIG d   1       2.432  -0.729  -6.148  0.00  0.00     0.066 H 
ENDBRANCH  47  48
ENDBRANCH  38  47
ENDBRANCH  36  37
ENDBRANCH  27  28
ENDBRANCH  24  27
ENDBRANCH  12  24
BRANCH   5  52
ATOM     52  O   LIG d   1       0.309  -2.804 -14.455  0.00  0.00    -0.491 OA
BRANCH  52  53
ATOM     53  C   LIG d   1      -0.382  -3.870 -13.802  0.00  0.00     0.079 C 
ATOM     54  H   LIG d   1       0.140  -4.132 -12.881  0.00  0.00     0.066 H 
ATOM     55  H   LIG d   1      -1.398  -3.553 -13.565  0.00  0.00     0.066 H 
ATOM     56  H   LIG d   1      -0.416  -4.739 -14.460  0.00  0.00     0.066 H 
ENDBRANCH  52  53
ENDBRANCH   5  52
BRANCH   6  57
ATOM     57  O   LIG d   1       2.447  -1.839 -15.911  0.00  0.00    -0.491 OA
BRANCH  57  58
ATOM     58  C   LIG d   1       3.618  -1.390 -16.595  0.00  0.00     0.079 C 
ATOM     59  H   LIG d   1       3.387  -0.483 -17.153  0.00  0.00     0.066 H 
ATOM     60  H   LIG d   1       4.405  -1.181 -15.870  0.00  0.00     0.066 H 
ATOM     61  H   LIG d   1       3.955  -2.164 -17.284  0.00  0.00     0.066 H 
ENDBRANCH  57  58
ENDBRANCH   6  57
TORSDOF 11
ENDMDL
MODEL 8
REMARK VINA RESULT:      -6.1      3.133      4.760
REMARK  11 active torsions:
REMARK  status: ('A' for Active; 'I' for Inactive)
REMARK    1  A    between atoms: C_1  and  C_2 
REMARK    2  A    between atoms: C_6  and  O_35 
REMARK    3  A    between atoms: C_7  and  O_33 
REMARK       I    between atoms: N_12  and  C_13 
REMARK    4  A    between atoms: C_13  and  C_15 
REMARK    5  A    between atoms: C_15  and  S_16 
REMARK    6  A    between atoms: S_16  and  C_17 
REMARK    7  A    between atoms: N_23  and  C_24 
REMARK    8  A    between atoms: C_29  and  O_30 
REMARK    9  A    between atoms: O_30  and  C_31 
REMARK   10  A    between atoms: O_33  and  C_34 
REMARK   11  A    between atoms: O_35  and  C_36 
ROOT
ATOM      1  C   LIG d   1      10.020   3.703  -5.913  0.00  0.00     0.049 C 
ATOM      2  H   LIG d   1       9.470   4.277  -5.168  0.00  0.00     0.055 H 
ATOM      3  C   LIG d   1       9.688   4.221  -7.290  0.00  0.00    -0.020 A 
ATOM      4  C   LIG d   1       9.748   5.594  -7.495  0.00  0.00    -0.011 A 
ATOM      5  C   LIG d   1       9.466   6.132  -8.738  0.00  0.00     0.162 A 
ATOM      6  C   LIG d   1       9.122   5.288  -9.789  0.00  0.00     0.162 A 
ATOM      7  C   LIG d   1       9.061   3.923  -9.580  0.00  0.00    -0.013 A 
ATOM      8  C   LIG d   1       9.339   3.386  -8.328  0.00  0.00    -0.037 A 
ATOM      9  C   LIG d   1       9.224   1.892  -8.170  0.00  0.00    -0.011 C 
ATOM     10  C   LIG d   1       9.998   1.413  -6.943  0.00  0.00     0.019 C 
ATOM     11  N   LIG d   1       9.643   2.289  -5.815  0.00  0.00    -0.294 N 
ATOM     12  C   LIG d   1       8.997   1.810  -4.734  0.00  0.00     0.226 C 
ATOM     13  O   LIG d   1       8.717   2.551  -3.817  0.00  0.00    -0.275 OA
ATOM     14  H   LIG d   1      10.017   6.246  -6.677  0.00  0.00     0.066 H 
ATOM     15  H   LIG d   1       8.794   3.268 -10.395  0.00  0.00     0.066 H 
ATOM     16  H   LIG d   1       8.173   1.623  -8.058  0.00  0.00     0.033 H 
ATOM     17  H   LIG d   1       9.625   1.406  -9.059  0.00  0.00     0.033 H 
ATOM     18  H   LIG d   1       9.724   0.385  -6.713  0.00  0.00     0.047 H 
ATOM     19  H   LIG d   1      11.069   1.476  -7.135  0.00  0.00     0.047 H 
ENDROOT
BRANCH   1  20
ATOM     20  C   LIG d   1      11.522   3.849  -5.662  0.00  0.00    -0.042 C 
ATOM     21  H   LIG d   1      11.683   4.408  -4.740  0.00  0.00     0.025 H 
ATOM     22  H   LIG d   1      11.973   2.861  -5.572  0.00  0.00     0.025 H 
ATOM     23  H   LIG d   1      11.979   4.383  -6.495  0.00  0.00     0.025 H 
ENDBRANCH   1  20
BRANCH  12  24
ATOM     24  C   LIG d   1       8.625   0.350  -4.664  0.00  0.00     0.078 C 
ATOM     25  H   LIG d   1       9.375  -0.241  -5.188  0.00  0.00     0.048 H 
ATOM     26  H   LIG d   1       8.577   0.037  -3.621  0.00  0.00     0.048 H 
BRANCH  24  27
ATOM     27  S   LIG d   1       7.006   0.102  -5.444  0.00  0.00    -0.078 SA
BRANCH  27  28
ATOM     28  C   LIG d   1       5.937  -0.275  -4.097  0.00  0.00     0.176 A 
ATOM     29  N   LIG d   1       5.713   0.640  -3.174  0.00  0.00    -0.239 NA
ATOM     30  C   LIG d   1       4.908   0.393  -2.137  0.00  0.00    -0.004 A 
ATOM     31  C   LIG d   1       4.293  -0.842  -2.020  0.00  0.00     0.014 A 
ATOM     32  O   LIG d   1       4.694   1.350  -1.202  0.00  0.00    -0.860 OA
ATOM     33  C   LIG d   1       4.533  -1.810  -3.001  0.00  0.00     0.259 A 
ATOM     34  H   LIG d   1       3.640  -1.054  -1.186  0.00  0.00     0.068 H 
ATOM     35  O   LIG d   1       4.008  -2.910  -2.930  0.00  0.00    -0.267 OA
ATOM     36  N   LIG d   1       5.352  -1.504  -4.030  0.00  0.00    -0.252 N 
BRANCH  36  37
ATOM     37  C   LIG d   1       5.604  -2.456  -5.029  0.00  0.00     0.093 A 
ATOM     38  C   LIG d   1       6.712  -3.295  -4.931  0.00  0.00     0.144 A 
ATOM     39  C   LIG d   1       6.953  -4.238  -5.917  0.00  0.00    -0.018 A 
ATOM     40  C   LIG d   1       6.102  -4.336  -7.002  0.00  0.00    -0.058 A 
ATOM     41  H   LIG d   1       7.809  -4.893  -5.841  0.00  0.00     0.066 H 
ATOM     42  C   LIG d   1       5.006  -3.500  -7.103  0.00  0.00    -0.060 A 
ATOM     43  H   LIG d   1       6.293  -5.069  -7.772  0.00  0.00     0.062 H 
ATOM     44  C   LIG d   1       4.754  -2.561  -6.120  0.00  0.00    -0.034 A 
ATOM     45  H   LIG d   1       4.343  -3.581  -7.952  0.00  0.00     0.062 H 
ATOM     46  H   LIG d   1       3.897  -1.910  -6.202  0.00  0.00     0.064 H 
BRANCH  38  47
ATOM     47  O   LIG d   1       7.552  -3.192  -3.867  0.00  0.00    -0.493 OA
BRANCH  47  48
ATOM     48  C   LIG d   1       8.848  -3.777  -4.005  0.00  0.00     0.079 C 
ATOM     49  H   LIG d   1       9.498  -3.096  -4.555  0.00  0.00     0.066 H 
ATOM     50  H   LIG d   1       9.270  -3.963  -3.017  0.00  0.00     0.066 H 
ATOM     51  H   LIG d   1       8.767  -4.719  -4.547  0.00  0.00     0.066 H 
ENDBRANCH  47  48
ENDBRANCH  38  47
ENDBRANCH  36  37
ENDBRANCH  27  28
ENDBRANCH  24  27
ENDBRANCH  12  24
BRANCH   5  52
ATOM     52  O   LIG d   1       9.525   7.477  -8.930  0.00  0.00    -0.491 OA
BRANCH  52  53
ATOM     53  C   LIG d   1       8.824   8.297  -7.993  0.00  0.00     0.079 C 
ATOM     54  H   LIG d   1       7.851   8.570  -8.406  0.00  0.00     0.066 H 
ATOM     55  H   LIG d   1       8.682   7.746  -7.063  0.00  0.00     0.066 H 
ATOM     56  H   LIG d   1       9.402   9.200  -7.796  0.00  0.00     0.066 H 
ENDBRANCH  52  53
ENDBRANCH   5  52
BRANCH   6  57
ATOM     57  O   LIG d   1       8.848   5.803 -11.018  0.00  0.00    -0.491 OA
BRANCH  57  58
ATOM     58  C   LIG d   1       9.854   5.658 -12.022  0.00  0.00     0.079 C 
ATOM     59  H   LIG d   1      10.772   6.144 -11.689  0.00  0.00     0.066 H 
ATOM     60  H   LIG d   1      10.045   4.599 -12.195  0.00  0.00     0.066 H 
ATOM     61  H   LIG d   1       9.513   6.122 -12.947  0.00  0.00     0.066 H 
ENDBRANCH  57  58
ENDBRANCH   6  57
TORSDOF 11
ENDMDL
MODEL 9
REMARK VINA RESULT:      -6.0      6.302      9.826
REMARK  11 active torsions:
REMARK  status: ('A' for Active; 'I' for Inactive)
REMARK    1  A    between atoms: C_1  and  C_2 
REMARK    2  A    between atoms: C_6  and  O_35 
REMARK    3  A    between atoms: C_7  and  O_33 
REMARK       I    between atoms: N_12  and  C_13 
REMARK    4  A    between atoms: C_13  and  C_15 
REMARK    5  A    between atoms: C_15  and  S_16 
REMARK    6  A    between atoms: S_16  and  C_17 
REMARK    7  A    between atoms: N_23  and  C_24 
REMARK    8  A    between atoms: C_29  and  O_30 
REMARK    9  A    between atoms: O_30  and  C_31 
REMARK   10  A    between atoms: O_33  and  C_34 
REMARK   11  A    between atoms: O_35  and  C_36 
ROOT
ATOM      1  C   LIG d   1      10.476   5.948  -5.818  0.00  0.00     0.049 C 
ATOM      2  H   LIG d   1      11.222   5.158  -5.732  0.00  0.00     0.055 H 
ATOM      3  C   LIG d   1       9.942   5.982  -7.228  0.00  0.00    -0.020 A 
ATOM      4  C   LIG d   1       9.542   4.780  -7.796  0.00  0.00    -0.011 A 
ATOM      5  C   LIG d   1       9.033   4.744  -9.081  0.00  0.00     0.162 A 
ATOM      6  C   LIG d   1       8.921   5.925  -9.808  0.00  0.00     0.162 A 
ATOM      7  C   LIG d   1       9.323   7.120  -9.240  0.00  0.00    -0.013 A 
ATOM      8  C   LIG d   1       9.840   7.151  -7.949  0.00  0.00    -0.037 A 
ATOM      9  C   LIG d   1      10.283   8.485  -7.409  0.00  0.00    -0.011 C 
ATOM     10  C   LIG d   1      10.362   8.456  -5.884  0.00  0.00     0.019 C 
ATOM     11  N   LIG d   1      11.092   7.239  -5.493  0.00  0.00    -0.294 N 
ATOM     12  C   LIG d   1      12.280   7.309  -4.861  0.00  0.00     0.226 C 
ATOM     13  O   LIG d   1      12.861   6.292  -4.548  0.00  0.00    -0.275 OA
ATOM     14  H   LIG d   1       9.629   3.864  -7.229  0.00  0.00     0.066 H 
ATOM     15  H   LIG d   1       9.237   8.037  -9.804  0.00  0.00     0.066 H 
ATOM     16  H   LIG d   1      11.266   8.728  -7.814  0.00  0.00     0.033 H 
ATOM     17  H   LIG d   1       9.571   9.251  -7.716  0.00  0.00     0.033 H 
ATOM     18  H   LIG d   1      10.894   9.336  -5.525  0.00  0.00     0.047 H 
ATOM     19  H   LIG d   1       9.358   8.434  -5.462  0.00  0.00     0.047 H 
ENDROOT
BRANCH   1  20
ATOM     20  C   LIG d   1       9.328   5.673  -4.845  0.00  0.00    -0.042 C 
ATOM     21  H   LIG d   1       9.580   4.817  -4.218  0.00  0.00     0.025 H 
ATOM     22  H   LIG d   1       9.165   6.548  -4.216  0.00  0.00     0.025 H 
ATOM     23  H   LIG d   1       8.420   5.455  -5.407  0.00  0.00     0.025 H 
ENDBRANCH   1  20
BRANCH  12  24
ATOM     24  C   LIG d   1      12.886   8.652  -4.541  0.00  0.00     0.078 C 
ATOM     25  H   LIG d   1      13.935   8.657  -4.837  0.00  0.00     0.048 H 
ATOM     26  H   LIG d   1      12.350   9.430  -5.083  0.00  0.00     0.048 H 
BRANCH  24  27
ATOM     27  S   LIG d   1      12.761   8.961  -2.758  0.00  0.00    -0.078 SA
BRANCH  27  28
ATOM     28  C   LIG d   1      11.239   9.830  -2.582  0.00  0.00     0.176 A 
ATOM     29  N   LIG d   1      11.028  10.916  -3.299  0.00  0.00    -0.239 NA
ATOM     30  C   LIG d   1       9.886  11.602  -3.195  0.00  0.00    -0.004 A 
ATOM     31  C   LIG d   1       8.901  11.173  -2.321  0.00  0.00     0.014 A 
ATOM     32  O   LIG d   1       9.694  12.715  -3.942  0.00  0.00    -0.860 OA
ATOM     33  C   LIG d   1       9.129  10.020  -1.562  0.00  0.00     0.259 A 
ATOM     34  H   LIG d   1       7.974  11.719  -2.227  0.00  0.00     0.068 H 
ATOM     35  O   LIG d   1       8.283   9.612  -0.782  0.00  0.00    -0.267 OA
ATOM     36  N   LIG d   1      10.299   9.363  -1.712  0.00  0.00    -0.252 N 
BRANCH  36  37
ATOM     37  C   LIG d   1      10.550   8.202  -0.966  0.00  0.00     0.093 A 
ATOM     38  C   LIG d   1      11.055   8.298   0.329  0.00  0.00     0.144 A 
ATOM     39  C   LIG d   1      11.294   7.148   1.063  0.00  0.00    -0.018 A 
ATOM     40  C   LIG d   1      11.043   5.908   0.507  0.00  0.00    -0.058 A 
ATOM     41  H   LIG d   1      11.682   7.220   2.069  0.00  0.00     0.066 H 
ATOM     42  C   LIG d   1      10.546   5.811  -0.779  0.00  0.00    -0.060 A 
ATOM     43  H   LIG d   1      11.233   5.012   1.080  0.00  0.00     0.062 H 
ATOM     44  C   LIG d   1      10.298   6.954  -1.517  0.00  0.00    -0.034 A 
ATOM     45  H   LIG d   1      10.350   4.840  -1.210  0.00  0.00     0.062 H 
ATOM     46  H   LIG d   1       9.910   6.875  -2.521  0.00  0.00     0.064 H 
BRANCH  38  47
ATOM     47  O   LIG d   1      11.309   9.518   0.871  0.00  0.00    -0.493 OA
BRANCH  47  48
ATOM     48  C   LIG d   1      12.652   9.778   1.284  0.00  0.00     0.079 C 
ATOM     49  H   LIG d   1      12.812   9.363   2.280  0.00  0.00     0.066 H 
ATOM     50  H   LIG d   1      13.345   9.315   0.582  0.00  0.00     0.066 H 
ATOM     51  H   LIG d   1      12.824  10.855   1.307  0.00  0.00     0.066 H 
ENDBRANCH  47  48
ENDBRANCH  38  47
ENDBRANCH  36  37
ENDBRANCH  27  28
ENDBRANCH  24  27
ENDBRANCH  12  24
BRANCH   5  52
ATOM     52  O   LIG d   1       8.646   3.562  -9.632  0.00  0.00    -0.491 OA
BRANCH  52  53
ATOM     53  C   LIG d   1       9.679   2.707 -10.124  0.00  0.00     0.079 C 
ATOM     54  H   LIG d   1       9.232   1.877 -10.674  0.00  0.00     0.066 H 
ATOM     55  H   LIG d   1      10.333   3.272 -10.788  0.00  0.00     0.066 H 
ATOM     56  H   LIG d   1      10.259   2.318  -9.287  0.00  0.00     0.066 H 
ENDBRANCH  52  53
ENDBRANCH   5  52
BRANCH   6  57
ATOM     57  O   LIG d   1       8.418   5.906 -11.071  0.00  0.00    -0.491 OA
BRANCH  57  58
ATOM     58  C   LIG d   1       9.208   6.516 -12.094  0.00  0.00     0.079 C 
ATOM     59  H   LIG d   1       8.983   6.049 -13.053  0.00  0.00     0.066 H 
ATOM     60  H   LIG d   1       8.980   7.580 -12.144  0.00  0.00     0.066 H 
ATOM     61  H   LIG d   1      10.265   6.381 -11.864  0.00  0.00     0.066 H 
ENDBRANCH  57  58
ENDBRANCH   6  57
TORSDOF 11
ENDMDL
