MODEL 1
REMARK VINA RESULT:      -5.7      0.000      0.000
REMARK  14 active torsions:
REMARK  status: ('A' for Active; 'I' for Inactive)
REMARK    1  A    between atoms: C_1  and  C_2 
REMARK    2  A    between atoms: C_2  and  N_71 
REMARK    3  A    between atoms: C_3  and  C_4 
REMARK    4  A    between atoms: C_3  and  N_71 
REMARK    5  A    between atoms: C_5  and  C_6 
REMARK    6  A    between atoms: C_5  and  N_71 
REMARK    7  A    between atoms: C_7  and  C_11 
REMARK    8  A    between atoms: C_11  and  C_12 
REMARK    9  A    between atoms: C_12  and  C_13 
REMARK   10  A    between atoms: C_21  and  C_31 
REMARK   11  A    between atoms: C_25  and  C_26 
REMARK   12  A    between atoms: C_25  and  C_27 
REMARK   13  A    between atoms: C_27  and  O_29 
REMARK   14  A    between atoms: O_29  and  C_30 
ROOT
ATOM      1  C   LIG d   1       7.580  -1.296  -4.745  0.00  0.00    -0.014 C 
ATOM      2  H   LIG d   1       8.213  -1.761  -3.989  0.00  0.00     0.035 H 
ATOM      3  C   LIG d   1       8.096   0.090  -5.058  0.00  0.00    -0.073 C 
ATOM      4  C   LIG d   1       8.626   0.363  -6.225  0.00  0.00    -0.099 C 
ATOM      5  C   LIG d   1       7.984   1.153  -3.987  0.00  0.00    -0.031 C 
ATOM      6  C   LIG d   1       6.535   1.187  -3.493  0.00  0.00    -0.045 C 
ATOM      7  C   LIG d   1       6.115  -0.211  -3.031  0.00  0.00    -0.019 C 
ATOM      8  H   LIG d   1       6.800  -0.559  -2.258  0.00  0.00     0.032 H 
ATOM      9  C   LIG d   1       6.145  -1.181  -4.214  0.00  0.00    -0.022 C 
ATOM     10  C   LIG d   1       5.681  -2.567  -3.758  0.00  0.00    -0.047 C 
ATOM     11  C   LIG d   1       4.260  -2.478  -3.200  0.00  0.00    -0.051 C 
ATOM     12  C   LIG d   1       4.247  -1.523  -2.004  0.00  0.00    -0.037 C 
ATOM     13  C   LIG d   1       4.695  -0.136  -2.463  0.00  0.00     0.068 C 
ATOM     14  H   LIG d   1       8.595  -0.370  -7.017  0.00  0.00     0.053 H 
ATOM     15  H   LIG d   1       9.093   1.322  -6.395  0.00  0.00     0.053 H 
ATOM     16  H   LIG d   1       8.254   2.123  -4.403  0.00  0.00     0.031 H 
ATOM     17  H   LIG d   1       8.648   0.910  -3.158  0.00  0.00     0.031 H 
ATOM     18  H   LIG d   1       5.882   1.512  -4.304  0.00  0.00     0.027 H 
ATOM     19  H   LIG d   1       6.452   1.885  -2.660  0.00  0.00     0.027 H 
ATOM     20  H   LIG d   1       5.696  -3.251  -4.606  0.00  0.00     0.027 H 
ATOM     21  H   LIG d   1       6.352  -2.937  -2.983  0.00  0.00     0.027 H 
ATOM     22  H   LIG d   1       3.933  -3.467  -2.881  0.00  0.00     0.027 H 
ATOM     23  H   LIG d   1       3.588  -2.103  -3.972  0.00  0.00     0.027 H 
ATOM     24  H   LIG d   1       4.928  -1.892  -1.237  0.00  0.00     0.028 H 
ATOM     25  H   LIG d   1       3.237  -1.464  -1.596  0.00  0.00     0.028 H 
ENDROOT
BRANCH   1  26
ATOM     26  C   LIG d   1       7.590  -2.146  -6.017  0.00  0.00    -0.042 C 
ATOM     27  H   LIG d   1       7.850  -1.521  -6.871  0.00  0.00     0.027 H 
ATOM     28  H   LIG d   1       6.600  -2.578  -6.172  0.00  0.00     0.027 H 
BRANCH  26  29
ATOM     29  C   LIG d   1       8.619  -3.268  -5.873  0.00  0.00    -0.024 C 
ATOM     30  H   LIG d   1       9.233  -3.087  -4.990  0.00  0.00     0.031 H 
ATOM     31  H   LIG d   1       9.255  -3.293  -6.758  0.00  0.00     0.031 H 
BRANCH  29  32
ATOM     32  C   LIG d   1       7.908  -4.589  -5.728  0.00  0.00    -0.001 A 
ATOM     33  C   LIG d   1       8.347  -5.665  -5.051  0.00  0.00     0.152 A 
ATOM     34  O   LIG d   1       7.431  -6.640  -5.165  0.00  0.00    -0.462 OA
ATOM     35  C   LIG d   1       6.398  -6.202  -5.903  0.00  0.00     0.093 A 
ATOM     36  C   LIG d   1       6.652  -4.934  -6.277  0.00  0.00    -0.020 A 
ATOM     37  H   LIG d   1       5.516  -6.770  -6.157  0.00  0.00     0.103 H 
ATOM     38  H   LIG d   1       6.018  -4.303  -6.882  0.00  0.00     0.065 H 
BRANCH  33  39
ATOM     39  C   LIG d   1       9.648  -5.761  -4.298  0.00  0.00     0.028 C 
ATOM     40  H   LIG d   1      10.305  -4.946  -4.601  0.00  0.00     0.090 H 
ATOM     41  H   LIG d   1      10.127  -6.716  -4.520  0.00  0.00     0.090 H 
BRANCH  39  42
ATOM     42  N   LIG d   1       9.371  -5.646  -2.850  0.00  0.00     0.240 N 
ATOM     43  H   LIG d   1       8.355  -5.665  -2.704  0.00  0.00     0.204 HD
BRANCH  42  44
ATOM     44  C   LIG d   1       9.907  -4.370  -2.333  0.00  0.00    -0.034 C 
ATOM     45  H   LIG d   1       9.150  -3.587  -2.389  0.00  0.00     0.081 H 
ATOM     46  H   LIG d   1      10.215  -4.505  -1.296  0.00  0.00     0.081 H 
BRANCH  44  47
ATOM     47  C   LIG d   1      11.119  -3.967  -3.176  0.00  0.00    -0.025 C 
ATOM     48  H   LIG d   1      11.231  -2.884  -3.157  0.00  0.00     0.028 H 
ATOM     49  H   LIG d   1      12.016  -4.433  -2.768  0.00  0.00     0.028 H 
ATOM     50  H   LIG d   1      10.973  -4.300  -4.204  0.00  0.00     0.028 H 
ENDBRANCH  44  47
ENDBRANCH  42  44
BRANCH  42  51
ATOM     51  C   LIG d   1       9.981  -6.781  -2.126  0.00  0.00    -0.034 C 
ATOM     52  H   LIG d   1      10.929  -7.032  -2.601  0.00  0.00     0.081 H 
ATOM     53  H   LIG d   1      10.160  -6.487  -1.091  0.00  0.00     0.081 H 
BRANCH  51  54
ATOM     54  C   LIG d   1       9.055  -7.998  -2.159  0.00  0.00    -0.025 C 
ATOM     55  H   LIG d   1       8.700  -8.211  -1.150  0.00  0.00     0.028 H 
ATOM     56  H   LIG d   1       8.202  -7.789  -2.806  0.00  0.00     0.028 H 
ATOM     57  H   LIG d   1       9.600  -8.860  -2.543  0.00  0.00     0.028 H 
ENDBRANCH  51  54
ENDBRANCH  42  51
ENDBRANCH  39  42
ENDBRANCH  33  39
ENDBRANCH  29  32
ENDBRANCH  26  29
ENDBRANCH   1  26
BRANCH   9  58
ATOM     58  C   LIG d   1       5.229  -0.664  -5.324  0.00  0.00    -0.059 C 
ATOM     59  H   LIG d   1       4.601  -1.478  -5.685  0.00  0.00     0.024 H 
ATOM     60  H   LIG d   1       4.598   0.135  -4.931  0.00  0.00     0.024 H 
ATOM     61  H   LIG d   1       5.833  -0.279  -6.145  0.00  0.00     0.024 H 
ENDBRANCH   9  58
BRANCH  13  62
ATOM     62  C   LIG d   1       4.676   0.825  -1.271  0.00  0.00    -0.049 C 
ATOM     63  H   LIG d   1       4.203   0.337  -0.419  0.00  0.00     0.024 H 
ATOM     64  H   LIG d   1       5.698   1.101  -1.011  0.00  0.00     0.024 H 
ATOM     65  H   LIG d   1       4.114   1.720  -1.536  0.00  0.00     0.024 H 
ENDBRANCH  13  62
BRANCH  13  66
ATOM     66  C   LIG d   1       3.756   0.367  -3.527  0.00  0.00     0.313 C 
ATOM     67  O   LIG d   1       3.853   1.502  -3.931  0.00  0.00    -0.250 OA
BRANCH  66  68
ATOM     68  O   LIG d   1       2.810  -0.445  -4.027  0.00  0.00    -0.468 OA
BRANCH  68  69
ATOM     69  C   LIG d   1       1.837   0.152  -4.925  0.00  0.00     0.082 C 
ATOM     70  H   LIG d   1       0.837  -0.188  -4.653  0.00  0.00     0.066 H 
ATOM     71  H   LIG d   1       1.887   1.237  -4.846  0.00  0.00     0.066 H 
ATOM     72  H   LIG d   1       2.057  -0.150  -5.950  0.00  0.00     0.066 H 
ENDBRANCH  68  69
ENDBRANCH  66  68
ENDBRANCH  13  66
TORSDOF 14
ENDMDL
MODEL 2
REMARK VINA RESULT:      -5.5      4.509      7.233
REMARK  14 active torsions:
REMARK  status: ('A' for Active; 'I' for Inactive)
REMARK    1  A    between atoms: C_1  and  C_2 
REMARK    2  A    between atoms: C_2  and  N_71 
REMARK    3  A    between atoms: C_3  and  C_4 
REMARK    4  A    between atoms: C_3  and  N_71 
REMARK    5  A    between atoms: C_5  and  C_6 
REMARK    6  A    between atoms: C_5  and  N_71 
REMARK    7  A    between atoms: C_7  and  C_11 
REMARK    8  A    between atoms: C_11  and  C_12 
REMARK    9  A    between atoms: C_12  and  C_13 
REMARK   10  A    between atoms: C_21  and  C_31 
REMARK   11  A    between atoms: C_25  and  C_26 
REMARK   12  A    between atoms: C_25  and  C_27 
REMARK   13  A    between atoms: C_27  and  O_29 
REMARK   14  A    between atoms: O_29  and  C_30 
ROOT
ATOM      1  C   LIG d   1       5.540   0.249  -8.127  0.00  0.00    -0.014 C 
ATOM      2  H   LIG d   1       5.016   0.361  -7.178  0.00  0.00     0.035 H 
ATOM      3  C   LIG d   1       5.630   1.589  -8.821  0.00  0.00    -0.073 C 
ATOM      4  C   LIG d   1       6.781   2.197  -8.966  0.00  0.00    -0.099 C 
ATOM      5  C   LIG d   1       4.351   2.209  -9.344  0.00  0.00    -0.031 C 
ATOM      6  C   LIG d   1       3.633   1.170 -10.209  0.00  0.00    -0.045 C 
ATOM      7  C   LIG d   1       3.419  -0.113  -9.403  0.00  0.00    -0.019 C 
ATOM      8  H   LIG d   1       2.860   0.117  -8.495  0.00  0.00     0.032 H 
ATOM      9  C   LIG d   1       4.770  -0.724  -9.028  0.00  0.00    -0.022 C 
ATOM     10  C   LIG d   1       4.552  -2.031  -8.261  0.00  0.00    -0.047 C 
ATOM     11  C   LIG d   1       3.765  -3.014  -9.129  0.00  0.00    -0.051 C 
ATOM     12  C   LIG d   1       2.406  -2.401  -9.477  0.00  0.00    -0.037 C 
ATOM     13  C   LIG d   1       2.624  -1.105 -10.256  0.00  0.00     0.068 C 
ATOM     14  H   LIG d   1       7.696   1.694  -8.692  0.00  0.00     0.053 H 
ATOM     15  H   LIG d   1       6.815   3.202  -9.359  0.00  0.00     0.053 H 
ATOM     16  H   LIG d   1       4.588   3.087  -9.944  0.00  0.00     0.031 H 
ATOM     17  H   LIG d   1       3.713   2.495  -8.509  0.00  0.00     0.031 H 
ATOM     18  H   LIG d   1       4.238   0.948 -11.089  0.00  0.00     0.027 H 
ATOM     19  H   LIG d   1       2.667   1.566 -10.524  0.00  0.00     0.027 H 
ATOM     20  H   LIG d   1       5.519  -2.466  -8.006  0.00  0.00     0.027 H 
ATOM     21  H   LIG d   1       3.995  -1.827  -7.348  0.00  0.00     0.027 H 
ATOM     22  H   LIG d   1       3.616  -3.944  -8.580  0.00  0.00     0.027 H 
ATOM     23  H   LIG d   1       4.318  -3.217 -10.045  0.00  0.00     0.027 H 
ATOM     24  H   LIG d   1       1.858  -2.188  -8.559  0.00  0.00     0.028 H 
ATOM     25  H   LIG d   1       1.836  -3.103 -10.087  0.00  0.00     0.028 H 
ENDROOT
BRANCH   1  26
ATOM     26  C   LIG d   1       6.949  -0.291  -7.873  0.00  0.00    -0.042 C 
ATOM     27  H   LIG d   1       7.681   0.487  -8.091  0.00  0.00     0.027 H 
ATOM     28  H   LIG d   1       7.130  -1.150  -8.520  0.00  0.00     0.027 H 
BRANCH  26  29
ATOM     29  C   LIG d   1       7.076  -0.717  -6.410  0.00  0.00    -0.024 C 
ATOM     30  H   LIG d   1       7.874  -1.454  -6.314  0.00  0.00     0.031 H 
ATOM     31  H   LIG d   1       6.136  -1.155  -6.076  0.00  0.00     0.031 H 
BRANCH  29  32
ATOM     32  C   LIG d   1       7.400   0.485  -5.562  0.00  0.00    -0.001 A 
ATOM     33  C   LIG d   1       6.824   0.820  -4.394  0.00  0.00     0.152 A 
ATOM     34  O   LIG d   1       7.383   1.960  -3.955  0.00  0.00    -0.462 OA
ATOM     35  C   LIG d   1       8.323   2.361  -4.826  0.00  0.00     0.093 A 
ATOM     36  C   LIG d   1       8.366   1.478  -5.842  0.00  0.00    -0.020 A 
ATOM     37  H   LIG d   1       8.937   3.244  -4.732  0.00  0.00     0.103 H 
ATOM     38  H   LIG d   1       9.014   1.521  -6.704  0.00  0.00     0.065 H 
BRANCH  33  39
ATOM     39  C   LIG d   1       5.732   0.050  -3.697  0.00  0.00     0.028 C 
ATOM     40  H   LIG d   1       5.850   0.148  -2.618  0.00  0.00     0.090 H 
ATOM     41  H   LIG d   1       5.795  -1.003  -3.976  0.00  0.00     0.090 H 
BRANCH  39  42
ATOM     42  N   LIG d   1       4.423   0.612  -4.093  0.00  0.00     0.240 N 
ATOM     43  H   LIG d   1       4.581   1.461  -4.649  0.00  0.00     0.204 HD
BRANCH  42  44
ATOM     44  C   LIG d   1       3.639   0.963  -2.891  0.00  0.00    -0.034 C 
ATOM     45  H   LIG d   1       3.250   1.979  -2.973  0.00  0.00     0.081 H 
ATOM     46  H   LIG d   1       2.810   0.263  -2.787  0.00  0.00     0.081 H 
BRANCH  44  47
ATOM     47  C   LIG d   1       4.548   0.863  -1.664  0.00  0.00    -0.025 C 
ATOM     48  H   LIG d   1       5.040   1.821  -1.498  0.00  0.00     0.028 H 
ATOM     49  H   LIG d   1       3.950   0.605  -0.790  0.00  0.00     0.028 H 
ATOM     50  H   LIG d   1       5.300   0.092  -1.831  0.00  0.00     0.028 H 
ENDBRANCH  44  47
ENDBRANCH  42  44
BRANCH  42  51
ATOM     51  C   LIG d   1       3.680  -0.366  -4.913  0.00  0.00    -0.034 C 
ATOM     52  H   LIG d   1       4.388  -0.923  -5.526  0.00  0.00     0.081 H 
ATOM     53  H   LIG d   1       3.151  -1.055  -4.253  0.00  0.00     0.081 H 
BRANCH  51  54
ATOM     54  C   LIG d   1       2.672   0.347  -5.817  0.00  0.00    -0.025 C 
ATOM     55  H   LIG d   1       1.663   0.170  -5.446  0.00  0.00     0.028 H 
ATOM     56  H   LIG d   1       2.877   1.418  -5.815  0.00  0.00     0.028 H 
ATOM     57  H   LIG d   1       2.759  -0.037  -6.834  0.00  0.00     0.028 H 
ENDBRANCH  51  54
ENDBRANCH  42  51
ENDBRANCH  39  42
ENDBRANCH  33  39
ENDBRANCH  29  32
ENDBRANCH  26  29
ENDBRANCH   1  26
BRANCH   9  58
ATOM     58  C   LIG d   1       5.579  -0.995 -10.298  0.00  0.00    -0.059 C 
ATOM     59  H   LIG d   1       5.420  -0.185 -11.010  0.00  0.00     0.024 H 
ATOM     60  H   LIG d   1       6.639  -1.054 -10.047  0.00  0.00     0.024 H 
ATOM     61  H   LIG d   1       5.257  -1.937 -10.740  0.00  0.00     0.024 H 
ENDBRANCH   9  58
BRANCH  13  62
ATOM     62  C   LIG d   1       1.267  -0.493 -10.615  0.00  0.00    -0.049 C 
ATOM     63  H   LIG d   1       0.592  -0.583  -9.764  0.00  0.00     0.024 H 
ATOM     64  H   LIG d   1       1.399   0.561 -10.864  0.00  0.00     0.024 H 
ATOM     65  H   LIG d   1       0.846  -1.019 -11.471  0.00  0.00     0.024 H 
ENDBRANCH  13  62
BRANCH  13  66
ATOM     66  C   LIG d   1       3.388  -1.403 -11.520  0.00  0.00     0.313 C 
ATOM     67  O   LIG d   1       3.637  -0.513 -12.299  0.00  0.00    -0.250 OA
BRANCH  66  68
ATOM     68  O   LIG d   1       3.793  -2.656 -11.781  0.00  0.00    -0.468 OA
BRANCH  68  69
ATOM     69  C   LIG d   1       3.359  -3.241 -13.037  0.00  0.00     0.082 C 
ATOM     70  H   LIG d   1       3.757  -2.656 -13.866  0.00  0.00     0.066 H 
ATOM     71  H   LIG d   1       3.724  -4.265 -13.107  0.00  0.00     0.066 H 
ATOM     72  H   LIG d   1       2.269  -3.238 -13.082  0.00  0.00     0.066 H 
ENDBRANCH  68  69
ENDBRANCH  66  68
ENDBRANCH  13  66
TORSDOF 14
ENDMDL
MODEL 3
REMARK VINA RESULT:      -5.5      1.284      2.928
REMARK  14 active torsions:
REMARK  status: ('A' for Active; 'I' for Inactive)
REMARK    1  A    between atoms: C_1  and  C_2 
REMARK    2  A    between atoms: C_2  and  N_71 
REMARK    3  A    between atoms: C_3  and  C_4 
REMARK    4  A    between atoms: C_3  and  N_71 
REMARK    5  A    between atoms: C_5  and  C_6 
REMARK    6  A    between atoms: C_5  and  N_71 
REMARK    7  A    between atoms: C_7  and  C_11 
REMARK    8  A    between atoms: C_11  and  C_12 
REMARK    9  A    between atoms: C_12  and  C_13 
REMARK   10  A    between atoms: C_21  and  C_31 
REMARK   11  A    between atoms: C_25  and  C_26 
REMARK   12  A    between atoms: C_25  and  C_27 
REMARK   13  A    between atoms: C_27  and  O_29 
REMARK   14  A    between atoms: O_29  and  C_30 
ROOT
ATOM      1  C   LIG d   1       7.599  -1.083  -4.835  0.00  0.00    -0.014 C 
ATOM      2  H   LIG d   1       8.265  -1.551  -4.111  0.00  0.00     0.035 H 
ATOM      3  C   LIG d   1       8.049   0.336  -5.099  0.00  0.00    -0.073 C 
ATOM      4  C   LIG d   1       8.544   0.681  -6.262  0.00  0.00    -0.099 C 
ATOM      5  C   LIG d   1       7.912   1.348  -3.982  0.00  0.00    -0.031 C 
ATOM      6  C   LIG d   1       6.473   1.298  -3.462  0.00  0.00    -0.045 C 
ATOM      7  C   LIG d   1       6.122  -0.134  -3.052  0.00  0.00    -0.019 C 
ATOM      8  H   LIG d   1       6.836  -0.484  -2.306  0.00  0.00     0.032 H 
ATOM      9  C   LIG d   1       6.171  -1.051  -4.275  0.00  0.00    -0.022 C 
ATOM     10  C   LIG d   1       5.775  -2.474  -3.870  0.00  0.00    -0.047 C 
ATOM     11  C   LIG d   1       4.362  -2.470  -3.284  0.00  0.00    -0.051 C 
ATOM     12  C   LIG d   1       4.332  -1.567  -2.049  0.00  0.00    -0.037 C 
ATOM     13  C   LIG d   1       4.711  -0.144  -2.456  0.00  0.00     0.068 C 
ATOM     14  H   LIG d   1       8.529  -0.020  -7.083  0.00  0.00     0.053 H 
ATOM     15  H   LIG d   1       8.967   1.665  -6.399  0.00  0.00     0.053 H 
ATOM     16  H   LIG d   1       8.133   2.346  -4.361  0.00  0.00     0.031 H 
ATOM     17  H   LIG d   1       8.602   1.100  -3.175  0.00  0.00     0.031 H 
ATOM     18  H   LIG d   1       5.791   1.629  -4.247  0.00  0.00     0.027 H 
ATOM     19  H   LIG d   1       6.377   1.957  -2.598  0.00  0.00     0.027 H 
ATOM     20  H   LIG d   1       5.802  -3.121  -4.747  0.00  0.00     0.027 H 
ATOM     21  H   LIG d   1       6.475  -2.847  -3.123  0.00  0.00     0.027 H 
ATOM     22  H   LIG d   1       4.083  -3.485  -3.001  0.00  0.00     0.027 H 
ATOM     23  H   LIG d   1       3.660  -2.093  -4.028  0.00  0.00     0.027 H 
ATOM     24  H   LIG d   1       5.042  -1.938  -1.310  0.00  0.00     0.028 H 
ATOM     25  H   LIG d   1       3.328  -1.569  -1.621  0.00  0.00     0.028 H 
ENDROOT
BRANCH   1  26
ATOM     26  C   LIG d   1       7.620  -1.878  -6.142  0.00  0.00    -0.042 C 
ATOM     27  H   LIG d   1       7.549  -1.192  -6.986  0.00  0.00     0.027 H 
ATOM     28  H   LIG d   1       6.774  -2.566  -6.162  0.00  0.00     0.027 H 
BRANCH  26  29
ATOM     29  C   LIG d   1       8.924  -2.670  -6.236  0.00  0.00    -0.024 C 
ATOM     30  H   LIG d   1       9.771  -1.989  -6.142  0.00  0.00     0.031 H 
ATOM     31  H   LIG d   1       8.972  -3.179  -7.198  0.00  0.00     0.031 H 
BRANCH  29  32
ATOM     32  C   LIG d   1       8.976  -3.689  -5.126  0.00  0.00    -0.001 A 
ATOM     33  C   LIG d   1       8.295  -4.847  -5.070  0.00  0.00     0.152 A 
ATOM     34  O   LIG d   1       8.607  -5.469  -3.921  0.00  0.00    -0.462 OA
ATOM     35  C   LIG d   1       9.492  -4.725  -3.237  0.00  0.00     0.093 A 
ATOM     36  C   LIG d   1       9.747  -3.609  -3.945  0.00  0.00    -0.020 A 
ATOM     37  H   LIG d   1       9.922  -4.977  -2.279  0.00  0.00     0.103 H 
ATOM     38  H   LIG d   1      10.413  -2.808  -3.663  0.00  0.00     0.065 H 
BRANCH  33  39
ATOM     39  C   LIG d   1       7.339  -5.359  -6.117  0.00  0.00     0.028 C 
ATOM     40  H   LIG d   1       7.862  -6.045  -6.782  0.00  0.00     0.090 H 
ATOM     41  H   LIG d   1       6.948  -4.521  -6.693  0.00  0.00     0.090 H 
BRANCH  39  42
ATOM     42  N   LIG d   1       6.238  -6.083  -5.445  0.00  0.00     0.240 N 
ATOM     43  H   LIG d   1       6.336  -5.968  -4.429  0.00  0.00     0.204 HD
BRANCH  42  44
ATOM     44  C   LIG d   1       6.305  -7.522  -5.775  0.00  0.00    -0.034 C 
ATOM     45  H   LIG d   1       6.549  -7.661  -6.828  0.00  0.00     0.081 H 
ATOM     46  H   LIG d   1       7.069  -7.996  -5.159  0.00  0.00     0.081 H 
BRANCH  44  47
ATOM     47  C   LIG d   1       4.945  -8.158  -5.478  0.00  0.00    -0.025 C 
ATOM     48  H   LIG d   1       4.684  -8.847  -6.281  0.00  0.00     0.028 H 
ATOM     49  H   LIG d   1       4.996  -8.701  -4.535  0.00  0.00     0.028 H 
ATOM     50  H   LIG d   1       4.187  -7.378  -5.408  0.00  0.00     0.028 H 
ENDBRANCH  44  47
ENDBRANCH  42  44
BRANCH  42  51
ATOM     51  C   LIG d   1       4.936  -5.527  -5.867  0.00  0.00    -0.034 C 
ATOM     52  H   LIG d   1       4.310  -6.339  -6.238  0.00  0.00     0.081 H 
ATOM     53  H   LIG d   1       4.453  -5.060  -5.008  0.00  0.00     0.081 H 
BRANCH  51  54
ATOM     54  C   LIG d   1       5.130  -4.486  -6.972  0.00  0.00    -0.025 C 
ATOM     55  H   LIG d   1       5.997  -3.867  -6.739  0.00  0.00     0.028 H 
ATOM     56  H   LIG d   1       5.290  -4.993  -7.924  0.00  0.00     0.028 H 
ATOM     57  H   LIG d   1       4.241  -3.858  -7.039  0.00  0.00     0.028 H 
ENDBRANCH  51  54
ENDBRANCH  42  51
ENDBRANCH  39  42
ENDBRANCH  33  39
ENDBRANCH  29  32
ENDBRANCH  26  29
ENDBRANCH   1  26
BRANCH   9  58
ATOM     58  C   LIG d   1       5.212  -0.530  -5.346  0.00  0.00    -0.059 C 
ATOM     59  H   LIG d   1       4.263  -1.060  -5.274  0.00  0.00     0.024 H 
ATOM     60  H   LIG d   1       5.044   0.538  -5.194  0.00  0.00     0.024 H 
ATOM     61  H   LIG d   1       5.646  -0.692  -6.333  0.00  0.00     0.024 H 
ENDBRANCH   9  58
BRANCH  13  62
ATOM     62  C   LIG d   1       4.674   0.765  -1.225  0.00  0.00    -0.049 C 
ATOM     63  H   LIG d   1       3.905   1.526  -1.358  0.00  0.00     0.024 H 
ATOM     64  H   LIG d   1       4.447   0.169  -0.341  0.00  0.00     0.024 H 
ATOM     65  H   LIG d   1       5.643   1.246  -1.099  0.00  0.00     0.024 H 
ENDBRANCH  13  62
BRANCH  13  66
ATOM     66  C   LIG d   1       3.731   0.361  -3.482  0.00  0.00     0.313 C 
ATOM     67  O   LIG d   1       3.784   1.510  -3.853  0.00  0.00    -0.250 OA
BRANCH  66  68
ATOM     68  O   LIG d   1       2.798  -0.463  -3.984  0.00  0.00    -0.468 OA
BRANCH  68  69
ATOM     69  C   LIG d   1       1.851   0.107  -4.925  0.00  0.00     0.082 C 
ATOM     70  H   LIG d   1       1.471  -0.678  -5.578  0.00  0.00     0.066 H 
ATOM     71  H   LIG d   1       1.023   0.558  -4.379  0.00  0.00     0.066 H 
ATOM     72  H   LIG d   1       2.350   0.869  -5.525  0.00  0.00     0.066 H 
ENDBRANCH  68  69
ENDBRANCH  66  68
ENDBRANCH  13  66
TORSDOF 14
ENDMDL
MODEL 4
REMARK VINA RESULT:      -5.5      4.046      6.297
REMARK  14 active torsions:
REMARK  status: ('A' for Active; 'I' for Inactive)
REMARK    1  A    between atoms: C_1  and  C_2 
REMARK    2  A    between atoms: C_2  and  N_71 
REMARK    3  A    between atoms: C_3  and  C_4 
REMARK    4  A    between atoms: C_3  and  N_71 
REMARK    5  A    between atoms: C_5  and  C_6 
REMARK    6  A    between atoms: C_5  and  N_71 
REMARK    7  A    between atoms: C_7  and  C_11 
REMARK    8  A    between atoms: C_11  and  C_12 
REMARK    9  A    between atoms: C_12  and  C_13 
REMARK   10  A    between atoms: C_21  and  C_31 
REMARK   11  A    between atoms: C_25  and  C_26 
REMARK   12  A    between atoms: C_25  and  C_27 
REMARK   13  A    between atoms: C_27  and  O_29 
REMARK   14  A    between atoms: O_29  and  C_30 
ROOT
ATOM      1  C   LIG d   1       5.509  -1.102  -7.187  0.00  0.00    -0.014 C 
ATOM      2  H   LIG d   1       5.097  -0.720  -6.253  0.00  0.00     0.035 H 
ATOM      3  C   LIG d   1       6.863  -0.478  -7.438  0.00  0.00    -0.073 C 
ATOM      4  C   LIG d   1       7.957  -1.197  -7.383  0.00  0.00    -0.099 C 
ATOM      5  C   LIG d   1       6.920   1.001  -7.756  0.00  0.00    -0.031 C 
ATOM      6  C   LIG d   1       5.945   1.284  -8.902  0.00  0.00    -0.045 C 
ATOM      7  C   LIG d   1       4.549   0.780  -8.527  0.00  0.00    -0.019 C 
ATOM      8  H   LIG d   1       4.231   1.251  -7.596  0.00  0.00     0.032 H 
ATOM      9  C   LIG d   1       4.575  -0.738  -8.348  0.00  0.00    -0.022 C 
ATOM     10  C   LIG d   1       3.168  -1.244  -8.018  0.00  0.00    -0.047 C 
ATOM     11  C   LIG d   1       2.208  -0.874  -9.150  0.00  0.00    -0.051 C 
ATOM     12  C   LIG d   1       2.173   0.648  -9.303  0.00  0.00    -0.037 C 
ATOM     13  C   LIG d   1       3.574   1.150  -9.649  0.00  0.00     0.068 C 
ATOM     14  H   LIG d   1       7.893  -2.269  -7.270  0.00  0.00     0.053 H 
ATOM     15  H   LIG d   1       8.922  -0.718  -7.451  0.00  0.00     0.053 H 
ATOM     16  H   LIG d   1       7.932   1.273  -8.058  0.00  0.00     0.031 H 
ATOM     17  H   LIG d   1       6.631   1.576  -6.878  0.00  0.00     0.031 H 
ATOM     18  H   LIG d   1       6.285   0.773  -9.804  0.00  0.00     0.027 H 
ATOM     19  H   LIG d   1       5.906   2.358  -9.087  0.00  0.00     0.027 H 
ATOM     20  H   LIG d   1       3.191  -2.328  -7.901  0.00  0.00     0.027 H 
ATOM     21  H   LIG d   1       2.827  -0.787  -7.090  0.00  0.00     0.027 H 
ATOM     22  H   LIG d   1       1.209  -1.240  -8.912  0.00  0.00     0.027 H 
ATOM     23  H   LIG d   1       2.549  -1.327 -10.081  0.00  0.00     0.027 H 
ATOM     24  H   LIG d   1       1.843   1.100  -8.368  0.00  0.00     0.028 H 
ATOM     25  H   LIG d   1       1.481   0.917 -10.103  0.00  0.00     0.028 H 
ENDROOT
BRANCH   1  26
ATOM     26  C   LIG d   1       5.654  -2.622  -7.101  0.00  0.00    -0.042 C 
ATOM     27  H   LIG d   1       6.708  -2.892  -7.167  0.00  0.00     0.027 H 
ATOM     28  H   LIG d   1       5.110  -3.086  -7.925  0.00  0.00     0.027 H 
BRANCH  26  29
ATOM     29  C   LIG d   1       5.084  -3.115  -5.771  0.00  0.00    -0.024 C 
ATOM     30  H   LIG d   1       4.923  -4.192  -5.820  0.00  0.00     0.031 H 
ATOM     31  H   LIG d   1       4.135  -2.615  -5.574  0.00  0.00     0.031 H 
BRANCH  29  32
ATOM     32  C   LIG d   1       6.055  -2.804  -4.661  0.00  0.00    -0.001 A 
ATOM     33  C   LIG d   1       5.798  -2.093  -3.548  0.00  0.00     0.152 A 
ATOM     34  O   LIG d   1       6.920  -2.035  -2.813  0.00  0.00    -0.462 OA
ATOM     35  C   LIG d   1       7.900  -2.710  -3.437  0.00  0.00     0.093 A 
ATOM     36  C   LIG d   1       7.409  -3.201  -4.590  0.00  0.00    -0.020 A 
ATOM     37  H   LIG d   1       8.910  -2.834  -3.078  0.00  0.00     0.103 H 
ATOM     38  H   LIG d   1       7.947  -3.786  -5.321  0.00  0.00     0.065 H 
BRANCH  33  39
ATOM     39  C   LIG d   1       4.476  -1.464  -3.189  0.00  0.00     0.028 C 
ATOM     40  H   LIG d   1       4.389  -1.396  -2.105  0.00  0.00     0.090 H 
ATOM     41  H   LIG d   1       3.664  -2.076  -3.581  0.00  0.00     0.090 H 
BRANCH  39  42
ATOM     42  N   LIG d   1       4.424  -0.104  -3.765  0.00  0.00     0.240 N 
ATOM     43  H   LIG d   1       4.784  -0.135  -4.726  0.00  0.00     0.204 HD
BRANCH  42  44
ATOM     44  C   LIG d   1       5.262   0.816  -2.967  0.00  0.00    -0.034 C 
ATOM     45  H   LIG d   1       6.283   0.439  -2.901  0.00  0.00     0.081 H 
ATOM     46  H   LIG d   1       5.267   1.798  -3.440  0.00  0.00     0.081 H 
BRANCH  44  47
ATOM     47  C   LIG d   1       4.668   0.929  -1.562  0.00  0.00    -0.025 C 
ATOM     48  H   LIG d   1       4.261  -0.035  -1.260  0.00  0.00     0.028 H 
ATOM     49  H   LIG d   1       5.447   1.230  -0.861  0.00  0.00     0.028 H 
ATOM     50  H   LIG d   1       3.873   1.676  -1.563  0.00  0.00     0.028 H 
ENDBRANCH  44  47
ENDBRANCH  42  44
BRANCH  42  51
ATOM     51  C   LIG d   1       3.028   0.380  -3.791  0.00  0.00    -0.034 C 
ATOM     52  H   LIG d   1       2.382  -0.382  -3.356  0.00  0.00     0.081 H 
ATOM     53  H   LIG d   1       2.957   1.296  -3.202  0.00  0.00     0.081 H 
BRANCH  51  54
ATOM     54  C   LIG d   1       2.586   0.665  -5.228  0.00  0.00    -0.025 C 
ATOM     55  H   LIG d   1       2.348   1.724  -5.332  0.00  0.00     0.028 H 
ATOM     56  H   LIG d   1       3.393   0.406  -5.915  0.00  0.00     0.028 H 
ATOM     57  H   LIG d   1       1.704   0.068  -5.463  0.00  0.00     0.028 H 
ENDBRANCH  51  54
ENDBRANCH  42  51
ENDBRANCH  39  42
ENDBRANCH  33  39
ENDBRANCH  29  32
ENDBRANCH  26  29
ENDBRANCH   1  26
BRANCH   9  58
ATOM     58  C   LIG d   1       5.076  -1.397  -9.634  0.00  0.00    -0.059 C 
ATOM     59  H   LIG d   1       6.157  -1.279  -9.706  0.00  0.00     0.024 H 
ATOM     60  H   LIG d   1       4.827  -2.460  -9.619  0.00  0.00     0.024 H 
ATOM     61  H   LIG d   1       4.601  -0.926 -10.494  0.00  0.00     0.024 H 
ENDBRANCH   9  58
BRANCH  13  62
ATOM     62  C   LIG d   1       3.543   2.673  -9.812  0.00  0.00    -0.049 C 
ATOM     63  H   LIG d   1       3.337   2.922 -10.853  0.00  0.00     0.024 H 
ATOM     64  H   LIG d   1       2.761   3.089  -9.176  0.00  0.00     0.024 H 
ATOM     65  H   LIG d   1       4.507   3.089  -9.523  0.00  0.00     0.024 H 
ENDBRANCH  13  62
BRANCH  13  66
ATOM     66  C   LIG d   1       4.030   0.518 -10.937  0.00  0.00     0.313 C 
ATOM     67  O   LIG d   1       5.169   0.665 -11.312  0.00  0.00    -0.250 OA
BRANCH  66  68
ATOM     68  O   LIG d   1       3.171  -0.209 -11.670  0.00  0.00    -0.468 OA
BRANCH  68  69
ATOM     69  C   LIG d   1       3.694  -0.835 -12.871  0.00  0.00     0.082 C 
ATOM     70  H   LIG d   1       3.574  -1.916 -12.798  0.00  0.00     0.066 H 
ATOM     71  H   LIG d   1       3.150  -0.466 -13.739  0.00  0.00     0.066 H 
ATOM     72  H   LIG d   1       4.753  -0.594 -12.974  0.00  0.00     0.066 H 
ENDBRANCH  68  69
ENDBRANCH  66  68
ENDBRANCH  13  66
TORSDOF 14
ENDMDL
MODEL 5
REMARK VINA RESULT:      -5.4      4.522      6.751
REMARK  14 active torsions:
REMARK  status: ('A' for Active; 'I' for Inactive)
REMARK    1  A    between atoms: C_1  and  C_2 
REMARK    2  A    between atoms: C_2  and  N_71 
REMARK    3  A    between atoms: C_3  and  C_4 
REMARK    4  A    between atoms: C_3  and  N_71 
REMARK    5  A    between atoms: C_5  and  C_6 
REMARK    6  A    between atoms: C_5  and  N_71 
REMARK    7  A    between atoms: C_7  and  C_11 
REMARK    8  A    between atoms: C_11  and  C_12 
REMARK    9  A    between atoms: C_12  and  C_13 
REMARK   10  A    between atoms: C_21  and  C_31 
REMARK   11  A    between atoms: C_25  and  C_26 
REMARK   12  A    between atoms: C_25  and  C_27 
REMARK   13  A    between atoms: C_27  and  O_29 
REMARK   14  A    between atoms: O_29  and  C_30 
ROOT
ATOM      1  C   LIG d   1       5.459   0.346  -8.100  0.00  0.00    -0.014 C 
ATOM      2  H   LIG d   1       4.895   0.490  -7.179  0.00  0.00     0.035 H 
ATOM      3  C   LIG d   1       5.566   1.658  -8.842  0.00  0.00    -0.073 C 
ATOM      4  C   LIG d   1       6.717   2.273  -8.964  0.00  0.00    -0.099 C 
ATOM      5  C   LIG d   1       4.305   2.243  -9.442  0.00  0.00    -0.031 C 
ATOM      6  C   LIG d   1       3.633   1.164 -10.295  0.00  0.00    -0.045 C 
ATOM      7  C   LIG d   1       3.396  -0.089  -9.447  0.00  0.00    -0.019 C 
ATOM      8  H   LIG d   1       2.798   0.171  -8.573  0.00  0.00     0.032 H 
ATOM      9  C   LIG d   1       4.737  -0.670  -8.993  0.00  0.00    -0.022 C 
ATOM     10  C   LIG d   1       4.498  -1.948  -8.184  0.00  0.00    -0.047 C 
ATOM     11  C   LIG d   1       3.756  -2.973  -9.044  0.00  0.00    -0.051 C 
ATOM     12  C   LIG d   1       2.408  -2.389  -9.472  0.00  0.00    -0.037 C 
ATOM     13  C   LIG d   1       2.647  -1.122 -10.293  0.00  0.00     0.068 C 
ATOM     14  H   LIG d   1       7.624   1.790  -8.632  0.00  0.00     0.053 H 
ATOM     15  H   LIG d   1       6.759   3.261  -9.395  0.00  0.00     0.053 H 
ATOM     16  H   LIG d   1       4.559   3.100 -10.066  0.00  0.00     0.031 H 
ATOM     17  H   LIG d   1       3.630   2.555  -8.646  0.00  0.00     0.031 H 
ATOM     18  H   LIG d   1       4.276   0.914 -11.139  0.00  0.00     0.027 H 
ATOM     19  H   LIG d   1       2.677   1.537 -10.664  0.00  0.00     0.027 H 
ATOM     20  H   LIG d   1       5.457  -2.363  -7.872  0.00  0.00     0.027 H 
ATOM     21  H   LIG d   1       3.901  -1.714  -7.304  0.00  0.00     0.027 H 
ATOM     22  H   LIG d   1       3.593  -3.882  -8.465  0.00  0.00     0.027 H 
ATOM     23  H   LIG d   1       4.350  -3.205  -9.928  0.00  0.00     0.027 H 
ATOM     24  H   LIG d   1       1.820  -2.145  -8.587  0.00  0.00     0.028 H 
ATOM     25  H   LIG d   1       1.870  -3.120 -10.077  0.00  0.00     0.028 H 
ENDROOT
BRANCH   1  26
ATOM     26  C   LIG d   1       6.861  -0.169  -7.767  0.00  0.00    -0.042 C 
ATOM     27  H   LIG d   1       7.601   0.396  -8.334  0.00  0.00     0.027 H 
ATOM     28  H   LIG d   1       6.931  -1.225  -8.030  0.00  0.00     0.027 H 
BRANCH  26  29
ATOM     29  C   LIG d   1       7.126   0.003  -6.271  0.00  0.00    -0.024 C 
ATOM     30  H   LIG d   1       6.507   0.812  -5.882  0.00  0.00     0.031 H 
ATOM     31  H   LIG d   1       8.177   0.243  -6.112  0.00  0.00     0.031 H 
BRANCH  29  32
ATOM     32  C   LIG d   1       6.789  -1.277  -5.549  0.00  0.00    -0.001 A 
ATOM     33  C   LIG d   1       5.794  -1.458  -4.662  0.00  0.00     0.152 A 
ATOM     34  O   LIG d   1       5.828  -2.733  -4.241  0.00  0.00    -0.462 OA
ATOM     35  C   LIG d   1       6.831  -3.381  -4.855  0.00  0.00     0.093 A 
ATOM     36  C   LIG d   1       7.457  -2.515  -5.674  0.00  0.00    -0.020 A 
ATOM     37  H   LIG d   1       7.094  -4.418  -4.714  0.00  0.00     0.103 H 
ATOM     38  H   LIG d   1       8.308  -2.727  -6.304  0.00  0.00     0.065 H 
BRANCH  33  39
ATOM     39  C   LIG d   1       4.812  -0.407  -4.212  0.00  0.00     0.028 C 
ATOM     40  H   LIG d   1       4.229  -0.065  -5.067  0.00  0.00     0.090 H 
ATOM     41  H   LIG d   1       5.353   0.435  -3.780  0.00  0.00     0.090 H 
BRANCH  39  42
ATOM     42  N   LIG d   1       3.899  -1.003  -3.214  0.00  0.00     0.240 N 
ATOM     43  H   LIG d   1       3.918  -2.025  -3.314  0.00  0.00     0.204 HD
BRANCH  42  44
ATOM     44  C   LIG d   1       2.520  -0.524  -3.440  0.00  0.00    -0.034 C 
ATOM     45  H   LIG d   1       1.836  -1.367  -3.543  0.00  0.00     0.081 H 
ATOM     46  H   LIG d   1       2.212   0.092  -2.596  0.00  0.00     0.081 H 
BRANCH  44  47
ATOM     47  C   LIG d   1       2.493   0.313  -4.720  0.00  0.00    -0.025 C 
ATOM     48  H   LIG d   1       3.340   0.041  -5.350  0.00  0.00     0.028 H 
ATOM     49  H   LIG d   1       1.564   0.126  -5.258  0.00  0.00     0.028 H 
ATOM     50  H   LIG d   1       2.557   1.371  -4.463  0.00  0.00     0.028 H 
ENDBRANCH  44  47
ENDBRANCH  42  44
BRANCH  42  51
ATOM     51  C   LIG d   1       4.340  -0.647  -1.849  0.00  0.00    -0.034 C 
ATOM     52  H   LIG d   1       3.572  -0.954  -1.139  0.00  0.00     0.081 H 
ATOM     53  H   LIG d   1       5.271  -1.171  -1.627  0.00  0.00     0.081 H 
BRANCH  51  54
ATOM     54  C   LIG d   1       4.566   0.863  -1.736  0.00  0.00    -0.025 C 
ATOM     55  H   LIG d   1       5.042   1.227  -2.647  0.00  0.00     0.028 H 
ATOM     56  H   LIG d   1       3.608   1.364  -1.602  0.00  0.00     0.028 H 
ATOM     57  H   LIG d   1       5.209   1.071  -0.881  0.00  0.00     0.028 H 
ENDBRANCH  51  54
ENDBRANCH  42  51
ENDBRANCH  39  42
ENDBRANCH  33  39
ENDBRANCH  29  32
ENDBRANCH  26  29
ENDBRANCH   1  26
BRANCH   9  58
ATOM     58  C   LIG d   1       5.600  -0.982 -10.216  0.00  0.00    -0.059 C 
ATOM     59  H   LIG d   1       5.134  -0.563 -11.108  0.00  0.00     0.024 H 
ATOM     60  H   LIG d   1       6.590  -0.542 -10.083  0.00  0.00     0.024 H 
ATOM     61  H   LIG d   1       5.695  -2.062 -10.329  0.00  0.00     0.024 H 
ENDBRANCH   9  58
BRANCH  13  62
ATOM     62  C   LIG d   1       1.301  -0.538 -10.731  0.00  0.00    -0.049 C 
ATOM     63  H   LIG d   1       1.451   0.118 -11.588  0.00  0.00     0.024 H 
ATOM     64  H   LIG d   1       0.627  -1.350 -11.007  0.00  0.00     0.024 H 
ATOM     65  H   LIG d   1       0.867   0.031  -9.910  0.00  0.00     0.024 H 
ENDBRANCH  13  62
BRANCH  13  66
ATOM     66  C   LIG d   1       3.466  -1.461 -11.510  0.00  0.00     0.313 C 
ATOM     67  O   LIG d   1       3.807  -2.604 -11.709  0.00  0.00    -0.250 OA
BRANCH  66  68
ATOM     68  O   LIG d   1       3.816  -0.496 -12.376  0.00  0.00    -0.468 OA
BRANCH  68  69
ATOM     69  C   LIG d   1       4.025  -0.893 -13.756  0.00  0.00     0.082 C 
ATOM     70  H   LIG d   1       3.298  -0.388 -14.393  0.00  0.00     0.066 H 
ATOM     71  H   LIG d   1       5.033  -0.616 -14.065  0.00  0.00     0.066 H 
ATOM     72  H   LIG d   1       3.900  -1.972 -13.847  0.00  0.00     0.066 H 
ENDBRANCH  68  69
ENDBRANCH  66  68
ENDBRANCH  13  66
TORSDOF 14
ENDMDL
MODEL 6
REMARK VINA RESULT:      -5.4      1.449      2.215
REMARK  14 active torsions:
REMARK  status: ('A' for Active; 'I' for Inactive)
REMARK    1  A    between atoms: C_1  and  C_2 
REMARK    2  A    between atoms: C_2  and  N_71 
REMARK    3  A    between atoms: C_3  and  C_4 
REMARK    4  A    between atoms: C_3  and  N_71 
REMARK    5  A    between atoms: C_5  and  C_6 
REMARK    6  A    between atoms: C_5  and  N_71 
REMARK    7  A    between atoms: C_7  and  C_11 
REMARK    8  A    between atoms: C_11  and  C_12 
REMARK    9  A    between atoms: C_12  and  C_13 
REMARK   10  A    between atoms: C_21  and  C_31 
REMARK   11  A    between atoms: C_25  and  C_26 
REMARK   12  A    between atoms: C_25  and  C_27 
REMARK   13  A    between atoms: C_27  and  O_29 
REMARK   14  A    between atoms: O_29  and  C_30 
ROOT
ATOM      1  C   LIG d   1       7.644  -1.100  -4.819  0.00  0.00    -0.014 C 
ATOM      2  H   LIG d   1       8.294  -1.578  -4.087  0.00  0.00     0.035 H 
ATOM      3  C   LIG d   1       8.102   0.320  -5.058  0.00  0.00    -0.073 C 
ATOM      4  C   LIG d   1       8.621   0.677  -6.207  0.00  0.00    -0.099 C 
ATOM      5  C   LIG d   1       7.944   1.320  -3.933  0.00  0.00    -0.031 C 
ATOM      6  C   LIG d   1       6.494   1.267  -3.443  0.00  0.00    -0.045 C 
ATOM      7  C   LIG d   1       6.132  -0.169  -3.056  0.00  0.00    -0.019 C 
ATOM      8  H   LIG d   1       6.830  -0.528  -2.300  0.00  0.00     0.032 H 
ATOM      9  C   LIG d   1       6.205  -1.073  -4.288  0.00  0.00    -0.022 C 
ATOM     10  C   LIG d   1       5.799  -2.499  -3.907  0.00  0.00    -0.047 C 
ATOM     11  C   LIG d   1       4.374  -2.499  -3.351  0.00  0.00    -0.051 C 
ATOM     12  C   LIG d   1       4.320  -1.610  -2.107  0.00  0.00    -0.037 C 
ATOM     13  C   LIG d   1       4.710  -0.183  -2.490  0.00  0.00     0.068 C 
ATOM     14  H   LIG d   1       8.623  -0.015  -7.036  0.00  0.00     0.053 H 
ATOM     15  H   LIG d   1       9.048   1.661  -6.324  0.00  0.00     0.053 H 
ATOM     16  H   LIG d   1       8.174   2.321  -4.296  0.00  0.00     0.031 H 
ATOM     17  H   LIG d   1       8.616   1.062  -3.115  0.00  0.00     0.031 H 
ATOM     18  H   LIG d   1       5.829   1.607  -4.238  0.00  0.00     0.027 H 
ATOM     19  H   LIG d   1       6.381   1.917  -2.574  0.00  0.00     0.027 H 
ATOM     20  H   LIG d   1       5.843  -3.137  -4.790  0.00  0.00     0.027 H 
ATOM     21  H   LIG d   1       6.483  -2.881  -3.150  0.00  0.00     0.027 H 
ATOM     22  H   LIG d   1       4.088  -3.516  -3.085  0.00  0.00     0.027 H 
ATOM     23  H   LIG d   1       3.688  -2.113  -4.104  0.00  0.00     0.027 H 
ATOM     24  H   LIG d   1       5.014  -1.989  -1.358  0.00  0.00     0.028 H 
ATOM     25  H   LIG d   1       3.307  -1.614  -1.700  0.00  0.00     0.028 H 
ENDROOT
BRANCH   1  26
ATOM     26  C   LIG d   1       7.691  -1.881  -6.134  0.00  0.00    -0.042 C 
ATOM     27  H   LIG d   1       8.238  -1.305  -6.880  0.00  0.00     0.027 H 
ATOM     28  H   LIG d   1       6.675  -2.059  -6.487  0.00  0.00     0.027 H 
BRANCH  26  29
ATOM     29  C   LIG d   1       8.395  -3.220  -5.908  0.00  0.00    -0.024 C 
ATOM     30  H   LIG d   1       8.499  -3.742  -6.859  0.00  0.00     0.031 H 
ATOM     31  H   LIG d   1       7.806  -3.829  -5.222  0.00  0.00     0.031 H 
BRANCH  29  32
ATOM     32  C   LIG d   1       9.760  -2.977  -5.317  0.00  0.00    -0.001 A 
ATOM     33  C   LIG d   1      10.182  -3.350  -4.095  0.00  0.00     0.152 A 
ATOM     34  O   LIG d   1      11.453  -2.946  -3.944  0.00  0.00    -0.462 OA
ATOM     35  C   LIG d   1      11.861  -2.321  -5.061  0.00  0.00     0.093 A 
ATOM     36  C   LIG d   1      10.841  -2.314  -5.939  0.00  0.00    -0.020 A 
ATOM     37  H   LIG d   1      12.838  -1.894  -5.225  0.00  0.00     0.103 H 
ATOM     38  H   LIG d   1      10.849  -1.883  -6.929  0.00  0.00     0.065 H 
BRANCH  33  39
ATOM     39  C   LIG d   1       9.365  -4.091  -3.069  0.00  0.00     0.028 C 
ATOM     40  H   LIG d   1       8.320  -4.110  -3.380  0.00  0.00     0.090 H 
ATOM     41  H   LIG d   1       9.448  -3.588  -2.105  0.00  0.00     0.090 H 
BRANCH  39  42
ATOM     42  N   LIG d   1       9.865  -5.479  -2.972  0.00  0.00     0.240 N 
ATOM     43  H   LIG d   1      10.851  -5.498  -3.257  0.00  0.00     0.204 HD
BRANCH  42  44
ATOM     44  C   LIG d   1       9.089  -6.360  -3.870  0.00  0.00    -0.034 C 
ATOM     45  H   LIG d   1       8.710  -7.223  -3.323  0.00  0.00     0.081 H 
ATOM     46  H   LIG d   1       8.253  -5.798  -4.288  0.00  0.00     0.081 H 
BRANCH  44  47
ATOM     47  C   LIG d   1      10.002  -6.834  -5.003  0.00  0.00    -0.025 C 
ATOM     48  H   LIG d   1       9.925  -6.144  -5.844  0.00  0.00     0.028 H 
ATOM     49  H   LIG d   1      11.033  -6.865  -4.651  0.00  0.00     0.028 H 
ATOM     50  H   LIG d   1       9.697  -7.830  -5.322  0.00  0.00     0.028 H 
ENDBRANCH  44  47
ENDBRANCH  42  44
BRANCH  42  51
ATOM     51  C   LIG d   1       9.759  -5.959  -1.579  0.00  0.00    -0.034 C 
ATOM     52  H   LIG d   1      10.075  -5.162  -0.906  0.00  0.00     0.081 H 
ATOM     53  H   LIG d   1       8.720  -6.219  -1.370  0.00  0.00     0.081 H 
BRANCH  51  54
ATOM     54  C   LIG d   1      10.644  -7.189  -1.366  0.00  0.00    -0.025 C 
ATOM     55  H   LIG d   1      10.380  -7.667  -0.423  0.00  0.00     0.028 H 
ATOM     56  H   LIG d   1      10.492  -7.892  -2.185  0.00  0.00     0.028 H 
ATOM     57  H   LIG d   1      11.690  -6.883  -1.339  0.00  0.00     0.028 H 
ENDBRANCH  51  54
ENDBRANCH  42  51
ENDBRANCH  39  42
ENDBRANCH  33  39
ENDBRANCH  29  32
ENDBRANCH  26  29
ENDBRANCH   1  26
BRANCH   9  58
ATOM     58  C   LIG d   1       5.269  -0.537  -5.373  0.00  0.00    -0.059 C 
ATOM     59  H   LIG d   1       5.799  -0.499  -6.324  0.00  0.00     0.024 H 
ATOM     60  H   LIG d   1       4.405  -1.197  -5.465  0.00  0.00     0.024 H 
ATOM     61  H   LIG d   1       4.934   0.464  -5.102  0.00  0.00     0.024 H 
ENDBRANCH   9  58
BRANCH  13  62
ATOM     62  C   LIG d   1       4.648   0.713  -1.250  0.00  0.00    -0.049 C 
ATOM     63  H   LIG d   1       4.398   0.109  -0.378  0.00  0.00     0.024 H 
ATOM     64  H   LIG d   1       5.618   1.187  -1.097  0.00  0.00     0.024 H 
ATOM     65  H   LIG d   1       3.887   1.479  -1.392  0.00  0.00     0.024 H 
ENDBRANCH  13  62
BRANCH  13  66
ATOM     66  C   LIG d   1       3.752   0.336  -3.530  0.00  0.00     0.313 C 
ATOM     67  O   LIG d   1       3.817   1.488  -3.891  0.00  0.00    -0.250 OA
BRANCH  66  68
ATOM     68  O   LIG d   1       2.825  -0.481  -4.057  0.00  0.00    -0.468 OA
BRANCH  68  69
ATOM     69  C   LIG d   1       1.838   0.122  -4.934  0.00  0.00     0.082 C 
ATOM     70  H   LIG d   1       2.281   0.292  -5.916  0.00  0.00     0.066 H 
ATOM     71  H   LIG d   1       0.982  -0.545  -5.032  0.00  0.00     0.066 H 
ATOM     72  H   LIG d   1       1.511   1.074  -4.514  0.00  0.00     0.066 H 
ENDBRANCH  68  69
ENDBRANCH  66  68
ENDBRANCH  13  66
TORSDOF 14
ENDMDL
MODEL 7
REMARK VINA RESULT:      -5.3      3.649      6.335
REMARK  14 active torsions:
REMARK  status: ('A' for Active; 'I' for Inactive)
REMARK    1  A    between atoms: C_1  and  C_2 
REMARK    2  A    between atoms: C_2  and  N_71 
REMARK    3  A    between atoms: C_3  and  C_4 
REMARK    4  A    between atoms: C_3  and  N_71 
REMARK    5  A    between atoms: C_5  and  C_6 
REMARK    6  A    between atoms: C_5  and  N_71 
REMARK    7  A    between atoms: C_7  and  C_11 
REMARK    8  A    between atoms: C_11  and  C_12 
REMARK    9  A    between atoms: C_12  and  C_13 
REMARK   10  A    between atoms: C_21  and  C_31 
REMARK   11  A    between atoms: C_25  and  C_26 
REMARK   12  A    between atoms: C_25  and  C_27 
REMARK   13  A    between atoms: C_27  and  O_29 
REMARK   14  A    between atoms: O_29  and  C_30 
ROOT
ATOM      1  C   LIG d   1       6.436  -0.847  -6.857  0.00  0.00    -0.014 C 
ATOM      2  H   LIG d   1       6.754   0.087  -6.393  0.00  0.00     0.035 H 
ATOM      3  C   LIG d   1       7.440  -1.259  -7.910  0.00  0.00    -0.073 C 
ATOM      4  C   LIG d   1       8.193  -2.319  -7.745  0.00  0.00    -0.099 C 
ATOM      5  C   LIG d   1       7.551  -0.414  -9.160  0.00  0.00    -0.031 C 
ATOM      6  C   LIG d   1       6.148  -0.243  -9.751  0.00  0.00    -0.045 C 
ATOM      7  C   LIG d   1       5.209   0.334  -8.690  0.00  0.00    -0.019 C 
ATOM      8  H   LIG d   1       5.612   1.278  -8.321  0.00  0.00     0.032 H 
ATOM      9  C   LIG d   1       5.070  -0.650  -7.527  0.00  0.00    -0.022 C 
ATOM     10  C   LIG d   1       4.095  -0.090  -6.488  0.00  0.00    -0.047 C 
ATOM     11  C   LIG d   1       2.728   0.140  -7.135  0.00  0.00    -0.051 C 
ATOM     12  C   LIG d   1       2.875   1.143  -8.281  0.00  0.00    -0.037 C 
ATOM     13  C   LIG d   1       3.837   0.576  -9.325  0.00  0.00     0.068 C 
ATOM     14  H   LIG d   1       8.024  -2.975  -6.904  0.00  0.00     0.053 H 
ATOM     15  H   LIG d   1       8.982  -2.535  -8.449  0.00  0.00     0.053 H 
ATOM     16  H   LIG d   1       8.197  -0.911  -9.883  0.00  0.00     0.031 H 
ATOM     17  H   LIG d   1       7.963   0.562  -8.908  0.00  0.00     0.031 H 
ATOM     18  H   LIG d   1       5.772  -1.213 -10.080  0.00  0.00     0.027 H 
ATOM     19  H   LIG d   1       6.194   0.435 -10.603  0.00  0.00     0.027 H 
ATOM     20  H   LIG d   1       3.993  -0.799  -5.667  0.00  0.00     0.027 H 
ATOM     21  H   LIG d   1       4.477   0.855  -6.105  0.00  0.00     0.027 H 
ATOM     22  H   LIG d   1       2.036   0.535  -6.392  0.00  0.00     0.027 H 
ATOM     23  H   LIG d   1       2.345  -0.804  -7.524  0.00  0.00     0.027 H 
ATOM     24  H   LIG d   1       3.269   2.082  -7.894  0.00  0.00     0.028 H 
ATOM     25  H   LIG d   1       1.901   1.318  -8.740  0.00  0.00     0.028 H 
ENDROOT
BRANCH   1  26
ATOM     26  C   LIG d   1       6.333  -1.940  -5.792  0.00  0.00    -0.042 C 
ATOM     27  H   LIG d   1       6.538  -2.910  -6.245  0.00  0.00     0.027 H 
ATOM     28  H   LIG d   1       5.328  -1.942  -5.370  0.00  0.00     0.027 H 
BRANCH  26  29
ATOM     29  C   LIG d   1       7.351  -1.671  -4.683  0.00  0.00    -0.024 C 
ATOM     30  H   LIG d   1       8.348  -1.941  -5.031  0.00  0.00     0.031 H 
ATOM     31  H   LIG d   1       7.099  -2.266  -3.805  0.00  0.00     0.031 H 
BRANCH  29  32
ATOM     32  C   LIG d   1       7.325  -0.208  -4.322  0.00  0.00    -0.001 A 
ATOM     33  C   LIG d   1       6.519   0.381  -3.420  0.00  0.00     0.152 A 
ATOM     34  O   LIG d   1       6.800   1.694  -3.393  0.00  0.00    -0.462 OA
ATOM     35  C   LIG d   1       7.788   1.959  -4.264  0.00  0.00     0.093 A 
ATOM     36  C   LIG d   1       8.143   0.809  -4.866  0.00  0.00    -0.020 A 
ATOM     37  H   LIG d   1       8.221   2.930  -4.452  0.00  0.00     0.103 H 
ATOM     38  H   LIG d   1       8.905   0.687  -5.620  0.00  0.00     0.065 H 
BRANCH  33  39
ATOM     39  C   LIG d   1       5.474  -0.314  -2.586  0.00  0.00     0.028 C 
ATOM     40  H   LIG d   1       5.547   0.027  -1.554  0.00  0.00     0.090 H 
ATOM     41  H   LIG d   1       5.636  -1.392  -2.625  0.00  0.00     0.090 H 
BRANCH  39  42
ATOM     42  N   LIG d   1       4.137   0.028  -3.115  0.00  0.00     0.240 N 
ATOM     43  H   LIG d   1       4.221   0.252  -4.113  0.00  0.00     0.204 HD
BRANCH  42  44
ATOM     44  C   LIG d   1       3.597   1.205  -2.402  0.00  0.00    -0.034 C 
ATOM     45  H   LIG d   1       2.715   0.929  -1.823  0.00  0.00     0.081 H 
ATOM     46  H   LIG d   1       4.362   1.599  -1.732  0.00  0.00     0.081 H 
BRANCH  44  47
ATOM     47  C   LIG d   1       3.220   2.272  -3.430  0.00  0.00    -0.025 C 
ATOM     48  H   LIG d   1       2.896   1.791  -4.352  0.00  0.00     0.028 H 
ATOM     49  H   LIG d   1       2.410   2.886  -3.036  0.00  0.00     0.028 H 
ATOM     50  H   LIG d   1       4.086   2.902  -3.634  0.00  0.00     0.028 H 
ENDBRANCH  44  47
ENDBRANCH  42  44
BRANCH  42  51
ATOM     51  C   LIG d   1       3.222  -1.122  -2.957  0.00  0.00    -0.034 C 
ATOM     52  H   LIG d   1       2.580  -0.944  -2.094  0.00  0.00     0.081 H 
ATOM     53  H   LIG d   1       2.608  -1.214  -3.853  0.00  0.00     0.081 H 
BRANCH  51  54
ATOM     54  C   LIG d   1       4.014  -2.414  -2.747  0.00  0.00    -0.025 C 
ATOM     55  H   LIG d   1       3.335  -3.211  -2.446  0.00  0.00     0.028 H 
ATOM     56  H   LIG d   1       4.510  -2.691  -3.678  0.00  0.00     0.028 H 
ATOM     57  H   LIG d   1       4.762  -2.259  -1.969  0.00  0.00     0.028 H 
ENDBRANCH  51  54
ENDBRANCH  42  51
ENDBRANCH  39  42
ENDBRANCH  33  39
ENDBRANCH  29  32
ENDBRANCH  26  29
ENDBRANCH   1  26
BRANCH   9  58
ATOM     58  C   LIG d   1       4.559  -1.993  -8.050  0.00  0.00    -0.059 C 
ATOM     59  H   LIG d   1       3.511  -1.897  -8.335  0.00  0.00     0.024 H 
ATOM     60  H   LIG d   1       5.146  -2.291  -8.920  0.00  0.00     0.024 H 
ATOM     61  H   LIG d   1       4.656  -2.748  -7.270  0.00  0.00     0.024 H 
ENDBRANCH   9  58
BRANCH  13  62
ATOM     62  C   LIG d   1       3.981   1.573 -10.479  0.00  0.00    -0.049 C 
ATOM     63  H   LIG d   1       4.921   1.392 -11.000  0.00  0.00     0.024 H 
ATOM     64  H   LIG d   1       3.150   1.447 -11.173  0.00  0.00     0.024 H 
ATOM     65  H   LIG d   1       3.974   2.588 -10.084  0.00  0.00     0.024 H 
ENDBRANCH  13  62
BRANCH  13  66
ATOM     66  C   LIG d   1       3.293  -0.725  -9.853  0.00  0.00     0.313 C 
ATOM     67  O   LIG d   1       3.902  -1.335 -10.701  0.00  0.00    -0.250 OA
BRANCH  66  68
ATOM     68  O   LIG d   1       2.132  -1.208  -9.383  0.00  0.00    -0.468 OA
BRANCH  68  69
ATOM     69  C   LIG d   1       1.467  -2.222 -10.182  0.00  0.00     0.082 C 
ATOM     70  H   LIG d   1       2.189  -2.986 -10.472  0.00  0.00     0.066 H 
ATOM     71  H   LIG d   1       0.668  -2.679  -9.599  0.00  0.00     0.066 H 
ATOM     72  H   LIG d   1       1.048  -1.760 -11.077  0.00  0.00     0.066 H 
ENDBRANCH  68  69
ENDBRANCH  66  68
ENDBRANCH  13  66
TORSDOF 14
ENDMDL
MODEL 8
REMARK VINA RESULT:      -5.3      1.310      2.093
REMARK  14 active torsions:
REMARK  status: ('A' for Active; 'I' for Inactive)
REMARK    1  A    between atoms: C_1  and  C_2 
REMARK    2  A    between atoms: C_2  and  N_71 
REMARK    3  A    between atoms: C_3  and  C_4 
REMARK    4  A    between atoms: C_3  and  N_71 
REMARK    5  A    between atoms: C_5  and  C_6 
REMARK    6  A    between atoms: C_5  and  N_71 
REMARK    7  A    between atoms: C_7  and  C_11 
REMARK    8  A    between atoms: C_11  and  C_12 
REMARK    9  A    between atoms: C_12  and  C_13 
REMARK   10  A    between atoms: C_21  and  C_31 
REMARK   11  A    between atoms: C_25  and  C_26 
REMARK   12  A    between atoms: C_25  and  C_27 
REMARK   13  A    between atoms: C_27  and  O_29 
REMARK   14  A    between atoms: O_29  and  C_30 
ROOT
ATOM      1  C   LIG d   1       7.608  -1.095  -4.883  0.00  0.00    -0.014 C 
ATOM      2  H   LIG d   1       8.272  -1.582  -4.169  0.00  0.00     0.035 H 
ATOM      3  C   LIG d   1       8.066   0.327  -5.115  0.00  0.00    -0.073 C 
ATOM      4  C   LIG d   1       8.562   0.695  -6.271  0.00  0.00    -0.099 C 
ATOM      5  C   LIG d   1       7.934   1.315  -3.976  0.00  0.00    -0.031 C 
ATOM      6  C   LIG d   1       6.494   1.261  -3.458  0.00  0.00    -0.045 C 
ATOM      7  C   LIG d   1       6.136  -0.178  -3.079  0.00  0.00    -0.019 C 
ATOM      8  H   LIG d   1       6.848  -0.548  -2.341  0.00  0.00     0.032 H 
ATOM      9  C   LIG d   1       6.180  -1.069  -4.322  0.00  0.00    -0.022 C 
ATOM     10  C   LIG d   1       5.777  -2.498  -3.949  0.00  0.00    -0.047 C 
ATOM     11  C   LIG d   1       4.364  -2.500  -3.363  0.00  0.00    -0.051 C 
ATOM     12  C   LIG d   1       4.338  -1.625  -2.108  0.00  0.00    -0.037 C 
ATOM     13  C   LIG d   1       4.725  -0.194  -2.484  0.00  0.00     0.068 C 
ATOM     14  H   LIG d   1       8.544   0.013  -7.107  0.00  0.00     0.053 H 
ATOM     15  H   LIG d   1       8.990   1.680  -6.386  0.00  0.00     0.053 H 
ATOM     16  H   LIG d   1       8.159   2.320  -4.333  0.00  0.00     0.031 H 
ATOM     17  H   LIG d   1       8.622   1.046  -3.175  0.00  0.00     0.031 H 
ATOM     18  H   LIG d   1       5.814   1.612  -4.235  0.00  0.00     0.027 H 
ATOM     19  H   LIG d   1       6.401   1.901  -2.580  0.00  0.00     0.027 H 
ATOM     20  H   LIG d   1       5.802  -3.126  -4.839  0.00  0.00     0.027 H 
ATOM     21  H   LIG d   1       6.476  -2.890  -3.210  0.00  0.00     0.027 H 
ATOM     22  H   LIG d   1       4.080  -3.519  -3.103  0.00  0.00     0.027 H 
ATOM     23  H   LIG d   1       3.664  -2.103  -4.098  0.00  0.00     0.027 H 
ATOM     24  H   LIG d   1       5.047  -2.014  -1.378  0.00  0.00     0.028 H 
ATOM     25  H   LIG d   1       3.335  -1.630  -1.681  0.00  0.00     0.028 H 
ENDROOT
BRANCH   1  26
ATOM     26  C   LIG d   1       7.626  -1.861  -6.207  0.00  0.00    -0.042 C 
ATOM     27  H   LIG d   1       7.605  -1.154  -7.037  0.00  0.00     0.027 H 
ATOM     28  H   LIG d   1       6.751  -2.510  -6.262  0.00  0.00     0.027 H 
BRANCH  26  29
ATOM     29  C   LIG d   1       8.896  -2.707  -6.290  0.00  0.00    -0.024 C 
ATOM     30  H   LIG d   1       9.724  -2.168  -5.828  0.00  0.00     0.031 H 
ATOM     31  H   LIG d   1       9.132  -2.909  -7.334  0.00  0.00     0.031 H 
BRANCH  29  32
ATOM     32  C   LIG d   1       8.681  -4.011  -5.564  0.00  0.00    -0.001 A 
ATOM     33  C   LIG d   1       9.299  -4.412  -4.438  0.00  0.00     0.152 A 
ATOM     34  O   LIG d   1       8.838  -5.631  -4.113  0.00  0.00    -0.462 OA
ATOM     35  C   LIG d   1       7.921  -6.019  -5.014  0.00  0.00     0.093 A 
ATOM     36  C   LIG d   1       7.794  -5.045  -5.936  0.00  0.00    -0.020 A 
ATOM     37  H   LIG d   1       7.380  -6.953  -5.005  0.00  0.00     0.103 H 
ATOM     38  H   LIG d   1       7.139  -5.055  -6.794  0.00  0.00     0.065 H 
BRANCH  33  39
ATOM     39  C   LIG d   1      10.335  -3.629  -3.674  0.00  0.00     0.028 C 
ATOM     40  H   LIG d   1      10.405  -4.014  -2.657  0.00  0.00     0.090 H 
ATOM     41  H   LIG d   1      10.049  -2.578  -3.647  0.00  0.00     0.090 H 
BRANCH  39  42
ATOM     42  N   LIG d   1      11.644  -3.792  -4.343  0.00  0.00     0.240 N 
ATOM     43  H   LIG d   1      11.491  -3.896  -5.353  0.00  0.00     0.204 HD
BRANCH  42  44
ATOM     44  C   LIG d   1      12.325  -5.001  -3.833  0.00  0.00    -0.034 C 
ATOM     45  H   LIG d   1      11.796  -5.400  -2.967  0.00  0.00     0.081 H 
ATOM     46  H   LIG d   1      12.352  -5.755  -4.620  0.00  0.00     0.081 H 
BRANCH  44  47
ATOM     47  C   LIG d   1      13.753  -4.629  -3.432  0.00  0.00    -0.025 C 
ATOM     48  H   LIG d   1      14.295  -4.270  -4.307  0.00  0.00     0.028 H 
ATOM     49  H   LIG d   1      13.726  -3.846  -2.675  0.00  0.00     0.028 H 
ATOM     50  H   LIG d   1      14.257  -5.507  -3.028  0.00  0.00     0.028 H 
ENDBRANCH  44  47
ENDBRANCH  42  44
BRANCH  42  51
ATOM     51  C   LIG d   1      12.485  -2.601  -4.105  0.00  0.00    -0.034 C 
ATOM     52  H   LIG d   1      12.650  -2.495  -3.033  0.00  0.00     0.081 H 
ATOM     53  H   LIG d   1      13.443  -2.735  -4.608  0.00  0.00     0.081 H 
BRANCH  51  54
ATOM     54  C   LIG d   1      11.798  -1.343  -4.642  0.00  0.00    -0.025 C 
ATOM     55  H   LIG d   1      11.594  -1.468  -5.706  0.00  0.00     0.028 H 
ATOM     56  H   LIG d   1      10.860  -1.185  -4.109  0.00  0.00     0.028 H 
ATOM     57  H   LIG d   1      12.450  -0.482  -4.495  0.00  0.00     0.028 H 
ENDBRANCH  51  54
ENDBRANCH  42  51
ENDBRANCH  39  42
ENDBRANCH  33  39
ENDBRANCH  29  32
ENDBRANCH  26  29
ENDBRANCH   1  26
BRANCH   9  58
ATOM     58  C   LIG d   1       5.224  -0.519  -5.381  0.00  0.00    -0.059 C 
ATOM     59  H   LIG d   1       4.401  -1.218  -5.527  0.00  0.00     0.024 H 
ATOM     60  H   LIG d   1       4.830   0.443  -5.050  0.00  0.00     0.024 H 
ATOM     61  H   LIG d   1       5.760  -0.386  -6.322  0.00  0.00     0.024 H 
ENDBRANCH   9  58
BRANCH  13  62
ATOM     62  C   LIG d   1       4.692   0.687  -1.233  0.00  0.00    -0.049 C 
ATOM     63  H   LIG d   1       3.943   1.469  -1.359  0.00  0.00     0.024 H 
ATOM     64  H   LIG d   1       4.438   0.077  -0.366  0.00  0.00     0.024 H 
ATOM     65  H   LIG d   1       5.670   1.142  -1.083  0.00  0.00     0.024 H 
ENDBRANCH  13  62
BRANCH  13  66
ATOM     66  C   LIG d   1       3.747   0.338  -3.498  0.00  0.00     0.313 C 
ATOM     67  O   LIG d   1       3.814   1.492  -3.854  0.00  0.00    -0.250 OA
BRANCH  66  68
ATOM     68  O   LIG d   1       2.801  -0.467  -4.008  0.00  0.00    -0.468 OA
BRANCH  68  69
ATOM     69  C   LIG d   1       1.859   0.130  -4.937  0.00  0.00     0.082 C 
ATOM     70  H   LIG d   1       0.921   0.334  -4.420  0.00  0.00     0.066 H 
ATOM     71  H   LIG d   1       2.271   1.061  -5.326  0.00  0.00     0.066 H 
ATOM     72  H   LIG d   1       1.676  -0.560  -5.762  0.00  0.00     0.066 H 
ENDBRANCH  68  69
ENDBRANCH  66  68
ENDBRANCH  13  66
TORSDOF 14
ENDMDL
MODEL 9
REMARK VINA RESULT:      -5.2      4.982      7.279
REMARK  14 active torsions:
REMARK  status: ('A' for Active; 'I' for Inactive)
REMARK    1  A    between atoms: C_1  and  C_2 
REMARK    2  A    between atoms: C_2  and  N_71 
REMARK    3  A    between atoms: C_3  and  C_4 
REMARK    4  A    between atoms: C_3  and  N_71 
REMARK    5  A    between atoms: C_5  and  C_6 
REMARK    6  A    between atoms: C_5  and  N_71 
REMARK    7  A    between atoms: C_7  and  C_11 
REMARK    8  A    between atoms: C_11  and  C_12 
REMARK    9  A    between atoms: C_12  and  C_13 
REMARK   10  A    between atoms: C_21  and  C_31 
REMARK   11  A    between atoms: C_25  and  C_26 
REMARK   12  A    between atoms: C_25  and  C_27 
REMARK   13  A    between atoms: C_27  and  O_29 
REMARK   14  A    between atoms: O_29  and  C_30 
ROOT
ATOM      1  C   LIG d   1       3.745  -1.945  -8.052  0.00  0.00    -0.014 C 
ATOM      2  H   LIG d   1       2.926  -2.151  -7.364  0.00  0.00     0.035 H 
ATOM      3  C   LIG d   1       4.022  -0.459  -8.083  0.00  0.00    -0.073 C 
ATOM      4  C   LIG d   1       5.133   0.030  -7.591  0.00  0.00    -0.099 C 
ATOM      5  C   LIG d   1       2.979   0.449  -8.699  0.00  0.00    -0.031 C 
ATOM      6  C   LIG d   1       2.632  -0.092 -10.089  0.00  0.00    -0.045 C 
ATOM      7  C   LIG d   1       2.198  -1.556  -9.979  0.00  0.00    -0.019 C 
ATOM      8  H   LIG d   1       1.356  -1.635  -9.290  0.00  0.00     0.032 H 
ATOM      9  C   LIG d   1       3.361  -2.406  -9.463  0.00  0.00    -0.022 C 
ATOM     10  C   LIG d   1       2.937  -3.876  -9.398  0.00  0.00    -0.047 C 
ATOM     11  C   LIG d   1       2.525  -4.357 -10.790  0.00  0.00    -0.051 C 
ATOM     12  C   LIG d   1       1.347  -3.515 -11.284  0.00  0.00    -0.037 C 
ATOM     13  C   LIG d   1       1.774  -2.050 -11.365  0.00  0.00     0.068 C 
ATOM     14  H   LIG d   1       5.916  -0.636  -7.260  0.00  0.00     0.053 H 
ATOM     15  H   LIG d   1       5.266   1.099  -7.516  0.00  0.00     0.053 H 
ATOM     16  H   LIG d   1       3.377   1.459  -8.786  0.00  0.00     0.031 H 
ATOM     17  H   LIG d   1       2.085   0.457  -8.075  0.00  0.00     0.031 H 
ATOM     18  H   LIG d   1       3.507  -0.021 -10.736  0.00  0.00     0.027 H 
ATOM     19  H   LIG d   1       1.818   0.497 -10.514  0.00  0.00     0.027 H 
ATOM     20  H   LIG d   1       3.773  -4.477  -9.039  0.00  0.00     0.027 H 
ATOM     21  H   LIG d   1       2.096  -3.981  -8.714  0.00  0.00     0.027 H 
ATOM     22  H   LIG d   1       2.228  -5.404 -10.739  0.00  0.00     0.027 H 
ATOM     23  H   LIG d   1       3.363  -4.248 -11.477  0.00  0.00     0.027 H 
ATOM     24  H   LIG d   1       0.512  -3.614 -10.590  0.00  0.00     0.028 H 
ATOM     25  H   LIG d   1       1.041  -3.860 -12.273  0.00  0.00     0.028 H 
ENDROOT
BRANCH   1  26
ATOM     26  C   LIG d   1       5.001  -2.690  -7.593  0.00  0.00    -0.042 C 
ATOM     27  H   LIG d   1       5.825  -1.984  -7.490  0.00  0.00     0.027 H 
ATOM     28  H   LIG d   1       5.263  -3.448  -8.331  0.00  0.00     0.027 H 
BRANCH  26  29
ATOM     29  C   LIG d   1       4.732  -3.361  -6.245  0.00  0.00    -0.024 C 
ATOM     30  H   LIG d   1       4.736  -4.444  -6.371  0.00  0.00     0.031 H 
ATOM     31  H   LIG d   1       3.760  -3.042  -5.868  0.00  0.00     0.031 H 
BRANCH  29  32
ATOM     32  C   LIG d   1       5.806  -2.966  -5.264  0.00  0.00    -0.001 A 
ATOM     33  C   LIG d   1       5.619  -2.524  -4.007  0.00  0.00     0.152 A 
ATOM     34  O   LIG d   1       6.821  -2.275  -3.462  0.00  0.00    -0.462 OA
ATOM     35  C   LIG d   1       7.785  -2.560  -4.353  0.00  0.00     0.093 A 
ATOM     36  C   LIG d   1       7.201  -2.989  -5.487  0.00  0.00    -0.020 A 
ATOM     37  H   LIG d   1       8.847  -2.458  -4.189  0.00  0.00     0.103 H 
ATOM     38  H   LIG d   1       7.703  -3.292  -6.394  0.00  0.00     0.065 H 
BRANCH  33  39
ATOM     39  C   LIG d   1       4.287  -2.336  -3.328  0.00  0.00     0.028 C 
ATOM     40  H   LIG d   1       4.306  -2.819  -2.351  0.00  0.00     0.090 H 
ATOM     41  H   LIG d   1       3.501  -2.781  -3.939  0.00  0.00     0.090 H 
BRANCH  39  42
ATOM     42  N   LIG d   1       4.044  -0.889  -3.146  0.00  0.00     0.240 N 
ATOM     43  H   LIG d   1       4.638  -0.367  -3.802  0.00  0.00     0.204 HD
BRANCH  42  44
ATOM     44  C   LIG d   1       4.387  -0.488  -1.766  0.00  0.00    -0.034 C 
ATOM     45  H   LIG d   1       3.608  -0.806  -1.072  0.00  0.00     0.081 H 
ATOM     46  H   LIG d   1       5.334  -0.949  -1.484  0.00  0.00     0.081 H 
BRANCH  44  47
ATOM     47  C   LIG d   1       4.526   1.034  -1.715  0.00  0.00    -0.025 C 
ATOM     48  H   LIG d   1       3.762   1.447  -1.056  0.00  0.00     0.028 H 
ATOM     49  H   LIG d   1       5.513   1.297  -1.335  0.00  0.00     0.028 H 
ATOM     50  H   LIG d   1       4.401   1.444  -2.717  0.00  0.00     0.028 H 
ENDBRANCH  44  47
ENDBRANCH  42  44
BRANCH  42  51
ATOM     51  C   LIG d   1       2.628  -0.575  -3.427  0.00  0.00    -0.034 C 
ATOM     52  H   LIG d   1       2.074  -1.508  -3.529  0.00  0.00     0.081 H 
ATOM     53  H   LIG d   1       2.220   0.000  -2.595  0.00  0.00     0.081 H 
BRANCH  51  54
ATOM     54  C   LIG d   1       2.504   0.238  -4.717  0.00  0.00    -0.025 C 
ATOM     55  H   LIG d   1       2.395   1.294  -4.472  0.00  0.00     0.028 H 
ATOM     56  H   LIG d   1       3.401   0.097  -5.323  0.00  0.00     0.028 H 
ATOM     57  H   LIG d   1       1.631  -0.098  -5.277  0.00  0.00     0.028 H 
ENDBRANCH  51  54
ENDBRANCH  42  51
ENDBRANCH  39  42
ENDBRANCH  33  39
ENDBRANCH  29  32
ENDBRANCH  26  29
ENDBRANCH   1  26
BRANCH   9  58
ATOM     58  C   LIG d   1       4.562  -2.251 -10.397  0.00  0.00    -0.059 C 
ATOM     59  H   LIG d   1       4.541  -3.039 -11.150  0.00  0.00     0.024 H 
ATOM     60  H   LIG d   1       4.516  -1.278 -10.889  0.00  0.00     0.024 H 
ATOM     61  H   LIG d   1       5.483  -2.324  -9.820  0.00  0.00     0.024 H 
ENDBRANCH   9  58
BRANCH  13  62
ATOM     62  C   LIG d   1       0.601  -1.204 -11.868  0.00  0.00    -0.049 C 
ATOM     63  H   LIG d   1      -0.141  -1.105 -11.076  0.00  0.00     0.024 H 
ATOM     64  H   LIG d   1       0.962  -0.216 -12.153  0.00  0.00     0.024 H 
ATOM     65  H   LIG d   1       0.148  -1.689 -12.732  0.00  0.00     0.024 H 
ENDBRANCH  13  62
BRANCH  13  66
ATOM     66  C   LIG d   1       2.932  -1.918 -12.319  0.00  0.00     0.313 C 
ATOM     67  O   LIG d   1       3.381  -2.899 -12.863  0.00  0.00    -0.250 OA
BRANCH  66  68
ATOM     68  O   LIG d   1       3.465  -0.710 -12.566  0.00  0.00    -0.468 OA
BRANCH  68  69
ATOM     69  C   LIG d   1       4.326  -0.596 -13.730  0.00  0.00     0.082 C 
ATOM     70  H   LIG d   1       4.631   0.443 -13.854  0.00  0.00     0.066 H 
ATOM     71  H   LIG d   1       5.208  -1.220 -13.592  0.00  0.00     0.066 H 
ATOM     72  H   LIG d   1       3.782  -0.923 -14.617  0.00  0.00     0.066 H 
ENDBRANCH  68  69
ENDBRANCH  66  68
ENDBRANCH  13  66
TORSDOF 14
ENDMDL
MODEL 10
REMARK VINA RESULT:      -5.2      4.692      7.515
REMARK  14 active torsions:
REMARK  status: ('A' for Active; 'I' for Inactive)
REMARK    1  A    between atoms: C_1  and  C_2 
REMARK    2  A    between atoms: C_2  and  N_71 
REMARK    3  A    between atoms: C_3  and  C_4 
REMARK    4  A    between atoms: C_3  and  N_71 
REMARK    5  A    between atoms: C_5  and  C_6 
REMARK    6  A    between atoms: C_5  and  N_71 
REMARK    7  A    between atoms: C_7  and  C_11 
REMARK    8  A    between atoms: C_11  and  C_12 
REMARK    9  A    between atoms: C_12  and  C_13 
REMARK   10  A    between atoms: C_21  and  C_31 
REMARK   11  A    between atoms: C_25  and  C_26 
REMARK   12  A    between atoms: C_25  and  C_27 
REMARK   13  A    between atoms: C_27  and  O_29 
REMARK   14  A    between atoms: O_29  and  C_30 
ROOT
ATOM      1  C   LIG d   1       4.082  -2.145  -6.751  0.00  0.00    -0.014 C 
ATOM      2  H   LIG d   1       3.057  -2.512  -6.701  0.00  0.00     0.035 H 
ATOM      3  C   LIG d   1       5.045  -3.303  -6.615  0.00  0.00    -0.073 C 
ATOM      4  C   LIG d   1       5.789  -3.683  -7.624  0.00  0.00    -0.099 C 
ATOM      5  C   LIG d   1       5.126  -4.011  -5.279  0.00  0.00    -0.031 C 
ATOM      6  C   LIG d   1       5.349  -2.957  -4.190  0.00  0.00    -0.045 C 
ATOM      7  C   LIG d   1       4.249  -1.896  -4.267  0.00  0.00    -0.019 C 
ATOM      8  H   LIG d   1       3.274  -2.375  -4.176  0.00  0.00     0.032 H 
ATOM      9  C   LIG d   1       4.332  -1.158  -5.605  0.00  0.00    -0.022 C 
ATOM     10  C   LIG d   1       3.259  -0.066  -5.660  0.00  0.00    -0.047 C 
ATOM     11  C   LIG d   1       3.469   0.922  -4.511  0.00  0.00    -0.051 C 
ATOM     12  C   LIG d   1       3.361   0.177  -3.180  0.00  0.00    -0.037 C 
ATOM     13  C   LIG d   1       4.442  -0.902  -3.118  0.00  0.00     0.068 C 
ATOM     14  H   LIG d   1       5.805  -3.100  -8.532  0.00  0.00     0.053 H 
ATOM     15  H   LIG d   1       6.385  -4.580  -7.548  0.00  0.00     0.053 H 
ATOM     16  H   LIG d   1       5.958  -4.714  -5.287  0.00  0.00     0.031 H 
ATOM     17  H   LIG d   1       4.195  -4.543  -5.089  0.00  0.00     0.031 H 
ATOM     18  H   LIG d   1       6.321  -2.484  -4.335  0.00  0.00     0.027 H 
ATOM     19  H   LIG d   1       5.322  -3.438  -3.212  0.00  0.00     0.027 H 
ATOM     20  H   LIG d   1       3.329   0.463  -6.610  0.00  0.00     0.027 H 
ATOM     21  H   LIG d   1       2.274  -0.521  -5.571  0.00  0.00     0.027 H 
ATOM     22  H   LIG d   1       2.706   1.699  -4.557  0.00  0.00     0.027 H 
ATOM     23  H   LIG d   1       4.457   1.376  -4.596  0.00  0.00     0.027 H 
ATOM     24  H   LIG d   1       2.378  -0.287  -3.101  0.00  0.00     0.028 H 
ATOM     25  H   LIG d   1       3.500   0.879  -2.356  0.00  0.00     0.028 H 
ENDROOT
BRANCH   1  26
ATOM     26  C   LIG d   1       4.311  -1.444  -8.092  0.00  0.00    -0.042 C 
ATOM     27  H   LIG d   1       4.697  -2.162  -8.816  0.00  0.00     0.027 H 
ATOM     28  H   LIG d   1       5.033  -0.638  -7.961  0.00  0.00     0.027 H 
BRANCH  26  29
ATOM     29  C   LIG d   1       2.989  -0.868  -8.599  0.00  0.00    -0.024 C 
ATOM     30  H   LIG d   1       2.310  -0.722  -7.758  0.00  0.00     0.031 H 
ATOM     31  H   LIG d   1       2.540  -1.559  -9.312  0.00  0.00     0.031 H 
BRANCH  29  32
ATOM     32  C   LIG d   1       3.242   0.456  -9.274  0.00  0.00    -0.001 A 
ATOM     33  C   LIG d   1       3.472   0.656 -10.584  0.00  0.00     0.152 A 
ATOM     34  O   LIG d   1       3.656   1.970 -10.787  0.00  0.00    -0.462 OA
ATOM     35  C   LIG d   1       3.539   2.624  -9.620  0.00  0.00     0.093 A 
ATOM     36  C   LIG d   1       3.286   1.724  -8.652  0.00  0.00    -0.020 A 
ATOM     37  H   LIG d   1       3.636   3.690  -9.480  0.00  0.00     0.103 H 
ATOM     38  H   LIG d   1       3.144   1.931  -7.602  0.00  0.00     0.065 H 
BRANCH  33  39
ATOM     39  C   LIG d   1       3.519  -0.415 -11.644  0.00  0.00     0.028 C 
ATOM     40  H   LIG d   1       2.589  -0.405 -12.212  0.00  0.00     0.090 H 
ATOM     41  H   LIG d   1       3.646  -1.389 -11.171  0.00  0.00     0.090 H 
BRANCH  39  42
ATOM     42  N   LIG d   1       4.647  -0.132 -12.557  0.00  0.00     0.240 N 
ATOM     43  H   LIG d   1       4.793   0.883 -12.601  0.00  0.00     0.204 HD
BRANCH  42  44
ATOM     44  C   LIG d   1       4.336  -0.631 -13.913  0.00  0.00    -0.034 C 
ATOM     45  H   LIG d   1       4.094   0.198 -14.579  0.00  0.00     0.081 H 
ATOM     46  H   LIG d   1       5.199  -1.169 -14.304  0.00  0.00     0.081 H 
BRANCH  44  47
ATOM     47  C   LIG d   1       3.139  -1.581 -13.826  0.00  0.00    -0.025 C 
ATOM     48  H   LIG d   1       3.474  -2.555 -13.470  0.00  0.00     0.028 H 
ATOM     49  H   LIG d   1       2.402  -1.174 -13.133  0.00  0.00     0.028 H 
ATOM     50  H   LIG d   1       2.689  -1.689 -14.812  0.00  0.00     0.028 H 
ENDBRANCH  44  47
ENDBRANCH  42  44
BRANCH  42  51
ATOM     51  C   LIG d   1       5.879  -0.773 -12.053  0.00  0.00    -0.034 C 
ATOM     52  H   LIG d   1       6.355  -0.105 -11.336  0.00  0.00     0.081 H 
ATOM     53  H   LIG d   1       5.616  -1.709 -11.558  0.00  0.00     0.081 H 
BRANCH  51  54
ATOM     54  C   LIG d   1       6.844  -1.059 -13.206  0.00  0.00    -0.025 C 
ATOM     55  H   LIG d   1       6.927  -0.175 -13.838  0.00  0.00     0.028 H 
ATOM     56  H   LIG d   1       7.826  -1.311 -12.803  0.00  0.00     0.028 H 
ATOM     57  H   LIG d   1       6.469  -1.895 -13.796  0.00  0.00     0.028 H 
ENDBRANCH  51  54
ENDBRANCH  42  51
ENDBRANCH  39  42
ENDBRANCH  33  39
ENDBRANCH  29  32
ENDBRANCH  26  29
ENDBRANCH   1  26
BRANCH   9  58
ATOM     58  C   LIG d   1       5.719  -0.533  -5.760  0.00  0.00    -0.059 C 
ATOM     59  H   LIG d   1       6.074  -0.683  -6.779  0.00  0.00     0.024 H 
ATOM     60  H   LIG d   1       5.661   0.537  -5.550  0.00  0.00     0.024 H 
ATOM     61  H   LIG d   1       6.410  -1.003  -5.061  0.00  0.00     0.024 H 
ENDBRANCH   9  58
BRANCH  13  62
ATOM     62  C   LIG d   1       4.343  -1.646  -1.783  0.00  0.00    -0.049 C 
ATOM     63  H   LIG d   1       4.200  -2.710  -1.970  0.00  0.00     0.024 H 
ATOM     64  H   LIG d   1       5.263  -1.497  -1.216  0.00  0.00     0.024 H 
ATOM     65  H   LIG d   1       3.498  -1.260  -1.214  0.00  0.00     0.024 H 
ENDBRANCH  13  62
BRANCH  13  66
ATOM     66  C   LIG d   1       5.798  -0.259  -3.234  0.00  0.00     0.313 C 
ATOM     67  O   LIG d   1       6.797  -0.935  -3.144  0.00  0.00    -0.250 OA
BRANCH  66  68
ATOM     68  O   LIG d   1       5.900   1.064  -3.437  0.00  0.00    -0.468 OA
BRANCH  68  69
ATOM     69  C   LIG d   1       7.236   1.602  -3.618  0.00  0.00     0.082 C 
ATOM     70  H   LIG d   1       7.576   2.051  -2.684  0.00  0.00     0.066 H 
ATOM     71  H   LIG d   1       7.916   0.800  -3.905  0.00  0.00     0.066 H 
ATOM     72  H   LIG d   1       7.219   2.362  -4.400  0.00  0.00     0.066 H 
ENDBRANCH  68  69
ENDBRANCH  66  68
ENDBRANCH  13  66
TORSDOF 14
ENDMDL
