MODEL 1
REMARK VINA RESULT:      -7.5      0.000      0.000
REMARK  6 active torsions:
REMARK  status: ('A' for Active; 'I' for Inactive)
REMARK    1  A    between atoms: C_1  and  C_2 
REMARK    2  A    between atoms: C_10  and  C_14 
REMARK    3  A    between atoms: C_18  and  C_20 
REMARK    4  A    between atoms: C_20  and  N_21 
REMARK    5  A    between atoms: N_24  and  C_27 
REMARK    6  A    between atoms: C_27  and  C_28 
ROOT
ATOM      1  C   LIG d   1       4.632  -0.019  -2.749  0.00  0.00    -0.073 C 
ATOM      2  C   LIG d   1       5.479  -0.315  -3.688  0.00  0.00    -0.064 C 
ATOM      3  C   LIG d   1       6.586   0.664  -4.019  0.00  0.00    -0.024 C 
ATOM      4  C   LIG d   1       7.945  -0.037  -3.917  0.00  0.00     0.018 C 
ATOM      5  H   LIG d   1       8.187  -0.126  -2.848  0.00  0.00     0.035 H 
ATOM      6  C   LIG d   1       7.937  -1.385  -4.658  0.00  0.00     0.108 C 
ATOM      7  H   LIG d   1       8.799  -2.026  -4.423  0.00  0.00     0.074 H 
ATOM      8  C   LIG d   1       6.788  -2.291  -4.298  0.00  0.00    -0.006 C 
ATOM      9  C   LIG d   1       5.443  -1.587  -4.488  0.00  0.00    -0.007 C 
ATOM     10  C   LIG d   1       4.298  -2.506  -4.110  0.00  0.00    -0.043 C 
ATOM     11  C   LIG d   1       3.956  -2.386  -2.627  0.00  0.00    -0.049 C 
ATOM     12  C   LIG d   1       3.515  -0.943  -2.348  0.00  0.00    -0.032 C 
ATOM     13  O   LIG d   1       7.971  -1.005  -6.062  0.00  0.00    -0.461 OA
ATOM     14  C   LIG d   1       8.843   0.022  -6.171  0.00  0.00     0.316 C 
ATOM     15  O   LIG d   1       9.470   0.307  -7.164  0.00  0.00    -0.250 OA
ATOM     16  C   LIG d   1       8.910   0.761  -4.847  0.00  0.00     0.102 C 
ATOM     17  H   LIG d   1       9.940   0.826  -4.468  0.00  0.00     0.047 H 
ATOM     18  H   LIG d   1       6.448   1.041  -5.044  0.00  0.00     0.031 H 
ATOM     19  H   LIG d   1       6.556   1.506  -3.312  0.00  0.00     0.031 H 
ATOM     20  H   LIG d   1       6.809  -3.184  -4.941  0.00  0.00     0.031 H 
ATOM     21  H   LIG d   1       6.878  -2.596  -3.244  0.00  0.00     0.031 H 
ATOM     22  H   LIG d   1       3.407  -2.241  -4.699  0.00  0.00     0.027 H 
ATOM     23  H   LIG d   1       4.579  -3.548  -4.321  0.00  0.00     0.027 H 
ATOM     24  H   LIG d   1       3.141  -3.082  -2.380  0.00  0.00     0.027 H 
ATOM     25  H   LIG d   1       4.843  -2.631  -2.024  0.00  0.00     0.027 H 
ATOM     26  H   LIG d   1       3.300  -0.816  -1.278  0.00  0.00     0.031 H 
ATOM     27  H   LIG d   1       2.614  -0.706  -2.934  0.00  0.00     0.031 H 
ENDROOT
BRANCH  16  28
ATOM     28  C   LIG d   1       8.426   2.203  -5.012  0.00  0.00    -0.018 C 
ATOM     29  H   LIG d   1       8.182   2.388  -6.069  0.00  0.00     0.082 H 
ATOM     30  H   LIG d   1       7.529   2.362  -4.395  0.00  0.00     0.082 H 
BRANCH  28  31
ATOM     31  N   LIG d   1       9.485   3.128  -4.586  0.00  0.00     0.238 N 
ATOM     32  C   LIG d   1       9.662   3.088  -3.127  0.00  0.00    -0.019 C 
ATOM     33  C   LIG d   1      10.824   4.003  -2.732  0.00  0.00     0.040 C 
ATOM     34  H   LIG d   1       8.739   3.432  -2.636  0.00  0.00     0.083 H 
ATOM     35  H   LIG d   1       9.882   2.057  -2.813  0.00  0.00     0.083 H 
ATOM     36  N   LIG d   1      10.543   5.371  -3.189  0.00  0.00    -0.288 N 
ATOM     37  H   LIG d   1      11.751   3.643  -3.202  0.00  0.00     0.048 H 
ATOM     38  H   LIG d   1      10.940   3.998  -1.638  0.00  0.00     0.048 H 
ATOM     39  C   LIG d   1      10.366   5.411  -4.647  0.00  0.00     0.040 C 
ATOM     40  C   LIG d   1       9.204   4.496  -5.042  0.00  0.00    -0.019 C 
ATOM     41  H   LIG d   1      11.288   5.067  -5.139  0.00  0.00     0.048 H 
ATOM     42  H   LIG d   1      10.145   6.441  -4.962  0.00  0.00     0.048 H 
ATOM     43  H   LIG d   1       9.087   4.501  -6.136  0.00  0.00     0.083 H 
ATOM     44  H   LIG d   1       8.277   4.856  -4.573  0.00  0.00     0.083 H 
ATOM     45  H   LIG d   1      10.426   2.800  -5.052  0.00  0.00     0.203 HD
BRANCH  36  46
ATOM     46  C   LIG d   1      11.601   6.296  -2.761  0.00  0.00     0.025 C 
ATOM     47  H   LIG d   1      12.336   5.753  -2.148  0.00  0.00     0.048 H 
ATOM     48  H   LIG d   1      12.102   6.714  -3.647  0.00  0.00     0.048 H 
BRANCH  46  49
ATOM     49  C   LIG d   1      10.996   7.413  -1.952  0.00  0.00    -0.030 A 
ATOM     50  C   LIG d   1      11.792   8.452  -1.507  0.00  0.00    -0.012 A 
ATOM     51  C   LIG d   1      11.237   9.480  -0.763  0.00  0.00     0.167 A 
ATOM     52  H   LIG d   1      12.846   8.462  -1.740  0.00  0.00     0.066 H 
ATOM     53  C   LIG d   1       9.876   9.467  -0.469  0.00  0.00     0.166 A 
ATOM     54  O   LIG d   1      11.791  10.600  -0.213  0.00  0.00    -0.453 OA
ATOM     55  C   LIG d   1       9.085   8.419  -0.914  0.00  0.00    -0.016 A 
ATOM     56  O   LIG d   1       9.578  10.574   0.272  0.00  0.00    -0.453 OA
ATOM     57  C   LIG d   1       9.645   7.397  -1.656  0.00  0.00    -0.054 A 
ATOM     58  H   LIG d   1       8.030   8.404  -0.684  0.00  0.00     0.066 H 
ATOM     59  H   LIG d   1       9.027   6.584  -2.006  0.00  0.00     0.062 H 
ATOM     60  C   LIG d   1      10.840  11.058   0.768  0.00  0.00     0.233 C 
ATOM     61  H   LIG d   1      11.093  10.632   1.750  0.00  0.00     0.117 H 
ATOM     62  H   LIG d   1      10.873  12.156   0.825  0.00  0.00     0.117 H 
ENDBRANCH  46  49
ENDBRANCH  36  46
ENDBRANCH  28  31
ENDBRANCH  16  28
BRANCH   1  63
ATOM     63  C   LIG d   1       4.772   1.301  -2.035  0.00  0.00    -0.043 C 
ATOM     64  H   LIG d   1       3.779   1.756  -1.907  0.00  0.00     0.027 H 
ATOM     65  H   LIG d   1       5.411   1.973  -2.628  0.00  0.00     0.027 H 
ATOM     66  H   LIG d   1       5.230   1.136  -1.048  0.00  0.00     0.027 H 
ENDBRANCH   1  63
BRANCH   9  67
ATOM     67  C   LIG d   1       5.306  -1.225  -5.968  0.00  0.00    -0.056 C 
ATOM     68  H   LIG d   1       5.705  -2.044  -6.584  0.00  0.00     0.024 H 
ATOM     69  H   LIG d   1       5.870  -0.303  -6.172  0.00  0.00     0.024 H 
ATOM     70  H   LIG d   1       4.245  -1.067  -6.209  0.00  0.00     0.024 H 
ENDBRANCH   9  67
TORSDOF 6
ENDMDL
MODEL 2
REMARK VINA RESULT:      -7.2      2.021      2.262
REMARK  6 active torsions:
REMARK  status: ('A' for Active; 'I' for Inactive)
REMARK    1  A    between atoms: C_1  and  C_2 
REMARK    2  A    between atoms: C_10  and  C_14 
REMARK    3  A    between atoms: C_18  and  C_20 
REMARK    4  A    between atoms: C_20  and  N_21 
REMARK    5  A    between atoms: N_24  and  C_27 
REMARK    6  A    between atoms: C_27  and  C_28 
ROOT
ATOM      1  C   LIG d   1       4.580  -0.018  -2.946  0.00  0.00    -0.073 C 
ATOM      2  C   LIG d   1       5.418  -0.519  -3.802  0.00  0.00    -0.064 C 
ATOM      3  C   LIG d   1       6.513   0.362  -4.366  0.00  0.00    -0.024 C 
ATOM      4  C   LIG d   1       7.879  -0.288  -4.123  0.00  0.00     0.018 C 
ATOM      5  H   LIG d   1       8.134  -0.125  -3.065  0.00  0.00     0.035 H 
ATOM      6  C   LIG d   1       7.874  -1.771  -4.530  0.00  0.00     0.108 C 
ATOM      7  H   LIG d   1       8.744  -2.335  -4.164  0.00  0.00     0.074 H 
ATOM      8  C   LIG d   1       6.738  -2.576  -3.954  0.00  0.00    -0.006 C 
ATOM      9  C   LIG d   1       5.385  -1.943  -4.283  0.00  0.00    -0.007 C 
ATOM     10  C   LIG d   1       4.252  -2.756  -3.687  0.00  0.00    -0.043 C 
ATOM     11  C   LIG d   1       3.926  -2.296  -2.268  0.00  0.00    -0.049 C 
ATOM     12  C   LIG d   1       3.476  -0.831  -2.326  0.00  0.00    -0.032 C 
ATOM     13  O   LIG d   1       7.888  -1.728  -5.984  0.00  0.00    -0.461 OA
ATOM     14  C   LIG d   1       8.750  -0.749  -6.340  0.00  0.00     0.316 C 
ATOM     15  O   LIG d   1       9.363  -0.700  -7.381  0.00  0.00    -0.250 OA
ATOM     16  C   LIG d   1       8.826   0.278  -5.225  0.00  0.00     0.102 C 
ATOM     17  H   LIG d   1       9.860   0.435  -4.885  0.00  0.00     0.047 H 
ATOM     18  H   LIG d   1       6.359   0.490  -5.449  0.00  0.00     0.031 H 
ATOM     19  H   LIG d   1       6.483   1.345  -3.874  0.00  0.00     0.031 H 
ATOM     20  H   LIG d   1       6.759  -3.594  -4.371  0.00  0.00     0.031 H 
ATOM     21  H   LIG d   1       6.843  -2.627  -2.859  0.00  0.00     0.031 H 
ATOM     22  H   LIG d   1       3.352  -2.640  -4.309  0.00  0.00     0.027 H 
ATOM     23  H   LIG d   1       4.540  -3.816  -3.654  0.00  0.00     0.027 H 
ATOM     24  H   LIG d   1       3.121  -2.921  -1.855  0.00  0.00     0.027 H 
ATOM     25  H   LIG d   1       4.823  -2.389  -1.637  0.00  0.00     0.027 H 
ATOM     26  H   LIG d   1       3.272  -0.460  -1.312  0.00  0.00     0.031 H 
ATOM     27  H   LIG d   1       2.566  -0.742  -2.939  0.00  0.00     0.031 H 
ENDROOT
BRANCH  16  28
ATOM     28  C   LIG d   1       8.327   1.639  -5.715  0.00  0.00    -0.018 C 
ATOM     29  H   LIG d   1       8.197   1.610  -6.806  0.00  0.00     0.082 H 
ATOM     30  H   LIG d   1       7.364   1.870  -5.237  0.00  0.00     0.082 H 
BRANCH  28  31
ATOM     31  N   LIG d   1       9.309   2.675  -5.366  0.00  0.00     0.238 N 
ATOM     32  C   LIG d   1       8.914   3.382  -4.140  0.00  0.00    -0.019 C 
ATOM     33  C   LIG d   1       9.999   4.397  -3.768  0.00  0.00     0.040 C 
ATOM     34  H   LIG d   1       7.962   3.907  -4.309  0.00  0.00     0.083 H 
ATOM     35  H   LIG d   1       8.792   2.657  -3.322  0.00  0.00     0.083 H 
ATOM     36  N   LIG d   1      10.186   5.339  -4.879  0.00  0.00    -0.288 N 
ATOM     37  H   LIG d   1      10.944   3.868  -3.572  0.00  0.00     0.048 H 
ATOM     38  H   LIG d   1       9.693   4.948  -2.867  0.00  0.00     0.048 H 
ATOM     39  C   LIG d   1      10.580   4.632  -6.105  0.00  0.00     0.040 C 
ATOM     40  C   LIG d   1       9.496   3.618  -6.477  0.00  0.00    -0.019 C 
ATOM     41  H   LIG d   1      11.532   4.106  -5.937  0.00  0.00     0.048 H 
ATOM     42  H   LIG d   1      10.702   5.356  -6.925  0.00  0.00     0.048 H 
ATOM     43  H   LIG d   1       9.801   3.067  -7.379  0.00  0.00     0.083 H 
ATOM     44  H   LIG d   1       8.551   4.146  -6.674  0.00  0.00     0.083 H 
ATOM     45  H   LIG d   1      10.272   2.177  -5.177  0.00  0.00     0.203 HD
BRANCH  36  46
ATOM     46  C   LIG d   1      11.167   6.375  -4.530  0.00  0.00     0.025 C 
ATOM     47  H   LIG d   1      11.515   6.217  -3.499  0.00  0.00     0.048 H 
ATOM     48  H   LIG d   1      12.022   6.317  -5.220  0.00  0.00     0.048 H 
BRANCH  46  49
ATOM     49  C   LIG d   1      10.524   7.734  -4.642  0.00  0.00    -0.030 A 
ATOM     50  C   LIG d   1      10.463   8.560  -3.536  0.00  0.00    -0.012 A 
ATOM     51  C   LIG d   1       9.872   9.810  -3.637  0.00  0.00     0.167 A 
ATOM     52  H   LIG d   1      10.875   8.233  -2.594  0.00  0.00     0.066 H 
ATOM     53  C   LIG d   1       9.346  10.231  -4.855  0.00  0.00     0.166 A 
ATOM     54  O   LIG d   1       9.685  10.799  -2.715  0.00  0.00    -0.453 OA
ATOM     55  C   LIG d   1       9.406   9.395  -5.959  0.00  0.00    -0.016 A 
ATOM     56  O   LIG d   1       8.821  11.482  -4.695  0.00  0.00    -0.453 OA
ATOM     57  C   LIG d   1       9.997   8.150  -5.851  0.00  0.00    -0.054 A 
ATOM     58  H   LIG d   1       8.996   9.718  -6.904  0.00  0.00     0.066 H 
ATOM     59  H   LIG d   1      10.048   7.502  -6.713  0.00  0.00     0.062 H 
ATOM     60  C   LIG d   1       8.673  11.659  -3.274  0.00  0.00     0.233 C 
ATOM     61  H   LIG d   1       7.683  11.342  -2.915  0.00  0.00     0.117 H 
ATOM     62  H   LIG d   1       8.861  12.697  -2.962  0.00  0.00     0.117 H 
ENDBRANCH  46  49
ENDBRANCH  36  46
ENDBRANCH  28  31
ENDBRANCH  16  28
BRANCH   1  63
ATOM     63  C   LIG d   1       4.717   1.432  -2.560  0.00  0.00    -0.043 C 
ATOM     64  H   LIG d   1       4.835   2.043  -3.466  0.00  0.00     0.027 H 
ATOM     65  H   LIG d   1       5.600   1.558  -1.915  0.00  0.00     0.027 H 
ATOM     66  H   LIG d   1       3.816   1.753  -2.015  0.00  0.00     0.027 H 
ENDBRANCH   1  63
BRANCH   9  67
ATOM     67  C   LIG d   1       5.227  -1.935  -5.805  0.00  0.00    -0.056 C 
ATOM     68  H   LIG d   1       6.188  -2.191  -6.274  0.00  0.00     0.024 H 
ATOM     69  H   LIG d   1       4.911  -0.935  -6.135  0.00  0.00     0.024 H 
ATOM     70  H   LIG d   1       4.467  -2.674  -6.098  0.00  0.00     0.024 H 
ENDBRANCH   9  67
TORSDOF 6
ENDMDL
MODEL 3
REMARK VINA RESULT:      -7.2      7.012     12.175
REMARK  6 active torsions:
REMARK  status: ('A' for Active; 'I' for Inactive)
REMARK    1  A    between atoms: C_1  and  C_2 
REMARK    2  A    between atoms: C_10  and  C_14 
REMARK    3  A    between atoms: C_18  and  C_20 
REMARK    4  A    between atoms: C_20  and  N_21 
REMARK    5  A    between atoms: N_24  and  C_27 
REMARK    6  A    between atoms: C_27  and  C_28 
ROOT
ATOM      1  C   LIG d   1       3.350   0.295  -4.635  0.00  0.00    -0.073 C 
ATOM      2  C   LIG d   1       4.296  -0.523  -4.282  0.00  0.00    -0.064 C 
ATOM      3  C   LIG d   1       4.773  -1.570  -5.267  0.00  0.00    -0.024 C 
ATOM      4  C   LIG d   1       6.287  -1.447  -5.461  0.00  0.00     0.018 C 
ATOM      5  H   LIG d   1       6.463  -0.582  -6.119  0.00  0.00     0.035 H 
ATOM      6  C   LIG d   1       7.019  -1.349  -4.112  0.00  0.00     0.108 C 
ATOM      7  H   LIG d   1       8.068  -1.029  -4.197  0.00  0.00     0.074 H 
ATOM      8  C   LIG d   1       6.468  -0.307  -3.174  0.00  0.00    -0.006 C 
ATOM      9  C   LIG d   1       4.970  -0.506  -2.938  0.00  0.00    -0.007 C 
ATOM     10  C   LIG d   1       4.427   0.557  -2.003  0.00  0.00    -0.043 C 
ATOM     11  C   LIG d   1       3.965   1.791  -2.775  0.00  0.00    -0.049 C 
ATOM     12  C   LIG d   1       2.833   1.373  -3.722  0.00  0.00    -0.032 C 
ATOM     13  O   LIG d   1       6.957  -2.705  -3.588  0.00  0.00    -0.461 OA
ATOM     14  C   LIG d   1       7.191  -3.539  -4.627  0.00  0.00     0.316 C 
ATOM     15  O   LIG d   1       7.656  -4.651  -4.541  0.00  0.00    -0.250 OA
ATOM     16  C   LIG d   1       6.777  -2.856  -5.918  0.00  0.00     0.102 C 
ATOM     17  H   LIG d   1       7.601  -2.826  -6.645  0.00  0.00     0.047 H 
ATOM     18  H   LIG d   1       4.536  -2.573  -4.879  0.00  0.00     0.031 H 
ATOM     19  H   LIG d   1       4.267  -1.422  -6.233  0.00  0.00     0.031 H 
ATOM     20  H   LIG d   1       6.986  -0.372  -2.206  0.00  0.00     0.031 H 
ATOM     21  H   LIG d   1       6.624   0.694  -3.606  0.00  0.00     0.031 H 
ATOM     22  H   LIG d   1       3.570   0.150  -1.445  0.00  0.00     0.027 H 
ATOM     23  H   LIG d   1       5.213   0.859  -1.297  0.00  0.00     0.027 H 
ATOM     24  H   LIG d   1       3.602   2.551  -2.068  0.00  0.00     0.027 H 
ATOM     25  H   LIG d   1       4.807   2.199  -3.352  0.00  0.00     0.027 H 
ATOM     26  H   LIG d   1       2.507   2.235  -4.321  0.00  0.00     0.031 H 
ATOM     27  H   LIG d   1       1.982   0.986  -3.142  0.00  0.00     0.031 H 
ENDROOT
BRANCH  16  28
ATOM     28  C   LIG d   1       5.641  -3.627  -6.591  0.00  0.00    -0.018 C 
ATOM     29  H   LIG d   1       4.678  -3.303  -6.169  0.00  0.00     0.082 H 
ATOM     30  H   LIG d   1       5.652  -3.427  -7.673  0.00  0.00     0.082 H 
BRANCH  28  31
ATOM     31  N   LIG d   1       5.819  -5.066  -6.357  0.00  0.00     0.238 N 
ATOM     32  C   LIG d   1       6.233  -5.753  -7.589  0.00  0.00    -0.019 C 
ATOM     33  C   LIG d   1       6.484  -7.232  -7.285  0.00  0.00     0.040 C 
ATOM     34  H   LIG d   1       5.438  -5.662  -8.344  0.00  0.00     0.083 H 
ATOM     35  H   LIG d   1       7.157  -5.293  -7.971  0.00  0.00     0.083 H 
ATOM     36  N   LIG d   1       5.259  -7.831  -6.737  0.00  0.00    -0.288 N 
ATOM     37  H   LIG d   1       7.297  -7.323  -6.550  0.00  0.00     0.048 H 
ATOM     38  H   LIG d   1       6.766  -7.755  -8.211  0.00  0.00     0.048 H 
ATOM     39  C   LIG d   1       4.845  -7.145  -5.506  0.00  0.00     0.040 C 
ATOM     40  C   LIG d   1       4.594  -5.666  -5.810  0.00  0.00    -0.019 C 
ATOM     41  H   LIG d   1       5.639  -7.235  -4.750  0.00  0.00     0.048 H 
ATOM     42  H   LIG d   1       3.921  -7.603  -5.123  0.00  0.00     0.048 H 
ATOM     43  H   LIG d   1       4.311  -5.143  -4.884  0.00  0.00     0.083 H 
ATOM     44  H   LIG d   1       3.780  -5.574  -6.544  0.00  0.00     0.083 H 
ATOM     45  H   LIG d   1       6.619  -5.190  -5.612  0.00  0.00     0.203 HD
BRANCH  36  46
ATOM     46  C   LIG d   1       5.437  -9.271  -6.504  0.00  0.00     0.025 C 
ATOM     47  H   LIG d   1       4.547  -9.811  -6.857  0.00  0.00     0.048 H 
ATOM     48  H   LIG d   1       6.323  -9.624  -7.053  0.00  0.00     0.048 H 
BRANCH  46  49
ATOM     49  C   LIG d   1       5.627  -9.522  -5.031  0.00  0.00    -0.030 A 
ATOM     50  C   LIG d   1       6.850  -9.267  -4.440  0.00  0.00    -0.012 A 
ATOM     51  C   LIG d   1       7.027  -9.498  -3.085  0.00  0.00     0.167 A 
ATOM     52  H   LIG d   1       7.668  -8.889  -5.034  0.00  0.00     0.066 H 
ATOM     53  C   LIG d   1       5.968  -9.981  -2.320  0.00  0.00     0.166 A 
ATOM     54  O   LIG d   1       8.111  -9.334  -2.273  0.00  0.00    -0.453 OA
ATOM     55  C   LIG d   1       4.745 -10.239  -2.921  0.00  0.00    -0.016 A 
ATOM     56  O   LIG d   1       6.391 -10.128  -1.031  0.00  0.00    -0.453 OA
ATOM     57  C   LIG d   1       4.577 -10.007  -4.272  0.00  0.00    -0.054 A 
ATOM     58  H   LIG d   1       3.923 -10.618  -2.331  0.00  0.00     0.066 H 
ATOM     59  H   LIG d   1       3.622 -10.203  -4.738  0.00  0.00     0.062 H 
ATOM     60  C   LIG d   1       7.829 -10.110  -1.092  0.00  0.00     0.233 C 
ATOM     61  H   LIG d   1       8.254 -11.118  -1.207  0.00  0.00     0.117 H 
ATOM     62  H   LIG d   1       8.278  -9.620  -0.216  0.00  0.00     0.117 H 
ENDBRANCH  46  49
ENDBRANCH  36  46
ENDBRANCH  28  31
ENDBRANCH  16  28
BRANCH   1  63
ATOM     63  C   LIG d   1       2.749   0.159  -6.010  0.00  0.00    -0.043 C 
ATOM     64  H   LIG d   1       1.672  -0.049  -5.920  0.00  0.00     0.027 H 
ATOM     65  H   LIG d   1       3.239  -0.670  -6.544  0.00  0.00     0.027 H 
ATOM     66  H   LIG d   1       2.897   1.094  -6.569  0.00  0.00     0.027 H 
ENDBRANCH   1  63
BRANCH   9  67
ATOM     67  C   LIG d   1       4.775  -1.874  -2.282  0.00  0.00    -0.056 C 
ATOM     68  H   LIG d   1       3.779  -2.265  -2.538  0.00  0.00     0.024 H 
ATOM     69  H   LIG d   1       4.860  -1.771  -1.190  0.00  0.00     0.024 H 
ATOM     70  H   LIG d   1       5.546  -2.568  -2.646  0.00  0.00     0.024 H 
ENDBRANCH   9  67
TORSDOF 6
ENDMDL
MODEL 4
REMARK VINA RESULT:      -7.1      1.623      1.973
REMARK  6 active torsions:
REMARK  status: ('A' for Active; 'I' for Inactive)
REMARK    1  A    between atoms: C_1  and  C_2 
REMARK    2  A    between atoms: C_10  and  C_14 
REMARK    3  A    between atoms: C_18  and  C_20 
REMARK    4  A    between atoms: C_20  and  N_21 
REMARK    5  A    between atoms: N_24  and  C_27 
REMARK    6  A    between atoms: C_27  and  C_28 
ROOT
ATOM      1  C   LIG d   1       4.569  -0.002  -2.828  0.00  0.00    -0.073 C 
ATOM      2  C   LIG d   1       5.439  -0.426  -3.694  0.00  0.00    -0.064 C 
ATOM      3  C   LIG d   1       6.542   0.506  -4.151  0.00  0.00    -0.024 C 
ATOM      4  C   LIG d   1       7.906  -0.151  -3.917  0.00  0.00     0.018 C 
ATOM      5  H   LIG d   1       8.127  -0.072  -2.841  0.00  0.00     0.035 H 
ATOM      6  C   LIG d   1       7.929  -1.596  -4.442  0.00  0.00     0.108 C 
ATOM      7  H   LIG d   1       8.793  -2.182  -4.095  0.00  0.00     0.074 H 
ATOM      8  C   LIG d   1       6.783  -2.453  -3.969  0.00  0.00    -0.006 C 
ATOM      9  C   LIG d   1       5.435  -1.806  -4.290  0.00  0.00    -0.007 C 
ATOM     10  C   LIG d   1       4.293  -2.673  -3.798  0.00  0.00    -0.043 C 
ATOM     11  C   LIG d   1       3.918  -2.332  -2.357  0.00  0.00    -0.049 C 
ATOM     12  C   LIG d   1       3.455  -0.870  -2.312  0.00  0.00    -0.032 C 
ATOM     13  O   LIG d   1       7.989  -1.436  -5.886  0.00  0.00    -0.461 OA
ATOM     14  C   LIG d   1       8.851  -0.425  -6.135  0.00  0.00     0.316 C 
ATOM     15  O   LIG d   1       9.495  -0.287  -7.148  0.00  0.00    -0.250 OA
ATOM     16  C   LIG d   1       8.882   0.510  -4.939  0.00  0.00     0.102 C 
ATOM     17  H   LIG d   1       9.903   0.646  -4.554  0.00  0.00     0.047 H 
ATOM     18  H   LIG d   1       6.421   0.720  -5.224  0.00  0.00     0.031 H 
ATOM     19  H   LIG d   1       6.487   1.446  -3.582  0.00  0.00     0.031 H 
ATOM     20  H   LIG d   1       6.828  -3.434  -4.466  0.00  0.00     0.031 H 
ATOM     21  H   LIG d   1       6.855  -2.592  -2.879  0.00  0.00     0.031 H 
ATOM     22  H   LIG d   1       3.411  -2.514  -4.437  0.00  0.00     0.027 H 
ATOM     23  H   LIG d   1       4.590  -3.731  -3.841  0.00  0.00     0.027 H 
ATOM     24  H   LIG d   1       3.106  -2.994  -2.022  0.00  0.00     0.027 H 
ATOM     25  H   LIG d   1       4.795  -2.469  -1.708  0.00  0.00     0.027 H 
ATOM     26  H   LIG d   1       3.216  -0.584  -1.278  0.00  0.00     0.031 H 
ATOM     27  H   LIG d   1       2.564  -0.739  -2.944  0.00  0.00     0.031 H 
ENDROOT
BRANCH  16  28
ATOM     28  C   LIG d   1       8.384   1.901  -5.333  0.00  0.00    -0.018 C 
ATOM     29  H   LIG d   1       8.065   1.892  -6.385  0.00  0.00     0.082 H 
ATOM     30  H   LIG d   1       7.534   2.182  -4.695  0.00  0.00     0.082 H 
BRANCH  28  31
ATOM     31  N   LIG d   1       9.470   2.877  -5.160  0.00  0.00     0.238 N 
ATOM     32  C   LIG d   1      10.559   2.314  -4.349  0.00  0.00    -0.019 C 
ATOM     33  C   LIG d   1      11.701   3.329  -4.258  0.00  0.00     0.040 C 
ATOM     34  H   LIG d   1      10.185   2.089  -3.339  0.00  0.00     0.083 H 
ATOM     35  H   LIG d   1      10.924   1.389  -4.819  0.00  0.00     0.083 H 
ATOM     36  N   LIG d   1      11.198   4.576  -3.667  0.00  0.00    -0.288 N 
ATOM     37  H   LIG d   1      12.092   3.533  -5.266  0.00  0.00     0.048 H 
ATOM     38  H   LIG d   1      12.505   2.922  -3.628  0.00  0.00     0.048 H 
ATOM     39  C   LIG d   1      10.109   5.139  -4.477  0.00  0.00     0.040 C 
ATOM     40  C   LIG d   1       8.967   4.124  -4.568  0.00  0.00    -0.019 C 
ATOM     41  H   LIG d   1      10.481   5.364  -5.488  0.00  0.00     0.048 H 
ATOM     42  H   LIG d   1       9.742   6.064  -4.008  0.00  0.00     0.048 H 
ATOM     43  H   LIG d   1       8.162   4.531  -5.197  0.00  0.00     0.083 H 
ATOM     44  H   LIG d   1       8.575   3.921  -3.560  0.00  0.00     0.083 H 
ATOM     45  H   LIG d   1       9.874   3.112  -6.156  0.00  0.00     0.203 HD
BRANCH  36  46
ATOM     46  C   LIG d   1      12.283   5.551  -3.493  0.00  0.00     0.025 C 
ATOM     47  H   LIG d   1      13.252   5.035  -3.562  0.00  0.00     0.048 H 
ATOM     48  H   LIG d   1      12.218   6.316  -4.281  0.00  0.00     0.048 H 
BRANCH  46  49
ATOM     49  C   LIG d   1      12.157   6.208  -2.143  0.00  0.00    -0.030 A 
ATOM     50  C   LIG d   1      11.836   5.448  -1.034  0.00  0.00    -0.012 A 
ATOM     51  C   LIG d   1      11.720   6.051   0.209  0.00  0.00     0.167 A 
ATOM     52  H   LIG d   1      11.676   4.386  -1.135  0.00  0.00     0.066 H 
ATOM     53  C   LIG d   1      11.933   7.421   0.337  0.00  0.00     0.166 A 
ATOM     54  O   LIG d   1      11.418   5.540   1.438  0.00  0.00    -0.453 OA
ATOM     55  C   LIG d   1      12.249   8.177  -0.781  0.00  0.00    -0.016 A 
ATOM     56  O   LIG d   1      11.756   7.770   1.645  0.00  0.00    -0.453 OA
ATOM     57  C   LIG d   1      12.364   7.569  -2.016  0.00  0.00    -0.054 A 
ATOM     58  H   LIG d   1      12.411   9.241  -0.685  0.00  0.00     0.066 H 
ATOM     59  H   LIG d   1      12.615   8.159  -2.886  0.00  0.00     0.062 H 
ATOM     60  C   LIG d   1      11.043   6.673   2.245  0.00  0.00     0.233 C 
ATOM     61  H   LIG d   1       9.953   6.810   2.199  0.00  0.00     0.117 H 
ATOM     62  H   LIG d   1      11.347   6.498   3.287  0.00  0.00     0.117 H 
ENDBRANCH  46  49
ENDBRANCH  36  46
ENDBRANCH  28  31
ENDBRANCH  16  28
BRANCH   1  63
ATOM     63  C   LIG d   1       4.679   1.413  -2.322  0.00  0.00    -0.043 C 
ATOM     64  H   LIG d   1       4.048   1.534  -1.430  0.00  0.00     0.027 H 
ATOM     65  H   LIG d   1       4.344   2.110  -3.106  0.00  0.00     0.027 H 
ATOM     66  H   LIG d   1       5.726   1.629  -2.063  0.00  0.00     0.027 H 
ENDBRANCH   1  63
BRANCH   9  67
ATOM     67  C   LIG d   1       5.325  -1.677  -5.810  0.00  0.00    -0.056 C 
ATOM     68  H   LIG d   1       6.274  -1.986  -6.274  0.00  0.00     0.024 H 
ATOM     69  H   LIG d   1       5.111  -0.631  -6.074  0.00  0.00     0.024 H 
ATOM     70  H   LIG d   1       4.512  -2.321  -6.175  0.00  0.00     0.024 H 
ENDBRANCH   9  67
TORSDOF 6
ENDMDL
MODEL 5
REMARK VINA RESULT:      -7.1      3.931      4.902
REMARK  6 active torsions:
REMARK  status: ('A' for Active; 'I' for Inactive)
REMARK    1  A    between atoms: C_1  and  C_2 
REMARK    2  A    between atoms: C_10  and  C_14 
REMARK    3  A    between atoms: C_18  and  C_20 
REMARK    4  A    between atoms: C_20  and  N_21 
REMARK    5  A    between atoms: N_24  and  C_27 
REMARK    6  A    between atoms: C_27  and  C_28 
ROOT
ATOM      1  C   LIG d   1       3.332  -0.237  -5.005  0.00  0.00    -0.073 C 
ATOM      2  C   LIG d   1       4.471  -0.825  -4.799  0.00  0.00    -0.064 C 
ATOM      3  C   LIG d   1       5.610  -0.591  -5.769  0.00  0.00    -0.024 C 
ATOM      4  C   LIG d   1       6.842  -0.086  -5.012  0.00  0.00     0.018 C 
ATOM      5  H   LIG d   1       6.669   0.976  -4.779  0.00  0.00     0.035 H 
ATOM      6  C   LIG d   1       7.128  -0.946  -3.769  0.00  0.00     0.108 C 
ATOM      7  H   LIG d   1       7.848  -0.495  -3.072  0.00  0.00     0.074 H 
ATOM      8  C   LIG d   1       5.939  -1.160  -2.868  0.00  0.00    -0.006 C 
ATOM      9  C   LIG d   1       4.753  -1.741  -3.639  0.00  0.00    -0.007 C 
ATOM     10  C   LIG d   1       3.561  -1.938  -2.723  0.00  0.00    -0.043 C 
ATOM     11  C   LIG d   1       2.690  -0.685  -2.668  0.00  0.00    -0.049 C 
ATOM     12  C   LIG d   1       2.159  -0.404  -4.079  0.00  0.00    -0.032 C 
ATOM     13  O   LIG d   1       7.677  -2.175  -4.322  0.00  0.00    -0.461 OA
ATOM     14  C   LIG d   1       8.514  -1.817  -5.322  0.00  0.00     0.316 C 
ATOM     15  O   LIG d   1       9.462  -2.460  -5.706  0.00  0.00    -0.250 OA
ATOM     16  C   LIG d   1       8.074  -0.478  -5.885  0.00  0.00     0.102 C 
ATOM     17  H   LIG d   1       8.887   0.261  -5.862  0.00  0.00     0.047 H 
ATOM     18  H   LIG d   1       5.858  -1.535  -6.278  0.00  0.00     0.031 H 
ATOM     19  H   LIG d   1       5.307   0.158  -6.516  0.00  0.00     0.031 H 
ATOM     20  H   LIG d   1       6.209  -1.860  -2.063  0.00  0.00     0.031 H 
ATOM     21  H   LIG d   1       5.634  -0.198  -2.429  0.00  0.00     0.031 H 
ATOM     22  H   LIG d   1       2.950  -2.775  -3.093  0.00  0.00     0.027 H 
ATOM     23  H   LIG d   1       3.914  -2.165  -1.707  0.00  0.00     0.027 H 
ATOM     24  H   LIG d   1       1.851  -0.852  -1.976  0.00  0.00     0.027 H 
ATOM     25  H   LIG d   1       3.292   0.165  -2.316  0.00  0.00     0.027 H 
ATOM     26  H   LIG d   1       1.558   0.517  -4.077  0.00  0.00     0.031 H 
ATOM     27  H   LIG d   1       1.537  -1.245  -4.421  0.00  0.00     0.031 H 
ENDROOT
BRANCH  16  28
ATOM     28  C   LIG d   1       7.667  -0.621  -7.352  0.00  0.00    -0.018 C 
ATOM     29  H   LIG d   1       8.070  -1.562  -7.754  0.00  0.00     0.082 H 
ATOM     30  H   LIG d   1       6.570  -0.629  -7.431  0.00  0.00     0.082 H 
BRANCH  28  31
ATOM     31  N   LIG d   1       8.205   0.510  -8.122  0.00  0.00     0.238 N 
ATOM     32  C   LIG d   1       9.471   0.984  -7.546  0.00  0.00    -0.019 C 
ATOM     33  C   LIG d   1      10.037   2.106  -8.419  0.00  0.00     0.040 C 
ATOM     34  H   LIG d   1       9.292   1.363  -6.529  0.00  0.00     0.083 H 
ATOM     35  H   LIG d   1      10.189   0.151  -7.506  0.00  0.00     0.083 H 
ATOM     36  N   LIG d   1       9.058   3.199  -8.503  0.00  0.00    -0.288 N 
ATOM     37  H   LIG d   1      10.241   1.719  -9.429  0.00  0.00     0.048 H 
ATOM     38  H   LIG d   1      10.970   2.483  -7.975  0.00  0.00     0.048 H 
ATOM     39  C   LIG d   1       7.792   2.726  -9.078  0.00  0.00     0.040 C 
ATOM     40  C   LIG d   1       7.226   1.603  -8.205  0.00  0.00    -0.019 C 
ATOM     41  H   LIG d   1       7.969   2.345 -10.095  0.00  0.00     0.048 H 
ATOM     42  H   LIG d   1       7.073   3.557  -9.119  0.00  0.00     0.048 H 
ATOM     43  H   LIG d   1       6.292   1.227  -8.649  0.00  0.00     0.083 H 
ATOM     44  H   LIG d   1       7.021   1.990  -7.196  0.00  0.00     0.083 H 
ATOM     45  H   LIG d   1       8.407   0.156  -9.144  0.00  0.00     0.203 HD
BRANCH  36  46
ATOM     46  C   LIG d   1       9.596   4.329  -9.271  0.00  0.00     0.025 C 
ATOM     47  H   LIG d   1      10.622   4.098  -9.594  0.00  0.00     0.048 H 
ATOM     48  H   LIG d   1       8.965   4.505 -10.155  0.00  0.00     0.048 H 
BRANCH  46  49
ATOM     49  C   LIG d   1       9.606   5.564  -8.409  0.00  0.00    -0.030 A 
ATOM     50  C   LIG d   1       9.409   6.807  -8.981  0.00  0.00    -0.012 A 
ATOM     51  C   LIG d   1       9.418   7.944  -8.189  0.00  0.00     0.167 A 
ATOM     52  H   LIG d   1       9.248   6.892 -10.045  0.00  0.00     0.066 H 
ATOM     53  C   LIG d   1       9.620   7.830  -6.816  0.00  0.00     0.166 A 
ATOM     54  O   LIG d   1       9.252   9.263  -8.498  0.00  0.00    -0.453 OA
ATOM     55  C   LIG d   1       9.823   6.582  -6.250  0.00  0.00    -0.016 A 
ATOM     56  O   LIG d   1       9.590   9.079  -6.265  0.00  0.00    -0.453 OA
ATOM     57  C   LIG d   1       9.812   5.452  -7.046  0.00  0.00    -0.054 A 
ATOM     58  H   LIG d   1       9.984   6.491  -5.186  0.00  0.00     0.066 H 
ATOM     59  H   LIG d   1       9.965   4.479  -6.602  0.00  0.00     0.062 H 
ATOM     60  C   LIG d   1       9.766   9.991  -7.366  0.00  0.00     0.233 C 
ATOM     61  H   LIG d   1      10.824  10.237  -7.538  0.00  0.00     0.117 H 
ATOM     62  H   LIG d   1       9.191  10.919  -7.235  0.00  0.00     0.117 H 
ENDBRANCH  46  49
ENDBRANCH  36  46
ENDBRANCH  28  31
ENDBRANCH  16  28
BRANCH   1  63
ATOM     63  C   LIG d   1       3.179   0.645  -6.217  0.00  0.00    -0.043 C 
ATOM     64  H   LIG d   1       2.731   1.604  -5.918  0.00  0.00     0.027 H 
ATOM     65  H   LIG d   1       2.527   0.148  -6.952  0.00  0.00     0.027 H 
ATOM     66  H   LIG d   1       4.167   0.825  -6.666  0.00  0.00     0.027 H 
ENDBRANCH   1  63
BRANCH   9  67
ATOM     67  C   LIG d   1       5.172  -3.105  -4.191  0.00  0.00    -0.056 C 
ATOM     68  H   LIG d   1       4.625  -3.898  -3.660  0.00  0.00     0.024 H 
ATOM     69  H   LIG d   1       6.253  -3.242  -4.044  0.00  0.00     0.024 H 
ATOM     70  H   LIG d   1       4.938  -3.154  -5.264  0.00  0.00     0.024 H 
ENDBRANCH   9  67
TORSDOF 6
ENDMDL
MODEL 6
REMARK VINA RESULT:      -7.0      7.331     12.479
REMARK  6 active torsions:
REMARK  status: ('A' for Active; 'I' for Inactive)
REMARK    1  A    between atoms: C_1  and  C_2 
REMARK    2  A    between atoms: C_10  and  C_14 
REMARK    3  A    between atoms: C_18  and  C_20 
REMARK    4  A    between atoms: C_20  and  N_21 
REMARK    5  A    between atoms: N_24  and  C_27 
REMARK    6  A    between atoms: C_27  and  C_28 
ROOT
ATOM      1  C   LIG d   1       3.329   0.524  -3.930  0.00  0.00    -0.073 C 
ATOM      2  C   LIG d   1       4.003  -0.584  -4.001  0.00  0.00    -0.064 C 
ATOM      3  C   LIG d   1       4.081  -1.317  -5.324  0.00  0.00    -0.024 C 
ATOM      4  C   LIG d   1       5.547  -1.541  -5.708  0.00  0.00     0.018 C 
ATOM      5  H   LIG d   1       5.935  -0.582  -6.084  0.00  0.00     0.035 H 
ATOM      6  C   LIG d   1       6.354  -2.107  -4.527  0.00  0.00     0.108 C 
ATOM      7  H   LIG d   1       7.444  -2.067  -4.674  0.00  0.00     0.074 H 
ATOM      8  C   LIG d   1       6.202  -1.342  -3.238  0.00  0.00    -0.006 C 
ATOM      9  C   LIG d   1       4.730  -1.206  -2.842  0.00  0.00    -0.007 C 
ATOM     10  C   LIG d   1       4.592  -0.424  -1.551  0.00  0.00    -0.043 C 
ATOM     11  C   LIG d   1       4.478   1.075  -1.820  0.00  0.00    -0.049 C 
ATOM     12  C   LIG d   1       3.218   1.321  -2.659  0.00  0.00    -0.032 C 
ATOM     13  O   LIG d   1       5.917  -3.493  -4.446  0.00  0.00    -0.461 OA
ATOM     14  C   LIG d   1       5.825  -3.951  -5.715  0.00  0.00     0.316 C 
ATOM     15  O   LIG d   1       5.937  -5.106  -6.052  0.00  0.00    -0.250 OA
ATOM     16  C   LIG d   1       5.560  -2.784  -6.648  0.00  0.00     0.102 C 
ATOM     17  H   LIG d   1       6.308  -2.726  -7.451  0.00  0.00     0.047 H 
ATOM     18  H   LIG d   1       3.576  -2.291  -5.233  0.00  0.00     0.031 H 
ATOM     19  H   LIG d   1       3.586  -0.720  -6.104  0.00  0.00     0.031 H 
ATOM     20  H   LIG d   1       6.734  -1.870  -2.432  0.00  0.00     0.031 H 
ATOM     21  H   LIG d   1       6.627  -0.334  -3.358  0.00  0.00     0.031 H 
ATOM     22  H   LIG d   1       3.687  -0.755  -1.018  0.00  0.00     0.027 H 
ATOM     23  H   LIG d   1       5.474  -0.601  -0.919  0.00  0.00     0.027 H 
ATOM     24  H   LIG d   1       4.406   1.615  -0.864  0.00  0.00     0.027 H 
ATOM     25  H   LIG d   1       5.368   1.418  -2.368  0.00  0.00     0.027 H 
ATOM     26  H   LIG d   1       3.132   2.390  -2.902  0.00  0.00     0.031 H 
ATOM     27  H   LIG d   1       2.327   0.999  -2.100  0.00  0.00     0.031 H 
ENDROOT
BRANCH  16  28
ATOM     28  C   LIG d   1       4.205  -2.948  -7.339  0.00  0.00    -0.018 C 
ATOM     29  H   LIG d   1       3.928  -4.013  -7.355  0.00  0.00     0.082 H 
ATOM     30  H   LIG d   1       3.441  -2.379  -6.790  0.00  0.00     0.082 H 
BRANCH  28  31
ATOM     31  N   LIG d   1       4.293  -2.445  -8.717  0.00  0.00     0.238 N 
ATOM     32  C   LIG d   1       3.326  -1.363  -8.945  0.00  0.00    -0.019 C 
ATOM     33  C   LIG d   1       3.504  -0.814 -10.363  0.00  0.00     0.040 C 
ATOM     34  H   LIG d   1       2.304  -1.753  -8.827  0.00  0.00     0.083 H 
ATOM     35  H   LIG d   1       3.498  -0.558  -8.215  0.00  0.00     0.083 H 
ATOM     36  N   LIG d   1       3.313  -1.901 -11.333  0.00  0.00    -0.288 N 
ATOM     37  H   LIG d   1       4.517  -0.399 -10.472  0.00  0.00     0.048 H 
ATOM     38  H   LIG d   1       2.762  -0.023 -10.547  0.00  0.00     0.048 H 
ATOM     39  C   LIG d   1       4.280  -2.983 -11.106  0.00  0.00     0.040 C 
ATOM     40  C   LIG d   1       4.102  -3.532  -9.688  0.00  0.00    -0.019 C 
ATOM     41  H   LIG d   1       5.302  -2.594 -11.222  0.00  0.00     0.048 H 
ATOM     42  H   LIG d   1       4.109  -3.789 -11.835  0.00  0.00     0.048 H 
ATOM     43  H   LIG d   1       4.843  -4.323  -9.504  0.00  0.00     0.083 H 
ATOM     44  H   LIG d   1       3.089  -3.947  -9.578  0.00  0.00     0.083 H 
ATOM     45  H   LIG d   1       5.304  -2.035  -8.862  0.00  0.00     0.203 HD
BRANCH  36  46
ATOM     46  C   LIG d   1       3.401  -1.398 -12.711  0.00  0.00     0.025 C 
ATOM     47  H   LIG d   1       3.435  -0.298 -12.697  0.00  0.00     0.048 H 
ATOM     48  H   LIG d   1       4.314  -1.787 -13.186  0.00  0.00     0.048 H 
BRANCH  46  49
ATOM     49  C   LIG d   1       2.195  -1.854 -13.491  0.00  0.00    -0.030 A 
ATOM     50  C   LIG d   1       0.974  -1.987 -12.857  0.00  0.00    -0.012 A 
ATOM     51  C   LIG d   1      -0.136  -2.407 -13.573  0.00  0.00     0.167 A 
ATOM     52  H   LIG d   1       0.885  -1.764 -11.805  0.00  0.00     0.066 H 
ATOM     53  C   LIG d   1      -0.019  -2.688 -14.931  0.00  0.00     0.166 A 
ATOM     54  O   LIG d   1      -1.431  -2.617 -13.194  0.00  0.00    -0.453 OA
ATOM     55  C   LIG d   1       1.210  -2.558 -15.559  0.00  0.00    -0.016 A 
ATOM     56  O   LIG d   1      -1.238  -3.083 -15.403  0.00  0.00    -0.453 OA
ATOM     57  C   LIG d   1       2.313  -2.138 -14.839  0.00  0.00    -0.054 A 
ATOM     58  H   LIG d   1       1.305  -2.779 -16.612  0.00  0.00     0.066 H 
ATOM     59  H   LIG d   1       3.269  -2.032 -15.330  0.00  0.00     0.062 H 
ATOM     60  C   LIG d   1      -2.010  -3.424 -14.237  0.00  0.00     0.233 C 
ATOM     61  H   LIG d   1      -1.917  -4.487 -13.971  0.00  0.00     0.117 H 
ATOM     62  H   LIG d   1      -3.073  -3.168 -14.351  0.00  0.00     0.117 H 
ENDBRANCH  46  49
ENDBRANCH  36  46
ENDBRANCH  28  31
ENDBRANCH  16  28
BRANCH   1  63
ATOM     63  C   LIG d   1       2.632   1.031  -5.166  0.00  0.00    -0.043 C 
ATOM     64  H   LIG d   1       2.105   0.200  -5.656  0.00  0.00     0.027 H 
ATOM     65  H   LIG d   1       3.376   1.453  -5.859  0.00  0.00     0.027 H 
ATOM     66  H   LIG d   1       1.908   1.811  -4.885  0.00  0.00     0.027 H 
ENDBRANCH   1  63
BRANCH   9  67
ATOM     67  C   LIG d   1       4.171  -2.613  -2.619  0.00  0.00    -0.056 C 
ATOM     68  H   LIG d   1       3.966  -3.084  -3.592  0.00  0.00     0.024 H 
ATOM     69  H   LIG d   1       3.240  -2.548  -2.038  0.00  0.00     0.024 H 
ATOM     70  H   LIG d   1       4.906  -3.216  -2.067  0.00  0.00     0.024 H 
ENDBRANCH   9  67
TORSDOF 6
ENDMDL
MODEL 7
REMARK VINA RESULT:      -6.9      2.308     10.047
REMARK  6 active torsions:
REMARK  status: ('A' for Active; 'I' for Inactive)
REMARK    1  A    between atoms: C_1  and  C_2 
REMARK    2  A    between atoms: C_10  and  C_14 
REMARK    3  A    between atoms: C_18  and  C_20 
REMARK    4  A    between atoms: C_20  and  N_21 
REMARK    5  A    between atoms: N_24  and  C_27 
REMARK    6  A    between atoms: C_27  and  C_28 
ROOT
ATOM      1  C   LIG d   1      11.309   7.410   0.790  0.00  0.00    -0.073 C 
ATOM      2  C   LIG d   1      11.276   7.563  -0.499  0.00  0.00    -0.064 C 
ATOM      3  C   LIG d   1      10.942   6.374  -1.376  0.00  0.00    -0.024 C 
ATOM      4  C   LIG d   1       9.757   6.716  -2.284  0.00  0.00     0.018 C 
ATOM      5  H   LIG d   1       8.847   6.663  -1.668  0.00  0.00     0.035 H 
ATOM      6  C   LIG d   1       9.952   8.079  -2.971  0.00  0.00     0.108 C 
ATOM      7  H   LIG d   1       9.041   8.474  -3.443  0.00  0.00     0.074 H 
ATOM      8  C   LIG d   1      10.313   9.206  -2.037  0.00  0.00    -0.006 C 
ATOM      9  C   LIG d   1      11.548   8.864  -1.202  0.00  0.00    -0.007 C 
ATOM     10  C   LIG d   1      11.890  10.000  -0.260  0.00  0.00    -0.043 C 
ATOM     11  C   LIG d   1      11.162   9.853   1.075  0.00  0.00    -0.049 C 
ATOM     12  C   LIG d   1      11.615   8.543   1.731  0.00  0.00    -0.032 C 
ATOM     13  O   LIG d   1      10.959   7.810  -3.986  0.00  0.00    -0.461 OA
ATOM     14  C   LIG d   1      10.652   6.614  -4.537  0.00  0.00     0.316 C 
ATOM     15  O   LIG d   1      10.944   6.263  -5.656  0.00  0.00    -0.250 OA
ATOM     16  C   LIG d   1       9.884   5.782  -3.527  0.00  0.00     0.102 C 
ATOM     17  H   LIG d   1       8.919   5.443  -3.928  0.00  0.00     0.047 H 
ATOM     18  H   LIG d   1      11.815   6.121  -1.997  0.00  0.00     0.031 H 
ATOM     19  H   LIG d   1      10.680   5.513  -0.743  0.00  0.00     0.031 H 
ATOM     20  H   LIG d   1      10.526  10.113  -2.622  0.00  0.00     0.031 H 
ATOM     21  H   LIG d   1       9.471   9.399  -1.354  0.00  0.00     0.031 H 
ATOM     22  H   LIG d   1      12.974  10.003  -0.069  0.00  0.00     0.027 H 
ATOM     23  H   LIG d   1      11.596  10.956  -0.716  0.00  0.00     0.027 H 
ATOM     24  H   LIG d   1      11.411  10.705   1.725  0.00  0.00     0.027 H 
ATOM     25  H   LIG d   1      10.076   9.831   0.899  0.00  0.00     0.027 H 
ATOM     26  H   LIG d   1      11.076   8.391   2.677  0.00  0.00     0.031 H 
ATOM     27  H   LIG d   1      12.697   8.576   1.927  0.00  0.00     0.031 H 
ENDROOT
BRANCH  16  28
ATOM     28  C   LIG d   1      10.666   4.517  -3.168  0.00  0.00    -0.018 C 
ATOM     29  H   LIG d   1      11.742   4.701  -3.304  0.00  0.00     0.082 H 
ATOM     30  H   LIG d   1      10.469   4.248  -2.120  0.00  0.00     0.082 H 
BRANCH  28  31
ATOM     31  N   LIG d   1      10.244   3.416  -4.045  0.00  0.00     0.238 N 
ATOM     32  C   LIG d   1       8.778   3.337  -4.122  0.00  0.00    -0.019 C 
ATOM     33  C   LIG d   1       8.381   2.232  -5.104  0.00  0.00     0.040 C 
ATOM     34  H   LIG d   1       8.370   3.110  -3.127  0.00  0.00     0.083 H 
ATOM     35  H   LIG d   1       8.378   4.301  -4.472  0.00  0.00     0.083 H 
ATOM     36  N   LIG d   1       8.951   0.954  -4.655  0.00  0.00    -0.288 N 
ATOM     37  H   LIG d   1       8.766   2.473  -6.105  0.00  0.00     0.048 H 
ATOM     38  H   LIG d   1       7.285   2.151  -5.142  0.00  0.00     0.048 H 
ATOM     39  C   LIG d   1      10.416   1.032  -4.577  0.00  0.00     0.040 C 
ATOM     40  C   LIG d   1      10.813   2.138  -3.596  0.00  0.00    -0.019 C 
ATOM     41  H   LIG d   1      10.825   1.260  -5.572  0.00  0.00     0.048 H 
ATOM     42  H   LIG d   1      10.817   0.070  -4.227  0.00  0.00     0.048 H 
ATOM     43  H   LIG d   1      11.910   2.218  -3.556  0.00  0.00     0.083 H 
ATOM     44  H   LIG d   1      10.429   1.896  -2.594  0.00  0.00     0.083 H 
ATOM     45  H   LIG d   1      10.628   3.622  -5.055  0.00  0.00     0.203 HD
BRANCH  36  46
ATOM     46  C   LIG d   1       8.528  -0.147  -5.530  0.00  0.00     0.025 C 
ATOM     47  H   LIG d   1       8.507   0.202  -6.573  0.00  0.00     0.048 H 
ATOM     48  H   LIG d   1       9.238  -0.982  -5.438  0.00  0.00     0.048 H 
BRANCH  46  49
ATOM     49  C   LIG d   1       7.152  -0.611  -5.126  0.00  0.00    -0.030 A 
ATOM     50  C   LIG d   1       6.835  -0.742  -3.788  0.00  0.00    -0.012 A 
ATOM     51  C   LIG d   1       5.570  -1.169  -3.414  0.00  0.00     0.167 A 
ATOM     52  H   LIG d   1       7.571  -0.512  -3.033  0.00  0.00     0.066 H 
ATOM     53  C   LIG d   1       4.621  -1.459  -4.390  0.00  0.00     0.166 A 
ATOM     54  O   LIG d   1       5.012  -1.378  -2.186  0.00  0.00    -0.453 OA
ATOM     55  C   LIG d   1       4.948  -1.330  -5.731  0.00  0.00    -0.016 A 
ATOM     56  O   LIG d   1       3.470  -1.859  -3.774  0.00  0.00    -0.453 OA
ATOM     57  C   LIG d   1       6.211  -0.904  -6.096  0.00  0.00    -0.054 A 
ATOM     58  H   LIG d   1       4.215  -1.559  -6.490  0.00  0.00     0.066 H 
ATOM     59  H   LIG d   1       6.463  -0.799  -7.141  0.00  0.00     0.062 H 
ATOM     60  C   LIG d   1       3.849  -2.194  -2.427  0.00  0.00     0.233 C 
ATOM     61  H   LIG d   1       4.118  -3.255  -2.321  0.00  0.00     0.117 H 
ATOM     62  H   LIG d   1       3.066  -1.940  -1.698  0.00  0.00     0.117 H 
ENDBRANCH  46  49
ENDBRANCH  36  46
ENDBRANCH  28  31
ENDBRANCH  16  28
BRANCH   1  63
ATOM     63  C   LIG d   1      11.031   6.045   1.366  0.00  0.00    -0.043 C 
ATOM     64  H   LIG d   1      10.851   6.133   2.448  0.00  0.00     0.027 H 
ATOM     65  H   LIG d   1      11.898   5.390   1.192  0.00  0.00     0.027 H 
ATOM     66  H   LIG d   1      10.143   5.615   0.879  0.00  0.00     0.027 H 
ENDBRANCH   1  63
BRANCH   9  67
ATOM     67  C   LIG d   1      12.722   8.659  -2.161  0.00  0.00    -0.056 C 
ATOM     68  H   LIG d   1      12.435   7.941  -2.943  0.00  0.00     0.024 H 
ATOM     69  H   LIG d   1      13.586   8.268  -1.603  0.00  0.00     0.024 H 
ATOM     70  H   LIG d   1      12.989   9.619  -2.625  0.00  0.00     0.024 H 
ENDBRANCH   9  67
TORSDOF 6
ENDMDL
MODEL 8
REMARK VINA RESULT:      -6.8      6.395      9.932
REMARK  6 active torsions:
REMARK  status: ('A' for Active; 'I' for Inactive)
REMARK    1  A    between atoms: C_1  and  C_2 
REMARK    2  A    between atoms: C_10  and  C_14 
REMARK    3  A    between atoms: C_18  and  C_20 
REMARK    4  A    between atoms: C_20  and  N_21 
REMARK    5  A    between atoms: N_24  and  C_27 
REMARK    6  A    between atoms: C_27  and  C_28 
ROOT
ATOM      1  C   LIG d   1       5.346  -9.269  -4.521  0.00  0.00    -0.073 C 
ATOM      2  C   LIG d   1       6.425  -9.570  -3.865  0.00  0.00    -0.064 C 
ATOM      3  C   LIG d   1       7.646  -8.685  -4.005  0.00  0.00    -0.024 C 
ATOM      4  C   LIG d   1       8.107  -8.214  -2.623  0.00  0.00     0.018 C 
ATOM      5  H   LIG d   1       7.421  -7.414  -2.305  0.00  0.00     0.035 H 
ATOM      6  C   LIG d   1       8.184  -9.385  -1.629  0.00  0.00     0.108 C 
ATOM      7  H   LIG d   1       8.281  -9.072  -0.579  0.00  0.00     0.074 H 
ATOM      8  C   LIG d   1       6.943 -10.239  -1.568  0.00  0.00    -0.006 C 
ATOM      9  C   LIG d   1       6.557 -10.758  -2.954  0.00  0.00    -0.007 C 
ATOM     10  C   LIG d   1       5.301 -11.604  -2.879  0.00  0.00    -0.043 C 
ATOM     11  C   LIG d   1       4.045 -10.749  -3.040  0.00  0.00    -0.049 C 
ATOM     12  C   LIG d   1       4.087 -10.086  -4.423  0.00  0.00    -0.032 C 
ATOM     13  O   LIG d   1       9.377 -10.108  -2.042  0.00  0.00    -0.461 OA
ATOM     14  C   LIG d   1      10.314  -9.181  -2.341  0.00  0.00     0.316 C 
ATOM     15  O   LIG d   1      11.510  -9.350  -2.283  0.00  0.00    -0.250 OA
ATOM     16  C   LIG d   1       9.627  -7.895  -2.762  0.00  0.00     0.102 C 
ATOM     17  H   LIG d   1       9.959  -7.039  -2.157  0.00  0.00     0.047 H 
ATOM     18  H   LIG d   1       8.458  -9.253  -4.485  0.00  0.00     0.031 H 
ATOM     19  H   LIG d   1       7.396  -7.811  -4.625  0.00  0.00     0.031 H 
ATOM     20  H   LIG d   1       7.122 -11.100  -0.908  0.00  0.00     0.031 H 
ATOM     21  H   LIG d   1       6.107  -9.642  -1.172  0.00  0.00     0.031 H 
ATOM     22  H   LIG d   1       5.318 -12.357  -3.681  0.00  0.00     0.027 H 
ATOM     23  H   LIG d   1       5.257 -12.110  -1.904  0.00  0.00     0.027 H 
ATOM     24  H   LIG d   1       3.153 -11.387  -2.955  0.00  0.00     0.027 H 
ATOM     25  H   LIG d   1       4.023  -9.979  -2.255  0.00  0.00     0.027 H 
ATOM     26  H   LIG d   1       3.213  -9.432  -4.552  0.00  0.00     0.031 H 
ATOM     27  H   LIG d   1       4.087 -10.857  -5.208  0.00  0.00     0.031 H 
ENDROOT
BRANCH  16  28
ATOM     28  C   LIG d   1       9.973  -7.552  -4.212  0.00  0.00    -0.018 C 
ATOM     29  H   LIG d   1      10.999  -7.880  -4.431  0.00  0.00     0.082 H 
ATOM     30  H   LIG d   1       9.272  -8.063  -4.887  0.00  0.00     0.082 H 
BRANCH  28  31
ATOM     31  N   LIG d   1       9.871  -6.099  -4.409  0.00  0.00     0.238 N 
ATOM     32  C   LIG d   1       9.603  -5.413  -3.138  0.00  0.00    -0.019 C 
ATOM     33  C   LIG d   1       9.583  -3.900  -3.372  0.00  0.00     0.040 C 
ATOM     34  H   LIG d   1       8.628  -5.737  -2.744  0.00  0.00     0.083 H 
ATOM     35  H   LIG d   1      10.393  -5.663  -2.413  0.00  0.00     0.083 H 
ATOM     36  N   LIG d   1       8.554  -3.576  -4.370  0.00  0.00    -0.288 N 
ATOM     37  H   LIG d   1      10.566  -3.573  -3.740  0.00  0.00     0.048 H 
ATOM     38  H   LIG d   1       9.354  -3.385  -2.428  0.00  0.00     0.048 H 
ATOM     39  C   LIG d   1       8.822  -4.262  -5.641  0.00  0.00     0.040 C 
ATOM     40  C   LIG d   1       8.842  -5.774  -5.406  0.00  0.00    -0.019 C 
ATOM     41  H   LIG d   1       9.797  -3.939  -6.035  0.00  0.00     0.048 H 
ATOM     42  H   LIG d   1       8.033  -4.013  -6.366  0.00  0.00     0.048 H 
ATOM     43  H   LIG d   1       9.070  -6.290  -6.351  0.00  0.00     0.083 H 
ATOM     44  H   LIG d   1       7.858  -6.103  -5.040  0.00  0.00     0.083 H 
ATOM     45  H   LIG d   1      10.839  -5.742  -4.791  0.00  0.00     0.203 HD
BRANCH  36  46
ATOM     46  C   LIG d   1       8.452  -2.124  -4.566  0.00  0.00     0.025 C 
ATOM     47  H   LIG d   1       9.310  -1.628  -4.088  0.00  0.00     0.048 H 
ATOM     48  H   LIG d   1       8.452  -1.899  -5.643  0.00  0.00     0.048 H 
BRANCH  46  49
ATOM     49  C   LIG d   1       7.172  -1.622  -3.949  0.00  0.00    -0.030 A 
ATOM     50  C   LIG d   1       7.055  -0.292  -3.591  0.00  0.00    -0.012 A 
ATOM     51  C   LIG d   1       5.879   0.172  -3.023  0.00  0.00     0.167 A 
ATOM     52  H   LIG d   1       7.879   0.386  -3.754  0.00  0.00     0.066 H 
ATOM     53  C   LIG d   1       4.816  -0.704  -2.820  0.00  0.00     0.166 A 
ATOM     54  O   LIG d   1       5.512   1.412  -2.588  0.00  0.00    -0.453 OA
ATOM     55  C   LIG d   1       4.943  -2.037  -3.176  0.00  0.00    -0.016 A 
ATOM     56  O   LIG d   1       3.785  -0.014  -2.249  0.00  0.00    -0.453 OA
ATOM     57  C   LIG d   1       6.118  -2.492  -3.742  0.00  0.00    -0.054 A 
ATOM     58  H   LIG d   1       4.121  -2.720  -3.015  0.00  0.00     0.066 H 
ATOM     59  H   LIG d   1       6.214  -3.531  -4.023  0.00  0.00     0.062 H 
ATOM     60  C   LIG d   1       4.368   1.199  -1.739  0.00  0.00     0.233 C 
ATOM     61  H   LIG d   1       4.701   1.095  -0.696  0.00  0.00     0.117 H 
ATOM     62  H   LIG d   1       3.685   2.057  -1.821  0.00  0.00     0.117 H 
ENDBRANCH  46  49
ENDBRANCH  36  46
ENDBRANCH  28  31
ENDBRANCH  16  28
BRANCH   1  63
ATOM     63  C   LIG d   1       5.354  -8.056  -5.415  0.00  0.00    -0.043 C 
ATOM     64  H   LIG d   1       5.376  -8.376  -6.468  0.00  0.00     0.027 H 
ATOM     65  H   LIG d   1       6.245  -7.447  -5.199  0.00  0.00     0.027 H 
ATOM     66  H   LIG d   1       4.449  -7.459  -5.232  0.00  0.00     0.027 H 
ENDBRANCH   1  63
BRANCH   9  67
ATOM     67  C   LIG d   1       7.702 -11.635  -3.463  0.00  0.00    -0.056 C 
ATOM     68  H   LIG d   1       8.107 -12.229  -2.631  0.00  0.00     0.024 H 
ATOM     69  H   LIG d   1       8.495 -10.996  -3.879  0.00  0.00     0.024 H 
ATOM     70  H   LIG d   1       7.326 -12.310  -4.246  0.00  0.00     0.024 H 
ENDBRANCH   9  67
TORSDOF 6
ENDMDL
MODEL 9
REMARK VINA RESULT:      -6.8      7.368     11.961
REMARK  6 active torsions:
REMARK  status: ('A' for Active; 'I' for Inactive)
REMARK    1  A    between atoms: C_1  and  C_2 
REMARK    2  A    between atoms: C_10  and  C_14 
REMARK    3  A    between atoms: C_18  and  C_20 
REMARK    4  A    between atoms: C_20  and  N_21 
REMARK    5  A    between atoms: N_24  and  C_27 
REMARK    6  A    between atoms: C_27  and  C_28 
ROOT
ATOM      1  C   LIG d   1       3.349   0.721  -3.790  0.00  0.00    -0.073 C 
ATOM      2  C   LIG d   1       3.996  -0.370  -4.068  0.00  0.00    -0.064 C 
ATOM      3  C   LIG d   1       4.020  -0.871  -5.498  0.00  0.00    -0.024 C 
ATOM      4  C   LIG d   1       5.469  -1.051  -5.959  0.00  0.00     0.018 C 
ATOM      5  H   LIG d   1       5.869  -0.050  -6.181  0.00  0.00     0.035 H 
ATOM      6  C   LIG d   1       6.297  -1.824  -4.917  0.00  0.00     0.108 C 
ATOM      7  H   LIG d   1       7.382  -1.778  -5.089  0.00  0.00     0.074 H 
ATOM      8  C   LIG d   1       6.197  -1.285  -3.513  0.00  0.00    -0.006 C 
ATOM      9  C   LIG d   1       4.741  -1.193  -3.054  0.00  0.00    -0.007 C 
ATOM     10  C   LIG d   1       4.656  -0.638  -1.646  0.00  0.00    -0.043 C 
ATOM     11  C   LIG d   1       4.569   0.887  -1.655  0.00  0.00    -0.049 C 
ATOM     12  C   LIG d   1       3.292   1.293  -2.400  0.00  0.00    -0.032 C 
ATOM     13  O   LIG d   1       5.831  -3.195  -5.057  0.00  0.00    -0.461 OA
ATOM     14  C   LIG d   1       5.694  -3.431  -6.381  0.00  0.00     0.316 C 
ATOM     15  O   LIG d   1       5.770  -4.514  -6.912  0.00  0.00    -0.250 OA
ATOM     16  C   LIG d   1       5.428  -2.118  -7.096  0.00  0.00     0.102 C 
ATOM     17  H   LIG d   1       6.155  -1.938  -7.901  0.00  0.00     0.047 H 
ATOM     18  H   LIG d   1       3.496  -1.837  -5.557  0.00  0.00     0.031 H 
ATOM     19  H   LIG d   1       3.517  -0.141  -6.150  0.00  0.00     0.031 H 
ATOM     20  H   LIG d   1       6.740  -1.951  -2.825  0.00  0.00     0.031 H 
ATOM     21  H   LIG d   1       6.641  -0.278  -3.475  0.00  0.00     0.031 H 
ATOM     22  H   LIG d   1       3.760  -1.038  -1.149  0.00  0.00     0.027 H 
ATOM     23  H   LIG d   1       5.551  -0.934  -1.081  0.00  0.00     0.027 H 
ATOM     24  H   LIG d   1       4.535   1.258  -0.620  0.00  0.00     0.027 H 
ATOM     25  H   LIG d   1       5.451   1.302  -2.165  0.00  0.00     0.027 H 
ATOM     26  H   LIG d   1       3.222   2.389  -2.457  0.00  0.00     0.031 H 
ATOM     27  H   LIG d   1       2.409   0.897  -1.876  0.00  0.00     0.031 H 
ENDROOT
BRANCH  16  28
ATOM     28  C   LIG d   1       4.051  -2.139  -7.762  0.00  0.00    -0.018 C 
ATOM     29  H   LIG d   1       3.345  -2.691  -7.125  0.00  0.00     0.082 H 
ATOM     30  H   LIG d   1       3.693  -1.108  -7.898  0.00  0.00     0.082 H 
BRANCH  28  31
ATOM     31  N   LIG d   1       4.150  -2.800  -9.071  0.00  0.00     0.238 N 
ATOM     32  C   LIG d   1       5.212  -2.195  -9.887  0.00  0.00    -0.019 C 
ATOM     33  C   LIG d   1       5.335  -2.961 -11.207  0.00  0.00     0.040 C 
ATOM     34  H   LIG d   1       4.962  -1.144 -10.094  0.00  0.00     0.083 H 
ATOM     35  H   LIG d   1       6.166  -2.246  -9.342  0.00  0.00     0.083 H 
ATOM     36  N   LIG d   1       4.047  -2.926 -11.913  0.00  0.00    -0.288 N 
ATOM     37  H   LIG d   1       5.612  -4.006 -11.001  0.00  0.00     0.048 H 
ATOM     38  H   LIG d   1       6.109  -2.493 -11.832  0.00  0.00     0.048 H 
ATOM     39  C   LIG d   1       2.985  -3.530 -11.097  0.00  0.00     0.040 C 
ATOM     40  C   LIG d   1       2.862  -2.764  -9.777  0.00  0.00    -0.019 C 
ATOM     41  H   LIG d   1       3.234  -4.581 -10.889  0.00  0.00     0.048 H 
ATOM     42  H   LIG d   1       2.030  -3.480 -11.641  0.00  0.00     0.048 H 
ATOM     43  H   LIG d   1       2.087  -3.232  -9.152  0.00  0.00     0.083 H 
ATOM     44  H   LIG d   1       2.584  -1.720  -9.982  0.00  0.00     0.083 H 
ATOM     45  H   LIG d   1       4.413  -3.855  -8.897  0.00  0.00     0.203 HD
BRANCH  36  46
ATOM     46  C   LIG d   1       4.146  -3.585 -13.221  0.00  0.00     0.025 C 
ATOM     47  H   LIG d   1       5.176  -3.941 -13.375  0.00  0.00     0.048 H 
ATOM     48  H   LIG d   1       3.454  -4.441 -13.254  0.00  0.00     0.048 H 
BRANCH  46  49
ATOM     49  C   LIG d   1       3.784  -2.606 -14.307  0.00  0.00    -0.030 A 
ATOM     50  C   LIG d   1       4.644  -1.568 -14.615  0.00  0.00    -0.012 A 
ATOM     51  C   LIG d   1       4.312  -0.666 -15.613  0.00  0.00     0.167 A 
ATOM     52  H   LIG d   1       5.573  -1.460 -14.077  0.00  0.00     0.066 H 
ATOM     53  C   LIG d   1       3.115  -0.812 -16.309  0.00  0.00     0.166 A 
ATOM     54  O   LIG d   1       4.971   0.425 -16.102  0.00  0.00    -0.453 OA
ATOM     55  C   LIG d   1       2.255  -1.852 -15.992  0.00  0.00    -0.016 A 
ATOM     56  O   LIG d   1       3.019   0.194 -17.227  0.00  0.00    -0.453 OA
ATOM     57  C   LIG d   1       2.593  -2.747 -14.995  0.00  0.00    -0.054 A 
ATOM     58  H   LIG d   1       1.324  -1.965 -16.526  0.00  0.00     0.066 H 
ATOM     59  H   LIG d   1       1.924  -3.560 -14.752  0.00  0.00     0.062 H 
ATOM     60  C   LIG d   1       3.978   1.185 -16.817  0.00  0.00     0.233 C 
ATOM     61  H   LIG d   1       3.539   1.937 -16.144  0.00  0.00     0.117 H 
ATOM     62  H   LIG d   1       4.449   1.690 -17.673  0.00  0.00     0.117 H 
ENDBRANCH  46  49
ENDBRANCH  36  46
ENDBRANCH  28  31
ENDBRANCH  16  28
BRANCH   1  63
ATOM     63  C   LIG d   1       2.630   1.442  -4.901  0.00  0.00    -0.043 C 
ATOM     64  H   LIG d   1       1.605   1.681  -4.580  0.00  0.00     0.027 H 
ATOM     65  H   LIG d   1       2.594   0.797  -5.793  0.00  0.00     0.027 H 
ATOM     66  H   LIG d   1       3.165   2.372  -5.142  0.00  0.00     0.027 H 
ENDBRANCH   1  63
BRANCH   9  67
ATOM     67  C   LIG d   1       4.157  -2.607  -3.054  0.00  0.00    -0.056 C 
ATOM     68  H   LIG d   1       4.976  -3.341  -3.072  0.00  0.00     0.024 H 
ATOM     69  H   LIG d   1       3.524  -2.741  -3.944  0.00  0.00     0.024 H 
ATOM     70  H   LIG d   1       3.552  -2.753  -2.148  0.00  0.00     0.024 H 
ENDBRANCH   9  67
TORSDOF 6
ENDMDL
MODEL 10
REMARK VINA RESULT:      -6.7      2.779      9.815
REMARK  6 active torsions:
REMARK  status: ('A' for Active; 'I' for Inactive)
REMARK    1  A    between atoms: C_1  and  C_2 
REMARK    2  A    between atoms: C_10  and  C_14 
REMARK    3  A    between atoms: C_18  and  C_20 
REMARK    4  A    between atoms: C_20  and  N_21 
REMARK    5  A    between atoms: N_24  and  C_27 
REMARK    6  A    between atoms: C_27  and  C_28 
ROOT
ATOM      1  C   LIG d   1      11.250   7.006   0.735  0.00  0.00    -0.073 C 
ATOM      2  C   LIG d   1      11.240   7.007  -0.564  0.00  0.00    -0.064 C 
ATOM      3  C   LIG d   1      10.941   5.718  -1.302  0.00  0.00    -0.024 C 
ATOM      4  C   LIG d   1       9.768   5.931  -2.264  0.00  0.00     0.018 C 
ATOM      5  H   LIG d   1       8.848   5.934  -1.661  0.00  0.00     0.035 H 
ATOM      6  C   LIG d   1       9.956   7.207  -3.102  0.00  0.00     0.108 C 
ATOM      7  H   LIG d   1       9.048   7.528  -3.633  0.00  0.00     0.074 H 
ATOM      8  C   LIG d   1      10.281   8.442  -2.301  0.00  0.00    -0.006 C 
ATOM      9  C   LIG d   1      11.505   8.221  -1.410  0.00  0.00    -0.007 C 
ATOM     10  C   LIG d   1      11.812   9.466  -0.601  0.00  0.00    -0.043 C 
ATOM     11  C   LIG d   1      11.060   9.463   0.728  0.00  0.00    -0.049 C 
ATOM     12  C   LIG d   1      11.520   8.247   1.541  0.00  0.00    -0.032 C 
ATOM     13  O   LIG d   1      10.986   6.840  -4.061  0.00  0.00    -0.461 OA
ATOM     14  C   LIG d   1      10.709   5.582  -4.474  0.00  0.00     0.316 C 
ATOM     15  O   LIG d   1      11.027   5.108  -5.538  0.00  0.00    -0.250 OA
ATOM     16  C   LIG d   1       9.934   4.860  -3.386  0.00  0.00     0.102 C 
ATOM     17  H   LIG d   1       8.982   4.459  -3.761  0.00  0.00     0.047 H 
ATOM     18  H   LIG d   1      11.830   5.409  -1.874  0.00  0.00     0.031 H 
ATOM     19  H   LIG d   1      10.681   4.933  -0.577  0.00  0.00     0.031 H 
ATOM     20  H   LIG d   1      10.491   9.278  -2.983  0.00  0.00     0.031 H 
ATOM     21  H   LIG d   1       9.423   8.699  -1.660  0.00  0.00     0.031 H 
ATOM     22  H   LIG d   1      12.892   9.511  -0.394  0.00  0.00     0.027 H 
ATOM     23  H   LIG d   1      11.512  10.357  -1.171  0.00  0.00     0.027 H 
ATOM     24  H   LIG d   1      11.283  10.389   1.278  0.00  0.00     0.027 H 
ATOM     25  H   LIG d   1       9.978   9.401   0.538  0.00  0.00     0.027 H 
ATOM     26  H   LIG d   1      10.965   8.197   2.489  0.00  0.00     0.031 H 
ATOM     27  H   LIG d   1      12.598   8.322   1.750  0.00  0.00     0.031 H 
ENDROOT
BRANCH  16  28
ATOM     28  C   LIG d   1      10.728   3.660  -2.868  0.00  0.00    -0.018 C 
ATOM     29  H   LIG d   1      11.766   3.725  -3.229  0.00  0.00     0.082 H 
ATOM     30  H   LIG d   1      10.722   3.661  -1.769  0.00  0.00     0.082 H 
BRANCH  28  31
ATOM     31  N   LIG d   1      10.116   2.418  -3.361  0.00  0.00     0.238 N 
ATOM     32  C   LIG d   1      10.873   1.871  -4.495  0.00  0.00    -0.019 C 
ATOM     33  C   LIG d   1      10.251   0.541  -4.926  0.00  0.00     0.040 C 
ATOM     34  H   LIG d   1      10.841   2.582  -5.334  0.00  0.00     0.083 H 
ATOM     35  H   LIG d   1      11.918   1.708  -4.192  0.00  0.00     0.083 H 
ATOM     36  N   LIG d   1       8.844   0.757  -5.291  0.00  0.00    -0.288 N 
ATOM     37  H   LIG d   1      10.308  -0.178  -4.096  0.00  0.00     0.048 H 
ATOM     38  H   LIG d   1      10.798   0.144  -5.794  0.00  0.00     0.048 H 
ATOM     39  C   LIG d   1       8.087   1.304  -4.157  0.00  0.00     0.040 C 
ATOM     40  C   LIG d   1       8.709   2.634  -3.726  0.00  0.00    -0.019 C 
ATOM     41  H   LIG d   1       8.119   0.595  -3.317  0.00  0.00     0.048 H 
ATOM     42  H   LIG d   1       7.041   1.468  -4.458  0.00  0.00     0.048 H 
ATOM     43  H   LIG d   1       8.161   3.032  -2.859  0.00  0.00     0.083 H 
ATOM     44  H   LIG d   1       8.651   3.353  -4.556  0.00  0.00     0.083 H 
ATOM     45  H   LIG d   1      10.146   1.681  -2.544  0.00  0.00     0.203 HD
BRANCH  36  46
ATOM     46  C   LIG d   1       8.232  -0.484  -5.784  0.00  0.00     0.025 C 
ATOM     47  H   LIG d   1       8.962  -1.033  -6.397  0.00  0.00     0.048 H 
ATOM     48  H   LIG d   1       7.929  -1.108  -4.929  0.00  0.00     0.048 H 
BRANCH  46  49
ATOM     49  C   LIG d   1       7.022  -0.152  -6.617  0.00  0.00    -0.030 A 
ATOM     50  C   LIG d   1       7.119   0.783  -7.631  0.00  0.00    -0.012 A 
ATOM     51  C   LIG d   1       6.006   1.090  -8.398  0.00  0.00     0.167 A 
ATOM     52  H   LIG d   1       8.060   1.273  -7.825  0.00  0.00     0.066 H 
ATOM     53  C   LIG d   1       4.795   0.451  -8.149  0.00  0.00     0.166 A 
ATOM     54  O   LIG d   1       5.836   1.958  -9.438  0.00  0.00    -0.453 OA
ATOM     55  C   LIG d   1       4.704  -0.481  -7.127  0.00  0.00    -0.016 A 
ATOM     56  O   LIG d   1       3.862   0.925  -9.027  0.00  0.00    -0.453 OA
ATOM     57  C   LIG d   1       5.817  -0.782  -6.366  0.00  0.00    -0.054 A 
ATOM     58  H   LIG d   1       3.764  -0.975  -6.929  0.00  0.00     0.066 H 
ATOM     59  H   LIG d   1       5.746  -1.513  -5.574  0.00  0.00     0.062 H 
ATOM     60  C   LIG d   1       4.412   2.148  -9.552  0.00  0.00     0.233 C 
ATOM     61  H   LIG d   1       4.112   3.027  -8.963  0.00  0.00     0.117 H 
ATOM     62  H   LIG d   1       4.146   2.305 -10.607  0.00  0.00     0.117 H 
ENDBRANCH  46  49
ENDBRANCH  36  46
ENDBRANCH  28  31
ENDBRANCH  16  28
BRANCH   1  63
ATOM     63  C   LIG d   1      10.983   5.713   1.462  0.00  0.00    -0.043 C 
ATOM     64  H   LIG d   1      11.773   4.987   1.221  0.00  0.00     0.027 H 
ATOM     65  H   LIG d   1      10.007   5.312   1.148  0.00  0.00     0.027 H 
ATOM     66  H   LIG d   1      10.972   5.898   2.546  0.00  0.00     0.027 H 
ENDBRANCH   1  63
BRANCH   9  67
ATOM     67  C   LIG d   1      12.700   7.926  -2.318  0.00  0.00    -0.056 C 
ATOM     68  H   LIG d   1      12.881   8.788  -2.977  0.00  0.00     0.024 H 
ATOM     69  H   LIG d   1      12.486   7.036  -2.927  0.00  0.00     0.024 H 
ATOM     70  H   LIG d   1      13.592   7.743  -1.702  0.00  0.00     0.024 H 
ENDBRANCH   9  67
TORSDOF 6
ENDMDL
