MODEL 1
REMARK VINA RESULT:      -6.5      0.000      0.000
REMARK  7 active torsions:
REMARK  status: ('A' for Active; 'I' for Inactive)
REMARK    1  A    between atoms: C_1  and  N_49 
REMARK    2  A    between atoms: C_6  and  O_24 
REMARK    3  A    between atoms: C_9  and  C_10 
REMARK    4  A    between atoms: C_10  and  N_11 
REMARK    5  A    between atoms: N_11  and  S_12 
REMARK    6  A    between atoms: S_12  and  C_15 
REMARK    7  A    between atoms: O_24  and  C_25 
ROOT
ATOM      1  C   LIG d   1       8.577   0.219  -6.867  0.00  0.00    -0.028 C 
ATOM      2  C   LIG d   1       7.422  -0.721  -6.520  0.00  0.00     0.014 C 
ATOM      3  C   LIG d   1       6.266  -0.483  -7.456  0.00  0.00    -0.022 A 
ATOM      4  C   LIG d   1       6.174   0.663  -8.216  0.00  0.00     0.046 A 
ATOM      5  C   LIG d   1       5.087   0.847  -9.064  0.00  0.00     0.174 A 
ATOM      6  C   LIG d   1       4.092  -0.116  -9.146  0.00  0.00     0.208 A 
ATOM      7  C   LIG d   1       4.191  -1.275  -8.384  0.00  0.00     0.175 A 
ATOM      8  C   LIG d   1       5.277  -1.452  -7.542  0.00  0.00     0.018 A 
ATOM      9  O   LIG d   1       3.106  -2.063  -8.643  0.00  0.00    -0.452 OA
ATOM     10  C   LIG d   1       2.134  -1.187  -9.253  0.00  0.00     0.233 C 
ATOM     11  O   LIG d   1       2.941  -0.174  -9.881  0.00  0.00    -0.449 OA
ATOM     12  C   LIG d   1       7.230   1.738  -8.163  0.00  0.00    -0.002 C 
ATOM     13  H   LIG d   1       9.337   0.168  -6.087  0.00  0.00     0.082 H 
ATOM     14  H   LIG d   1       9.013  -0.075  -7.822  0.00  0.00     0.082 H 
ATOM     15  H   LIG d   1       7.101  -0.535  -5.494  0.00  0.00     0.036 H 
ATOM     16  H   LIG d   1       7.757  -1.753  -6.612  0.00  0.00     0.036 H 
ATOM     17  H   LIG d   1       1.481  -0.744  -8.500  0.00  0.00     0.117 H 
ATOM     18  H   LIG d   1       1.549  -1.728  -9.997  0.00  0.00     0.117 H 
ATOM     19  H   LIG d   1       7.865   1.662  -9.046  0.00  0.00     0.087 H 
ATOM     20  H   LIG d   1       6.748   2.715  -8.153  0.00  0.00     0.087 H 
ATOM     21  N   LIG d   1       8.037   1.590  -6.942  0.00  0.00     0.237 N 
ATOM     22  H   LIG d   1       7.441   1.761  -6.123  0.00  0.00     0.203 HD
ENDROOT
BRANCH   8  23
ATOM     23  C   LIG d   1       5.383  -2.704  -6.712  0.00  0.00     0.046 C 
ATOM     24  H   LIG d   1       5.204  -3.574  -7.342  0.00  0.00     0.049 H 
ATOM     25  H   LIG d   1       6.381  -2.768  -6.277  0.00  0.00     0.049 H 
BRANCH  23  26
ATOM     26  N   LIG d   1       4.385  -2.666  -5.640  0.00  0.00    -0.185 N 
ATOM     27  H   LIG d   1       3.440  -2.684  -5.857  0.00  0.00     0.148 HD
BRANCH  26  28
ATOM     28  S   LIG d   1       4.871  -2.590  -4.059  0.00  0.00     0.059 S 
ATOM     29  O   LIG d   1       4.099  -3.551  -3.350  0.00  0.00    -0.153 OA
ATOM     30  O   LIG d   1       6.291  -2.613  -4.068  0.00  0.00    -0.153 OA
BRANCH  28  31
ATOM     31  C   LIG d   1       4.396  -1.009  -3.443  0.00  0.00     0.105 A 
ATOM     32  C   LIG d   1       4.821  -0.597  -2.194  0.00  0.00    -0.035 A 
ATOM     33  C   LIG d   1       4.449   0.644  -1.711  0.00  0.00    -0.060 A 
ATOM     34  H   LIG d   1       5.445  -1.245  -1.596  0.00  0.00     0.064 H 
ATOM     35  C   LIG d   1       3.650   1.472  -2.477  0.00  0.00    -0.062 A 
ATOM     36  H   LIG d   1       4.781   0.965  -0.735  0.00  0.00     0.062 H 
ATOM     37  C   LIG d   1       3.225   1.060  -3.726  0.00  0.00    -0.060 A 
ATOM     38  H   LIG d   1       3.359   2.441  -2.100  0.00  0.00     0.062 H 
ATOM     39  C   LIG d   1       3.602  -0.179  -4.211  0.00  0.00    -0.035 A 
ATOM     40  H   LIG d   1       2.601   1.707  -4.325  0.00  0.00     0.062 H 
ATOM     41  H   LIG d   1       3.273  -0.498  -5.190  0.00  0.00     0.064 H 
ENDBRANCH  28  31
ENDBRANCH  26  28
ENDBRANCH  23  26
ENDBRANCH   8  23
BRANCH   5  42
ATOM     42  O   LIG d   1       4.995   1.980  -9.811  0.00  0.00    -0.491 OA
BRANCH  42  43
ATOM     43  C   LIG d   1       4.002   2.932  -9.424  0.00  0.00     0.079 C 
ATOM     44  H   LIG d   1       4.372   3.940  -9.614  0.00  0.00     0.066 H 
ATOM     45  H   LIG d   1       3.785   2.820  -8.362  0.00  0.00     0.066 H 
ATOM     46  H   LIG d   1       3.093   2.764 -10.001  0.00  0.00     0.066 H 
ENDBRANCH  42  43
ENDBRANCH   5  42
BRANCH  21  47
ATOM     47  C   LIG d   1       9.144   2.574  -6.945  0.00  0.00    -0.043 C 
ATOM     48  H   LIG d   1       9.780   2.428  -6.071  0.00  0.00     0.078 H 
ATOM     49  H   LIG d   1       9.736   2.444  -7.851  0.00  0.00     0.078 H 
ATOM     50  H   LIG d   1       8.725   3.580  -6.925  0.00  0.00     0.078 H 
ENDBRANCH  21  47
TORSDOF 7
ENDMDL
MODEL 2
REMARK VINA RESULT:      -6.5      2.213      4.247
REMARK  7 active torsions:
REMARK  status: ('A' for Active; 'I' for Inactive)
REMARK    1  A    between atoms: C_1  and  N_49 
REMARK    2  A    between atoms: C_6  and  O_24 
REMARK    3  A    between atoms: C_9  and  C_10 
REMARK    4  A    between atoms: C_10  and  N_11 
REMARK    5  A    between atoms: N_11  and  S_12 
REMARK    6  A    between atoms: S_12  and  C_15 
REMARK    7  A    between atoms: O_24  and  C_25 
ROOT
ATOM      1  C   LIG d   1       5.029  -4.388  -7.596  0.00  0.00    -0.028 C 
ATOM      2  C   LIG d   1       5.772  -3.054  -7.678  0.00  0.00     0.014 C 
ATOM      3  C   LIG d   1       4.832  -1.968  -8.134  0.00  0.00    -0.022 A 
ATOM      4  C   LIG d   1       3.627  -2.259  -8.736  0.00  0.00     0.046 A 
ATOM      5  C   LIG d   1       2.790  -1.227  -9.148  0.00  0.00     0.174 A 
ATOM      6  C   LIG d   1       3.164   0.096  -8.958  0.00  0.00     0.208 A 
ATOM      7  C   LIG d   1       4.377   0.387  -8.343  0.00  0.00     0.175 A 
ATOM      8  C   LIG d   1       5.205  -0.647  -7.935  0.00  0.00     0.018 A 
ATOM      9  O   LIG d   1       4.513   1.743  -8.264  0.00  0.00    -0.452 OA
ATOM     10  C   LIG d   1       3.566   2.278  -9.214  0.00  0.00     0.233 C 
ATOM     11  O   LIG d   1       2.540   1.270  -9.270  0.00  0.00    -0.449 OA
ATOM     12  C   LIG d   1       3.175  -3.679  -8.963  0.00  0.00    -0.002 C 
ATOM     13  H   LIG d   1       5.743  -5.195  -7.439  0.00  0.00     0.082 H 
ATOM     14  H   LIG d   1       4.319  -4.360  -6.769  0.00  0.00     0.082 H 
ATOM     15  H   LIG d   1       6.594  -3.141  -8.389  0.00  0.00     0.036 H 
ATOM     16  H   LIG d   1       6.169  -2.801  -6.696  0.00  0.00     0.036 H 
ATOM     17  H   LIG d   1       4.028   2.411 -10.193  0.00  0.00     0.117 H 
ATOM     18  H   LIG d   1       3.158   3.222  -8.852  0.00  0.00     0.117 H 
ATOM     19  H   LIG d   1       2.428  -3.943  -8.214  0.00  0.00     0.087 H 
ATOM     20  H   LIG d   1       2.731  -3.762  -9.955  0.00  0.00     0.087 H 
ATOM     21  N   LIG d   1       4.326  -4.593  -8.878  0.00  0.00     0.237 N 
ATOM     22  H   LIG d   1       4.973  -4.391  -9.650  0.00  0.00     0.203 HD
ENDROOT
BRANCH   8  23
ATOM     23  C   LIG d   1       6.521  -0.333  -7.273  0.00  0.00     0.046 C 
ATOM     24  H   LIG d   1       6.966  -1.253  -6.896  0.00  0.00     0.049 H 
ATOM     25  H   LIG d   1       7.193   0.126  -7.999  0.00  0.00     0.049 H 
BRANCH  23  26
ATOM     26  N   LIG d   1       6.299   0.594  -6.160  0.00  0.00    -0.185 N 
ATOM     27  H   LIG d   1       5.764   1.392  -6.293  0.00  0.00     0.148 HD
BRANCH  26  28
ATOM     28  S   LIG d   1       6.962   0.279  -4.676  0.00  0.00     0.059 S 
ATOM     29  O   LIG d   1       8.054  -0.604  -4.897  0.00  0.00    -0.153 OA
ATOM     30  O   LIG d   1       7.117   1.533  -4.026  0.00  0.00    -0.153 OA
BRANCH  28  31
ATOM     31  C   LIG d   1       5.765  -0.624  -3.751  0.00  0.00     0.105 A 
ATOM     32  C   LIG d   1       5.241  -0.090  -2.589  0.00  0.00    -0.035 A 
ATOM     33  C   LIG d   1       4.301  -0.798  -1.864  0.00  0.00    -0.060 A 
ATOM     34  H   LIG d   1       5.567   0.882  -2.248  0.00  0.00     0.064 H 
ATOM     35  C   LIG d   1       3.885  -2.042  -2.301  0.00  0.00    -0.062 A 
ATOM     36  H   LIG d   1       3.893  -0.380  -0.955  0.00  0.00     0.062 H 
ATOM     37  C   LIG d   1       4.408  -2.576  -3.464  0.00  0.00    -0.060 A 
ATOM     38  H   LIG d   1       3.151  -2.595  -1.734  0.00  0.00     0.062 H 
ATOM     39  C   LIG d   1       5.344  -1.865  -4.192  0.00  0.00    -0.035 A 
ATOM     40  H   LIG d   1       4.083  -3.548  -3.806  0.00  0.00     0.062 H 
ATOM     41  H   LIG d   1       5.749  -2.281  -5.103  0.00  0.00     0.064 H 
ENDBRANCH  28  31
ENDBRANCH  26  28
ENDBRANCH  23  26
ENDBRANCH   8  23
BRANCH   5  42
ATOM     42  O   LIG d   1       1.604  -1.515  -9.745  0.00  0.00    -0.491 OA
BRANCH  42  43
ATOM     43  C   LIG d   1       1.520  -1.304 -11.157  0.00  0.00     0.079 C 
ATOM     44  H   LIG d   1       0.477  -1.177 -11.444  0.00  0.00     0.066 H 
ATOM     45  H   LIG d   1       1.939  -2.165 -11.679  0.00  0.00     0.066 H 
ATOM     46  H   LIG d   1       2.082  -0.409 -11.424  0.00  0.00     0.066 H 
ENDBRANCH  42  43
ENDBRANCH   5  42
BRANCH  21  47
ATOM     47  C   LIG d   1       3.868  -5.997  -8.987  0.00  0.00    -0.043 C 
ATOM     48  H   LIG d   1       3.812  -6.295 -10.034  0.00  0.00     0.078 H 
ATOM     49  H   LIG d   1       4.570  -6.644  -8.461  0.00  0.00     0.078 H 
ATOM     50  H   LIG d   1       2.881  -6.084  -8.531  0.00  0.00     0.078 H 
ENDBRANCH  21  47
TORSDOF 7
ENDMDL
MODEL 3
REMARK VINA RESULT:      -6.4      4.366      6.583
REMARK  7 active torsions:
REMARK  status: ('A' for Active; 'I' for Inactive)
REMARK    1  A    between atoms: C_1  and  N_49 
REMARK    2  A    between atoms: C_6  and  O_24 
REMARK    3  A    between atoms: C_9  and  C_10 
REMARK    4  A    between atoms: C_10  and  N_11 
REMARK    5  A    between atoms: N_11  and  S_12 
REMARK    6  A    between atoms: S_12  and  C_15 
REMARK    7  A    between atoms: O_24  and  C_25 
ROOT
ATOM      1  C   LIG d   1      10.246   6.323  -2.145  0.00  0.00    -0.028 C 
ATOM      2  C   LIG d   1       9.593   5.089  -2.769  0.00  0.00     0.014 C 
ATOM      3  C   LIG d   1       9.673   5.169  -4.272  0.00  0.00    -0.022 A 
ATOM      4  C   LIG d   1       9.943   6.355  -4.920  0.00  0.00     0.046 A 
ATOM      5  C   LIG d   1      10.002   6.387  -6.310  0.00  0.00     0.174 A 
ATOM      6  C   LIG d   1       9.786   5.232  -7.047  0.00  0.00     0.208 A 
ATOM      7  C   LIG d   1       9.522   4.035  -6.390  0.00  0.00     0.175 A 
ATOM      8  C   LIG d   1       9.465   4.011  -5.006  0.00  0.00     0.018 A 
ATOM      9  O   LIG d   1       9.356   3.052  -7.322  0.00  0.00    -0.452 OA
ATOM     10  C   LIG d   1       9.106   3.741  -8.566  0.00  0.00     0.233 C 
ATOM     11  O   LIG d   1       9.783   5.000  -8.394  0.00  0.00    -0.449 OA
ATOM     12  C   LIG d   1      10.186   7.636  -4.165  0.00  0.00    -0.002 C 
ATOM     13  H   LIG d   1      10.033   6.349  -1.077  0.00  0.00     0.082 H 
ATOM     14  H   LIG d   1      11.324   6.285  -2.303  0.00  0.00     0.082 H 
ATOM     15  H   LIG d   1       8.547   5.041  -2.465  0.00  0.00     0.036 H 
ATOM     16  H   LIG d   1      10.111   4.195  -2.426  0.00  0.00     0.036 H 
ATOM     17  H   LIG d   1       8.038   3.897  -8.718  0.00  0.00     0.117 H 
ATOM     18  H   LIG d   1       9.535   3.186  -9.400  0.00  0.00     0.117 H 
ATOM     19  H   LIG d   1      11.255   7.846  -4.146  0.00  0.00     0.087 H 
ATOM     20  H   LIG d   1       9.670   8.454  -4.667  0.00  0.00     0.087 H 
ATOM     21  N   LIG d   1       9.667   7.517  -2.793  0.00  0.00     0.237 N 
ATOM     22  H   LIG d   1       8.645   7.417  -2.827  0.00  0.00     0.203 HD
ENDROOT
BRANCH   8  23
ATOM     23  C   LIG d   1       9.173   2.716  -4.292  0.00  0.00     0.046 C 
ATOM     24  H   LIG d   1       9.845   1.941  -4.658  0.00  0.00     0.049 H 
ATOM     25  H   LIG d   1       9.321   2.851  -3.221  0.00  0.00     0.049 H 
BRANCH  23  26
ATOM     26  N   LIG d   1       7.786   2.320  -4.548  0.00  0.00    -0.185 N 
ATOM     27  H   LIG d   1       7.081   2.986  -4.535  0.00  0.00     0.148 HD
BRANCH  26  28
ATOM     28  S   LIG d   1       7.422   0.734  -4.857  0.00  0.00     0.059 S 
ATOM     29  O   LIG d   1       6.759   0.707  -6.114  0.00  0.00    -0.153 OA
ATOM     30  O   LIG d   1       8.604  -0.011  -4.604  0.00  0.00    -0.153 OA
BRANCH  28  31
ATOM     31  C   LIG d   1       6.239   0.227  -3.653  0.00  0.00     0.105 A 
ATOM     32  C   LIG d   1       5.956  -1.115  -3.484  0.00  0.00    -0.035 A 
ATOM     33  C   LIG d   1       5.028  -1.512  -2.539  0.00  0.00    -0.060 A 
ATOM     34  H   LIG d   1       6.460  -1.853  -4.090  0.00  0.00     0.064 H 
ATOM     35  C   LIG d   1       4.383  -0.567  -1.764  0.00  0.00    -0.062 A 
ATOM     36  H   LIG d   1       4.807  -2.561  -2.408  0.00  0.00     0.062 H 
ATOM     37  C   LIG d   1       4.666   0.775  -1.933  0.00  0.00    -0.060 A 
ATOM     38  H   LIG d   1       3.658  -0.878  -1.026  0.00  0.00     0.062 H 
ATOM     39  C   LIG d   1       5.598   1.172  -2.874  0.00  0.00    -0.035 A 
ATOM     40  H   LIG d   1       4.162   1.514  -1.327  0.00  0.00     0.062 H 
ATOM     41  H   LIG d   1       5.822   2.222  -3.002  0.00  0.00     0.064 H 
ENDBRANCH  28  31
ENDBRANCH  26  28
ENDBRANCH  23  26
ENDBRANCH   8  23
BRANCH   5  42
ATOM     42  O   LIG d   1      10.265   7.558  -6.949  0.00  0.00    -0.491 OA
BRANCH  42  43
ATOM     43  C   LIG d   1       9.151   8.250  -7.519  0.00  0.00     0.079 C 
ATOM     44  H   LIG d   1       8.433   7.526  -7.905  0.00  0.00     0.066 H 
ATOM     45  H   LIG d   1       9.497   8.887  -8.333  0.00  0.00     0.066 H 
ATOM     46  H   LIG d   1       8.675   8.863  -6.755  0.00  0.00     0.066 H 
ENDBRANCH  42  43
ENDBRANCH   5  42
BRANCH  21  47
ATOM     47  C   LIG d   1      10.005   8.731  -2.015  0.00  0.00    -0.043 C 
ATOM     48  H   LIG d   1       9.432   8.758  -1.089  0.00  0.00     0.078 H 
ATOM     49  H   LIG d   1      11.070   8.722  -1.785  0.00  0.00     0.078 H 
ATOM     50  H   LIG d   1       9.770   9.612  -2.614  0.00  0.00     0.078 H 
ENDBRANCH  21  47
TORSDOF 7
ENDMDL
MODEL 4
REMARK VINA RESULT:      -6.3      4.139      6.477
REMARK  7 active torsions:
REMARK  status: ('A' for Active; 'I' for Inactive)
REMARK    1  A    between atoms: C_1  and  N_49 
REMARK    2  A    between atoms: C_6  and  O_24 
REMARK    3  A    between atoms: C_9  and  C_10 
REMARK    4  A    between atoms: C_10  and  N_11 
REMARK    5  A    between atoms: N_11  and  S_12 
REMARK    6  A    between atoms: S_12  and  C_15 
REMARK    7  A    between atoms: O_24  and  C_25 
ROOT
ATOM      1  C   LIG d   1       9.400   2.956  -8.658  0.00  0.00    -0.028 C 
ATOM      2  C   LIG d   1       9.866   2.409  -7.309  0.00  0.00     0.014 C 
ATOM      3  C   LIG d   1       9.794   3.490  -6.262  0.00  0.00    -0.022 A 
ATOM      4  C   LIG d   1       9.697   4.822  -6.603  0.00  0.00     0.046 A 
ATOM      5  C   LIG d   1       9.640   5.790  -5.606  0.00  0.00     0.174 A 
ATOM      6  C   LIG d   1       9.684   5.422  -4.269  0.00  0.00     0.208 A 
ATOM      7  C   LIG d   1       9.773   4.077  -3.928  0.00  0.00     0.175 A 
ATOM      8  C   LIG d   1       9.830   3.118  -4.926  0.00  0.00     0.018 A 
ATOM      9  O   LIG d   1       9.792   3.971  -2.567  0.00  0.00    -0.452 OA
ATOM     10  C   LIG d   1      10.136   5.288  -2.085  0.00  0.00     0.233 C 
ATOM     11  O   LIG d   1       9.650   6.163  -3.121  0.00  0.00    -0.449 OA
ATOM     12  C   LIG d   1       9.645   5.272  -8.041  0.00  0.00    -0.002 C 
ATOM     13  H   LIG d   1       9.617   2.231  -9.442  0.00  0.00     0.082 H 
ATOM     14  H   LIG d   1       8.328   3.149  -8.624  0.00  0.00     0.082 H 
ATOM     15  H   LIG d   1      10.894   2.058  -7.396  0.00  0.00     0.036 H 
ATOM     16  H   LIG d   1       9.224   1.578  -7.016  0.00  0.00     0.036 H 
ATOM     17  H   LIG d   1      11.215   5.393  -1.970  0.00  0.00     0.117 H 
ATOM     18  H   LIG d   1       9.629   5.492  -1.142  0.00  0.00     0.117 H 
ATOM     19  H   LIG d   1       8.617   5.526  -8.301  0.00  0.00     0.087 H 
ATOM     20  H   LIG d   1      10.273   6.155  -8.165  0.00  0.00     0.087 H 
ATOM     21  N   LIG d   1      10.145   4.204  -8.921  0.00  0.00     0.237 N 
ATOM     22  H   LIG d   1      11.141   4.047  -8.726  0.00  0.00     0.203 HD
ENDROOT
BRANCH   8  23
ATOM     23  C   LIG d   1       9.932   1.661  -4.558  0.00  0.00     0.046 C 
ATOM     24  H   LIG d   1      10.050   1.065  -5.463  0.00  0.00     0.049 H 
ATOM     25  H   LIG d   1      10.794   1.510  -3.908  0.00  0.00     0.049 H 
BRANCH  23  26
ATOM     26  N   LIG d   1       8.714   1.248  -3.857  0.00  0.00    -0.185 N 
ATOM     27  H   LIG d   1       8.554   1.544  -2.947  0.00  0.00     0.148 HD
BRANCH  26  28
ATOM     28  S   LIG d   1       7.611   0.275  -4.618  0.00  0.00     0.059 S 
ATOM     29  O   LIG d   1       7.077   1.031  -5.697  0.00  0.00    -0.153 OA
ATOM     30  O   LIG d   1       8.243  -0.983  -4.810  0.00  0.00    -0.153 OA
BRANCH  28  31
ATOM     31  C   LIG d   1       6.286   0.006  -3.487  0.00  0.00     0.105 A 
ATOM     32  C   LIG d   1       5.697   1.078  -2.844  0.00  0.00    -0.035 A 
ATOM     33  C   LIG d   1       4.658   0.867  -1.958  0.00  0.00    -0.060 A 
ATOM     34  H   LIG d   1       6.051   2.081  -3.033  0.00  0.00     0.064 H 
ATOM     35  C   LIG d   1       4.207  -0.417  -1.715  0.00  0.00    -0.062 A 
ATOM     36  H   LIG d   1       4.199   1.705  -1.454  0.00  0.00     0.062 H 
ATOM     37  C   LIG d   1       4.795  -1.489  -2.359  0.00  0.00    -0.060 A 
ATOM     38  H   LIG d   1       3.395  -0.582  -1.022  0.00  0.00     0.062 H 
ATOM     39  C   LIG d   1       5.831  -1.277  -3.250  0.00  0.00    -0.035 A 
ATOM     40  H   LIG d   1       4.442  -2.493  -2.170  0.00  0.00     0.062 H 
ATOM     41  H   LIG d   1       6.287  -2.116  -3.756  0.00  0.00     0.064 H 
ENDBRANCH  28  31
ENDBRANCH  26  28
ENDBRANCH  23  26
ENDBRANCH   8  23
BRANCH   5  42
ATOM     42  O   LIG d   1       9.548   7.104  -5.943  0.00  0.00    -0.491 OA
BRANCH  42  43
ATOM     43  C   LIG d   1      10.739   7.887  -5.830  0.00  0.00     0.079 C 
ATOM     44  H   LIG d   1      11.444   7.591  -6.607  0.00  0.00     0.066 H 
ATOM     45  H   LIG d   1      11.189   7.725  -4.850  0.00  0.00     0.066 H 
ATOM     46  H   LIG d   1      10.492   8.942  -5.947  0.00  0.00     0.066 H 
ENDBRANCH  42  43
ENDBRANCH   5  42
BRANCH  21  47
ATOM     47  C   LIG d   1       9.988   4.601 -10.339  0.00  0.00    -0.043 C 
ATOM     48  H   LIG d   1      10.308   5.633 -10.479  0.00  0.00     0.078 H 
ATOM     49  H   LIG d   1      10.593   3.944 -10.963  0.00  0.00     0.078 H 
ATOM     50  H   LIG d   1       8.939   4.504 -10.620  0.00  0.00     0.078 H 
ENDBRANCH  21  47
TORSDOF 7
ENDMDL
MODEL 5
REMARK VINA RESULT:      -6.3      3.311      5.955
REMARK  7 active torsions:
REMARK  status: ('A' for Active; 'I' for Inactive)
REMARK    1  A    between atoms: C_1  and  N_49 
REMARK    2  A    between atoms: C_6  and  O_24 
REMARK    3  A    between atoms: C_9  and  C_10 
REMARK    4  A    between atoms: C_10  and  N_11 
REMARK    5  A    between atoms: N_11  and  S_12 
REMARK    6  A    between atoms: S_12  and  C_15 
REMARK    7  A    between atoms: O_24  and  C_25 
ROOT
ATOM      1  C   LIG d   1       1.648  -1.349 -11.822  0.00  0.00    -0.028 C 
ATOM      2  C   LIG d   1       2.290  -1.277 -10.436  0.00  0.00     0.014 C 
ATOM      3  C   LIG d   1       2.555  -2.668  -9.919  0.00  0.00    -0.022 A 
ATOM      4  C   LIG d   1       1.943  -3.774 -10.470  0.00  0.00     0.046 A 
ATOM      5  C   LIG d   1       2.210  -5.040  -9.960  0.00  0.00     0.174 A 
ATOM      6  C   LIG d   1       3.086  -5.195  -8.895  0.00  0.00     0.208 A 
ATOM      7  C   LIG d   1       3.708  -4.079  -8.347  0.00  0.00     0.175 A 
ATOM      8  C   LIG d   1       3.438  -2.821  -8.861  0.00  0.00     0.018 A 
ATOM      9  O   LIG d   1       4.522  -4.487  -7.330  0.00  0.00    -0.452 OA
ATOM     10  C   LIG d   1       4.070  -5.816  -6.988  0.00  0.00     0.233 C 
ATOM     11  O   LIG d   1       3.506  -6.306  -8.219  0.00  0.00    -0.449 OA
ATOM     12  C   LIG d   1       0.984  -3.657 -11.627  0.00  0.00    -0.002 C 
ATOM     13  H   LIG d   1       1.300  -0.359 -12.115  0.00  0.00     0.082 H 
ATOM     14  H   LIG d   1       2.380  -1.709 -12.546  0.00  0.00     0.082 H 
ATOM     15  H   LIG d   1       1.617  -0.760  -9.752  0.00  0.00     0.036 H 
ATOM     16  H   LIG d   1       3.230  -0.731 -10.502  0.00  0.00     0.036 H 
ATOM     17  H   LIG d   1       3.312  -5.782  -6.206  0.00  0.00     0.117 H 
ATOM     18  H   LIG d   1       4.912  -6.435  -6.679  0.00  0.00     0.117 H 
ATOM     19  H   LIG d   1       1.491  -3.955 -12.546  0.00  0.00     0.087 H 
ATOM     20  H   LIG d   1       0.133  -4.316 -11.459  0.00  0.00     0.087 H 
ATOM     21  N   LIG d   1       0.499  -2.272 -11.741  0.00  0.00     0.237 N 
ATOM     22  H   LIG d   1      -0.057  -2.042 -10.909  0.00  0.00     0.203 HD
ENDROOT
BRANCH   8  23
ATOM     23  C   LIG d   1       4.107  -1.610  -8.264  0.00  0.00     0.046 C 
ATOM     24  H   LIG d   1       5.186  -1.693  -8.390  0.00  0.00     0.049 H 
ATOM     25  H   LIG d   1       3.749  -0.712  -8.768  0.00  0.00     0.049 H 
BRANCH  23  26
ATOM     26  N   LIG d   1       3.787  -1.529  -6.837  0.00  0.00    -0.185 N 
ATOM     27  H   LIG d   1       3.415  -2.300  -6.379  0.00  0.00     0.148 HD
BRANCH  26  28
ATOM     28  S   LIG d   1       4.061  -0.124  -6.005  0.00  0.00     0.059 S 
ATOM     29  O   LIG d   1       5.349   0.335  -6.396  0.00  0.00    -0.153 OA
ATOM     30  O   LIG d   1       2.893   0.671  -6.154  0.00  0.00    -0.153 OA
BRANCH  28  31
ATOM     31  C   LIG d   1       4.173  -0.542  -4.297  0.00  0.00     0.105 A 
ATOM     32  C   LIG d   1       3.992  -1.851  -3.892  0.00  0.00    -0.035 A 
ATOM     33  C   LIG d   1       4.080  -2.179  -2.552  0.00  0.00    -0.060 A 
ATOM     34  H   LIG d   1       3.781  -2.618  -4.624  0.00  0.00     0.064 H 
ATOM     35  C   LIG d   1       4.349  -1.197  -1.617  0.00  0.00    -0.062 A 
ATOM     36  H   LIG d   1       3.937  -3.202  -2.236  0.00  0.00     0.062 H 
ATOM     37  C   LIG d   1       4.531   0.112  -2.022  0.00  0.00    -0.060 A 
ATOM     38  H   LIG d   1       4.417  -1.454  -0.570  0.00  0.00     0.062 H 
ATOM     39  C   LIG d   1       4.448   0.438  -3.363  0.00  0.00    -0.035 A 
ATOM     40  H   LIG d   1       4.741   0.879  -1.291  0.00  0.00     0.062 H 
ATOM     41  H   LIG d   1       4.594   1.461  -3.679  0.00  0.00     0.064 H 
ENDBRANCH  28  31
ENDBRANCH  26  28
ENDBRANCH  23  26
ENDBRANCH   8  23
BRANCH   5  42
ATOM     42  O   LIG d   1       1.603  -6.129 -10.501  0.00  0.00    -0.491 OA
BRANCH  42  43
ATOM     43  C   LIG d   1       2.395  -6.952 -11.361  0.00  0.00     0.079 C 
ATOM     44  H   LIG d   1       2.148  -8.000 -11.191  0.00  0.00     0.066 H 
ATOM     45  H   LIG d   1       3.452  -6.789 -11.149  0.00  0.00     0.066 H 
ATOM     46  H   LIG d   1       2.189  -6.694 -12.400  0.00  0.00     0.066 H 
ENDBRANCH  42  43
ENDBRANCH   5  42
BRANCH  21  47
ATOM     47  C   LIG d   1      -0.352  -2.130 -12.944  0.00  0.00    -0.043 C 
ATOM     48  H   LIG d   1      -1.302  -2.645 -12.797  0.00  0.00     0.078 H 
ATOM     49  H   LIG d   1      -0.537  -1.072 -13.129  0.00  0.00     0.078 H 
ATOM     50  H   LIG d   1       0.167  -2.564 -13.799  0.00  0.00     0.078 H 
ENDBRANCH  21  47
TORSDOF 7
ENDMDL
MODEL 6
REMARK VINA RESULT:      -6.0      3.221      6.062
REMARK  7 active torsions:
REMARK  status: ('A' for Active; 'I' for Inactive)
REMARK    1  A    between atoms: C_1  and  N_49 
REMARK    2  A    between atoms: C_6  and  O_24 
REMARK    3  A    between atoms: C_9  and  C_10 
REMARK    4  A    between atoms: C_10  and  N_11 
REMARK    5  A    between atoms: N_11  and  S_12 
REMARK    6  A    between atoms: S_12  and  C_15 
REMARK    7  A    between atoms: O_24  and  C_25 
ROOT
ATOM      1  C   LIG d   1       5.630  -2.267  -8.439  0.00  0.00    -0.028 C 
ATOM      2  C   LIG d   1       6.533  -1.614  -7.392  0.00  0.00     0.014 C 
ATOM      3  C   LIG d   1       7.097  -2.665  -6.471  0.00  0.00    -0.022 A 
ATOM      4  C   LIG d   1       6.547  -3.927  -6.390  0.00  0.00     0.046 A 
ATOM      5  C   LIG d   1       7.094  -4.867  -5.523  0.00  0.00     0.174 A 
ATOM      6  C   LIG d   1       8.188  -4.540  -4.735  0.00  0.00     0.208 A 
ATOM      7  C   LIG d   1       8.746  -3.269  -4.825  0.00  0.00     0.175 A 
ATOM      8  C   LIG d   1       8.196  -2.338  -5.692  0.00  0.00     0.018 A 
ATOM      9  O   LIG d   1       9.806  -3.195  -3.968  0.00  0.00    -0.452 OA
ATOM     10  C   LIG d   1       9.631  -4.294  -3.048  0.00  0.00     0.233 C 
ATOM     11  O   LIG d   1       8.896  -5.263  -3.817  0.00  0.00    -0.449 OA
ATOM     12  C   LIG d   1       5.359  -4.330  -7.225  0.00  0.00    -0.002 C 
ATOM     13  H   LIG d   1       5.090  -1.496  -8.988  0.00  0.00     0.082 H 
ATOM     14  H   LIG d   1       6.236  -2.852  -9.130  0.00  0.00     0.082 H 
ATOM     15  H   LIG d   1       5.953  -0.898  -6.810  0.00  0.00     0.036 H 
ATOM     16  H   LIG d   1       7.350  -1.096  -7.893  0.00  0.00     0.036 H 
ATOM     17  H   LIG d   1       9.058  -3.984  -2.174  0.00  0.00     0.117 H 
ATOM     18  H   LIG d   1      10.599  -4.696  -2.748  0.00  0.00     0.117 H 
ATOM     19  H   LIG d   1       5.697  -4.948  -8.057  0.00  0.00     0.087 H 
ATOM     20  H   LIG d   1       4.666  -4.906  -6.612  0.00  0.00     0.087 H 
ATOM     21  N   LIG d   1       4.668  -3.133  -7.729  0.00  0.00     0.237 N 
ATOM     22  H   LIG d   1       4.273  -2.614  -6.936  0.00  0.00     0.203 HD
ENDROOT
BRANCH   8  23
ATOM     23  C   LIG d   1       8.796  -0.959  -5.786  0.00  0.00     0.046 C 
ATOM     24  H   LIG d   1       9.842  -1.038  -6.080  0.00  0.00     0.049 H 
ATOM     25  H   LIG d   1       8.252  -0.377  -6.530  0.00  0.00     0.049 H 
BRANCH  23  26
ATOM     26  N   LIG d   1       8.704  -0.296  -4.483  0.00  0.00    -0.185 N 
ATOM     27  H   LIG d   1       9.267  -0.590  -3.749  0.00  0.00     0.148 HD
BRANCH  26  28
ATOM     28  S   LIG d   1       7.640   0.953  -4.263  0.00  0.00     0.059 S 
ATOM     29  O   LIG d   1       8.299   1.908  -3.441  0.00  0.00    -0.153 OA
ATOM     30  O   LIG d   1       7.126   1.280  -5.546  0.00  0.00    -0.153 OA
BRANCH  28  31
ATOM     31  C   LIG d   1       6.288   0.327  -3.322  0.00  0.00     0.105 A 
ATOM     32  C   LIG d   1       6.078  -1.036  -3.236  0.00  0.00    -0.035 A 
ATOM     33  C   LIG d   1       5.018  -1.527  -2.497  0.00  0.00    -0.060 A 
ATOM     34  H   LIG d   1       6.743  -1.718  -3.746  0.00  0.00     0.064 H 
ATOM     35  C   LIG d   1       4.167  -0.654  -1.845  0.00  0.00    -0.062 A 
ATOM     36  H   LIG d   1       4.853  -2.593  -2.431  0.00  0.00     0.062 H 
ATOM     37  C   LIG d   1       4.377   0.709  -1.931  0.00  0.00    -0.060 A 
ATOM     38  H   LIG d   1       3.338  -1.038  -1.269  0.00  0.00     0.062 H 
ATOM     39  C   LIG d   1       5.442   1.200  -2.665  0.00  0.00    -0.035 A 
ATOM     40  H   LIG d   1       3.713   1.392  -1.421  0.00  0.00     0.062 H 
ATOM     41  H   LIG d   1       5.608   2.266  -2.728  0.00  0.00     0.064 H 
ENDBRANCH  28  31
ENDBRANCH  26  28
ENDBRANCH  23  26
ENDBRANCH   8  23
BRANCH   5  42
ATOM     42  O   LIG d   1       6.548  -6.109  -5.441  0.00  0.00    -0.491 OA
BRANCH  42  43
ATOM     43  C   LIG d   1       7.254  -7.171  -6.086  0.00  0.00     0.079 C 
ATOM     44  H   LIG d   1       8.121  -6.766  -6.609  0.00  0.00     0.066 H 
ATOM     45  H   LIG d   1       6.596  -7.663  -6.802  0.00  0.00     0.066 H 
ATOM     46  H   LIG d   1       7.585  -7.894  -5.341  0.00  0.00     0.066 H 
ENDBRANCH  42  43
ENDBRANCH   5  42
BRANCH  21  47
ATOM     47  C   LIG d   1       3.570  -3.527  -8.641  0.00  0.00    -0.043 C 
ATOM     48  H   LIG d   1       3.961  -3.724  -9.639  0.00  0.00     0.078 H 
ATOM     49  H   LIG d   1       3.089  -4.425  -8.255  0.00  0.00     0.078 H 
ATOM     50  H   LIG d   1       2.841  -2.717  -8.689  0.00  0.00     0.078 H 
ENDBRANCH  21  47
TORSDOF 7
ENDMDL
MODEL 7
REMARK VINA RESULT:      -6.0      3.107      7.101
REMARK  7 active torsions:
REMARK  status: ('A' for Active; 'I' for Inactive)
REMARK    1  A    between atoms: C_1  and  N_49 
REMARK    2  A    between atoms: C_6  and  O_24 
REMARK    3  A    between atoms: C_9  and  C_10 
REMARK    4  A    between atoms: C_10  and  N_11 
REMARK    5  A    between atoms: N_11  and  S_12 
REMARK    6  A    between atoms: S_12  and  C_15 
REMARK    7  A    between atoms: O_24  and  C_25 
ROOT
ATOM      1  C   LIG d   1       2.517  -3.163 -10.338  0.00  0.00    -0.028 C 
ATOM      2  C   LIG d   1       2.422  -1.931  -9.438  0.00  0.00     0.014 C 
ATOM      3  C   LIG d   1       3.374  -2.067  -8.277  0.00  0.00    -0.022 A 
ATOM      4  C   LIG d   1       3.918  -3.284  -7.926  0.00  0.00     0.046 A 
ATOM      5  C   LIG d   1       4.788  -3.368  -6.844  0.00  0.00     0.174 A 
ATOM      6  C   LIG d   1       5.108  -2.233  -6.113  0.00  0.00     0.208 A 
ATOM      7  C   LIG d   1       4.563  -1.005  -6.474  0.00  0.00     0.175 A 
ATOM      8  C   LIG d   1       3.698  -0.930  -7.553  0.00  0.00     0.018 A 
ATOM      9  O   LIG d   1       5.030  -0.051  -5.617  0.00  0.00    -0.452 OA
ATOM     10  C   LIG d   1       5.534  -0.776  -4.474  0.00  0.00     0.233 C 
ATOM     11  O   LIG d   1       5.915  -2.050  -5.025  0.00  0.00    -0.449 OA
ATOM     12  C   LIG d   1       3.603  -4.545  -8.690  0.00  0.00    -0.002 C 
ATOM     13  H   LIG d   1       1.712  -3.143 -11.072  0.00  0.00     0.082 H 
ATOM     14  H   LIG d   1       3.480  -3.167 -10.851  0.00  0.00     0.082 H 
ATOM     15  H   LIG d   1       1.404  -1.837  -9.061  0.00  0.00     0.036 H 
ATOM     16  H   LIG d   1       2.678  -1.043 -10.014  0.00  0.00     0.036 H 
ATOM     17  H   LIG d   1       4.758  -0.901  -3.719  0.00  0.00     0.117 H 
ATOM     18  H   LIG d   1       6.400  -0.266  -4.053  0.00  0.00     0.117 H 
ATOM     19  H   LIG d   1       4.442  -4.790  -9.342  0.00  0.00     0.087 H 
ATOM     20  H   LIG d   1       3.447  -5.363  -7.987  0.00  0.00     0.087 H 
ATOM     21  N   LIG d   1       2.378  -4.359  -9.484  0.00  0.00     0.237 N 
ATOM     22  H   LIG d   1       1.583  -4.226  -8.849  0.00  0.00     0.203 HD
ENDROOT
BRANCH   8  23
ATOM     23  C   LIG d   1       3.103   0.399  -7.942  0.00  0.00     0.046 C 
ATOM     24  H   LIG d   1       2.640   0.316  -8.925  0.00  0.00     0.049 H 
ATOM     25  H   LIG d   1       2.351   0.689  -7.208  0.00  0.00     0.049 H 
BRANCH  23  26
ATOM     26  N   LIG d   1       4.160   1.413  -7.986  0.00  0.00    -0.185 N 
ATOM     27  H   LIG d   1       4.583   1.707  -7.164  0.00  0.00     0.148 HD
BRANCH  26  28
ATOM     28  S   LIG d   1       4.630   2.057  -9.437  0.00  0.00     0.059 S 
ATOM     29  O   LIG d   1       3.543   2.845  -9.904  0.00  0.00    -0.153 OA
ATOM     30  O   LIG d   1       5.930   2.595  -9.241  0.00  0.00    -0.153 OA
BRANCH  28  31
ATOM     31  C   LIG d   1       4.804   0.718 -10.569  0.00  0.00     0.105 A 
ATOM     32  C   LIG d   1       3.918   0.583 -11.621  0.00  0.00    -0.035 A 
ATOM     33  C   LIG d   1       4.055  -0.468 -12.510  0.00  0.00    -0.060 A 
ATOM     34  H   LIG d   1       3.118   1.297 -11.748  0.00  0.00     0.064 H 
ATOM     35  C   LIG d   1       5.078  -1.382 -12.346  0.00  0.00    -0.062 A 
ATOM     36  H   LIG d   1       3.361  -0.574 -13.331  0.00  0.00     0.062 H 
ATOM     37  C   LIG d   1       5.965  -1.247 -11.295  0.00  0.00    -0.060 A 
ATOM     38  H   LIG d   1       5.185  -2.203 -13.040  0.00  0.00     0.062 H 
ATOM     39  C   LIG d   1       5.831  -0.193 -10.409  0.00  0.00    -0.035 A 
ATOM     40  H   LIG d   1       6.765  -1.961 -11.166  0.00  0.00     0.062 H 
ATOM     41  H   LIG d   1       6.527  -0.085  -9.590  0.00  0.00     0.064 H 
ENDBRANCH  28  31
ENDBRANCH  26  28
ENDBRANCH  23  26
ENDBRANCH   8  23
BRANCH   5  42
ATOM     42  O   LIG d   1       5.322  -4.569  -6.497  0.00  0.00    -0.491 OA
BRANCH  42  43
ATOM     43  C   LIG d   1       4.708  -5.260  -5.406  0.00  0.00     0.079 C 
ATOM     44  H   LIG d   1       5.479  -5.707  -4.779  0.00  0.00     0.066 H 
ATOM     45  H   LIG d   1       4.055  -6.043  -5.793  0.00  0.00     0.066 H 
ATOM     46  H   LIG d   1       4.121  -4.558  -4.815  0.00  0.00     0.066 H 
ENDBRANCH  42  43
ENDBRANCH   5  42
BRANCH  21  47
ATOM     47  C   LIG d   1       2.131  -5.555 -10.321  0.00  0.00    -0.043 C 
ATOM     48  H   LIG d   1       3.064  -6.089 -10.502  0.00  0.00     0.078 H 
ATOM     49  H   LIG d   1       1.429  -6.212  -9.808  0.00  0.00     0.078 H 
ATOM     50  H   LIG d   1       1.703  -5.239 -11.273  0.00  0.00     0.078 H 
ENDBRANCH  21  47
TORSDOF 7
ENDMDL
MODEL 8
REMARK VINA RESULT:      -5.9      9.698     13.114
REMARK  7 active torsions:
REMARK  status: ('A' for Active; 'I' for Inactive)
REMARK    1  A    between atoms: C_1  and  N_49 
REMARK    2  A    between atoms: C_6  and  O_24 
REMARK    3  A    between atoms: C_9  and  C_10 
REMARK    4  A    between atoms: C_10  and  N_11 
REMARK    5  A    between atoms: N_11  and  S_12 
REMARK    6  A    between atoms: S_12  and  C_15 
REMARK    7  A    between atoms: O_24  and  C_25 
ROOT
ATOM      1  C   LIG d   1       9.660   5.889  -3.088  0.00  0.00    -0.028 C 
ATOM      2  C   LIG d   1       9.151   7.049  -2.231  0.00  0.00     0.014 C 
ATOM      3  C   LIG d   1      10.228   7.494  -1.276  0.00  0.00    -0.022 A 
ATOM      4  C   LIG d   1      11.319   6.700  -0.994  0.00  0.00     0.046 A 
ATOM      5  C   LIG d   1      12.289   7.146  -0.101  0.00  0.00     0.174 A 
ATOM      6  C   LIG d   1      12.160   8.384   0.511  0.00  0.00     0.208 A 
ATOM      7  C   LIG d   1      11.062   9.186   0.220  0.00  0.00     0.175 A 
ATOM      8  C   LIG d   1      10.101   8.736  -0.671  0.00  0.00     0.018 A 
ATOM      9  O   LIG d   1      11.166  10.346   0.933  0.00  0.00    -0.452 OA
ATOM     10  C   LIG d   1      12.119  10.067   1.980  0.00  0.00     0.233 C 
ATOM     11  O   LIG d   1      12.952   9.039   1.412  0.00  0.00    -0.449 OA
ATOM     12  C   LIG d   1      11.504   5.349  -1.635  0.00  0.00    -0.002 C 
ATOM     13  H   LIG d   1       8.831   5.458  -3.649  0.00  0.00     0.082 H 
ATOM     14  H   LIG d   1      10.421   6.252  -3.779  0.00  0.00     0.082 H 
ATOM     15  H   LIG d   1       8.277   6.725  -1.665  0.00  0.00     0.036 H 
ATOM     16  H   LIG d   1       8.875   7.881  -2.878  0.00  0.00     0.036 H 
ATOM     17  H   LIG d   1      11.619   9.702   2.877  0.00  0.00     0.117 H 
ATOM     18  H   LIG d   1      12.708  10.956   2.205  0.00  0.00     0.117 H 
ATOM     19  H   LIG d   1      12.247   5.426  -2.429  0.00  0.00     0.087 H 
ATOM     20  H   LIG d   1      11.856   4.640  -0.886  0.00  0.00     0.087 H 
ATOM     21  N   LIG d   1      10.224   4.871  -2.180  0.00  0.00     0.237 N 
ATOM     22  H   LIG d   1       9.568   4.712  -1.406  0.00  0.00     0.203 HD
ENDROOT
BRANCH   8  23
ATOM     23  C   LIG d   1       8.908   9.602  -0.984  0.00  0.00     0.046 C 
ATOM     24  H   LIG d   1       8.384   9.199  -1.850  0.00  0.00     0.049 H 
ATOM     25  H   LIG d   1       8.236   9.617  -0.126  0.00  0.00     0.049 H 
BRANCH  23  26
ATOM     26  N   LIG d   1       9.358  10.965  -1.277  0.00  0.00    -0.185 N 
ATOM     27  H   LIG d   1       9.675  11.536  -0.560  0.00  0.00     0.148 HD
BRANCH  26  28
ATOM     28  S   LIG d   1       9.323  11.532  -2.832  0.00  0.00     0.059 S 
ATOM     29  O   LIG d   1       7.958  11.556  -3.227  0.00  0.00    -0.153 OA
ATOM     30  O   LIG d   1      10.143  12.692  -2.861  0.00  0.00    -0.153 OA
BRANCH  28  31
ATOM     31  C   LIG d   1      10.118  10.328  -3.844  0.00  0.00     0.105 A 
ATOM     32  C   LIG d   1       9.405   9.675  -4.831  0.00  0.00    -0.035 A 
ATOM     33  C   LIG d   1      10.029   8.730  -5.625  0.00  0.00    -0.060 A 
ATOM     34  H   LIG d   1       8.360   9.902  -4.982  0.00  0.00     0.064 H 
ATOM     35  C   LIG d   1      11.366   8.439  -5.431  0.00  0.00    -0.062 A 
ATOM     36  H   LIG d   1       9.471   8.219  -6.396  0.00  0.00     0.062 H 
ATOM     37  C   LIG d   1      12.080   9.092  -4.444  0.00  0.00    -0.060 A 
ATOM     38  H   LIG d   1      11.853   7.701  -6.051  0.00  0.00     0.062 H 
ATOM     39  C   LIG d   1      11.457  10.041  -3.654  0.00  0.00    -0.035 A 
ATOM     40  H   LIG d   1      13.125   8.865  -4.292  0.00  0.00     0.062 H 
ATOM     41  H   LIG d   1      12.016  10.555  -2.885  0.00  0.00     0.064 H 
ENDBRANCH  28  31
ENDBRANCH  26  28
ENDBRANCH  23  26
ENDBRANCH   8  23
BRANCH   5  42
ATOM     42  O   LIG d   1      13.363   6.361   0.178  0.00  0.00    -0.491 OA
BRANCH  42  43
ATOM     43  C   LIG d   1      14.564   6.622  -0.552  0.00  0.00     0.079 C 
ATOM     44  H   LIG d   1      14.386   6.456  -1.615  0.00  0.00     0.066 H 
ATOM     45  H   LIG d   1      15.352   5.952  -0.207  0.00  0.00     0.066 H 
ATOM     46  H   LIG d   1      14.869   7.656  -0.392  0.00  0.00     0.066 H 
ENDBRANCH  42  43
ENDBRANCH   5  42
BRANCH  21  47
ATOM     47  C   LIG d   1      10.427   3.597  -2.908  0.00  0.00    -0.043 C 
ATOM     48  H   LIG d   1       9.537   2.972  -2.830  0.00  0.00     0.078 H 
ATOM     49  H   LIG d   1      10.629   3.814  -3.957  0.00  0.00     0.078 H 
ATOM     50  H   LIG d   1      11.278   3.073  -2.474  0.00  0.00     0.078 H 
ENDBRANCH  21  47
TORSDOF 7
ENDMDL
MODEL 9
REMARK VINA RESULT:      -5.8      3.589      5.546
REMARK  7 active torsions:
REMARK  status: ('A' for Active; 'I' for Inactive)
REMARK    1  A    between atoms: C_1  and  N_49 
REMARK    2  A    between atoms: C_6  and  O_24 
REMARK    3  A    between atoms: C_9  and  C_10 
REMARK    4  A    between atoms: C_10  and  N_11 
REMARK    5  A    between atoms: N_11  and  S_12 
REMARK    6  A    between atoms: S_12  and  C_15 
REMARK    7  A    between atoms: O_24  and  C_25 
ROOT
ATOM      1  C   LIG d   1       8.591  -3.460  -3.486  0.00  0.00    -0.028 C 
ATOM      2  C   LIG d   1       7.300  -3.007  -4.169  0.00  0.00     0.014 C 
ATOM      3  C   LIG d   1       6.755  -4.118  -5.029  0.00  0.00    -0.022 A 
ATOM      4  C   LIG d   1       7.535  -5.190  -5.406  0.00  0.00     0.046 A 
ATOM      5  C   LIG d   1       6.995  -6.193  -6.205  0.00  0.00     0.174 A 
ATOM      6  C   LIG d   1       5.677  -6.117  -6.629  0.00  0.00     0.208 A 
ATOM      7  C   LIG d   1       4.890  -5.038  -6.240  0.00  0.00     0.175 A 
ATOM      8  C   LIG d   1       5.434  -4.044  -5.443  0.00  0.00     0.018 A 
ATOM      9  O   LIG d   1       3.642  -5.194  -6.771  0.00  0.00    -0.452 OA
ATOM     10  C   LIG d   1       3.794  -6.162  -7.831  0.00  0.00     0.233 C 
ATOM     11  O   LIG d   1       4.923  -6.949  -7.408  0.00  0.00    -0.449 OA
ATOM     12  C   LIG d   1       8.973  -5.319  -4.971  0.00  0.00    -0.002 C 
ATOM     13  H   LIG d   1       9.072  -2.606  -3.010  0.00  0.00     0.082 H 
ATOM     14  H   LIG d   1       8.361  -4.217  -2.735  0.00  0.00     0.082 H 
ATOM     15  H   LIG d   1       7.506  -2.137  -4.792  0.00  0.00     0.036 H 
ATOM     16  H   LIG d   1       6.564  -2.742  -3.410  0.00  0.00     0.036 H 
ATOM     17  H   LIG d   1       4.005  -5.670  -8.781  0.00  0.00     0.117 H 
ATOM     18  H   LIG d   1       2.902  -6.782  -7.911  0.00  0.00     0.117 H 
ATOM     19  H   LIG d   1       9.040  -6.045  -4.161  0.00  0.00     0.087 H 
ATOM     20  H   LIG d   1       9.574  -5.665  -5.811  0.00  0.00     0.087 H 
ATOM     21  N   LIG d   1       9.482  -4.012  -4.525  0.00  0.00     0.237 N 
ATOM     22  H   LIG d   1       9.502  -3.369  -5.326  0.00  0.00     0.203 HD
ENDROOT
BRANCH   8  23
ATOM     23  C   LIG d   1       4.584  -2.872  -5.026  0.00  0.00     0.046 C 
ATOM     24  H   LIG d   1       3.698  -3.233  -4.505  0.00  0.00     0.049 H 
ATOM     25  H   LIG d   1       5.158  -2.225  -4.362  0.00  0.00     0.049 H 
BRANCH  23  26
ATOM     26  N   LIG d   1       4.178  -2.115  -6.213  0.00  0.00    -0.185 N 
ATOM     27  H   LIG d   1       3.932  -2.585  -7.026  0.00  0.00     0.148 HD
BRANCH  26  28
ATOM     28  S   LIG d   1       4.140  -0.461  -6.168  0.00  0.00     0.059 S 
ATOM     29  O   LIG d   1       5.312  -0.008  -6.833  0.00  0.00    -0.153 OA
ATOM     30  O   LIG d   1       2.836  -0.073  -6.577  0.00  0.00    -0.153 OA
BRANCH  28  31
ATOM     31  C   LIG d   1       4.302   0.018  -4.480  0.00  0.00     0.105 A 
ATOM     32  C   LIG d   1       5.555   0.243  -3.942  0.00  0.00    -0.035 A 
ATOM     33  C   LIG d   1       5.683   0.619  -2.618  0.00  0.00    -0.060 A 
ATOM     34  H   LIG d   1       6.436   0.123  -4.557  0.00  0.00     0.064 H 
ATOM     35  C   LIG d   1       4.556   0.770  -1.832  0.00  0.00    -0.062 A 
ATOM     36  H   LIG d   1       6.663   0.793  -2.198  0.00  0.00     0.062 H 
ATOM     37  C   LIG d   1       3.303   0.546  -2.369  0.00  0.00    -0.060 A 
ATOM     38  H   LIG d   1       4.656   1.064  -0.797  0.00  0.00     0.062 H 
ATOM     39  C   LIG d   1       3.175   0.175  -3.695  0.00  0.00    -0.035 A 
ATOM     40  H   LIG d   1       2.422   0.665  -1.755  0.00  0.00     0.062 H 
ATOM     41  H   LIG d   1       2.195   0.005  -4.116  0.00  0.00     0.064 H 
ENDBRANCH  28  31
ENDBRANCH  26  28
ENDBRANCH  23  26
ENDBRANCH   8  23
BRANCH   5  42
ATOM     42  O   LIG d   1       7.767  -7.248  -6.580  0.00  0.00    -0.491 OA
BRANCH  42  43
ATOM     43  C   LIG d   1       7.551  -8.484  -5.895  0.00  0.00     0.079 C 
ATOM     44  H   LIG d   1       8.492  -9.032  -5.829  0.00  0.00     0.066 H 
ATOM     45  H   LIG d   1       6.822  -9.081  -6.443  0.00  0.00     0.066 H 
ATOM     46  H   LIG d   1       7.176  -8.283  -4.892  0.00  0.00     0.066 H 
ENDBRANCH  42  43
ENDBRANCH   5  42
BRANCH  21  47
ATOM     47  C   LIG d   1      10.856  -4.158  -3.992  0.00  0.00    -0.043 C 
ATOM     48  H   LIG d   1      11.120  -5.213  -3.915  0.00  0.00     0.078 H 
ATOM     49  H   LIG d   1      11.554  -3.655  -4.660  0.00  0.00     0.078 H 
ATOM     50  H   LIG d   1      10.903  -3.699  -3.004  0.00  0.00     0.078 H 
ENDBRANCH  21  47
TORSDOF 7
ENDMDL
MODEL 10
REMARK VINA RESULT:      -5.6      3.029      6.906
REMARK  7 active torsions:
REMARK  status: ('A' for Active; 'I' for Inactive)
REMARK    1  A    between atoms: C_1  and  N_49 
REMARK    2  A    between atoms: C_6  and  O_24 
REMARK    3  A    between atoms: C_9  and  C_10 
REMARK    4  A    between atoms: C_10  and  N_11 
REMARK    5  A    between atoms: N_11  and  S_12 
REMARK    6  A    between atoms: S_12  and  C_15 
REMARK    7  A    between atoms: O_24  and  C_25 
ROOT
ATOM      1  C   LIG d   1       4.153  -4.079  -8.748  0.00  0.00    -0.028 C 
ATOM      2  C   LIG d   1       3.778  -2.775  -8.041  0.00  0.00     0.014 C 
ATOM      3  C   LIG d   1       4.729  -2.514  -6.903  0.00  0.00    -0.022 A 
ATOM      4  C   LIG d   1       5.532  -3.510  -6.388  0.00  0.00     0.046 A 
ATOM      5  C   LIG d   1       6.393  -3.228  -5.332  0.00  0.00     0.174 A 
ATOM      6  C   LIG d   1       6.445  -1.952  -4.791  0.00  0.00     0.208 A 
ATOM      7  C   LIG d   1       5.639  -0.948  -5.318  0.00  0.00     0.175 A 
ATOM      8  C   LIG d   1       4.784  -1.235  -6.370  0.00  0.00     0.018 A 
ATOM      9  O   LIG d   1       5.874   0.207  -4.630  0.00  0.00    -0.452 OA
ATOM     10  C   LIG d   1       6.523  -0.201  -3.406  0.00  0.00     0.233 C 
ATOM     11  O   LIG d   1       7.184  -1.427  -3.769  0.00  0.00    -0.449 OA
ATOM     12  C   LIG d   1       5.514  -4.911  -6.942  0.00  0.00    -0.002 C 
ATOM     13  H   LIG d   1       3.367  -4.353  -9.451  0.00  0.00     0.082 H 
ATOM     14  H   LIG d   1       5.094  -3.947  -9.283  0.00  0.00     0.082 H 
ATOM     15  H   LIG d   1       2.762  -2.854  -7.653  0.00  0.00     0.036 H 
ATOM     16  H   LIG d   1       3.829  -1.952  -8.753  0.00  0.00     0.036 H 
ATOM     17  H   LIG d   1       5.792  -0.379  -2.617  0.00  0.00     0.117 H 
ATOM     18  H   LIG d   1       7.249   0.548  -3.092  0.00  0.00     0.117 H 
ATOM     19  H   LIG d   1       6.390  -5.060  -7.574  0.00  0.00     0.087 H 
ATOM     20  H   LIG d   1       5.543  -5.624  -6.119  0.00  0.00     0.087 H 
ATOM     21  N   LIG d   1       4.283  -5.129  -7.719  0.00  0.00     0.237 N 
ATOM     22  H   LIG d   1       3.475  -5.080  -7.087  0.00  0.00     0.203 HD
ENDROOT
BRANCH   8  23
ATOM     23  C   LIG d   1       3.907  -0.150  -6.937  0.00  0.00     0.046 C 
ATOM     24  H   LIG d   1       3.160  -0.594  -7.594  0.00  0.00     0.049 H 
ATOM     25  H   LIG d   1       3.410   0.378  -6.124  0.00  0.00     0.049 H 
BRANCH  23  26
ATOM     26  N   LIG d   1       4.729   0.793  -7.701  0.00  0.00    -0.185 N 
ATOM     27  H   LIG d   1       5.676   0.879  -7.506  0.00  0.00     0.148 HD
BRANCH  26  28
ATOM     28  S   LIG d   1       4.043   1.710  -8.896  0.00  0.00     0.059 S 
ATOM     29  O   LIG d   1       2.980   2.436  -8.291  0.00  0.00    -0.153 OA
ATOM     30  O   LIG d   1       5.110   2.354  -9.578  0.00  0.00    -0.153 OA
BRANCH  28  31
ATOM     31  C   LIG d   1       3.304   0.600 -10.047  0.00  0.00     0.105 A 
ATOM     32  C   LIG d   1       3.985   0.240 -11.194  0.00  0.00    -0.035 A 
ATOM     33  C   LIG d   1       3.405  -0.632 -12.098  0.00  0.00    -0.060 A 
ATOM     34  H   LIG d   1       4.969   0.640 -11.386  0.00  0.00     0.064 H 
ATOM     35  C   LIG d   1       2.145  -1.144 -11.852  0.00  0.00    -0.062 A 
ATOM     36  H   LIG d   1       3.937  -0.912 -12.995  0.00  0.00     0.062 H 
ATOM     37  C   LIG d   1       1.464  -0.784 -10.705  0.00  0.00    -0.060 A 
ATOM     38  H   LIG d   1       1.692  -1.824 -12.558  0.00  0.00     0.062 H 
ATOM     39  C   LIG d   1       2.046   0.083  -9.798  0.00  0.00    -0.035 A 
ATOM     40  H   LIG d   1       0.479  -1.184 -10.512  0.00  0.00     0.062 H 
ATOM     41  H   LIG d   1       1.515   0.361  -8.899  0.00  0.00     0.064 H 
ENDBRANCH  28  31
ENDBRANCH  26  28
ENDBRANCH  23  26
ENDBRANCH   8  23
BRANCH   5  42
ATOM     42  O   LIG d   1       7.183  -4.211  -4.823  0.00  0.00    -0.491 OA
BRANCH  42  43
ATOM     43  C   LIG d   1       8.565  -4.186  -5.185  0.00  0.00     0.079 C 
ATOM     44  H   LIG d   1       8.967  -3.187  -5.016  0.00  0.00     0.066 H 
ATOM     45  H   LIG d   1       8.670  -4.445  -6.239  0.00  0.00     0.066 H 
ATOM     46  H   LIG d   1       9.113  -4.906  -4.578  0.00  0.00     0.066 H 
ENDBRANCH  42  43
ENDBRANCH   5  42
BRANCH  21  47
ATOM     47  C   LIG d   1       4.316  -6.465  -8.357  0.00  0.00    -0.043 C 
ATOM     48  H   LIG d   1       3.341  -6.946  -8.275  0.00  0.00     0.078 H 
ATOM     49  H   LIG d   1       4.580  -6.352  -9.408  0.00  0.00     0.078 H 
ATOM     50  H   LIG d   1       5.067  -7.078  -7.857  0.00  0.00     0.078 H 
ENDBRANCH  21  47
TORSDOF 7
ENDMDL
