MODEL 1
REMARK VINA RESULT:      -6.6      0.000      0.000
REMARK  4 active torsions:
REMARK  status: ('A' for Active; 'I' for Inactive)
REMARK    1  A    between atoms: C_1  and  O_2 
REMARK    2  A    between atoms: O_2  and  C_3 
REMARK    3  A    between atoms: C_6  and  C_9 
REMARK    4  A    between atoms: C_10  and  C_21 
ROOT
ATOM      1  C   LIG d   1       4.459  -2.721  -7.068  0.00  0.00     0.075 A 
ATOM      2  C   LIG d   1       4.269  -1.451  -6.529  0.00  0.00     0.007 A 
ATOM      3  C   LIG d   1       4.194  -1.328  -5.063  0.00  0.00     0.027 A 
ATOM      4  C   LIG d   1       3.997  -0.079  -4.465  0.00  0.00    -0.032 A 
ATOM      5  C   LIG d   1       3.926   0.016  -3.093  0.00  0.00     0.042 A 
ATOM      6  C   LIG d   1       4.042  -1.121  -2.305  0.00  0.00    -0.040 A 
ATOM      7  C   LIG d   1       4.230  -2.358  -2.884  0.00  0.00    -0.017 A 
ATOM      8  C   LIG d   1       4.305  -2.478  -4.267  0.00  0.00     0.140 A 
ATOM      9  O   LIG d   1       4.490  -3.692  -4.829  0.00  0.00    -0.422 OA
ATOM     10  C   LIG d   1       4.569  -3.861  -6.158  0.00  0.00     0.346 A 
ATOM     11  O   LIG d   1       4.735  -4.978  -6.611  0.00  0.00    -0.244 OA
ATOM     12 CL   LIG d   1       3.688   1.566  -2.346  0.00  0.00    -0.084 Cl
ATOM     13  H   LIG d   1       3.906   0.806  -5.077  0.00  0.00     0.064 H 
ATOM     14  H   LIG d   1       3.983  -1.035  -1.230  0.00  0.00     0.063 H 
ATOM     15  H   LIG d   1       4.320  -3.236  -2.260  0.00  0.00     0.066 H 
ENDROOT
BRANCH   1  16
ATOM     16  C   LIG d   1       4.547  -2.914  -8.532  0.00  0.00    -0.010 A 
ATOM     17  C   LIG d   1       5.790  -2.906  -9.166  0.00  0.00    -0.050 A 
ATOM     18  C   LIG d   1       5.868  -3.085 -10.531  0.00  0.00    -0.019 A 
ATOM     19  H   LIG d   1       6.690  -2.759  -8.588  0.00  0.00     0.062 H 
ATOM     20  C   LIG d   1       4.711  -3.275 -11.275  0.00  0.00     0.120 A 
ATOM     21  H   LIG d   1       6.831  -3.080 -11.021  0.00  0.00     0.065 H 
ATOM     22  C   LIG d   1       3.471  -3.284 -10.649  0.00  0.00    -0.019 A 
ATOM     23  C   LIG d   1       3.387  -3.110  -9.283  0.00  0.00    -0.050 A 
ATOM     24  H   LIG d   1       2.574  -3.431 -11.231  0.00  0.00     0.065 H 
ATOM     25  H   LIG d   1       2.422  -3.120  -8.797  0.00  0.00     0.062 H 
BRANCH  20  26
ATOM     26  O   LIG d   1       4.792  -3.451 -12.620  0.00  0.00    -0.495 OA
BRANCH  26  27
ATOM     27  C   LIG d   1       3.630  -3.130 -13.387  0.00  0.00     0.079 C 
ATOM     28  H   LIG d   1       2.749  -3.558 -12.910  0.00  0.00     0.066 H 
ATOM     29  H   LIG d   1       3.522  -2.046 -13.445  0.00  0.00     0.066 H 
ATOM     30  H   LIG d   1       3.734  -3.538 -14.393  0.00  0.00     0.066 H 
ENDBRANCH  26  27
ENDBRANCH  20  26
ENDBRANCH   1  16
BRANCH   2  31
ATOM     31  C   LIG d   1       4.150  -0.263  -7.400  0.00  0.00    -0.016 A 
ATOM     32  C   LIG d   1       5.297   0.369  -7.885  0.00  0.00    -0.054 A 
ATOM     33  C   LIG d   1       5.178   1.478  -8.697  0.00  0.00    -0.061 A 
ATOM     34  H   LIG d   1       6.275  -0.008  -7.624  0.00  0.00     0.062 H 
ATOM     35  C   LIG d   1       3.926   1.963  -9.032  0.00  0.00    -0.062 A 
ATOM     36  H   LIG d   1       6.064   1.967  -9.073  0.00  0.00     0.062 H 
ATOM     37  C   LIG d   1       2.785   1.340  -8.556  0.00  0.00    -0.061 A 
ATOM     38  H   LIG d   1       3.839   2.831  -9.669  0.00  0.00     0.062 H 
ATOM     39  C   LIG d   1       2.890   0.235  -7.738  0.00  0.00    -0.054 A 
ATOM     40  H   LIG d   1       1.812   1.725  -8.821  0.00  0.00     0.062 H 
ATOM     41  H   LIG d   1       1.999  -0.246  -7.363  0.00  0.00     0.062 H 
ENDBRANCH   2  31
TORSDOF 4
ENDMDL
MODEL 2
REMARK VINA RESULT:      -6.6      1.589      2.259
REMARK  4 active torsions:
REMARK  status: ('A' for Active; 'I' for Inactive)
REMARK    1  A    between atoms: C_1  and  O_2 
REMARK    2  A    between atoms: O_2  and  C_3 
REMARK    3  A    between atoms: C_6  and  C_9 
REMARK    4  A    between atoms: C_10  and  C_21 
ROOT
ATOM      1  C   LIG d   1       3.840  -2.404  -8.220  0.00  0.00     0.075 A 
ATOM      2  C   LIG d   1       4.195  -1.278  -7.481  0.00  0.00     0.007 A 
ATOM      3  C   LIG d   1       4.674  -1.480  -6.103  0.00  0.00     0.027 A 
ATOM      4  C   LIG d   1       5.036  -0.386  -5.311  0.00  0.00    -0.032 A 
ATOM      5  C   LIG d   1       5.478  -0.594  -4.023  0.00  0.00     0.042 A 
ATOM      6  C   LIG d   1       5.558  -1.881  -3.509  0.00  0.00    -0.040 A 
ATOM      7  C   LIG d   1       5.197  -2.966  -4.278  0.00  0.00    -0.017 A 
ATOM      8  C   LIG d   1       4.749  -2.781  -5.581  0.00  0.00     0.140 A 
ATOM      9  O   LIG d   1       4.396  -3.847  -6.331  0.00  0.00    -0.422 OA
ATOM     10  C   LIG d   1       3.957  -3.721  -7.593  0.00  0.00     0.346 A 
ATOM     11  O   LIG d   1       3.652  -4.716  -8.224  0.00  0.00    -0.244 OA
ATOM     12 CL   LIG d   1       5.937   0.761  -3.038  0.00  0.00    -0.084 Cl
ATOM     13  H   LIG d   1       4.975   0.616  -5.709  0.00  0.00     0.064 H 
ATOM     14  H   LIG d   1       5.904  -2.032  -2.497  0.00  0.00     0.063 H 
ATOM     15  H   LIG d   1       5.264  -3.963  -3.868  0.00  0.00     0.066 H 
ENDROOT
BRANCH   1  16
ATOM     16  C   LIG d   1       3.356  -2.272  -9.612  0.00  0.00    -0.010 A 
ATOM     17  C   LIG d   1       1.993  -2.119  -9.867  0.00  0.00    -0.050 A 
ATOM     18  C   LIG d   1       1.545  -1.997 -11.165  0.00  0.00    -0.019 A 
ATOM     19  H   LIG d   1       1.289  -2.095  -9.048  0.00  0.00     0.062 H 
ATOM     20  C   LIG d   1       2.448  -2.026 -12.218  0.00  0.00     0.120 A 
ATOM     21  H   LIG d   1       0.489  -1.877 -11.362  0.00  0.00     0.065 H 
ATOM     22  C   LIG d   1       3.806  -2.179 -11.970  0.00  0.00    -0.019 A 
ATOM     23  C   LIG d   1       4.262  -2.296 -10.673  0.00  0.00    -0.050 A 
ATOM     24  H   LIG d   1       4.506  -2.202 -12.792  0.00  0.00     0.065 H 
ATOM     25  H   LIG d   1       5.318  -2.412 -10.480  0.00  0.00     0.062 H 
BRANCH  20  26
ATOM     26  O   LIG d   1       2.003  -1.906 -13.497  0.00  0.00    -0.495 OA
BRANCH  26  27
ATOM     27  C   LIG d   1       0.673  -2.355 -13.765  0.00  0.00     0.079 C 
ATOM     28  H   LIG d   1       0.174  -2.596 -12.827  0.00  0.00     0.066 H 
ATOM     29  H   LIG d   1       0.121  -1.567 -14.279  0.00  0.00     0.066 H 
ATOM     30  H   LIG d   1       0.710  -3.243 -14.397  0.00  0.00     0.066 H 
ENDBRANCH  26  27
ENDBRANCH  20  26
ENDBRANCH   1  16
BRANCH   2  31
ATOM     31  C   LIG d   1       4.097   0.077  -8.062  0.00  0.00    -0.016 A 
ATOM     32  C   LIG d   1       2.905   0.799  -7.963  0.00  0.00    -0.054 A 
ATOM     33  C   LIG d   1       2.822   2.063  -8.508  0.00  0.00    -0.061 A 
ATOM     34  H   LIG d   1       2.052   0.369  -7.460  0.00  0.00     0.062 H 
ATOM     35  C   LIG d   1       3.915   2.616  -9.153  0.00  0.00    -0.062 A 
ATOM     36  H   LIG d   1       1.902   2.623  -8.432  0.00  0.00     0.062 H 
ATOM     37  C   LIG d   1       5.099   1.905  -9.254  0.00  0.00    -0.061 A 
ATOM     38  H   LIG d   1       3.844   3.607  -9.578  0.00  0.00     0.062 H 
ATOM     39  C   LIG d   1       5.194   0.638  -8.718  0.00  0.00    -0.054 A 
ATOM     40  H   LIG d   1       5.948   2.343  -9.758  0.00  0.00     0.062 H 
ATOM     41  H   LIG d   1       6.117   0.084  -8.803  0.00  0.00     0.062 H 
ENDBRANCH   2  31
TORSDOF 4
ENDMDL
MODEL 3
REMARK VINA RESULT:      -6.0      2.825      6.217
REMARK  4 active torsions:
REMARK  status: ('A' for Active; 'I' for Inactive)
REMARK    1  A    between atoms: C_1  and  O_2 
REMARK    2  A    between atoms: O_2  and  C_3 
REMARK    3  A    between atoms: C_6  and  C_9 
REMARK    4  A    between atoms: C_10  and  C_21 
ROOT
ATOM      1  C   LIG d   1       4.288  -2.103  -7.089  0.00  0.00     0.075 A 
ATOM      2  C   LIG d   1       3.979  -1.560  -8.333  0.00  0.00     0.007 A 
ATOM      3  C   LIG d   1       3.656  -2.488  -9.430  0.00  0.00     0.027 A 
ATOM      4  C   LIG d   1       3.346  -2.000 -10.704  0.00  0.00    -0.032 A 
ATOM      5  C   LIG d   1       3.050  -2.883 -11.719  0.00  0.00     0.042 A 
ATOM      6  C   LIG d   1       3.067  -4.251 -11.483  0.00  0.00    -0.040 A 
ATOM      7  C   LIG d   1       3.377  -4.744 -10.234  0.00  0.00    -0.017 A 
ATOM      8  C   LIG d   1       3.679  -3.871  -9.194  0.00  0.00     0.140 A 
ATOM      9  O   LIG d   1       3.983  -4.358  -7.972  0.00  0.00    -0.422 OA
ATOM     10  C   LIG d   1       4.280  -3.558  -6.936  0.00  0.00     0.346 A 
ATOM     11  O   LIG d   1       4.548  -4.051  -5.856  0.00  0.00    -0.244 OA
ATOM     12 CL   LIG d   1       2.657  -2.283 -13.300  0.00  0.00    -0.084 Cl
ATOM     13  H   LIG d   1       3.333  -0.936 -10.888  0.00  0.00     0.064 H 
ATOM     14  H   LIG d   1       2.835  -4.935 -12.287  0.00  0.00     0.063 H 
ATOM     15  H   LIG d   1       3.387  -5.811 -10.062  0.00  0.00     0.066 H 
ENDROOT
BRANCH   1  16
ATOM     16  C   LIG d   1       4.617  -1.227  -5.943  0.00  0.00    -0.010 A 
ATOM     17  C   LIG d   1       5.946  -0.908  -5.664  0.00  0.00    -0.050 A 
ATOM     18  C   LIG d   1       6.249  -0.092  -4.595  0.00  0.00    -0.019 A 
ATOM     19  H   LIG d   1       6.738  -1.301  -6.286  0.00  0.00     0.062 H 
ATOM     20  C   LIG d   1       5.233   0.413  -3.796  0.00  0.00     0.120 A 
ATOM     21  H   LIG d   1       7.279   0.155  -4.380  0.00  0.00     0.065 H 
ATOM     22  C   LIG d   1       3.907   0.099  -4.069  0.00  0.00    -0.019 A 
ATOM     23  C   LIG d   1       3.597  -0.712  -5.140  0.00  0.00    -0.050 A 
ATOM     24  H   LIG d   1       3.120   0.494  -3.445  0.00  0.00     0.065 H 
ATOM     25  H   LIG d   1       2.566  -0.954  -5.354  0.00  0.00     0.062 H 
BRANCH  20  26
ATOM     26  O   LIG d   1       5.535   1.218  -2.743  0.00  0.00    -0.495 OA
BRANCH  26  27
ATOM     27  C   LIG d   1       4.680   1.139  -1.601  0.00  0.00     0.079 C 
ATOM     28  H   LIG d   1       3.662   1.402  -1.889  0.00  0.00     0.066 H 
ATOM     29  H   LIG d   1       4.694   0.123  -1.206  0.00  0.00     0.066 H 
ATOM     30  H   LIG d   1       5.032   1.831  -0.835  0.00  0.00     0.066 H 
ENDBRANCH  26  27
ENDBRANCH  20  26
ENDBRANCH   1  16
BRANCH   2  31
ATOM     31  C   LIG d   1       3.971  -0.098  -8.546  0.00  0.00    -0.016 A 
ATOM     32  C   LIG d   1       2.795   0.633  -8.356  0.00  0.00    -0.054 A 
ATOM     33  C   LIG d   1       2.796   1.998  -8.556  0.00  0.00    -0.061 A 
ATOM     34  H   LIG d   1       1.888   0.131  -8.053  0.00  0.00     0.062 H 
ATOM     35  C   LIG d   1       3.958   2.643  -8.944  0.00  0.00    -0.062 A 
ATOM     36  H   LIG d   1       1.889   2.564  -8.409  0.00  0.00     0.062 H 
ATOM     37  C   LIG d   1       5.126   1.925  -9.132  0.00  0.00    -0.061 A 
ATOM     38  H   LIG d   1       3.952   3.712  -9.098  0.00  0.00     0.062 H 
ATOM     39  C   LIG d   1       5.138   0.559  -8.941  0.00  0.00    -0.054 A 
ATOM     40  H   LIG d   1       6.028   2.435  -9.435  0.00  0.00     0.062 H 
ATOM     41  H   LIG d   1       6.049  -0.000  -9.094  0.00  0.00     0.062 H 
ENDBRANCH   2  31
TORSDOF 4
ENDMDL
MODEL 4
REMARK VINA RESULT:      -5.9      3.059      5.877
REMARK  4 active torsions:
REMARK  status: ('A' for Active; 'I' for Inactive)
REMARK    1  A    between atoms: C_1  and  O_2 
REMARK    2  A    between atoms: O_2  and  C_3 
REMARK    3  A    between atoms: C_6  and  C_9 
REMARK    4  A    between atoms: C_10  and  C_21 
ROOT
ATOM      1  C   LIG d   1       4.136  -2.393  -7.956  0.00  0.00     0.075 A 
ATOM      2  C   LIG d   1       3.412  -1.660  -8.892  0.00  0.00     0.007 A 
ATOM      3  C   LIG d   1       2.519  -2.395  -9.803  0.00  0.00     0.027 A 
ATOM      4  C   LIG d   1       1.773  -1.713 -10.770  0.00  0.00    -0.032 A 
ATOM      5  C   LIG d   1       0.946  -2.417 -11.616  0.00  0.00     0.042 A 
ATOM      6  C   LIG d   1       0.857  -3.799 -11.518  0.00  0.00    -0.040 A 
ATOM      7  C   LIG d   1       1.593  -4.483 -10.574  0.00  0.00    -0.017 A 
ATOM      8  C   LIG d   1       2.434  -3.793  -9.709  0.00  0.00     0.140 A 
ATOM      9  O   LIG d   1       3.152  -4.467  -8.786  0.00  0.00    -0.422 OA
ATOM     10  C   LIG d   1       3.978  -3.847  -7.928  0.00  0.00     0.346 A 
ATOM     11  O   LIG d   1       4.603  -4.505  -7.116  0.00  0.00    -0.244 OA
ATOM     12 CL   LIG d   1       0.012  -1.574 -12.812  0.00  0.00    -0.084 Cl
ATOM     13  H   LIG d   1       1.841  -0.638 -10.847  0.00  0.00     0.064 H 
ATOM     14  H   LIG d   1       0.207  -4.343 -12.187  0.00  0.00     0.063 H 
ATOM     15  H   LIG d   1       1.515  -5.559 -10.506  0.00  0.00     0.066 H 
ENDROOT
BRANCH   1  16
ATOM     16  C   LIG d   1       5.048  -1.716  -7.008  0.00  0.00    -0.010 A 
ATOM     17  C   LIG d   1       6.392  -1.537  -7.335  0.00  0.00    -0.050 A 
ATOM     18  C   LIG d   1       7.239  -0.906  -6.449  0.00  0.00    -0.019 A 
ATOM     19  H   LIG d   1       6.770  -1.892  -8.283  0.00  0.00     0.062 H 
ATOM     20  C   LIG d   1       6.755  -0.448  -5.231  0.00  0.00     0.120 A 
ATOM     21  H   LIG d   1       8.280  -0.767  -6.703  0.00  0.00     0.065 H 
ATOM     22  C   LIG d   1       5.418  -0.624  -4.900  0.00  0.00    -0.019 A 
ATOM     23  C   LIG d   1       4.564  -1.249  -5.784  0.00  0.00    -0.050 A 
ATOM     24  H   LIG d   1       5.046  -0.267  -3.951  0.00  0.00     0.065 H 
ATOM     25  H   LIG d   1       3.524  -1.383  -5.527  0.00  0.00     0.062 H 
BRANCH  20  26
ATOM     26  O   LIG d   1       7.593   0.173  -4.359  0.00  0.00    -0.495 OA
BRANCH  26  27
ATOM     27  C   LIG d   1       7.152   1.416  -3.810  0.00  0.00     0.079 C 
ATOM     28  H   LIG d   1       7.697   1.622  -2.890  0.00  0.00     0.066 H 
ATOM     29  H   LIG d   1       7.337   2.216  -4.528  0.00  0.00     0.066 H 
ATOM     30  H   LIG d   1       6.084   1.361  -3.597  0.00  0.00     0.066 H 
ENDBRANCH  26  27
ENDBRANCH  20  26
ENDBRANCH   1  16
BRANCH   2  31
ATOM     31  C   LIG d   1       3.533  -0.189  -8.967  0.00  0.00    -0.016 A 
ATOM     32  C   LIG d   1       4.499   0.396  -9.788  0.00  0.00    -0.054 A 
ATOM     33  C   LIG d   1       4.606   1.770  -9.852  0.00  0.00    -0.061 A 
ATOM     34  H   LIG d   1       5.162  -0.226 -10.372  0.00  0.00     0.062 H 
ATOM     35  C   LIG d   1       3.757   2.568  -9.105  0.00  0.00    -0.062 A 
ATOM     36  H   LIG d   1       5.352   2.223 -10.487  0.00  0.00     0.062 H 
ATOM     37  C   LIG d   1       2.797   1.995  -8.290  0.00  0.00    -0.061 A 
ATOM     38  H   LIG d   1       3.845   3.644  -9.160  0.00  0.00     0.062 H 
ATOM     39  C   LIG d   1       2.683   0.623  -8.212  0.00  0.00    -0.054 A 
ATOM     40  H   LIG d   1       2.138   2.624  -7.710  0.00  0.00     0.062 H 
ATOM     41  H   LIG d   1       1.936   0.177  -7.571  0.00  0.00     0.062 H 
ENDBRANCH   2  31
TORSDOF 4
ENDMDL
MODEL 5
REMARK VINA RESULT:      -5.9      9.436     12.664
REMARK  4 active torsions:
REMARK  status: ('A' for Active; 'I' for Inactive)
REMARK    1  A    between atoms: C_1  and  O_2 
REMARK    2  A    between atoms: O_2  and  C_3 
REMARK    3  A    between atoms: C_6  and  C_9 
REMARK    4  A    between atoms: C_10  and  C_21 
ROOT
ATOM      1  C   LIG d   1      10.221   7.507  -4.190  0.00  0.00     0.075 A 
ATOM      2  C   LIG d   1      10.168   6.400  -5.034  0.00  0.00     0.007 A 
ATOM      3  C   LIG d   1       9.802   6.624  -6.442  0.00  0.00     0.027 A 
ATOM      4  C   LIG d   1       9.726   5.549  -7.334  0.00  0.00    -0.032 A 
ATOM      5  C   LIG d   1       9.378   5.776  -8.648  0.00  0.00     0.042 A 
ATOM      6  C   LIG d   1       9.097   7.064  -9.084  0.00  0.00    -0.040 A 
ATOM      7  C   LIG d   1       9.163   8.129  -8.213  0.00  0.00    -0.017 A 
ATOM      8  C   LIG d   1       9.512   7.924  -6.883  0.00  0.00     0.140 A 
ATOM      9  O   LIG d   1       9.575   8.971  -6.033  0.00  0.00    -0.422 OA
ATOM     10  C   LIG d   1       9.908   8.825  -4.740  0.00  0.00     0.346 A 
ATOM     11  O   LIG d   1       9.948   9.804  -4.018  0.00  0.00    -0.244 OA
ATOM     12 CL   LIG d   1       9.289   4.446  -9.761  0.00  0.00    -0.084 Cl
ATOM     13  H   LIG d   1       9.944   4.547  -6.996  0.00  0.00     0.064 H 
ATOM     14  H   LIG d   1       8.823   7.231 -10.116  0.00  0.00     0.063 H 
ATOM     15  H   LIG d   1       8.943   9.127  -8.565  0.00  0.00     0.066 H 
ENDROOT
BRANCH   1  16
ATOM     16  C   LIG d   1      10.586   7.353  -2.764  0.00  0.00    -0.010 A 
ATOM     17  C   LIG d   1      11.925   7.406  -2.375  0.00  0.00    -0.050 A 
ATOM     18  C   LIG d   1      12.262   7.261  -1.046  0.00  0.00    -0.019 A 
ATOM     19  H   LIG d   1      12.697   7.561  -3.114  0.00  0.00     0.062 H 
ATOM     20  C   LIG d   1      11.270   7.064  -0.095  0.00  0.00     0.120 A 
ATOM     21  H   LIG d   1      13.298   7.303  -0.745  0.00  0.00     0.065 H 
ATOM     22  C   LIG d   1       9.936   7.010  -0.477  0.00  0.00    -0.019 A 
ATOM     23  C   LIG d   1       9.592   7.159  -1.804  0.00  0.00    -0.050 A 
ATOM     24  H   LIG d   1       9.168   6.855   0.266  0.00  0.00     0.065 H 
ATOM     25  H   LIG d   1       8.554   7.120  -2.100  0.00  0.00     0.062 H 
BRANCH  20  26
ATOM     26  O   LIG d   1      11.606   6.921   1.215  0.00  0.00    -0.495 OA
BRANCH  26  27
ATOM     27  C   LIG d   1      11.010   5.832   1.922  0.00  0.00     0.079 C 
ATOM     28  H   LIG d   1      11.792   5.196   2.337  0.00  0.00     0.066 H 
ATOM     29  H   LIG d   1      10.390   6.220   2.731  0.00  0.00     0.066 H 
ATOM     30  H   LIG d   1      10.392   5.250   1.238  0.00  0.00     0.066 H 
ENDBRANCH  26  27
ENDBRANCH  20  26
ENDBRANCH   1  16
BRANCH   2  31
ATOM     31  C   LIG d   1      10.475   5.044  -4.532  0.00  0.00    -0.016 A 
ATOM     32  C   LIG d   1      11.781   4.552  -4.590  0.00  0.00    -0.054 A 
ATOM     33  C   LIG d   1      12.059   3.286  -4.120  0.00  0.00    -0.061 A 
ATOM     34  H   LIG d   1      12.571   5.163  -5.002  0.00  0.00     0.062 H 
ATOM     35  C   LIG d   1      11.047   2.503  -3.592  0.00  0.00    -0.062 A 
ATOM     36  H   LIG d   1      13.068   2.905  -4.164  0.00  0.00     0.062 H 
ATOM     37  C   LIG d   1       9.751   2.984  -3.530  0.00  0.00    -0.061 A 
ATOM     38  H   LIG d   1      11.271   1.512  -3.224  0.00  0.00     0.062 H 
ATOM     39  C   LIG d   1       9.458   4.247  -4.002  0.00  0.00    -0.054 A 
ATOM     40  H   LIG d   1       8.967   2.368  -3.117  0.00  0.00     0.062 H 
ATOM     41  H   LIG d   1       8.445   4.619  -3.958  0.00  0.00     0.062 H 
ENDBRANCH   2  31
TORSDOF 4
ENDMDL
MODEL 6
REMARK VINA RESULT:      -5.7     11.438     14.634
REMARK  4 active torsions:
REMARK  status: ('A' for Active; 'I' for Inactive)
REMARK    1  A    between atoms: C_1  and  O_2 
REMARK    2  A    between atoms: O_2  and  C_3 
REMARK    3  A    between atoms: C_6  and  C_9 
REMARK    4  A    between atoms: C_10  and  C_21 
ROOT
ATOM      1  C   LIG d   1      10.072   9.687  -3.475  0.00  0.00     0.075 A 
ATOM      2  C   LIG d   1      10.276   8.355  -3.829  0.00  0.00     0.007 A 
ATOM      3  C   LIG d   1       9.965   7.954  -5.212  0.00  0.00     0.027 A 
ATOM      4  C   LIG d   1      10.143   6.629  -5.622  0.00  0.00    -0.032 A 
ATOM      5  C   LIG d   1       9.843   6.270  -6.918  0.00  0.00     0.042 A 
ATOM      6  C   LIG d   1       9.359   7.216  -7.812  0.00  0.00    -0.040 A 
ATOM      7  C   LIG d   1       9.174   8.524  -7.416  0.00  0.00    -0.017 A 
ATOM      8  C   LIG d   1       9.470   8.908  -6.114  0.00  0.00     0.140 A 
ATOM      9  O   LIG d   1       9.286  10.190  -5.731  0.00  0.00    -0.422 OA
ATOM     10  C   LIG d   1       9.558  10.611  -4.485  0.00  0.00     0.346 A 
ATOM     11  O   LIG d   1       9.373  11.778  -4.194  0.00  0.00    -0.244 OA
ATOM     12 CL   LIG d   1      10.070   4.628  -7.435  0.00  0.00    -0.084 Cl
ATOM     13  H   LIG d   1      10.520   5.892  -4.928  0.00  0.00     0.064 H 
ATOM     14  H   LIG d   1       9.125   6.924  -8.825  0.00  0.00     0.063 H 
ATOM     15  H   LIG d   1       8.797   9.251  -8.121  0.00  0.00     0.066 H 
ENDROOT
BRANCH   1  16
ATOM     16  C   LIG d   1      10.369  10.157  -2.104  0.00  0.00    -0.010 A 
ATOM     17  C   LIG d   1      11.643  10.629  -1.786  0.00  0.00    -0.050 A 
ATOM     18  C   LIG d   1      11.916  11.067  -0.508  0.00  0.00    -0.019 A 
ATOM     19  H   LIG d   1      12.415  10.653  -2.542  0.00  0.00     0.062 H 
ATOM     20  C   LIG d   1      10.924  11.038   0.464  0.00  0.00     0.120 A 
ATOM     21  H   LIG d   1      12.902  11.433  -0.262  0.00  0.00     0.065 H 
ATOM     22  C   LIG d   1       9.654  10.569   0.152  0.00  0.00    -0.019 A 
ATOM     23  C   LIG d   1       9.373  10.135  -1.126  0.00  0.00    -0.050 A 
ATOM     24  H   LIG d   1       8.886  10.548   0.911  0.00  0.00     0.065 H 
ATOM     25  H   LIG d   1       8.385   9.774  -1.368  0.00  0.00     0.062 H 
BRANCH  20  26
ATOM     26  O   LIG d   1      11.197  11.470   1.723  0.00  0.00    -0.495 OA
BRANCH  26  27
ATOM     27  C   LIG d   1      12.563  11.429   2.141  0.00  0.00     0.079 C 
ATOM     28  H   LIG d   1      12.766  12.268   2.806  0.00  0.00     0.066 H 
ATOM     29  H   LIG d   1      12.753  10.493   2.670  0.00  0.00     0.066 H 
ATOM     30  H   LIG d   1      13.212  11.490   1.268  0.00  0.00     0.066 H 
ENDBRANCH  26  27
ENDBRANCH  20  26
ENDBRANCH   1  16
BRANCH   2  31
ATOM     31  C   LIG d   1      10.794   7.377  -2.850  0.00  0.00    -0.016 A 
ATOM     32  C   LIG d   1       9.910   6.662  -2.038  0.00  0.00    -0.054 A 
ATOM     33  C   LIG d   1      10.401   5.750  -1.127  0.00  0.00    -0.061 A 
ATOM     34  H   LIG d   1       8.846   6.822  -2.124  0.00  0.00     0.062 H 
ATOM     35  C   LIG d   1      11.765   5.544  -1.016  0.00  0.00    -0.062 A 
ATOM     36  H   LIG d   1       9.720   5.196  -0.499  0.00  0.00     0.062 H 
ATOM     37  C   LIG d   1      12.646   6.249  -1.817  0.00  0.00    -0.061 A 
ATOM     38  H   LIG d   1      12.144   4.828  -0.300  0.00  0.00     0.062 H 
ATOM     39  C   LIG d   1      12.169   7.167  -2.729  0.00  0.00    -0.054 A 
ATOM     40  H   LIG d   1      13.709   6.082  -1.725  0.00  0.00     0.062 H 
ATOM     41  H   LIG d   1      12.858   7.720  -3.350  0.00  0.00     0.062 H 
ENDBRANCH   2  31
TORSDOF 4
ENDMDL
MODEL 7
REMARK VINA RESULT:      -5.5     11.386     14.209
REMARK  4 active torsions:
REMARK  status: ('A' for Active; 'I' for Inactive)
REMARK    1  A    between atoms: C_1  and  O_2 
REMARK    2  A    between atoms: O_2  and  C_3 
REMARK    3  A    between atoms: C_6  and  C_9 
REMARK    4  A    between atoms: C_10  and  C_21 
ROOT
ATOM      1  C   LIG d   1      10.390   7.846  -1.765  0.00  0.00     0.075 A 
ATOM      2  C   LIG d   1      10.358   8.009  -3.148  0.00  0.00     0.007 A 
ATOM      3  C   LIG d   1      10.086   6.823  -3.976  0.00  0.00     0.027 A 
ATOM      4  C   LIG d   1      10.050   6.925  -5.371  0.00  0.00    -0.032 A 
ATOM      5  C   LIG d   1       9.798   5.804  -6.130  0.00  0.00     0.042 A 
ATOM      6  C   LIG d   1       9.589   4.576  -5.518  0.00  0.00    -0.040 A 
ATOM      7  C   LIG d   1       9.629   4.462  -4.144  0.00  0.00    -0.017 A 
ATOM      8  C   LIG d   1       9.881   5.580  -3.358  0.00  0.00     0.140 A 
ATOM      9  O   LIG d   1       9.920   5.464  -2.013  0.00  0.00    -0.422 OA
ATOM     10  C   LIG d   1      10.159   6.512  -1.210  0.00  0.00     0.346 A 
ATOM     11  O   LIG d   1      10.183   6.350  -0.004  0.00  0.00    -0.244 OA
ATOM     12 CL   LIG d   1       9.744   5.927  -7.862  0.00  0.00    -0.084 Cl
ATOM     13  H   LIG d   1      10.212   7.880  -5.849  0.00  0.00     0.064 H 
ATOM     14  H   LIG d   1       9.394   3.702  -6.123  0.00  0.00     0.063 H 
ATOM     15  H   LIG d   1       9.464   3.501  -3.679  0.00  0.00     0.066 H 
ENDROOT
BRANCH   1  16
ATOM     16  C   LIG d   1      10.653   8.998  -0.874  0.00  0.00    -0.010 A 
ATOM     17  C   LIG d   1      11.955   9.280  -0.460  0.00  0.00    -0.050 A 
ATOM     18  C   LIG d   1      12.196  10.353   0.371  0.00  0.00    -0.019 A 
ATOM     19  H   LIG d   1      12.774   8.657  -0.790  0.00  0.00     0.062 H 
ATOM     20  C   LIG d   1      11.145  11.154   0.795  0.00  0.00     0.120 A 
ATOM     21  H   LIG d   1      13.205  10.571   0.691  0.00  0.00     0.065 H 
ATOM     22  C   LIG d   1       9.847  10.878   0.385  0.00  0.00    -0.019 A 
ATOM     23  C   LIG d   1       9.599   9.809  -0.450  0.00  0.00    -0.050 A 
ATOM     24  H   LIG d   1       9.032  11.504   0.717  0.00  0.00     0.065 H 
ATOM     25  H   LIG d   1       8.590   9.597  -0.771  0.00  0.00     0.062 H 
BRANCH  20  26
ATOM     26  O   LIG d   1      11.386  12.212   1.614  0.00  0.00    -0.495 OA
BRANCH  26  27
ATOM     27  C   LIG d   1      11.445  13.503   1.005  0.00  0.00     0.079 C 
ATOM     28  H   LIG d   1      12.013  13.443   0.077  0.00  0.00     0.066 H 
ATOM     29  H   LIG d   1      10.433  13.850   0.789  0.00  0.00     0.066 H 
ATOM     30  H   LIG d   1      11.930  14.204   1.685  0.00  0.00     0.066 H 
ENDBRANCH  26  27
ENDBRANCH  20  26
ENDBRANCH   1  16
BRANCH   2  31
ATOM     31  C   LIG d   1      10.585   9.333  -3.764  0.00  0.00    -0.016 A 
ATOM     32  C   LIG d   1      11.882   9.752  -4.070  0.00  0.00    -0.054 A 
ATOM     33  C   LIG d   1      12.085  10.989  -4.645  0.00  0.00    -0.061 A 
ATOM     34  H   LIG d   1      12.723   9.109  -3.857  0.00  0.00     0.062 H 
ATOM     35  C   LIG d   1      11.008  11.814  -4.919  0.00  0.00    -0.062 A 
ATOM     36  H   LIG d   1      13.087  11.314  -4.883  0.00  0.00     0.062 H 
ATOM     37  C   LIG d   1       9.721  11.405  -4.619  0.00  0.00    -0.061 A 
ATOM     38  H   LIG d   1      11.174  12.782  -5.370  0.00  0.00     0.062 H 
ATOM     39  C   LIG d   1       9.504  10.173  -4.038  0.00  0.00    -0.054 A 
ATOM     40  H   LIG d   1       8.885  12.054  -4.835  0.00  0.00     0.062 H 
ATOM     41  H   LIG d   1       8.498   9.857  -3.800  0.00  0.00     0.062 H 
ENDBRANCH   2  31
TORSDOF 4
ENDMDL
MODEL 8
REMARK VINA RESULT:      -5.4      2.751      5.480
REMARK  4 active torsions:
REMARK  status: ('A' for Active; 'I' for Inactive)
REMARK    1  A    between atoms: C_1  and  O_2 
REMARK    2  A    between atoms: O_2  and  C_3 
REMARK    3  A    between atoms: C_6  and  C_9 
REMARK    4  A    between atoms: C_10  and  C_21 
ROOT
ATOM      1  C   LIG d   1       4.277  -4.082  -7.729  0.00  0.00     0.075 A 
ATOM      2  C   LIG d   1       4.293  -2.761  -7.288  0.00  0.00     0.007 A 
ATOM      3  C   LIG d   1       3.540  -1.765  -8.068  0.00  0.00     0.027 A 
ATOM      4  C   LIG d   1       3.526  -0.421  -7.678  0.00  0.00    -0.032 A 
ATOM      5  C   LIG d   1       2.819   0.498  -8.422  0.00  0.00     0.042 A 
ATOM      6  C   LIG d   1       2.129   0.096  -9.558  0.00  0.00    -0.040 A 
ATOM      7  C   LIG d   1       2.141  -1.223  -9.955  0.00  0.00    -0.017 A 
ATOM      8  C   LIG d   1       2.847  -2.168  -9.220  0.00  0.00     0.140 A 
ATOM      9  O   LIG d   1       2.856  -3.460  -9.613  0.00  0.00    -0.422 OA
ATOM     10  C   LIG d   1       3.522  -4.410  -8.938  0.00  0.00     0.346 A 
ATOM     11  O   LIG d   1       3.496  -5.559  -9.338  0.00  0.00    -0.244 OA
ATOM     12 CL   LIG d   1       2.793   2.165  -7.938  0.00  0.00    -0.084 Cl
ATOM     13  H   LIG d   1       4.062  -0.108  -6.795  0.00  0.00     0.064 H 
ATOM     14  H   LIG d   1       1.579   0.825 -10.135  0.00  0.00     0.063 H 
ATOM     15  H   LIG d   1       1.599  -1.524 -10.841  0.00  0.00     0.066 H 
ENDROOT
BRANCH   1  16
ATOM     16  C   LIG d   1       5.009  -5.134  -6.989  0.00  0.00    -0.010 A 
ATOM     17  C   LIG d   1       6.350  -5.389  -7.278  0.00  0.00    -0.050 A 
ATOM     18  C   LIG d   1       7.028  -6.370  -6.587  0.00  0.00    -0.019 A 
ATOM     19  H   LIG d   1       6.856  -4.818  -8.043  0.00  0.00     0.062 H 
ATOM     20  C   LIG d   1       6.379  -7.104  -5.604  0.00  0.00     0.120 A 
ATOM     21  H   LIG d   1       8.067  -6.567  -6.811  0.00  0.00     0.065 H 
ATOM     22  C   LIG d   1       5.044  -6.854  -5.312  0.00  0.00    -0.019 A 
ATOM     23  C   LIG d   1       4.361  -5.870  -5.996  0.00  0.00    -0.050 A 
ATOM     24  H   LIG d   1       4.543  -7.427  -4.547  0.00  0.00     0.065 H 
ATOM     25  H   LIG d   1       3.324  -5.674  -5.766  0.00  0.00     0.062 H 
BRANCH  20  26
ATOM     26  O   LIG d   1       7.051  -8.071  -4.925  0.00  0.00    -0.495 OA
BRANCH  26  27
ATOM     27  C   LIG d   1       6.564  -9.408  -5.050  0.00  0.00     0.079 C 
ATOM     28  H   LIG d   1       6.403  -9.640  -6.102  0.00  0.00     0.066 H 
ATOM     29  H   LIG d   1       7.296 -10.102  -4.633  0.00  0.00     0.066 H 
ATOM     30  H   LIG d   1       5.623  -9.505  -4.507  0.00  0.00     0.066 H 
ENDBRANCH  26  27
ENDBRANCH  20  26
ENDBRANCH   1  16
BRANCH   2  31
ATOM     31  C   LIG d   1       5.039  -2.372  -6.074  0.00  0.00    -0.016 A 
ATOM     32  C   LIG d   1       6.360  -1.929  -6.173  0.00  0.00    -0.054 A 
ATOM     33  C   LIG d   1       7.050  -1.567  -5.034  0.00  0.00    -0.061 A 
ATOM     34  H   LIG d   1       6.841  -1.869  -7.138  0.00  0.00     0.062 H 
ATOM     35  C   LIG d   1       6.436  -1.643  -3.796  0.00  0.00    -0.062 A 
ATOM     36  H   LIG d   1       8.071  -1.224  -5.109  0.00  0.00     0.062 H 
ATOM     37  C   LIG d   1       5.127  -2.080  -3.691  0.00  0.00    -0.061 A 
ATOM     38  H   LIG d   1       6.981  -1.358  -2.908  0.00  0.00     0.062 H 
ATOM     39  C   LIG d   1       4.428  -2.450  -4.821  0.00  0.00    -0.054 A 
ATOM     40  H   LIG d   1       4.655  -2.136  -2.722  0.00  0.00     0.062 H 
ATOM     41  H   LIG d   1       3.408  -2.796  -4.736  0.00  0.00     0.062 H 
ENDBRANCH   2  31
TORSDOF 4
ENDMDL
MODEL 9
REMARK VINA RESULT:      -5.3     10.597     12.200
REMARK  4 active torsions:
REMARK  status: ('A' for Active; 'I' for Inactive)
REMARK    1  A    between atoms: C_1  and  O_2 
REMARK    2  A    between atoms: O_2  and  C_3 
REMARK    3  A    between atoms: C_6  and  C_9 
REMARK    4  A    between atoms: C_10  and  C_21 
ROOT
ATOM      1  C   LIG d   1      10.230   7.457  -5.071  0.00  0.00     0.075 A 
ATOM      2  C   LIG d   1      10.400   8.455  -4.115  0.00  0.00     0.007 A 
ATOM      3  C   LIG d   1      10.445   8.054  -2.699  0.00  0.00     0.027 A 
ATOM      4  C   LIG d   1      10.606   9.014  -1.695  0.00  0.00    -0.032 A 
ATOM      5  C   LIG d   1      10.641   8.621  -0.375  0.00  0.00     0.042 A 
ATOM      6  C   LIG d   1      10.510   7.280  -0.041  0.00  0.00    -0.040 A 
ATOM      7  C   LIG d   1      10.344   6.326  -1.022  0.00  0.00    -0.017 A 
ATOM      8  C   LIG d   1      10.306   6.700  -2.360  0.00  0.00     0.140 A 
ATOM      9  O   LIG d   1      10.143   5.761  -3.318  0.00  0.00    -0.422 OA
ATOM     10  C   LIG d   1      10.100   6.071  -4.623  0.00  0.00     0.346 A 
ATOM     11  O   LIG d   1       9.951   5.185  -5.444  0.00  0.00    -0.244 OA
ATOM     12 CL   LIG d   1      10.848   9.808   0.875  0.00  0.00    -0.084 Cl
ATOM     13  H   LIG d   1      10.708  10.057  -1.954  0.00  0.00     0.064 H 
ATOM     14  H   LIG d   1      10.537   6.982   0.997  0.00  0.00     0.063 H 
ATOM     15  H   LIG d   1      10.244   5.285  -0.749  0.00  0.00     0.066 H 
ENDROOT
BRANCH   1  16
ATOM     16  C   LIG d   1      10.182   7.791  -6.512  0.00  0.00    -0.010 A 
ATOM     17  C   LIG d   1      11.346   7.754  -7.279  0.00  0.00    -0.050 A 
ATOM     18  C   LIG d   1      11.297   8.066  -8.621  0.00  0.00    -0.019 A 
ATOM     19  H   LIG d   1      12.286   7.480  -6.822  0.00  0.00     0.062 H 
ATOM     20  C   LIG d   1      10.090   8.418  -9.209  0.00  0.00     0.120 A 
ATOM     21  H   LIG d   1      12.199   8.037  -9.215  0.00  0.00     0.065 H 
ATOM     22  C   LIG d   1       8.928   8.457  -8.450  0.00  0.00    -0.019 A 
ATOM     23  C   LIG d   1       8.969   8.140  -7.109  0.00  0.00    -0.050 A 
ATOM     24  H   LIG d   1       7.991   8.731  -8.912  0.00  0.00     0.065 H 
ATOM     25  H   LIG d   1       8.064   8.167  -6.519  0.00  0.00     0.062 H 
BRANCH  20  26
ATOM     26  O   LIG d   1      10.046   8.726 -10.533  0.00  0.00    -0.495 OA
BRANCH  26  27
ATOM     27  C   LIG d   1      10.939   8.017 -11.394  0.00  0.00     0.079 C 
ATOM     28  H   LIG d   1      10.538   7.025 -11.598  0.00  0.00     0.066 H 
ATOM     29  H   LIG d   1      11.050   8.563 -12.331  0.00  0.00     0.066 H 
ATOM     30  H   LIG d   1      11.912   7.924 -10.911  0.00  0.00     0.066 H 
ENDBRANCH  26  27
ENDBRANCH  20  26
ENDBRANCH   1  16
BRANCH   2  31
ATOM     31  C   LIG d   1      10.537   9.873  -4.510  0.00  0.00    -0.016 A 
ATOM     32  C   LIG d   1       9.403  10.678  -4.639  0.00  0.00    -0.054 A 
ATOM     33  C   LIG d   1       9.539  12.000  -5.008  0.00  0.00    -0.061 A 
ATOM     34  H   LIG d   1       8.422  10.266  -4.451  0.00  0.00     0.062 H 
ATOM     35  C   LIG d   1      10.795  12.529  -5.250  0.00  0.00    -0.062 A 
ATOM     36  H   LIG d   1       8.663  12.624  -5.108  0.00  0.00     0.062 H 
ATOM     37  C   LIG d   1      11.922  11.737  -5.122  0.00  0.00    -0.061 A 
ATOM     38  H   LIG d   1      10.895  13.566  -5.538  0.00  0.00     0.062 H 
ATOM     39  C   LIG d   1      11.800  10.412  -4.760  0.00  0.00    -0.054 A 
ATOM     40  H   LIG d   1      12.899  12.157  -5.312  0.00  0.00     0.062 H 
ATOM     41  H   LIG d   1      12.681   9.794  -4.666  0.00  0.00     0.062 H 
ENDBRANCH   2  31
TORSDOF 4
ENDMDL
MODEL 10
REMARK VINA RESULT:      -5.2     14.269     16.618
REMARK  4 active torsions:
REMARK  status: ('A' for Active; 'I' for Inactive)
REMARK    1  A    between atoms: C_1  and  O_2 
REMARK    2  A    between atoms: O_2  and  C_3 
REMARK    3  A    between atoms: C_6  and  C_9 
REMARK    4  A    between atoms: C_10  and  C_21 
ROOT
ATOM      1  C   LIG d   1      -0.774   9.694 -15.902  0.00  0.00     0.075 A 
ATOM      2  C   LIG d   1      -1.972  10.374 -16.108  0.00  0.00     0.007 A 
ATOM      3  C   LIG d   1      -3.181   9.855 -15.446  0.00  0.00     0.027 A 
ATOM      4  C   LIG d   1      -4.414  10.492 -15.622  0.00  0.00    -0.032 A 
ATOM      5  C   LIG d   1      -5.535   9.990 -14.999  0.00  0.00     0.042 A 
ATOM      6  C   LIG d   1      -5.446   8.855 -14.205  0.00  0.00    -0.040 A 
ATOM      7  C   LIG d   1      -4.237   8.216 -14.029  0.00  0.00    -0.017 A 
ATOM      8  C   LIG d   1      -3.093   8.704 -14.649  0.00  0.00     0.140 A 
ATOM      9  O   LIG d   1      -1.911   8.074 -14.474  0.00  0.00    -0.422 OA
ATOM     10  C   LIG d   1      -0.777   8.506 -15.049  0.00  0.00     0.346 A 
ATOM     11  O   LIG d   1       0.260   7.899 -14.858  0.00  0.00    -0.244 OA
ATOM     12 CL   LIG d   1      -7.067  10.781 -15.208  0.00  0.00    -0.084 Cl
ATOM     13  H   LIG d   1      -4.485  11.375 -16.239  0.00  0.00     0.064 H 
ATOM     14  H   LIG d   1      -6.332   8.469 -13.721  0.00  0.00     0.063 H 
ATOM     15  H   LIG d   1      -4.180   7.333 -13.408  0.00  0.00     0.066 H 
ENDROOT
BRANCH   1  16
ATOM     16  C   LIG d   1       0.479  10.165 -16.534  0.00  0.00    -0.010 A 
ATOM     17  C   LIG d   1       1.351  10.994 -15.828  0.00  0.00    -0.050 A 
ATOM     18  C   LIG d   1       2.516  11.431 -16.420  0.00  0.00    -0.019 A 
ATOM     19  H   LIG d   1       1.112  11.294 -14.818  0.00  0.00     0.062 H 
ATOM     20  C   LIG d   1       2.824  11.046 -17.718  0.00  0.00     0.120 A 
ATOM     21  H   LIG d   1       3.192  12.073 -15.873  0.00  0.00     0.065 H 
ATOM     22  C   LIG d   1       1.960  10.220 -18.425  0.00  0.00    -0.019 A 
ATOM     23  C   LIG d   1       0.795   9.775 -17.837  0.00  0.00    -0.050 A 
ATOM     24  H   LIG d   1       2.203   9.922 -19.434  0.00  0.00     0.065 H 
ATOM     25  H   LIG d   1       0.124   9.130 -18.386  0.00  0.00     0.062 H 
BRANCH  20  26
ATOM     26  O   LIG d   1       3.975  11.478 -18.298  0.00  0.00    -0.495 OA
BRANCH  26  27
ATOM     27  C   LIG d   1       4.782  12.382 -17.542  0.00  0.00     0.079 C 
ATOM     28  H   LIG d   1       4.595  12.236 -16.479  0.00  0.00     0.066 H 
ATOM     29  H   LIG d   1       5.835  12.193 -17.755  0.00  0.00     0.066 H 
ATOM     30  H   LIG d   1       4.535  13.408 -17.818  0.00  0.00     0.066 H 
ENDBRANCH  26  27
ENDBRANCH  20  26
ENDBRANCH   1  16
BRANCH   2  31
ATOM     31  C   LIG d   1      -2.028  11.580 -16.960  0.00  0.00    -0.016 A 
ATOM     32  C   LIG d   1      -1.780  12.840 -16.410  0.00  0.00    -0.054 A 
ATOM     33  C   LIG d   1      -1.834  13.961 -17.212  0.00  0.00    -0.061 A 
ATOM     34  H   LIG d   1      -1.548  12.936 -15.360  0.00  0.00     0.062 H 
ATOM     35  C   LIG d   1      -2.132  13.839 -18.558  0.00  0.00    -0.062 A 
ATOM     36  H   LIG d   1      -1.643  14.935 -16.788  0.00  0.00     0.062 H 
ATOM     37  C   LIG d   1      -2.377  12.594 -19.109  0.00  0.00    -0.061 A 
ATOM     38  H   LIG d   1      -2.172  14.721 -19.181  0.00  0.00     0.062 H 
ATOM     39  C   LIG d   1      -2.333  11.465 -18.317  0.00  0.00    -0.054 A 
ATOM     40  H   LIG d   1      -2.609  12.507 -20.160  0.00  0.00     0.062 H 
ATOM     41  H   LIG d   1      -2.529  10.495 -18.748  0.00  0.00     0.062 H 
ENDBRANCH   2  31
TORSDOF 4
ENDMDL
