MODEL 1
REMARK VINA RESULT:      -6.8      0.000      0.000
REMARK  11 active torsions:
REMARK  status: ('A' for Active; 'I' for Inactive)
REMARK    1  A    between atoms: C_1  and  C_2 
REMARK    2  A    between atoms: C_4  and  O_26 
REMARK    3  A    between atoms: C_5  and  C_25 
REMARK    4  A    between atoms: C_10  and  C_13 
REMARK    5  A    between atoms: C_13  and  C_15 
REMARK    6  A    between atoms: C_13  and  C_16 
REMARK       I    between atoms: C_16  and  N_18 
REMARK    7  A    between atoms: N_18  and  C_19 
REMARK    8  A    between atoms: C_19  and  C_20 
REMARK    9  A    between atoms: O_26  and  C_27 
REMARK   10  A    between atoms: C_27  and  C_28 
REMARK   11  A    between atoms: C_28  and  N_29 
ROOT
ATOM      1  C   LIG d   1       5.511   0.376  -2.834  0.00  0.00    -0.043 A 
ATOM      2  C   LIG d   1       6.407   1.363  -3.188  0.00  0.00    -0.017 A 
ATOM      3  C   LIG d   1       7.321   1.128  -4.204  0.00  0.00     0.124 A 
ATOM      4  C   LIG d   1       7.317  -0.091  -4.862  0.00  0.00    -0.005 A 
ATOM      5  C   LIG d   1       6.412  -1.080  -4.505  0.00  0.00    -0.037 A 
ATOM      6  C   LIG d   1       5.511  -0.848  -3.489  0.00  0.00    -0.041 A 
ATOM      7  C   LIG d   1       4.514  -1.884  -3.038  0.00  0.00    -0.027 C 
ATOM      8  C   LIG d   1       4.342  -2.963  -4.104  0.00  0.00    -0.045 C 
ATOM      9  C   LIG d   1       5.731  -3.480  -4.496  0.00  0.00    -0.026 C 
ATOM     10  H   LIG d   1       6.306  -3.748  -3.598  0.00  0.00     0.031 H 
ATOM     11  C   LIG d   1       6.456  -2.378  -5.268  0.00  0.00    -0.024 C 
ATOM     12  H   LIG d   1       6.399   2.313  -2.674  0.00  0.00     0.066 H 
ATOM     13  H   LIG d   1       4.866  -2.353  -2.108  0.00  0.00     0.031 H 
ATOM     14  H   LIG d   1       3.540  -1.402  -2.860  0.00  0.00     0.031 H 
ATOM     15  H   LIG d   1       3.736  -3.787  -3.699  0.00  0.00     0.027 H 
ATOM     16  H   LIG d   1       3.838  -2.535  -4.983  0.00  0.00     0.027 H 
ATOM     17  H   LIG d   1       5.966  -2.246  -6.244  0.00  0.00     0.032 H 
ATOM     18  H   LIG d   1       7.503  -2.679  -5.420  0.00  0.00     0.032 H 
ENDROOT
BRANCH   9  19
ATOM     19  C   LIG d   1       5.589  -4.720  -5.381  0.00  0.00     0.036 C 
ATOM     20  H   LIG d   1       5.288  -5.584  -4.770  0.00  0.00     0.039 H 
BRANCH  19  21
ATOM     21  C   LIG d   1       6.925  -5.010  -6.069  0.00  0.00    -0.054 C 
ATOM     22  H   LIG d   1       7.751  -4.722  -5.402  0.00  0.00     0.024 H 
ATOM     23  H   LIG d   1       6.989  -4.432  -7.003  0.00  0.00     0.024 H 
ATOM     24  H   LIG d   1       6.995  -6.084  -6.296  0.00  0.00     0.024 H 
ENDBRANCH  19  21
BRANCH  19  25
ATOM     25  C   LIG d   1       4.530  -4.476  -6.424  0.00  0.00     0.216 C 
ATOM     26  O   LIG d   1       3.467  -5.057  -6.356  0.00  0.00    -0.276 OA
ATOM     27  N   LIG d   1       4.761  -3.612  -7.432  0.00  0.00    -0.310 N 
ATOM     28  H   LIG d   1       5.724  -3.085  -7.493  0.00  0.00     0.149 HD
BRANCH  27  29
ATOM     29  C   LIG d   1       3.730  -3.375  -8.446  0.00  0.00     0.043 C 
ATOM     30  H   LIG d   1       4.112  -3.675  -9.433  0.00  0.00     0.052 H 
ATOM     31  H   LIG d   1       2.835  -3.967  -8.204  0.00  0.00     0.052 H 
BRANCH  29  32
ATOM     32  C   LIG d   1       3.375  -1.911  -8.467  0.00  0.00     0.007 A 
ATOM     33  S   LIG d   1       2.401  -1.007  -9.659  0.00  0.00    -0.100 SA
ATOM     34  C   LIG d   1       2.510   0.606  -8.902  0.00  0.00    -0.024 A 
ATOM     35  C   LIG d   1       3.269   0.352  -7.809  0.00  0.00    -0.054 A 
ATOM     36  H   LIG d   1       2.081   1.541  -9.230  0.00  0.00     0.069 H 
ATOM     37  C   LIG d   1       3.709  -0.939  -7.582  0.00  0.00    -0.050 A 
ATOM     38  H   LIG d   1       3.525   1.146  -7.122  0.00  0.00     0.062 H 
ATOM     39  H   LIG d   1       4.311  -1.169  -6.716  0.00  0.00     0.063 H 
ENDBRANCH  29  32
ENDBRANCH  27  29
ENDBRANCH  19  25
ENDBRANCH   9  19
BRANCH   4  40
ATOM     40  C   LIG d   1       8.306  -0.347  -5.969  0.00  0.00    -0.036 C 
ATOM     41  H   LIG d   1       7.769  -0.662  -6.875  0.00  0.00     0.028 H 
ATOM     42  H   LIG d   1       9.004  -1.140  -5.661  0.00  0.00     0.028 H 
ATOM     43  H   LIG d   1       8.869   0.575  -6.178  0.00  0.00     0.028 H 
ENDBRANCH   4  40
BRANCH   1  44
ATOM     44  C   LIG d   1       4.522   0.630  -1.725  0.00  0.00    -0.039 C 
ATOM     45  H   LIG d   1       4.815   1.535  -1.172  0.00  0.00     0.028 H 
ATOM     46  H   LIG d   1       4.509  -0.231  -1.041  0.00  0.00     0.028 H 
ATOM     47  H   LIG d   1       3.518   0.773  -2.154  0.00  0.00     0.028 H 
ENDBRANCH   1  44
BRANCH   3  48
ATOM     48  O   LIG d   1       8.214   2.091  -4.556  0.00  0.00    -0.490 OA
BRANCH  48  49
ATOM     49  C   LIG d   1       9.214   2.431  -3.595  0.00  0.00     0.102 C 
ATOM     50  H   LIG d   1       8.755   2.502  -2.597  0.00  0.00     0.071 H 
ATOM     51  H   LIG d   1       9.993   1.653  -3.584  0.00  0.00     0.071 H 
BRANCH  49  52
ATOM     52  C   LIG d   1       9.841   3.776  -3.964  0.00  0.00     0.033 C 
ATOM     53  H   LIG d   1      10.872   3.617  -4.314  0.00  0.00     0.046 H 
ATOM     54  H   LIG d   1       9.252   4.248  -4.764  0.00  0.00     0.046 H 
BRANCH  52  55
ATOM     55  N   LIG d   1       9.855   4.651  -2.784  0.00  0.00    -0.295 N 
ATOM     56  C   LIG d   1      11.117   4.516  -2.042  0.00  0.00     0.022 C 
ATOM     57  C   LIG d   1      11.063   5.398  -0.791  0.00  0.00     0.060 C 
ATOM     58  H   LIG d   1      11.257   3.466  -1.747  0.00  0.00     0.045 H 
ATOM     59  H   LIG d   1      11.953   4.834  -2.681  0.00  0.00     0.045 H 
ATOM     60  O   LIG d   1      10.804   6.749  -1.178  0.00  0.00    -0.377 OA
ATOM     61  H   LIG d   1      12.026   5.345  -0.262  0.00  0.00     0.057 H 
ATOM     62  H   LIG d   1      10.260   5.046  -0.127  0.00  0.00     0.057 H 
ATOM     63  C   LIG d   1       9.582   6.917  -1.902  0.00  0.00     0.060 C 
ATOM     64  C   LIG d   1       9.620   6.052  -3.164  0.00  0.00     0.022 C 
ATOM     65  H   LIG d   1       9.464   7.973  -2.185  0.00  0.00     0.057 H 
ATOM     66  H   LIG d   1       8.736   6.610  -1.271  0.00  0.00     0.057 H 
ATOM     67  H   LIG d   1      10.433   6.394  -3.821  0.00  0.00     0.045 H 
ATOM     68  H   LIG d   1       8.661   6.133  -3.695  0.00  0.00     0.045 H 
ENDBRANCH  52  55
ENDBRANCH  49  52
ENDBRANCH  48  49
ENDBRANCH   3  48
TORSDOF 11
ENDMDL
MODEL 2
REMARK VINA RESULT:      -6.6      4.345      9.404
REMARK  11 active torsions:
REMARK  status: ('A' for Active; 'I' for Inactive)
REMARK    1  A    between atoms: C_1  and  C_2 
REMARK    2  A    between atoms: C_4  and  O_26 
REMARK    3  A    between atoms: C_5  and  C_25 
REMARK    4  A    between atoms: C_10  and  C_13 
REMARK    5  A    between atoms: C_13  and  C_15 
REMARK    6  A    between atoms: C_13  and  C_16 
REMARK       I    between atoms: C_16  and  N_18 
REMARK    7  A    between atoms: N_18  and  C_19 
REMARK    8  A    between atoms: C_19  and  C_20 
REMARK    9  A    between atoms: O_26  and  C_27 
REMARK   10  A    between atoms: C_27  and  C_28 
REMARK   11  A    between atoms: C_28  and  N_29 
ROOT
ATOM      1  C   LIG d   1       8.089  -4.629  -4.568  0.00  0.00    -0.043 A 
ATOM      2  C   LIG d   1       7.606  -5.666  -5.337  0.00  0.00    -0.017 A 
ATOM      3  C   LIG d   1       6.326  -5.591  -5.867  0.00  0.00     0.124 A 
ATOM      4  C   LIG d   1       5.551  -4.469  -5.629  0.00  0.00    -0.005 A 
ATOM      5  C   LIG d   1       6.041  -3.425  -4.856  0.00  0.00    -0.037 A 
ATOM      6  C   LIG d   1       7.308  -3.506  -4.323  0.00  0.00    -0.041 A 
ATOM      7  C   LIG d   1       7.896  -2.419  -3.461  0.00  0.00    -0.027 C 
ATOM      8  C   LIG d   1       7.127  -1.113  -3.648  0.00  0.00    -0.045 C 
ATOM      9  C   LIG d   1       5.633  -1.400  -3.459  0.00  0.00    -0.026 C 
ATOM     10  H   LIG d   1       5.466  -1.952  -2.522  0.00  0.00     0.031 H 
ATOM     11  C   LIG d   1       5.148  -2.231  -4.645  0.00  0.00    -0.024 C 
ATOM     12  H   LIG d   1       8.220  -6.535  -5.524  0.00  0.00     0.066 H 
ATOM     13  H   LIG d   1       7.841  -2.718  -2.404  0.00  0.00     0.031 H 
ATOM     14  H   LIG d   1       8.947  -2.256  -3.743  0.00  0.00     0.031 H 
ATOM     15  H   LIG d   1       7.466  -0.378  -2.902  0.00  0.00     0.027 H 
ATOM     16  H   LIG d   1       7.310  -0.720  -4.658  0.00  0.00     0.027 H 
ATOM     17  H   LIG d   1       5.157  -1.601  -5.548  0.00  0.00     0.032 H 
ATOM     18  H   LIG d   1       4.121  -2.571  -4.446  0.00  0.00     0.032 H 
ENDROOT
BRANCH   9  19
ATOM     19  C   LIG d   1       4.858  -0.082  -3.401  0.00  0.00     0.036 C 
ATOM     20  H   LIG d   1       5.519   0.754  -3.676  0.00  0.00     0.039 H 
BRANCH  19  21
ATOM     21  C   LIG d   1       4.315   0.128  -1.985  0.00  0.00    -0.054 C 
ATOM     22  H   LIG d   1       4.073   1.191  -1.840  0.00  0.00     0.024 H 
ATOM     23  H   LIG d   1       5.076  -0.179  -1.252  0.00  0.00     0.024 H 
ATOM     24  H   LIG d   1       3.407  -0.477  -1.848  0.00  0.00     0.024 H 
ENDBRANCH  19  21
BRANCH  19  25
ATOM     25  C   LIG d   1       3.711  -0.130  -4.376  0.00  0.00     0.216 C 
ATOM     26  O   LIG d   1       2.623  -0.526  -4.014  0.00  0.00    -0.276 OA
ATOM     27  N   LIG d   1       3.892   0.268  -5.651  0.00  0.00    -0.310 N 
ATOM     28  H   LIG d   1       4.878   0.628  -5.979  0.00  0.00     0.149 HD
BRANCH  27  29
ATOM     29  C   LIG d   1       2.776   0.221  -6.600  0.00  0.00     0.043 C 
ATOM     30  H   LIG d   1       2.459  -0.822  -6.741  0.00  0.00     0.052 H 
ATOM     31  H   LIG d   1       1.935   0.810  -6.205  0.00  0.00     0.052 H 
BRANCH  29  32
ATOM     32  C   LIG d   1       3.217   0.797  -7.921  0.00  0.00     0.007 A 
ATOM     33  S   LIG d   1       4.224   0.051  -9.193  0.00  0.00    -0.100 SA
ATOM     34  C   LIG d   1       4.223   1.414 -10.345  0.00  0.00    -0.024 A 
ATOM     35  C   LIG d   1       3.468   2.331  -9.695  0.00  0.00    -0.054 A 
ATOM     36  H   LIG d   1       4.701   1.488 -11.311  0.00  0.00     0.069 H 
ATOM     37  C   LIG d   1       2.947   2.014  -8.454  0.00  0.00    -0.050 A 
ATOM     38  H   LIG d   1       3.272   3.296 -10.140  0.00  0.00     0.062 H 
ATOM     39  H   LIG d   1       2.337   2.725  -7.917  0.00  0.00     0.063 H 
ENDBRANCH  29  32
ENDBRANCH  27  29
ENDBRANCH  19  25
ENDBRANCH   9  19
BRANCH   4  40
ATOM     40  C   LIG d   1       4.162  -4.382  -6.207  0.00  0.00    -0.036 C 
ATOM     41  H   LIG d   1       4.097  -3.514  -6.878  0.00  0.00     0.028 H 
ATOM     42  H   LIG d   1       3.431  -4.272  -5.392  0.00  0.00     0.028 H 
ATOM     43  H   LIG d   1       3.943  -5.300  -6.773  0.00  0.00     0.028 H 
ENDBRANCH   4  40
BRANCH   1  44
ATOM     44  C   LIG d   1       9.477  -4.714  -3.987  0.00  0.00    -0.039 C 
ATOM     45  H   LIG d   1      10.157  -4.073  -4.568  0.00  0.00     0.028 H 
ATOM     46  H   LIG d   1       9.829  -5.755  -4.029  0.00  0.00     0.028 H 
ATOM     47  H   LIG d   1       9.459  -4.375  -2.940  0.00  0.00     0.028 H 
ENDBRANCH   1  44
BRANCH   3  48
ATOM     48  O   LIG d   1       5.838  -6.612  -6.621  0.00  0.00    -0.490 OA
BRANCH  48  49
ATOM     49  C   LIG d   1       5.149  -7.655  -5.931  0.00  0.00     0.102 C 
ATOM     50  H   LIG d   1       5.005  -7.367  -4.879  0.00  0.00     0.071 H 
ATOM     51  H   LIG d   1       4.168  -7.822  -6.402  0.00  0.00     0.071 H 
BRANCH  49  52
ATOM     52  C   LIG d   1       5.973  -8.942  -5.999  0.00  0.00     0.033 C 
ATOM     53  H   LIG d   1       6.167  -9.199  -7.050  0.00  0.00     0.046 H 
ATOM     54  H   LIG d   1       6.928  -8.794  -5.475  0.00  0.00     0.046 H 
BRANCH  52  55
ATOM     55  N   LIG d   1       5.227 -10.035  -5.359  0.00  0.00    -0.295 N 
ATOM     56  C   LIG d   1       4.392  -9.530  -4.260  0.00  0.00     0.022 C 
ATOM     57  C   LIG d   1       3.681 -10.707  -3.585  0.00  0.00     0.060 C 
ATOM     58  H   LIG d   1       5.026  -9.013  -3.526  0.00  0.00     0.045 H 
ATOM     59  H   LIG d   1       3.645  -8.829  -4.659  0.00  0.00     0.045 H 
ATOM     60  O   LIG d   1       2.918 -11.419  -4.561  0.00  0.00    -0.377 OA
ATOM     61  H   LIG d   1       3.011 -10.330  -2.798  0.00  0.00     0.057 H 
ATOM     62  H   LIG d   1       4.427 -11.381  -3.139  0.00  0.00     0.057 H 
ATOM     63  C   LIG d   1       3.700 -11.926  -5.646  0.00  0.00     0.060 C 
ATOM     64  C   LIG d   1       4.411 -10.762  -6.342  0.00  0.00     0.022 C 
ATOM     65  H   LIG d   1       3.044 -12.438  -6.366  0.00  0.00     0.057 H 
ATOM     66  H   LIG d   1       4.447 -12.635  -5.262  0.00  0.00     0.057 H 
ATOM     67  H   LIG d   1       3.664 -10.080  -6.775  0.00  0.00     0.045 H 
ATOM     68  H   LIG d   1       5.058 -11.151  -7.142  0.00  0.00     0.045 H 
ENDBRANCH  52  55
ENDBRANCH  49  52
ENDBRANCH  48  49
ENDBRANCH   3  48
TORSDOF 11
ENDMDL
MODEL 3
REMARK VINA RESULT:      -6.5      4.664      7.617
REMARK  11 active torsions:
REMARK  status: ('A' for Active; 'I' for Inactive)
REMARK    1  A    between atoms: C_1  and  C_2 
REMARK    2  A    between atoms: C_4  and  O_26 
REMARK    3  A    between atoms: C_5  and  C_25 
REMARK    4  A    between atoms: C_10  and  C_13 
REMARK    5  A    between atoms: C_13  and  C_15 
REMARK    6  A    between atoms: C_13  and  C_16 
REMARK       I    between atoms: C_16  and  N_18 
REMARK    7  A    between atoms: N_18  and  C_19 
REMARK    8  A    between atoms: C_19  and  C_20 
REMARK    9  A    between atoms: O_26  and  C_27 
REMARK   10  A    between atoms: C_27  and  C_28 
REMARK   11  A    between atoms: C_28  and  N_29 
ROOT
ATOM      1  C   LIG d   1       3.175  -0.321  -8.115  0.00  0.00    -0.043 A 
ATOM      2  C   LIG d   1       4.093  -0.827  -7.219  0.00  0.00    -0.017 A 
ATOM      3  C   LIG d   1       4.447  -2.167  -7.281  0.00  0.00     0.124 A 
ATOM      4  C   LIG d   1       3.886  -2.980  -8.251  0.00  0.00    -0.005 A 
ATOM      5  C   LIG d   1       2.965  -2.467  -9.154  0.00  0.00    -0.037 A 
ATOM      6  C   LIG d   1       2.607  -1.138  -9.084  0.00  0.00    -0.041 A 
ATOM      7  C   LIG d   1       1.602  -0.520 -10.020  0.00  0.00    -0.027 C 
ATOM      8  C   LIG d   1       1.413  -1.394 -11.258  0.00  0.00    -0.045 C 
ATOM      9  C   LIG d   1       1.125  -2.828 -10.799  0.00  0.00    -0.026 C 
ATOM     10  H   LIG d   1       0.318  -2.834 -10.051  0.00  0.00     0.031 H 
ATOM     11  C   LIG d   1       2.402  -3.405 -10.189  0.00  0.00    -0.024 C 
ATOM     12  H   LIG d   1       4.530  -0.185  -6.469  0.00  0.00     0.066 H 
ATOM     13  H   LIG d   1       0.635  -0.417  -9.505  0.00  0.00     0.031 H 
ATOM     14  H   LIG d   1       1.957   0.473 -10.336  0.00  0.00     0.031 H 
ATOM     15  H   LIG d   1       0.569  -1.013 -11.851  0.00  0.00     0.027 H 
ATOM     16  H   LIG d   1       2.328  -1.370 -11.867  0.00  0.00     0.027 H 
ATOM     17  H   LIG d   1       3.142  -3.555 -10.989  0.00  0.00     0.032 H 
ATOM     18  H   LIG d   1       2.167  -4.371  -9.719  0.00  0.00     0.032 H 
ENDROOT
BRANCH   9  19
ATOM     19  C   LIG d   1       0.697  -3.677 -11.997  0.00  0.00     0.036 C 
ATOM     20  H   LIG d   1       1.540  -4.295 -12.338  0.00  0.00     0.039 H 
BRANCH  19  21
ATOM     21  C   LIG d   1       0.231  -2.760 -13.130  0.00  0.00    -0.054 C 
ATOM     22  H   LIG d   1       0.806  -2.983 -14.041  0.00  0.00     0.024 H 
ATOM     23  H   LIG d   1       0.390  -1.711 -12.842  0.00  0.00     0.024 H 
ATOM     24  H   LIG d   1      -0.839  -2.930 -13.322  0.00  0.00     0.024 H 
ENDBRANCH  19  21
BRANCH  19  25
ATOM     25  C   LIG d   1      -0.433  -4.587 -11.590  0.00  0.00     0.216 C 
ATOM     26  O   LIG d   1      -0.701  -5.560 -12.264  0.00  0.00    -0.276 OA
ATOM     27  N   LIG d   1      -1.147  -4.321 -10.478  0.00  0.00    -0.310 N 
ATOM     28  H   LIG d   1      -0.903  -3.440  -9.867  0.00  0.00     0.149 HD
BRANCH  27  29
ATOM     29  C   LIG d   1      -2.245  -5.207 -10.083  0.00  0.00     0.043 C 
ATOM     30  H   LIG d   1      -2.175  -6.150 -10.644  0.00  0.00     0.052 H 
ATOM     31  H   LIG d   1      -2.178  -5.416  -9.005  0.00  0.00     0.052 H 
BRANCH  29  32
ATOM     32  C   LIG d   1      -3.561  -4.538 -10.385  0.00  0.00     0.007 A 
ATOM     33  S   LIG d   1      -4.166  -3.894 -11.936  0.00  0.00    -0.100 SA
ATOM     34  C   LIG d   1      -5.752  -3.309 -11.365  0.00  0.00    -0.024 A 
ATOM     35  C   LIG d   1      -5.717  -3.639 -10.051  0.00  0.00    -0.054 A 
ATOM     36  H   LIG d   1      -6.538  -2.820 -11.922  0.00  0.00     0.069 H 
ATOM     37  C   LIG d   1      -4.596  -4.273  -9.549  0.00  0.00    -0.050 A 
ATOM     38  H   LIG d   1      -6.553  -3.413  -9.406  0.00  0.00     0.062 H 
ATOM     39  H   LIG d   1      -4.544  -4.552  -8.507  0.00  0.00     0.063 H 
ENDBRANCH  29  32
ENDBRANCH  27  29
ENDBRANCH  19  25
ENDBRANCH   9  19
BRANCH   4  40
ATOM     40  C   LIG d   1       4.273  -4.435  -8.323  0.00  0.00    -0.036 C 
ATOM     41  H   LIG d   1       4.986  -4.665  -7.519  0.00  0.00     0.028 H 
ATOM     42  H   LIG d   1       4.738  -4.642  -9.298  0.00  0.00     0.028 H 
ATOM     43  H   LIG d   1       3.374  -5.059  -8.206  0.00  0.00     0.028 H 
ENDBRANCH   4  40
BRANCH   1  44
ATOM     44  C   LIG d   1       2.786   1.133  -8.043  0.00  0.00    -0.039 C 
ATOM     45  H   LIG d   1       1.689   1.218  -8.015  0.00  0.00     0.028 H 
ATOM     46  H   LIG d   1       3.172   1.661  -8.928  0.00  0.00     0.028 H 
ATOM     47  H   LIG d   1       3.211   1.583  -7.134  0.00  0.00     0.028 H 
ENDBRANCH   1  44
BRANCH   3  48
ATOM     48  O   LIG d   1       5.345  -2.677  -6.396  0.00  0.00    -0.490 OA
BRANCH  48  49
ATOM     49  C   LIG d   1       4.878  -2.929  -5.070  0.00  0.00     0.102 C 
ATOM     50  H   LIG d   1       3.835  -2.591  -4.979  0.00  0.00     0.071 H 
ATOM     51  H   LIG d   1       4.933  -4.007  -4.859  0.00  0.00     0.071 H 
BRANCH  49  52
ATOM     52  C   LIG d   1       5.750  -2.168  -4.070  0.00  0.00     0.033 C 
ATOM     53  H   LIG d   1       6.367  -2.881  -3.504  0.00  0.00     0.046 H 
ATOM     54  H   LIG d   1       6.403  -1.468  -4.611  0.00  0.00     0.046 H 
BRANCH  52  55
ATOM     55  N   LIG d   1       4.891  -1.421  -3.141  0.00  0.00    -0.295 N 
ATOM     56  C   LIG d   1       5.490  -0.122  -2.798  0.00  0.00     0.022 C 
ATOM     57  C   LIG d   1       4.593   0.595  -1.785  0.00  0.00     0.060 C 
ATOM     58  H   LIG d   1       6.486  -0.283  -2.360  0.00  0.00     0.045 H 
ATOM     59  H   LIG d   1       5.582   0.490  -3.707  0.00  0.00     0.045 H 
ATOM     60  O   LIG d   1       3.280   0.733  -2.332  0.00  0.00    -0.377 OA
ATOM     61  H   LIG d   1       5.007   1.591  -1.568  0.00  0.00     0.057 H 
ATOM     62  H   LIG d   1       4.544   0.008  -0.856  0.00  0.00     0.057 H 
ATOM     63  C   LIG d   1       2.666  -0.512  -2.677  0.00  0.00     0.060 C 
ATOM     64  C   LIG d   1       3.542  -1.241  -3.699  0.00  0.00     0.022 C 
ATOM     65  H   LIG d   1       1.674  -0.326  -3.112  0.00  0.00     0.057 H 
ATOM     66  H   LIG d   1       2.561  -1.133  -1.775  0.00  0.00     0.057 H 
ATOM     67  H   LIG d   1       3.603  -0.647  -4.622  0.00  0.00     0.045 H 
ATOM     68  H   LIG d   1       3.104  -2.225  -3.925  0.00  0.00     0.045 H 
ENDBRANCH  52  55
ENDBRANCH  49  52
ENDBRANCH  48  49
ENDBRANCH   3  48
TORSDOF 11
ENDMDL
MODEL 4
REMARK VINA RESULT:      -6.5      4.490      7.530
REMARK  11 active torsions:
REMARK  status: ('A' for Active; 'I' for Inactive)
REMARK    1  A    between atoms: C_1  and  C_2 
REMARK    2  A    between atoms: C_4  and  O_26 
REMARK    3  A    between atoms: C_5  and  C_25 
REMARK    4  A    between atoms: C_10  and  C_13 
REMARK    5  A    between atoms: C_13  and  C_15 
REMARK    6  A    between atoms: C_13  and  C_16 
REMARK       I    between atoms: C_16  and  N_18 
REMARK    7  A    between atoms: N_18  and  C_19 
REMARK    8  A    between atoms: C_19  and  C_20 
REMARK    9  A    between atoms: O_26  and  C_27 
REMARK   10  A    between atoms: C_27  and  C_28 
REMARK   11  A    between atoms: C_28  and  N_29 
ROOT
ATOM      1  C   LIG d   1       3.304   0.085  -8.196  0.00  0.00    -0.043 A 
ATOM      2  C   LIG d   1       4.332  -0.246  -7.339  0.00  0.00    -0.017 A 
ATOM      3  C   LIG d   1       4.778  -1.558  -7.274  0.00  0.00     0.124 A 
ATOM      4  C   LIG d   1       4.195  -2.520  -8.081  0.00  0.00    -0.005 A 
ATOM      5  C   LIG d   1       3.162  -2.184  -8.944  0.00  0.00    -0.037 A 
ATOM      6  C   LIG d   1       2.714  -0.883  -9.000  0.00  0.00    -0.041 A 
ATOM      7  C   LIG d   1       1.586  -0.452  -9.901  0.00  0.00    -0.027 C 
ATOM      8  C   LIG d   1       1.354  -1.485 -11.001  0.00  0.00    -0.045 C 
ATOM      9  C   LIG d   1       1.215  -2.864 -10.347  0.00  0.00    -0.026 C 
ATOM     10  H   LIG d   1       0.480  -2.827  -9.529  0.00  0.00     0.031 H 
ATOM     11  C   LIG d   1       2.580  -3.279  -9.799  0.00  0.00    -0.024 C 
ATOM     12  H   LIG d   1       4.786   0.513  -6.718  0.00  0.00     0.066 H 
ATOM     13  H   LIG d   1       0.664  -0.345  -9.310  0.00  0.00     0.031 H 
ATOM     14  H   LIG d   1       1.837   0.513 -10.366  0.00  0.00     0.031 H 
ATOM     15  H   LIG d   1       0.433  -1.236 -11.550  0.00  0.00     0.027 H 
ATOM     16  H   LIG d   1       2.207  -1.481 -11.695  0.00  0.00     0.027 H 
ATOM     17  H   LIG d   1       3.255  -3.482 -10.645  0.00  0.00     0.032 H 
ATOM     18  H   LIG d   1       2.461  -4.191  -9.197  0.00  0.00     0.032 H 
ENDROOT
BRANCH   9  19
ATOM     19  C   LIG d   1       0.746  -3.884 -11.387  0.00  0.00     0.036 C 
ATOM     20  H   LIG d   1       1.529  -4.638 -11.552  0.00  0.00     0.039 H 
BRANCH  19  21
ATOM     21  C   LIG d   1       0.432  -3.163 -12.700  0.00  0.00    -0.054 C 
ATOM     22  H   LIG d   1       0.336  -3.903 -13.509  0.00  0.00     0.024 H 
ATOM     23  H   LIG d   1       1.246  -2.463 -12.938  0.00  0.00     0.024 H 
ATOM     24  H   LIG d   1      -0.512  -2.608 -12.597  0.00  0.00     0.024 H 
ENDBRANCH  19  21
BRANCH  19  25
ATOM     25  C   LIG d   1      -0.494  -4.579 -10.887  0.00  0.00     0.216 C 
ATOM     26  O   LIG d   1      -1.556  -4.401 -11.446  0.00  0.00    -0.276 OA
ATOM     27  N   LIG d   1      -0.424  -5.399  -9.820  0.00  0.00    -0.310 N 
ATOM     28  H   LIG d   1       0.539  -5.561  -9.314  0.00  0.00     0.149 HD
BRANCH  27  29
ATOM     29  C   LIG d   1      -1.630  -6.074  -9.334  0.00  0.00     0.043 C 
ATOM     30  H   LIG d   1      -1.616  -6.104  -8.235  0.00  0.00     0.052 H 
ATOM     31  H   LIG d   1      -2.520  -5.525  -9.674  0.00  0.00     0.052 H 
BRANCH  29  32
ATOM     32  C   LIG d   1      -1.669  -7.480  -9.875  0.00  0.00     0.007 A 
ATOM     33  S   LIG d   1      -0.388  -8.400 -10.711  0.00  0.00    -0.100 SA
ATOM     34  C   LIG d   1      -1.295  -9.913 -10.976  0.00  0.00    -0.024 A 
ATOM     35  C   LIG d   1      -2.495  -9.622 -10.419  0.00  0.00    -0.054 A 
ATOM     36  H   LIG d   1      -0.972 -10.825 -11.456  0.00  0.00     0.069 H 
ATOM     37  C   LIG d   1      -2.686  -8.377  -9.850  0.00  0.00    -0.050 A 
ATOM     38  H   LIG d   1      -3.291 -10.353 -10.416  0.00  0.00     0.062 H 
ATOM     39  H   LIG d   1      -3.631  -8.121  -9.394  0.00  0.00     0.063 H 
ENDBRANCH  29  32
ENDBRANCH  27  29
ENDBRANCH  19  25
ENDBRANCH   9  19
BRANCH   4  40
ATOM     40  C   LIG d   1       4.681  -3.945  -8.016  0.00  0.00    -0.036 C 
ATOM     41  H   LIG d   1       5.590  -3.995  -7.400  0.00  0.00     0.028 H 
ATOM     42  H   LIG d   1       4.905  -4.303  -9.031  0.00  0.00     0.028 H 
ATOM     43  H   LIG d   1       3.900  -4.578  -7.568  0.00  0.00     0.028 H 
ENDBRANCH   4  40
BRANCH   1  44
ATOM     44  C   LIG d   1       2.815   1.509  -8.261  0.00  0.00    -0.039 C 
ATOM     45  H   LIG d   1       3.327   2.108  -7.493  0.00  0.00     0.028 H 
ATOM     46  H   LIG d   1       1.730   1.533  -8.082  0.00  0.00     0.028 H 
ATOM     47  H   LIG d   1       3.032   1.926  -9.256  0.00  0.00     0.028 H 
ENDBRANCH   1  44
BRANCH   3  48
ATOM     48  O   LIG d   1       5.786  -1.895  -6.427  0.00  0.00    -0.490 OA
BRANCH  48  49
ATOM     49  C   LIG d   1       6.083  -0.977  -5.374  0.00  0.00     0.102 C 
ATOM     50  H   LIG d   1       7.070  -0.523  -5.552  0.00  0.00     0.071 H 
ATOM     51  H   LIG d   1       5.317  -0.188  -5.347  0.00  0.00     0.071 H 
BRANCH  49  52
ATOM     52  C   LIG d   1       6.097  -1.720  -4.037  0.00  0.00     0.033 C 
ATOM     53  H   LIG d   1       5.826  -2.773  -4.200  0.00  0.00     0.046 H 
ATOM     54  H   LIG d   1       7.104  -1.665  -3.598  0.00  0.00     0.046 H 
BRANCH  52  55
ATOM     55  N   LIG d   1       5.128  -1.101  -3.123  0.00  0.00    -0.295 N 
ATOM     56  C   LIG d   1       5.568   0.243  -2.720  0.00  0.00     0.022 C 
ATOM     57  C   LIG d   1       4.562   0.825  -1.723  0.00  0.00     0.060 C 
ATOM     58  H   LIG d   1       6.559   0.177  -2.247  0.00  0.00     0.045 H 
ATOM     59  H   LIG d   1       5.626   0.891  -3.606  0.00  0.00     0.045 H 
ATOM     60  O   LIG d   1       3.262   0.837  -2.318  0.00  0.00    -0.377 OA
ATOM     61  H   LIG d   1       4.856   1.852  -1.461  0.00  0.00     0.057 H 
ATOM     62  H   LIG d   1       4.544   0.206  -0.814  0.00  0.00     0.057 H 
ATOM     63  C   LIG d   1       2.802  -0.455  -2.722  0.00  0.00     0.060 C 
ATOM     64  C   LIG d   1       3.790  -1.051  -3.728  0.00  0.00     0.022 C 
ATOM     65  H   LIG d   1       1.811  -0.364  -3.191  0.00  0.00     0.057 H 
ATOM     66  H   LIG d   1       2.732  -1.113  -1.843  0.00  0.00     0.057 H 
ATOM     67  H   LIG d   1       3.818  -0.423  -4.631  0.00  0.00     0.045 H 
ATOM     68  H   LIG d   1       3.471  -2.068  -4.000  0.00  0.00     0.045 H 
ENDBRANCH  52  55
ENDBRANCH  49  52
ENDBRANCH  48  49
ENDBRANCH   3  48
TORSDOF 11
ENDMDL
MODEL 5
REMARK VINA RESULT:      -6.4      5.499     11.872
REMARK  11 active torsions:
REMARK  status: ('A' for Active; 'I' for Inactive)
REMARK    1  A    between atoms: C_1  and  C_2 
REMARK    2  A    between atoms: C_4  and  O_26 
REMARK    3  A    between atoms: C_5  and  C_25 
REMARK    4  A    between atoms: C_10  and  C_13 
REMARK    5  A    between atoms: C_13  and  C_15 
REMARK    6  A    between atoms: C_13  and  C_16 
REMARK       I    between atoms: C_16  and  N_18 
REMARK    7  A    between atoms: N_18  and  C_19 
REMARK    8  A    between atoms: C_19  and  C_20 
REMARK    9  A    between atoms: O_26  and  C_27 
REMARK   10  A    between atoms: C_27  and  C_28 
REMARK   11  A    between atoms: C_28  and  N_29 
ROOT
ATOM      1  C   LIG d   1       3.529  -1.095 -13.770  0.00  0.00    -0.043 A 
ATOM      2  C   LIG d   1       2.675  -2.003 -14.360  0.00  0.00    -0.017 A 
ATOM      3  C   LIG d   1       1.618  -2.528 -13.630  0.00  0.00     0.124 A 
ATOM      4  C   LIG d   1       1.423  -2.124 -12.321  0.00  0.00    -0.005 A 
ATOM      5  C   LIG d   1       2.283  -1.208 -11.730  0.00  0.00    -0.037 A 
ATOM      6  C   LIG d   1       3.337  -0.696 -12.454  0.00  0.00    -0.041 A 
ATOM      7  C   LIG d   1       4.318   0.288 -11.871  0.00  0.00    -0.027 C 
ATOM      8  C   LIG d   1       3.740   0.944 -10.619  0.00  0.00    -0.045 C 
ATOM      9  C   LIG d   1       3.242  -0.161  -9.680  0.00  0.00    -0.026 C 
ATOM     10  H   LIG d   1       4.026  -0.919  -9.533  0.00  0.00     0.031 H 
ATOM     11  C   LIG d   1       2.006  -0.806 -10.305  0.00  0.00    -0.024 C 
ATOM     12  H   LIG d   1       2.830  -2.308 -15.385  0.00  0.00     0.066 H 
ATOM     13  H   LIG d   1       5.248  -0.235 -11.603  0.00  0.00     0.031 H 
ATOM     14  H   LIG d   1       4.537   1.070 -12.613  0.00  0.00     0.031 H 
ATOM     15  H   LIG d   1       4.521   1.537 -10.120  0.00  0.00     0.027 H 
ATOM     16  H   LIG d   1       2.905   1.602 -10.901  0.00  0.00     0.027 H 
ATOM     17  H   LIG d   1       1.177  -0.083 -10.282  0.00  0.00     0.032 H 
ATOM     18  H   LIG d   1       1.734  -1.696  -9.719  0.00  0.00     0.032 H 
ENDROOT
BRANCH   9  19
ATOM     19  C   LIG d   1       2.878   0.442  -8.322  0.00  0.00     0.036 C 
ATOM     20  H   LIG d   1       1.885   0.085  -8.008  0.00  0.00     0.039 H 
BRANCH  19  21
ATOM     21  C   LIG d   1       2.873   1.968  -8.427  0.00  0.00    -0.054 C 
ATOM     22  H   LIG d   1       1.890   2.307  -8.786  0.00  0.00     0.024 H 
ATOM     23  H   LIG d   1       3.653   2.290  -9.133  0.00  0.00     0.024 H 
ATOM     24  H   LIG d   1       3.071   2.404  -7.437  0.00  0.00     0.024 H 
ENDBRANCH  19  21
BRANCH  19  25
ATOM     25  C   LIG d   1       3.891   0.013  -7.292  0.00  0.00     0.216 C 
ATOM     26  O   LIG d   1       5.010   0.480  -7.311  0.00  0.00    -0.276 OA
ATOM     27  N   LIG d   1       3.554  -0.890  -6.349  0.00  0.00    -0.310 N 
ATOM     28  H   LIG d   1       2.539  -1.312  -6.331  0.00  0.00     0.149 HD
BRANCH  27  29
ATOM     29  C   LIG d   1       4.540  -1.306  -5.348  0.00  0.00     0.043 C 
ATOM     30  H   LIG d   1       4.373  -2.362  -5.088  0.00  0.00     0.052 H 
ATOM     31  H   LIG d   1       5.553  -1.186  -5.759  0.00  0.00     0.052 H 
BRANCH  29  32
ATOM     32  C   LIG d   1       4.392  -0.454  -4.114  0.00  0.00     0.007 A 
ATOM     33  S   LIG d   1       5.642   0.061  -2.948  0.00  0.00    -0.100 SA
ATOM     34  C   LIG d   1       4.593   1.006  -1.856  0.00  0.00    -0.024 A 
ATOM     35  C   LIG d   1       3.380   0.868  -2.444  0.00  0.00    -0.054 A 
ATOM     36  H   LIG d   1       4.856   1.548  -0.960  0.00  0.00     0.069 H 
ATOM     37  C   LIG d   1       3.277   0.124  -3.604  0.00  0.00    -0.050 A 
ATOM     38  H   LIG d   1       2.506   1.336  -2.014  0.00  0.00     0.062 H 
ATOM     39  H   LIG d   1       2.324   0.003  -4.096  0.00  0.00     0.063 H 
ENDBRANCH  29  32
ENDBRANCH  27  29
ENDBRANCH  19  25
ENDBRANCH   9  19
BRANCH   4  40
ATOM     40  C   LIG d   1       0.273  -2.689 -11.527  0.00  0.00    -0.036 C 
ATOM     41  H   LIG d   1       0.434  -2.492 -10.457  0.00  0.00     0.028 H 
ATOM     42  H   LIG d   1       0.209  -3.774 -11.695  0.00  0.00     0.028 H 
ATOM     43  H   LIG d   1      -0.664  -2.213 -11.850  0.00  0.00     0.028 H 
ENDBRANCH   4  40
BRANCH   1  44
ATOM     44  C   LIG d   1       4.680  -0.530 -14.562  0.00  0.00    -0.039 C 
ATOM     45  H   LIG d   1       5.432  -0.118 -13.872  0.00  0.00     0.028 H 
ATOM     46  H   LIG d   1       4.313   0.267 -15.225  0.00  0.00     0.028 H 
ATOM     47  H   LIG d   1       5.137  -1.329 -15.166  0.00  0.00     0.028 H 
ENDBRANCH   1  44
BRANCH   3  48
ATOM     48  O   LIG d   1       0.776  -3.429 -14.201  0.00  0.00    -0.490 OA
BRANCH  48  49
ATOM     49  C   LIG d   1       0.460  -3.240 -15.581  0.00  0.00     0.102 C 
ATOM     50  H   LIG d   1       0.917  -2.304 -15.936  0.00  0.00     0.071 H 
ATOM     51  H   LIG d   1       0.854  -4.085 -16.166  0.00  0.00     0.071 H 
BRANCH  49  52
ATOM     52  C   LIG d   1      -1.057  -3.164 -15.752  0.00  0.00     0.033 C 
ATOM     53  H   LIG d   1      -1.301  -2.470 -16.568  0.00  0.00     0.046 H 
ATOM     54  H   LIG d   1      -1.450  -4.164 -15.991  0.00  0.00     0.046 H 
BRANCH  52  55
ATOM     55  N   LIG d   1      -1.667  -2.685 -14.504  0.00  0.00    -0.295 N 
ATOM     56  C   LIG d   1      -2.047  -1.268 -14.613  0.00  0.00     0.022 C 
ATOM     57  C   LIG d   1      -2.621  -0.796 -13.274  0.00  0.00     0.060 C 
ATOM     58  H   LIG d   1      -1.159  -0.671 -14.865  0.00  0.00     0.045 H 
ATOM     59  H   LIG d   1      -2.804  -1.151 -15.400  0.00  0.00     0.045 H 
ATOM     60  O   LIG d   1      -3.728  -1.626 -12.917  0.00  0.00    -0.377 OA
ATOM     61  H   LIG d   1      -2.959   0.247 -13.367  0.00  0.00     0.057 H 
ATOM     62  H   LIG d   1      -1.846  -0.862 -12.497  0.00  0.00     0.057 H 
ATOM     63  C   LIG d   1      -3.395  -3.012 -12.801  0.00  0.00     0.060 C 
ATOM     64  C   LIG d   1      -2.828  -3.508 -14.134  0.00  0.00     0.022 C 
ATOM     65  H   LIG d   1      -4.297  -3.589 -12.549  0.00  0.00     0.057 H 
ATOM     66  H   LIG d   1      -2.642  -3.145 -12.010  0.00  0.00     0.057 H 
ATOM     67  H   LIG d   1      -3.599  -3.427 -14.915  0.00  0.00     0.045 H 
ATOM     68  H   LIG d   1      -2.517  -4.558 -14.034  0.00  0.00     0.045 H 
ENDBRANCH  52  55
ENDBRANCH  49  52
ENDBRANCH  48  49
ENDBRANCH   3  48
TORSDOF 11
ENDMDL
MODEL 6
REMARK VINA RESULT:      -6.3      4.216      7.774
REMARK  11 active torsions:
REMARK  status: ('A' for Active; 'I' for Inactive)
REMARK    1  A    between atoms: C_1  and  C_2 
REMARK    2  A    between atoms: C_4  and  O_26 
REMARK    3  A    between atoms: C_5  and  C_25 
REMARK    4  A    between atoms: C_10  and  C_13 
REMARK    5  A    between atoms: C_13  and  C_15 
REMARK    6  A    between atoms: C_13  and  C_16 
REMARK       I    between atoms: C_16  and  N_18 
REMARK    7  A    between atoms: N_18  and  C_19 
REMARK    8  A    between atoms: C_19  and  C_20 
REMARK    9  A    between atoms: O_26  and  C_27 
REMARK   10  A    between atoms: C_27  and  C_28 
REMARK   11  A    between atoms: C_28  and  N_29 
ROOT
ATOM      1  C   LIG d   1       9.836   7.283  -5.996  0.00  0.00    -0.043 A 
ATOM      2  C   LIG d   1       9.946   8.373  -5.159  0.00  0.00    -0.017 A 
ATOM      3  C   LIG d   1       9.918   8.190  -3.784  0.00  0.00     0.124 A 
ATOM      4  C   LIG d   1       9.794   6.913  -3.266  0.00  0.00    -0.005 A 
ATOM      5  C   LIG d   1       9.687   5.817  -4.110  0.00  0.00    -0.037 A 
ATOM      6  C   LIG d   1       9.705   6.002  -5.475  0.00  0.00    -0.041 A 
ATOM      7  C   LIG d   1       9.576   4.860  -6.450  0.00  0.00    -0.027 C 
ATOM      8  C   LIG d   1       9.880   3.531  -5.762  0.00  0.00    -0.045 C 
ATOM      9  C   LIG d   1       9.031   3.440  -4.489  0.00  0.00    -0.026 C 
ATOM     10  H   LIG d   1       7.977   3.658  -4.716  0.00  0.00     0.031 H 
ATOM     11  C   LIG d   1       9.565   4.455  -3.479  0.00  0.00    -0.024 C 
ATOM     12  H   LIG d   1      10.048   9.366  -5.572  0.00  0.00     0.066 H 
ATOM     13  H   LIG d   1       8.551   4.830  -6.847  0.00  0.00     0.031 H 
ATOM     14  H   LIG d   1      10.287   5.003  -7.278  0.00  0.00     0.031 H 
ATOM     15  H   LIG d   1       9.630   2.701  -6.440  0.00  0.00     0.027 H 
ATOM     16  H   LIG d   1      10.948   3.486  -5.506  0.00  0.00     0.027 H 
ATOM     17  H   LIG d   1      10.554   4.122  -3.130  0.00  0.00     0.032 H 
ATOM     18  H   LIG d   1       8.873   4.507  -2.626  0.00  0.00     0.032 H 
ENDROOT
BRANCH   9  19
ATOM     19  C   LIG d   1       9.128   2.030  -3.903  0.00  0.00     0.036 C 
ATOM     20  H   LIG d   1       8.951   2.062  -2.818  0.00  0.00     0.039 H 
BRANCH  19  21
ATOM     21  C   LIG d   1      10.518   1.456  -4.187  0.00  0.00    -0.054 C 
ATOM     22  H   LIG d   1      10.585   1.168  -5.247  0.00  0.00     0.024 H 
ATOM     23  H   LIG d   1      10.685   0.571  -3.555  0.00  0.00     0.024 H 
ATOM     24  H   LIG d   1      11.281   2.216  -3.964  0.00  0.00     0.024 H 
ENDBRANCH  19  21
BRANCH  19  25
ATOM     25  C   LIG d   1       8.082   1.149  -4.535  0.00  0.00     0.216 C 
ATOM     26  O   LIG d   1       7.380   1.584  -5.425  0.00  0.00    -0.276 OA
ATOM     27  N   LIG d   1       7.925  -0.121  -4.114  0.00  0.00    -0.310 N 
ATOM     28  H   LIG d   1       8.562  -0.515  -3.308  0.00  0.00     0.149 HD
BRANCH  27  29
ATOM     29  C   LIG d   1       6.907  -0.977  -4.729  0.00  0.00     0.043 C 
ATOM     30  H   LIG d   1       6.666  -0.596  -5.732  0.00  0.00     0.052 H 
ATOM     31  H   LIG d   1       7.293  -2.004  -4.811  0.00  0.00     0.052 H 
BRANCH  29  32
ATOM     32  C   LIG d   1       5.665  -0.972  -3.876  0.00  0.00     0.007 A 
ATOM     33  S   LIG d   1       4.102  -0.162  -4.170  0.00  0.00    -0.100 SA
ATOM     34  C   LIG d   1       3.262  -0.690  -2.687  0.00  0.00    -0.024 A 
ATOM     35  C   LIG d   1       4.213  -1.437  -2.076  0.00  0.00    -0.054 A 
ATOM     36  H   LIG d   1       2.256  -0.471  -2.361  0.00  0.00     0.069 H 
ATOM     37  C   LIG d   1       5.443  -1.586  -2.688  0.00  0.00    -0.050 A 
ATOM     38  H   LIG d   1       4.011  -1.912  -1.127  0.00  0.00     0.062 H 
ATOM     39  H   LIG d   1       6.217  -2.180  -2.225  0.00  0.00     0.063 H 
ENDBRANCH  29  32
ENDBRANCH  27  29
ENDBRANCH  19  25
ENDBRANCH   9  19
BRANCH   4  40
ATOM     40  C   LIG d   1       9.768   6.710  -1.772  0.00  0.00    -0.036 C 
ATOM     41  H   LIG d   1      10.786   6.814  -1.371  0.00  0.00     0.028 H 
ATOM     42  H   LIG d   1       9.384   5.705  -1.545  0.00  0.00     0.028 H 
ATOM     43  H   LIG d   1       9.114   7.466  -1.312  0.00  0.00     0.028 H 
ENDBRANCH   4  40
BRANCH   1  44
ATOM     44  C   LIG d   1       9.860   7.483  -7.489  0.00  0.00    -0.039 C 
ATOM     45  H   LIG d   1       8.974   8.058  -7.796  0.00  0.00     0.028 H 
ATOM     46  H   LIG d   1       9.854   6.504  -7.991  0.00  0.00     0.028 H 
ATOM     47  H   LIG d   1      10.770   8.034  -7.771  0.00  0.00     0.028 H 
ENDBRANCH   1  44
BRANCH   3  48
ATOM     48  O   LIG d   1      10.017   9.260  -2.951  0.00  0.00    -0.490 OA
BRANCH  48  49
ATOM     49  C   LIG d   1      10.660  10.426  -3.466  0.00  0.00     0.102 C 
ATOM     50  H   LIG d   1      11.597  10.601  -2.916  0.00  0.00     0.071 H 
ATOM     51  H   LIG d   1      10.884  10.281  -4.533  0.00  0.00     0.071 H 
BRANCH  49  52
ATOM     52  C   LIG d   1       9.737  11.634  -3.298  0.00  0.00     0.033 C 
ATOM     53  H   LIG d   1       8.690  11.300  -3.299  0.00  0.00     0.046 H 
ATOM     54  H   LIG d   1       9.960  12.137  -2.345  0.00  0.00     0.046 H 
BRANCH  52  55
ATOM     55  N   LIG d   1       9.952  12.572  -4.409  0.00  0.00    -0.295 N 
ATOM     56  C   LIG d   1       9.545  11.975  -5.689  0.00  0.00     0.022 C 
ATOM     57  C   LIG d   1       9.841  12.962  -6.822  0.00  0.00     0.060 C 
ATOM     58  H   LIG d   1      10.107  11.045  -5.854  0.00  0.00     0.045 H 
ATOM     59  H   LIG d   1       8.468  11.755  -5.665  0.00  0.00     0.045 H 
ATOM     60  O   LIG d   1       9.167  14.195  -6.562  0.00  0.00    -0.377 OA
ATOM     61  H   LIG d   1       9.486  12.544  -7.776  0.00  0.00     0.057 H 
ATOM     62  H   LIG d   1      10.925  13.140  -6.881  0.00  0.00     0.057 H 
ATOM     63  C   LIG d   1       9.541  14.805  -5.323  0.00  0.00     0.060 C 
ATOM     64  C   LIG d   1       9.242  13.838  -4.175  0.00  0.00     0.022 C 
ATOM     65  H   LIG d   1       8.967  15.732  -5.180  0.00  0.00     0.057 H 
ATOM     66  H   LIG d   1      10.616  15.038  -5.336  0.00  0.00     0.057 H 
ATOM     67  H   LIG d   1       8.160  13.648  -4.125  0.00  0.00     0.045 H 
ATOM     68  H   LIG d   1       9.580  14.278  -3.224  0.00  0.00     0.045 H 
ENDBRANCH  52  55
ENDBRANCH  49  52
ENDBRANCH  48  49
ENDBRANCH   3  48
TORSDOF 11
ENDMDL
MODEL 7
REMARK VINA RESULT:      -6.2      3.331      4.844
REMARK  11 active torsions:
REMARK  status: ('A' for Active; 'I' for Inactive)
REMARK    1  A    between atoms: C_1  and  C_2 
REMARK    2  A    between atoms: C_4  and  O_26 
REMARK    3  A    between atoms: C_5  and  C_25 
REMARK    4  A    between atoms: C_10  and  C_13 
REMARK    5  A    between atoms: C_13  and  C_15 
REMARK    6  A    between atoms: C_13  and  C_16 
REMARK       I    between atoms: C_16  and  N_18 
REMARK    7  A    between atoms: N_18  and  C_19 
REMARK    8  A    between atoms: C_19  and  C_20 
REMARK    9  A    between atoms: O_26  and  C_27 
REMARK   10  A    between atoms: C_27  and  C_28 
REMARK   11  A    between atoms: C_28  and  N_29 
ROOT
ATOM      1  C   LIG d   1       5.375  -0.071  -2.860  0.00  0.00    -0.043 A 
ATOM      2  C   LIG d   1       6.108   1.066  -3.126  0.00  0.00    -0.017 A 
ATOM      3  C   LIG d   1       6.978   1.086  -4.207  0.00  0.00     0.124 A 
ATOM      4  C   LIG d   1       7.090  -0.032  -5.015  0.00  0.00    -0.005 A 
ATOM      5  C   LIG d   1       6.349  -1.174  -4.746  0.00  0.00    -0.037 A 
ATOM      6  C   LIG d   1       5.494  -1.195  -3.667  0.00  0.00    -0.041 A 
ATOM      7  C   LIG d   1       4.673  -2.405  -3.306  0.00  0.00    -0.027 C 
ATOM      8  C   LIG d   1       4.575  -3.361  -4.494  0.00  0.00    -0.045 C 
ATOM      9  C   LIG d   1       5.992  -3.628  -5.016  0.00  0.00    -0.026 C 
ATOM     10  H   LIG d   1       6.655  -3.921  -4.188  0.00  0.00     0.031 H 
ATOM     11  C   LIG d   1       6.514  -2.351  -5.672  0.00  0.00    -0.024 C 
ATOM     12  H   LIG d   1       6.009   1.936  -2.494  0.00  0.00     0.066 H 
ATOM     13  H   LIG d   1       5.143  -2.931  -2.462  0.00  0.00     0.031 H 
ATOM     14  H   LIG d   1       3.658  -2.088  -3.021  0.00  0.00     0.031 H 
ATOM     15  H   LIG d   1       4.110  -4.303  -4.170  0.00  0.00     0.027 H 
ATOM     16  H   LIG d   1       3.963  -2.903  -5.284  0.00  0.00     0.027 H 
ATOM     17  H   LIG d   1       5.948  -2.170  -6.599  0.00  0.00     0.032 H 
ATOM     18  H   LIG d   1       7.579  -2.483  -5.912  0.00  0.00     0.032 H 
ENDROOT
BRANCH   9  19
ATOM     19  C   LIG d   1       5.957  -4.759  -6.045  0.00  0.00     0.036 C 
ATOM     20  H   LIG d   1       6.437  -4.430  -6.979  0.00  0.00     0.039 H 
BRANCH  19  21
ATOM     21  C   LIG d   1       4.504  -5.155  -6.318  0.00  0.00    -0.054 C 
ATOM     22  H   LIG d   1       4.379  -6.233  -6.137  0.00  0.00     0.024 H 
ATOM     23  H   LIG d   1       4.251  -4.926  -7.364  0.00  0.00     0.024 H 
ATOM     24  H   LIG d   1       3.839  -4.592  -5.647  0.00  0.00     0.024 H 
ENDBRANCH  19  21
BRANCH  19  25
ATOM     25  C   LIG d   1       6.710  -5.950  -5.511  0.00  0.00     0.216 C 
ATOM     26  O   LIG d   1       7.811  -5.802  -5.022  0.00  0.00    -0.276 OA
ATOM     27  N   LIG d   1       6.162  -7.179  -5.575  0.00  0.00    -0.310 N 
ATOM     28  H   LIG d   1       5.164  -7.313  -6.017  0.00  0.00     0.149 HD
BRANCH  27  29
ATOM     29  C   LIG d   1       6.895  -8.336  -5.055  0.00  0.00     0.043 C 
ATOM     30  H   LIG d   1       7.389  -8.860  -5.886  0.00  0.00     0.052 H 
ATOM     31  H   LIG d   1       7.653  -7.997  -4.333  0.00  0.00     0.052 H 
BRANCH  29  32
ATOM     32  C   LIG d   1       5.933  -9.273  -4.371  0.00  0.00     0.007 A 
ATOM     33  S   LIG d   1       6.282 -10.694  -3.348  0.00  0.00    -0.100 SA
ATOM     34  C   LIG d   1       4.599 -11.168  -2.993  0.00  0.00    -0.024 A 
ATOM     35  C   LIG d   1       3.894 -10.228  -3.667  0.00  0.00    -0.054 A 
ATOM     36  H   LIG d   1       4.236 -11.991  -2.395  0.00  0.00     0.069 H 
ATOM     37  C   LIG d   1       4.577  -9.253  -4.369  0.00  0.00    -0.050 A 
ATOM     38  H   LIG d   1       2.814 -10.237  -3.653  0.00  0.00     0.062 H 
ATOM     39  H   LIG d   1       4.040  -8.488  -4.910  0.00  0.00     0.063 H 
ENDBRANCH  29  32
ENDBRANCH  27  29
ENDBRANCH  19  25
ENDBRANCH   9  19
BRANCH   4  40
ATOM     40  C   LIG d   1       8.031  -0.012  -6.193  0.00  0.00    -0.036 C 
ATOM     41  H   LIG d   1       7.596  -0.592  -7.019  0.00  0.00     0.028 H 
ATOM     42  H   LIG d   1       8.995  -0.455  -5.900  0.00  0.00     0.028 H 
ATOM     43  H   LIG d   1       8.190   1.027  -6.518  0.00  0.00     0.028 H 
ENDBRANCH   4  40
BRANCH   1  44
ATOM     44  C   LIG d   1       4.435  -0.093  -1.681  0.00  0.00    -0.039 C 
ATOM     45  H   LIG d   1       5.006  -0.288  -0.761  0.00  0.00     0.028 H 
ATOM     46  H   LIG d   1       3.687  -0.887  -1.824  0.00  0.00     0.028 H 
ATOM     47  H   LIG d   1       3.927   0.879  -1.598  0.00  0.00     0.028 H 
ENDBRANCH   1  44
BRANCH   3  48
ATOM     48  O   LIG d   1       7.711   2.199  -4.473  0.00  0.00    -0.490 OA
BRANCH  48  49
ATOM     49  C   LIG d   1       8.867   2.424  -3.665  0.00  0.00     0.102 C 
ATOM     50  H   LIG d   1       8.565   2.887  -2.714  0.00  0.00     0.071 H 
ATOM     51  H   LIG d   1       9.365   1.464  -3.462  0.00  0.00     0.071 H 
BRANCH  49  52
ATOM     52  C   LIG d   1       9.832   3.353  -4.402  0.00  0.00     0.033 C 
ATOM     53  H   LIG d   1      10.856   3.183  -4.039  0.00  0.00     0.046 H 
ATOM     54  H   LIG d   1       9.787   3.148  -5.481  0.00  0.00     0.046 H 
BRANCH  52  55
ATOM     55  N   LIG d   1       9.451   4.751  -4.153  0.00  0.00    -0.295 N 
ATOM     56  C   LIG d   1       9.975   5.218  -2.861  0.00  0.00     0.022 C 
ATOM     57  C   LIG d   1       9.506   6.655  -2.616  0.00  0.00     0.060 C 
ATOM     58  H   LIG d   1       9.602   4.566  -2.058  0.00  0.00     0.045 H 
ATOM     59  H   LIG d   1      11.074   5.188  -2.879  0.00  0.00     0.045 H 
ATOM     60  O   LIG d   1       9.930   7.481  -3.703  0.00  0.00    -0.377 OA
ATOM     61  H   LIG d   1       9.941   7.029  -1.678  0.00  0.00     0.057 H 
ATOM     62  H   LIG d   1       8.408   6.676  -2.545  0.00  0.00     0.057 H 
ATOM     63  C   LIG d   1       9.437   7.056  -4.976  0.00  0.00     0.060 C 
ATOM     64  C   LIG d   1       9.905   5.623  -5.246  0.00  0.00     0.022 C 
ATOM     65  H   LIG d   1       9.823   7.721  -5.762  0.00  0.00     0.057 H 
ATOM     66  H   LIG d   1       8.338   7.088  -4.975  0.00  0.00     0.057 H 
ATOM     67  H   LIG d   1      11.004   5.599  -5.302  0.00  0.00     0.045 H 
ATOM     68  H   LIG d   1       9.482   5.270  -6.198  0.00  0.00     0.045 H 
ENDBRANCH  52  55
ENDBRANCH  49  52
ENDBRANCH  48  49
ENDBRANCH   3  48
TORSDOF 11
ENDMDL
MODEL 8
REMARK VINA RESULT:      -6.2      5.284     11.542
REMARK  11 active torsions:
REMARK  status: ('A' for Active; 'I' for Inactive)
REMARK    1  A    between atoms: C_1  and  C_2 
REMARK    2  A    between atoms: C_4  and  O_26 
REMARK    3  A    between atoms: C_5  and  C_25 
REMARK    4  A    between atoms: C_10  and  C_13 
REMARK    5  A    between atoms: C_13  and  C_15 
REMARK    6  A    between atoms: C_13  and  C_16 
REMARK       I    between atoms: C_16  and  N_18 
REMARK    7  A    between atoms: N_18  and  C_19 
REMARK    8  A    between atoms: C_19  and  C_20 
REMARK    9  A    between atoms: O_26  and  C_27 
REMARK   10  A    between atoms: C_27  and  C_28 
REMARK   11  A    between atoms: C_28  and  N_29 
ROOT
ATOM      1  C   LIG d   1       3.622  -5.719  -9.110  0.00  0.00    -0.043 A 
ATOM      2  C   LIG d   1       2.799  -6.544  -9.847  0.00  0.00    -0.017 A 
ATOM      3  C   LIG d   1       1.756  -5.997 -10.581  0.00  0.00     0.124 A 
ATOM      4  C   LIG d   1       1.561  -4.627 -10.577  0.00  0.00    -0.005 A 
ATOM      5  C   LIG d   1       2.392  -3.799  -9.836  0.00  0.00    -0.037 A 
ATOM      6  C   LIG d   1       3.421  -4.345  -9.100  0.00  0.00    -0.041 A 
ATOM      7  C   LIG d   1       4.350  -3.507  -8.260  0.00  0.00    -0.027 C 
ATOM      8  C   LIG d   1       4.287  -2.043  -8.689  0.00  0.00    -0.045 C 
ATOM      9  C   LIG d   1       2.817  -1.610  -8.718  0.00  0.00    -0.026 C 
ATOM     10  H   LIG d   1       2.322  -1.878  -7.773  0.00  0.00     0.031 H 
ATOM     11  C   LIG d   1       2.128  -2.317  -9.884  0.00  0.00    -0.024 C 
ATOM     12  H   LIG d   1       2.963  -7.612  -9.850  0.00  0.00     0.066 H 
ATOM     13  H   LIG d   1       4.058  -3.582  -7.203  0.00  0.00     0.031 H 
ATOM     14  H   LIG d   1       5.382  -3.870  -8.383  0.00  0.00     0.031 H 
ATOM     15  H   LIG d   1       4.847  -1.425  -7.971  0.00  0.00     0.027 H 
ATOM     16  H   LIG d   1       4.731  -1.934  -9.690  0.00  0.00     0.027 H 
ATOM     17  H   LIG d   1       2.516  -1.905 -10.828  0.00  0.00     0.032 H 
ATOM     18  H   LIG d   1       1.045  -2.135  -9.822  0.00  0.00     0.032 H 
ENDROOT
BRANCH   9  19
ATOM     19  C   LIG d   1       2.729  -0.095  -8.909  0.00  0.00     0.036 C 
ATOM     20  H   LIG d   1       1.776   0.167  -9.393  0.00  0.00     0.039 H 
BRANCH  19  21
ATOM     21  C   LIG d   1       3.899   0.378  -9.774  0.00  0.00    -0.054 C 
ATOM     22  H   LIG d   1       4.707   0.750  -9.126  0.00  0.00     0.024 H 
ATOM     23  H   LIG d   1       3.561   1.187 -10.439  0.00  0.00     0.024 H 
ATOM     24  H   LIG d   1       4.272  -0.462 -10.378  0.00  0.00     0.024 H 
ENDBRANCH  19  21
BRANCH  19  25
ATOM     25  C   LIG d   1       2.790   0.587  -7.566  0.00  0.00     0.216 C 
ATOM     26  O   LIG d   1       3.094   1.759  -7.494  0.00  0.00    -0.276 OA
ATOM     27  N   LIG d   1       2.506  -0.105  -6.445  0.00  0.00    -0.310 N 
ATOM     28  H   LIG d   1       2.229  -1.168  -6.511  0.00  0.00     0.149 HD
BRANCH  27  29
ATOM     29  C   LIG d   1       2.566   0.557  -5.140  0.00  0.00     0.043 C 
ATOM     30  H   LIG d   1       3.048   1.539  -5.249  0.00  0.00     0.052 H 
ATOM     31  H   LIG d   1       1.546   0.692  -4.750  0.00  0.00     0.052 H 
BRANCH  29  32
ATOM     32  C   LIG d   1       3.362  -0.291  -4.182  0.00  0.00     0.007 A 
ATOM     33  S   LIG d   1       5.103  -0.686  -4.210  0.00  0.00    -0.100 SA
ATOM     34  C   LIG d   1       5.153  -1.706  -2.747  0.00  0.00    -0.024 A 
ATOM     35  C   LIG d   1       3.861  -1.679  -2.341  0.00  0.00    -0.054 A 
ATOM     36  H   LIG d   1       5.995  -2.214  -2.301  0.00  0.00     0.069 H 
ATOM     37  C   LIG d   1       2.943  -0.949  -3.074  0.00  0.00    -0.050 A 
ATOM     38  H   LIG d   1       3.552  -2.216  -1.456  0.00  0.00     0.062 H 
ATOM     39  H   LIG d   1       1.908  -0.906  -2.769  0.00  0.00     0.063 H 
ENDBRANCH  29  32
ENDBRANCH  27  29
ENDBRANCH  19  25
ENDBRANCH   9  19
BRANCH   4  40
ATOM     40  C   LIG d   1       0.431  -4.030 -11.377  0.00  0.00    -0.036 C 
ATOM     41  H   LIG d   1       0.637  -4.154 -12.450  0.00  0.00     0.028 H 
ATOM     42  H   LIG d   1       0.341  -2.959 -11.141  0.00  0.00     0.028 H 
ATOM     43  H   LIG d   1      -0.509  -4.541 -11.121  0.00  0.00     0.028 H 
ENDBRANCH   4  40
BRANCH   1  44
ATOM     44  C   LIG d   1       4.750  -6.314  -8.308  0.00  0.00    -0.039 C 
ATOM     45  H   LIG d   1       5.618  -5.638  -8.338  0.00  0.00     0.028 H 
ATOM     46  H   LIG d   1       5.030  -7.289  -8.735  0.00  0.00     0.028 H 
ATOM     47  H   LIG d   1       4.428  -6.449  -7.265  0.00  0.00     0.028 H 
ENDBRANCH   1  44
BRANCH   3  48
ATOM     48  O   LIG d   1       0.935  -6.803 -11.304  0.00  0.00    -0.490 OA
BRANCH  48  49
ATOM     49  C   LIG d   1      -0.019  -7.578 -10.577  0.00  0.00     0.102 C 
ATOM     50  H   LIG d   1       0.445  -8.522 -10.255  0.00  0.00     0.071 H 
ATOM     51  H   LIG d   1      -0.354  -7.015  -9.693  0.00  0.00     0.071 H 
BRANCH  49  52
ATOM     52  C   LIG d   1      -1.221  -7.881 -11.474  0.00  0.00     0.033 C 
ATOM     53  H   LIG d   1      -0.959  -7.673 -12.521  0.00  0.00     0.046 H 
ATOM     54  H   LIG d   1      -1.500  -8.939 -11.369  0.00  0.00     0.046 H 
BRANCH  52  55
ATOM     55  N   LIG d   1      -2.354  -7.034 -11.076  0.00  0.00    -0.295 N 
ATOM     56  C   LIG d   1      -2.128  -6.439  -9.750  0.00  0.00     0.022 C 
ATOM     57  C   LIG d   1      -3.355  -5.616  -9.351  0.00  0.00     0.060 C 
ATOM     58  H   LIG d   1      -1.965  -7.240  -9.014  0.00  0.00     0.045 H 
ATOM     59  H   LIG d   1      -1.243  -5.788  -9.787  0.00  0.00     0.045 H 
ATOM     60  O   LIG d   1      -3.606  -4.626 -10.352  0.00  0.00    -0.377 OA
ATOM     61  H   LIG d   1      -3.169  -5.123  -8.385  0.00  0.00     0.057 H 
ATOM     62  H   LIG d   1      -4.230  -6.277  -9.262  0.00  0.00     0.057 H 
ATOM     63  C   LIG d   1      -3.831  -5.170 -11.655  0.00  0.00     0.060 C 
ATOM     64  C   LIG d   1      -2.609  -5.989 -12.078  0.00  0.00     0.022 C 
ATOM     65  H   LIG d   1      -3.991  -4.352 -12.373  0.00  0.00     0.057 H 
ATOM     66  H   LIG d   1      -4.718  -5.819 -11.635  0.00  0.00     0.057 H 
ATOM     67  H   LIG d   1      -1.731  -5.330 -12.153  0.00  0.00     0.045 H 
ATOM     68  H   LIG d   1      -2.799  -6.457 -13.056  0.00  0.00     0.045 H 
ENDBRANCH  52  55
ENDBRANCH  49  52
ENDBRANCH  48  49
ENDBRANCH   3  48
TORSDOF 11
ENDMDL
MODEL 9
REMARK VINA RESULT:      -6.2      4.335      8.798
REMARK  11 active torsions:
REMARK  status: ('A' for Active; 'I' for Inactive)
REMARK    1  A    between atoms: C_1  and  C_2 
REMARK    2  A    between atoms: C_4  and  O_26 
REMARK    3  A    between atoms: C_5  and  C_25 
REMARK    4  A    between atoms: C_10  and  C_13 
REMARK    5  A    between atoms: C_13  and  C_15 
REMARK    6  A    between atoms: C_13  and  C_16 
REMARK       I    between atoms: C_16  and  N_18 
REMARK    7  A    between atoms: N_18  and  C_19 
REMARK    8  A    between atoms: C_19  and  C_20 
REMARK    9  A    between atoms: O_26  and  C_27 
REMARK   10  A    between atoms: C_27  and  C_28 
REMARK   11  A    between atoms: C_28  and  N_29 
ROOT
ATOM      1  C   LIG d   1       8.299  -4.904  -4.679  0.00  0.00    -0.043 A 
ATOM      2  C   LIG d   1       7.935  -6.074  -5.313  0.00  0.00    -0.017 A 
ATOM      3  C   LIG d   1       6.625  -6.248  -5.734  0.00  0.00     0.124 A 
ATOM      4  C   LIG d   1       5.699  -5.240  -5.526  0.00  0.00    -0.005 A 
ATOM      5  C   LIG d   1       6.069  -4.063  -4.890  0.00  0.00    -0.037 A 
ATOM      6  C   LIG d   1       7.368  -3.897  -4.464  0.00  0.00    -0.041 A 
ATOM      7  C   LIG d   1       7.835  -2.653  -3.752  0.00  0.00    -0.027 C 
ATOM      8  C   LIG d   1       6.855  -1.504  -3.982  0.00  0.00    -0.045 C 
ATOM      9  C   LIG d   1       5.444  -1.997  -3.640  0.00  0.00    -0.026 C 
ATOM     10  H   LIG d   1       5.436  -2.474  -2.648  0.00  0.00     0.031 H 
ATOM     11  C   LIG d   1       5.013  -3.005  -4.704  0.00  0.00    -0.024 C 
ATOM     12  H   LIG d   1       8.666  -6.852  -5.477  0.00  0.00     0.066 H 
ATOM     13  H   LIG d   1       7.906  -2.852  -2.673  0.00  0.00     0.031 H 
ATOM     14  H   LIG d   1       8.823  -2.359  -4.137  0.00  0.00     0.031 H 
ATOM     15  H   LIG d   1       7.124  -0.657  -3.334  0.00  0.00     0.027 H 
ATOM     16  H   LIG d   1       6.898  -1.189  -5.034  0.00  0.00     0.027 H 
ATOM     17  H   LIG d   1       4.856  -2.473  -5.655  0.00  0.00     0.032 H 
ATOM     18  H   LIG d   1       4.072  -3.478  -4.388  0.00  0.00     0.032 H 
ENDROOT
BRANCH   9  19
ATOM     19  C   LIG d   1       4.473  -0.815  -3.627  0.00  0.00     0.036 C 
ATOM     20  H   LIG d   1       4.854  -0.025  -2.963  0.00  0.00     0.039 H 
BRANCH  19  21
ATOM     21  C   LIG d   1       3.101  -1.288  -3.141  0.00  0.00    -0.054 C 
ATOM     22  H   LIG d   1       2.889  -2.284  -3.557  0.00  0.00     0.024 H 
ATOM     23  H   LIG d   1       2.329  -0.579  -3.476  0.00  0.00     0.024 H 
ATOM     24  H   LIG d   1       3.100  -1.341  -2.043  0.00  0.00     0.024 H 
ENDBRANCH  19  21
BRANCH  19  25
ATOM     25  C   LIG d   1       4.346  -0.253  -5.019  0.00  0.00     0.216 C 
ATOM     26  O   LIG d   1       5.277   0.343  -5.520  0.00  0.00    -0.276 OA
ATOM     27  N   LIG d   1       3.200  -0.413  -5.710  0.00  0.00    -0.310 N 
ATOM     28  H   LIG d   1       2.357  -0.954  -5.257  0.00  0.00     0.149 HD
BRANCH  27  29
ATOM     29  C   LIG d   1       3.078   0.134  -7.064  0.00  0.00     0.043 C 
ATOM     30  H   LIG d   1       2.139   0.701  -7.146  0.00  0.00     0.052 H 
ATOM     31  H   LIG d   1       3.928   0.801  -7.268  0.00  0.00     0.052 H 
BRANCH  29  32
ATOM     32  C   LIG d   1       3.073  -0.995  -8.062  0.00  0.00     0.007 A 
ATOM     33  S   LIG d   1       2.092  -1.184  -9.541  0.00  0.00    -0.100 SA
ATOM     34  C   LIG d   1       2.733  -2.764 -10.068  0.00  0.00    -0.024 A 
ATOM     35  C   LIG d   1       3.637  -3.038  -9.097  0.00  0.00    -0.054 A 
ATOM     36  H   LIG d   1       2.469  -3.350 -10.936  0.00  0.00     0.069 H 
ATOM     37  C   LIG d   1       3.815  -2.129  -8.071  0.00  0.00    -0.050 A 
ATOM     38  H   LIG d   1       4.213  -3.952  -9.126  0.00  0.00     0.062 H 
ATOM     39  H   LIG d   1       4.533  -2.321  -7.287  0.00  0.00     0.063 H 
ENDBRANCH  29  32
ENDBRANCH  27  29
ENDBRANCH  19  25
ENDBRANCH   9  19
BRANCH   4  40
ATOM     40  C   LIG d   1       4.276  -5.425  -5.986  0.00  0.00    -0.036 C 
ATOM     41  H   LIG d   1       3.840  -6.303  -5.488  0.00  0.00     0.028 H 
ATOM     42  H   LIG d   1       4.259  -5.574  -7.076  0.00  0.00     0.028 H 
ATOM     43  H   LIG d   1       3.689  -4.530  -5.730  0.00  0.00     0.028 H 
ENDBRANCH   4  40
BRANCH   1  44
ATOM     44  C   LIG d   1       9.722  -4.718  -4.216  0.00  0.00    -0.039 C 
ATOM     45  H   LIG d   1      10.323  -4.299  -5.037  0.00  0.00     0.028 H 
ATOM     46  H   LIG d   1      10.140  -5.690  -3.915  0.00  0.00     0.028 H 
ATOM     47  H   LIG d   1       9.742  -4.029  -3.359  0.00  0.00     0.028 H 
ENDBRANCH   1  44
BRANCH   3  48
ATOM     48  O   LIG d   1       6.254  -7.400  -6.352  0.00  0.00    -0.490 OA
BRANCH  48  49
ATOM     49  C   LIG d   1       5.794  -8.465  -5.519  0.00  0.00     0.102 C 
ATOM     50  H   LIG d   1       5.531  -8.067  -4.528  0.00  0.00     0.071 H 
ATOM     51  H   LIG d   1       4.907  -8.930  -5.974  0.00  0.00     0.071 H 
BRANCH  49  52
ATOM     52  C   LIG d   1       6.900  -9.511  -5.372  0.00  0.00     0.033 C 
ATOM     53  H   LIG d   1       6.683 -10.369  -6.025  0.00  0.00     0.046 H 
ATOM     54  H   LIG d   1       7.865  -9.068  -5.658  0.00  0.00     0.046 H 
BRANCH  52  55
ATOM     55  N   LIG d   1       6.963  -9.964  -3.975  0.00  0.00    -0.295 N 
ATOM     56  C   LIG d   1       7.747  -9.031  -3.154  0.00  0.00     0.022 C 
ATOM     57  C   LIG d   1       7.837  -9.570  -1.724  0.00  0.00     0.060 C 
ATOM     58  H   LIG d   1       8.758  -8.933  -3.575  0.00  0.00     0.045 H 
ATOM     59  H   LIG d   1       7.256  -8.047  -3.146  0.00  0.00     0.045 H 
ATOM     60  O   LIG d   1       6.518  -9.766  -1.210  0.00  0.00    -0.377 OA
ATOM     61  H   LIG d   1       8.375  -8.849  -1.091  0.00  0.00     0.057 H 
ATOM     62  H   LIG d   1       8.377 -10.529  -1.725  0.00  0.00     0.057 H 
ATOM     63  C   LIG d   1       5.726 -10.670  -1.985  0.00  0.00     0.060 C 
ATOM     64  C   LIG d   1       5.615 -10.142  -3.418  0.00  0.00     0.022 C 
ATOM     65  H   LIG d   1       4.721 -10.751  -1.545  0.00  0.00     0.057 H 
ATOM     66  H   LIG d   1       6.202 -11.661  -1.995  0.00  0.00     0.057 H 
ATOM     67  H   LIG d   1       5.088  -9.176  -3.414  0.00  0.00     0.045 H 
ATOM     68  H   LIG d   1       5.054 -10.862  -4.033  0.00  0.00     0.045 H 
ENDBRANCH  52  55
ENDBRANCH  49  52
ENDBRANCH  48  49
ENDBRANCH   3  48
TORSDOF 11
ENDMDL
