MODEL 1
REMARK VINA RESULT:      -7.3      0.000      0.000
REMARK  9 active torsions:
REMARK  status: ('A' for Active; 'I' for Inactive)
REMARK    1  A    between atoms: C_6  and  N_7 
REMARK    2  A    between atoms: C_8  and  C_10 
REMARK    3  A    between atoms: C_10  and  C_11 
REMARK    4  A    between atoms: C_11  and  C_12 
REMARK    5  A    between atoms: C_12  and  C_13 
REMARK    6  A    between atoms: C_13  and  C_14 
REMARK    7  A    between atoms: C_14  and  C_15 
REMARK    8  A    between atoms: C_15  and  C_16 
REMARK    9  A    between atoms: C_16  and  C_17 
ROOT
ATOM      1  C   LIG d   1       9.172   2.624  -5.483  0.00  0.00     0.382 C 
ATOM      2  F   LIG d   1       9.086   3.267  -6.722  0.00  0.00    -0.192 F 
ATOM      3  F   LIG d   1       8.097   3.017  -4.678  0.00  0.00    -0.192 F 
ENDROOT
BRANCH   1   4
ATOM      4  C   LIG d   1       9.126   1.109  -5.691  0.00  0.00     0.345 C 
ATOM      5  F   LIG d   1      10.162   0.507  -4.968  0.00  0.00    -0.193 F 
ATOM      6  F   LIG d   1       9.277   0.820  -7.052  0.00  0.00    -0.193 F 
BRANCH   4   7
ATOM      7  C   LIG d   1       7.801   0.575  -5.208  0.00  0.00     0.041 C 
ATOM      8  N   LIG d   1       7.705   0.054  -4.022  0.00  0.00    -0.259 NA
ATOM      9  O   LIG d   1       6.717   0.639  -6.008  0.00  0.00    -0.859 OA
BRANCH   8  10
ATOM     10  C   LIG d   1       6.498  -0.432  -3.582  0.00  0.00     0.101 A 
ATOM     11  C   LIG d   1       6.187  -1.781  -3.745  0.00  0.00    -0.031 A 
ATOM     12  C   LIG d   1       4.973  -2.265  -3.301  0.00  0.00    -0.021 A 
ATOM     13  H   LIG d   1       6.896  -2.447  -4.214  0.00  0.00     0.064 H 
ATOM     14  C   LIG d   1       4.063  -1.416  -2.694  0.00  0.00     0.161 A 
ATOM     15  H   LIG d   1       4.732  -3.311  -3.427  0.00  0.00     0.065 H 
ATOM     16  C   LIG d   1       4.366  -0.072  -2.529  0.00  0.00     0.195 A 
ATOM     17  F   LIG d   1       2.877  -1.896  -2.262  0.00  0.00    -0.202 F 
ATOM     18  C   LIG d   1       5.579   0.424  -2.971  0.00  0.00     0.186 A 
ATOM     19  F   LIG d   1       3.476   0.753  -1.936  0.00  0.00    -0.199 F 
ATOM     20  F   LIG d   1       5.875   1.733  -2.811  0.00  0.00    -0.200 F 
ENDBRANCH   8  10
ENDBRANCH   4   7
ENDBRANCH   1   4
BRANCH   1  21
ATOM     21  C   LIG d   1      10.487   3.005  -4.801  0.00  0.00     0.384 C 
ATOM     22  F   LIG d   1      10.556   2.390  -3.545  0.00  0.00    -0.192 F 
ATOM     23  F   LIG d   1      11.562   2.581  -5.589  0.00  0.00    -0.192 F 
BRANCH  21  24
ATOM     24  C   LIG d   1      10.550   4.524  -4.628  0.00  0.00     0.384 C 
ATOM     25  F   LIG d   1      11.729   5.010  -5.203  0.00  0.00    -0.192 F 
ATOM     26  F   LIG d   1       9.447   5.112  -5.257  0.00  0.00    -0.192 F 
BRANCH  24  27
ATOM     27  C   LIG d   1      10.531   4.869  -3.137  0.00  0.00     0.384 C 
ATOM     28  F   LIG d   1       9.524   4.135  -2.502  0.00  0.00    -0.192 F 
ATOM     29  F   LIG d   1      11.769   4.552  -2.569  0.00  0.00    -0.192 F 
BRANCH  27  30
ATOM     30  C   LIG d   1      10.258   6.365  -2.964  0.00  0.00     0.387 C 
ATOM     31  F   LIG d   1      11.085   7.092  -3.826  0.00  0.00    -0.192 F 
ATOM     32  F   LIG d   1       8.918   6.633  -3.265  0.00  0.00    -0.192 F 
BRANCH  30  33
ATOM     33  C   LIG d   1      10.547   6.771  -1.517  0.00  0.00     0.409 C 
ATOM     34  F   LIG d   1      10.153   5.741  -0.656  0.00  0.00    -0.189 F 
ATOM     35  F   LIG d   1      11.917   7.009  -1.364  0.00  0.00    -0.189 F 
BRANCH  33  36
ATOM     36  C   LIG d   1       9.768   8.044  -1.180  0.00  0.00     0.460 C 
ATOM     37  F   LIG d   1      10.227   8.564   0.036  0.00  0.00    -0.165 F 
ATOM     38  F   LIG d   1       9.958   8.990  -2.193  0.00  0.00    -0.165 F 
ATOM     39  F   LIG d   1       8.406   7.742  -1.073  0.00  0.00    -0.165 F 
ENDBRANCH  33  36
ENDBRANCH  30  33
ENDBRANCH  27  30
ENDBRANCH  24  27
ENDBRANCH  21  24
ENDBRANCH   1  21
TORSDOF 9
ENDMDL
MODEL 2
REMARK VINA RESULT:      -7.1      1.193      1.781
REMARK  9 active torsions:
REMARK  status: ('A' for Active; 'I' for Inactive)
REMARK    1  A    between atoms: C_6  and  N_7 
REMARK    2  A    between atoms: C_8  and  C_10 
REMARK    3  A    between atoms: C_10  and  C_11 
REMARK    4  A    between atoms: C_11  and  C_12 
REMARK    5  A    between atoms: C_12  and  C_13 
REMARK    6  A    between atoms: C_13  and  C_14 
REMARK    7  A    between atoms: C_14  and  C_15 
REMARK    8  A    between atoms: C_15  and  C_16 
REMARK    9  A    between atoms: C_16  and  C_17 
ROOT
ATOM      1  C   LIG d   1       9.248   3.084  -4.983  0.00  0.00     0.382 C 
ATOM      2  F   LIG d   1       9.586   3.562  -6.253  0.00  0.00    -0.192 F 
ATOM      3  F   LIG d   1       7.986   3.568  -4.623  0.00  0.00    -0.192 F 
ENDROOT
BRANCH   1   4
ATOM      4  C   LIG d   1       9.221   1.554  -5.004  0.00  0.00     0.345 C 
ATOM      5  F   LIG d   1      10.106   1.059  -4.039  0.00  0.00    -0.193 F 
ATOM      6  F   LIG d   1       9.607   1.098  -6.269  0.00  0.00    -0.193 F 
BRANCH   4   7
ATOM      7  C   LIG d   1       7.826   1.072  -4.699  0.00  0.00     0.041 C 
ATOM      8  N   LIG d   1       7.483   0.808  -3.474  0.00  0.00    -0.259 NA
ATOM      9  O   LIG d   1       6.933   0.916  -5.698  0.00  0.00    -0.859 OA
BRANCH   8  10
ATOM     10  C   LIG d   1       6.213   0.369  -3.197  0.00  0.00     0.101 A 
ATOM     11  C   LIG d   1       5.204   1.286  -2.904  0.00  0.00    -0.031 A 
ATOM     12  C   LIG d   1       3.927   0.840  -2.626  0.00  0.00    -0.021 A 
ATOM     13  H   LIG d   1       5.420   2.344  -2.899  0.00  0.00     0.064 H 
ATOM     14  C   LIG d   1       3.645  -0.515  -2.636  0.00  0.00     0.161 A 
ATOM     15  H   LIG d   1       3.147   1.552  -2.399  0.00  0.00     0.065 H 
ATOM     16  C   LIG d   1       4.643  -1.434  -2.926  0.00  0.00     0.195 A 
ATOM     17  F   LIG d   1       2.394  -0.945  -2.363  0.00  0.00    -0.202 F 
ATOM     18  C   LIG d   1       5.926  -0.998  -3.206  0.00  0.00     0.186 A 
ATOM     19  F   LIG d   1       4.362  -2.755  -2.936  0.00  0.00    -0.199 F 
ATOM     20  F   LIG d   1       6.899  -1.892  -3.488  0.00  0.00    -0.200 F 
ENDBRANCH   8  10
ENDBRANCH   4   7
ENDBRANCH   1   4
BRANCH   1  21
ATOM     21  C   LIG d   1      10.287   3.562  -3.966  0.00  0.00     0.384 C 
ATOM     22  F   LIG d   1       9.955   3.075  -2.697  0.00  0.00    -0.192 F 
ATOM     23  F   LIG d   1      11.551   3.087  -4.332  0.00  0.00    -0.192 F 
BRANCH  21  24
ATOM     24  C   LIG d   1      10.306   5.092  -3.937  0.00  0.00     0.384 C 
ATOM     25  F   LIG d   1      11.333   5.561  -4.762  0.00  0.00    -0.192 F 
ATOM     26  F   LIG d   1       9.078   5.582  -4.395  0.00  0.00    -0.192 F 
BRANCH  24  27
ATOM     27  C   LIG d   1      10.544   5.571  -2.503  0.00  0.00     0.384 C 
ATOM     28  F   LIG d   1       9.479   5.164  -1.692  0.00  0.00    -0.192 F 
ATOM     29  F   LIG d   1      11.735   5.021  -2.019  0.00  0.00    -0.192 F 
BRANCH  27  30
ATOM     30  C   LIG d   1      10.643   7.097  -2.487  0.00  0.00     0.387 C 
ATOM     31  F   LIG d   1      11.985   7.479  -2.595  0.00  0.00    -0.192 F 
ATOM     32  F   LIG d   1       9.921   7.624  -3.563  0.00  0.00    -0.192 F 
BRANCH  30  33
ATOM     33  C   LIG d   1      10.066   7.631  -1.174  0.00  0.00     0.409 C 
ATOM     34  F   LIG d   1       8.669   7.587  -1.227  0.00  0.00    -0.189 F 
ATOM     35  F   LIG d   1      10.517   6.843  -0.111  0.00  0.00    -0.189 F 
BRANCH  33  36
ATOM     36  C   LIG d   1      10.522   9.077  -0.967  0.00  0.00     0.460 C 
ATOM     37  F   LIG d   1      10.485   9.758  -2.189  0.00  0.00    -0.165 F 
ATOM     38  F   LIG d   1       9.670   9.710  -0.054  0.00  0.00    -0.165 F 
ATOM     39  F   LIG d   1      11.829   9.086  -0.468  0.00  0.00    -0.165 F 
ENDBRANCH  33  36
ENDBRANCH  30  33
ENDBRANCH  27  30
ENDBRANCH  24  27
ENDBRANCH  21  24
ENDBRANCH   1  21
TORSDOF 9
ENDMDL
MODEL 3
REMARK VINA RESULT:      -6.9      0.960      2.188
REMARK  9 active torsions:
REMARK  status: ('A' for Active; 'I' for Inactive)
REMARK    1  A    between atoms: C_6  and  N_7 
REMARK    2  A    between atoms: C_8  and  C_10 
REMARK    3  A    between atoms: C_10  and  C_11 
REMARK    4  A    between atoms: C_11  and  C_12 
REMARK    5  A    between atoms: C_12  and  C_13 
REMARK    6  A    between atoms: C_13  and  C_14 
REMARK    7  A    between atoms: C_14  and  C_15 
REMARK    8  A    between atoms: C_15  and  C_16 
REMARK    9  A    between atoms: C_16  and  C_17 
ROOT
ATOM      1  C   LIG d   1       9.470   2.941  -4.059  0.00  0.00     0.382 C 
ATOM      2  F   LIG d   1       8.305   3.240  -3.345  0.00  0.00    -0.192 F 
ATOM      3  F   LIG d   1      10.359   2.246  -3.233  0.00  0.00    -0.192 F 
ENDROOT
BRANCH   1   4
ATOM      4  C   LIG d   1       9.117   2.076  -5.271  0.00  0.00     0.345 C 
ATOM      5  F   LIG d   1      10.215   1.277  -5.610  0.00  0.00    -0.193 F 
ATOM      6  F   LIG d   1       8.789   2.901  -6.353  0.00  0.00    -0.193 F 
BRANCH   4   7
ATOM      7  C   LIG d   1       7.941   1.197  -4.935  0.00  0.00     0.041 C 
ATOM      8  N   LIG d   1       7.904   0.568  -3.799  0.00  0.00    -0.259 NA
ATOM      9  O   LIG d   1       6.926   1.061  -5.813  0.00  0.00    -0.859 OA
BRANCH   8  10
ATOM     10  C   LIG d   1       6.832  -0.233  -3.492  0.00  0.00     0.101 A 
ATOM     11  C   LIG d   1       6.866  -1.593  -3.798  0.00  0.00    -0.031 A 
ATOM     12  C   LIG d   1       5.786  -2.396  -3.487  0.00  0.00    -0.021 A 
ATOM     13  H   LIG d   1       7.737  -2.019  -4.273  0.00  0.00     0.064 H 
ATOM     14  C   LIG d   1       4.670  -1.855  -2.872  0.00  0.00     0.161 A 
ATOM     15  H   LIG d   1       5.813  -3.449  -3.725  0.00  0.00     0.065 H 
ATOM     16  C   LIG d   1       4.629  -0.502  -2.565  0.00  0.00     0.195 A 
ATOM     17  F   LIG d   1       3.617  -2.645  -2.572  0.00  0.00    -0.202 F 
ATOM     18  C   LIG d   1       5.705   0.311  -2.872  0.00  0.00     0.186 A 
ATOM     19  F   LIG d   1       3.538   0.021  -1.965  0.00  0.00    -0.199 F 
ATOM     20  F   LIG d   1       5.666   1.628  -2.574  0.00  0.00    -0.200 F 
ENDBRANCH   8  10
ENDBRANCH   4   7
ENDBRANCH   1   4
BRANCH   1  21
ATOM     21  C   LIG d   1      10.125   4.241  -4.534  0.00  0.00     0.384 C 
ATOM     22  F   LIG d   1      11.227   3.939  -5.342  0.00  0.00    -0.192 F 
ATOM     23  F   LIG d   1       9.198   4.989  -5.267  0.00  0.00    -0.192 F 
BRANCH  21  24
ATOM     24  C   LIG d   1      10.588   5.050  -3.321  0.00  0.00     0.384 C 
ATOM     25  F   LIG d   1      10.008   4.526  -2.161  0.00  0.00    -0.192 F 
ATOM     26  F   LIG d   1      11.982   4.979  -3.217  0.00  0.00    -0.192 F 
BRANCH  24  27
ATOM     27  C   LIG d   1      10.162   6.510  -3.489  0.00  0.00     0.384 C 
ATOM     28  F   LIG d   1      11.010   7.141  -4.405  0.00  0.00    -0.192 F 
ATOM     29  F   LIG d   1       8.846   6.561  -3.960  0.00  0.00    -0.192 F 
BRANCH  27  30
ATOM     30  C   LIG d   1      10.249   7.225  -2.139  0.00  0.00     0.387 C 
ATOM     31  F   LIG d   1       9.069   7.007  -1.420  0.00  0.00    -0.192 F 
ATOM     32  F   LIG d   1      11.336   6.724  -1.415  0.00  0.00    -0.192 F 
BRANCH  30  33
ATOM     33  C   LIG d   1      10.436   8.726  -2.369  0.00  0.00     0.409 C 
ATOM     34  F   LIG d   1      11.787   8.996  -2.609  0.00  0.00    -0.189 F 
ATOM     35  F   LIG d   1       9.676   9.128  -3.472  0.00  0.00    -0.189 F 
BRANCH  33  36
ATOM     36  C   LIG d   1       9.976   9.493  -1.126  0.00  0.00     0.460 C 
ATOM     37  F   LIG d   1      10.499   8.882   0.019  0.00  0.00    -0.165 F 
ATOM     38  F   LIG d   1      10.431  10.814  -1.199  0.00  0.00    -0.165 F 
ATOM     39  F   LIG d   1       8.579   9.484  -1.064  0.00  0.00    -0.165 F 
ENDBRANCH  33  36
ENDBRANCH  30  33
ENDBRANCH  27  30
ENDBRANCH  24  27
ENDBRANCH  21  24
ENDBRANCH   1  21
TORSDOF 9
ENDMDL
MODEL 4
REMARK VINA RESULT:      -6.8      4.853      7.420
REMARK  9 active torsions:
REMARK  status: ('A' for Active; 'I' for Inactive)
REMARK    1  A    between atoms: C_6  and  N_7 
REMARK    2  A    between atoms: C_8  and  C_10 
REMARK    3  A    between atoms: C_10  and  C_11 
REMARK    4  A    between atoms: C_11  and  C_12 
REMARK    5  A    between atoms: C_12  and  C_13 
REMARK    6  A    between atoms: C_13  and  C_14 
REMARK    7  A    between atoms: C_14  and  C_15 
REMARK    8  A    between atoms: C_15  and  C_16 
REMARK    9  A    between atoms: C_16  and  C_17 
ROOT
ATOM      1  C   LIG d   1       8.397  -0.234  -6.631  0.00  0.00     0.382 C 
ATOM      2  F   LIG d   1       7.896  -1.380  -7.257  0.00  0.00    -0.192 F 
ATOM      3  F   LIG d   1       9.794  -0.291  -6.601  0.00  0.00    -0.192 F 
ENDROOT
BRANCH   1   4
ATOM      4  C   LIG d   1       7.954   1.007  -7.410  0.00  0.00     0.345 C 
ATOM      5  F   LIG d   1       8.948   1.360  -8.330  0.00  0.00    -0.193 F 
ATOM      6  F   LIG d   1       7.745   2.067  -6.520  0.00  0.00    -0.193 F 
BRANCH   4   7
ATOM      7  C   LIG d   1       6.673   0.708  -8.145  0.00  0.00     0.041 C 
ATOM      8  N   LIG d   1       5.547   0.671  -7.498  0.00  0.00    -0.259 NA
ATOM      9  O   LIG d   1       6.695   0.478  -9.474  0.00  0.00    -0.859 OA
BRANCH   8  10
ATOM     10  C   LIG d   1       4.379   0.398  -8.168  0.00  0.00     0.101 A 
ATOM     11  C   LIG d   1       3.599   1.441  -8.666  0.00  0.00    -0.031 A 
ATOM     12  C   LIG d   1       2.426   1.162  -9.338  0.00  0.00    -0.021 A 
ATOM     13  H   LIG d   1       3.913   2.465  -8.528  0.00  0.00     0.064 H 
ATOM     14  C   LIG d   1       2.022  -0.150  -9.521  0.00  0.00     0.161 A 
ATOM     15  H   LIG d   1       1.822   1.970  -9.723  0.00  0.00     0.065 H 
ATOM     16  C   LIG d   1       2.794  -1.192  -9.029  0.00  0.00     0.195 A 
ATOM     17  F   LIG d   1       0.873  -0.416 -10.180  0.00  0.00    -0.202 F 
ATOM     18  C   LIG d   1       3.970  -0.924  -8.353  0.00  0.00     0.186 A 
ATOM     19  F   LIG d   1       2.396  -2.471  -9.210  0.00  0.00    -0.199 F 
ATOM     20  F   LIG d   1       4.722  -1.939  -7.872  0.00  0.00    -0.200 F 
ENDBRANCH   8  10
ENDBRANCH   4   7
ENDBRANCH   1   4
BRANCH   1  21
ATOM     21  C   LIG d   1       7.859  -0.157  -5.201  0.00  0.00     0.384 C 
ATOM     22  F   LIG d   1       8.872   0.291  -4.345  0.00  0.00    -0.192 F 
ATOM     23  F   LIG d   1       6.781   0.734  -5.155  0.00  0.00    -0.192 F 
BRANCH  21  24
ATOM     24  C   LIG d   1       7.392  -1.545  -4.757  0.00  0.00     0.384 C 
ATOM     25  F   LIG d   1       6.609  -2.118  -5.764  0.00  0.00    -0.192 F 
ATOM     26  F   LIG d   1       8.506  -2.356  -4.514  0.00  0.00    -0.192 F 
BRANCH  24  27
ATOM     27  C   LIG d   1       6.564  -1.419  -3.476  0.00  0.00     0.384 C 
ATOM     28  F   LIG d   1       7.103  -2.250  -2.488  0.00  0.00    -0.192 F 
ATOM     29  F   LIG d   1       6.588  -0.092  -3.034  0.00  0.00    -0.192 F 
BRANCH  27  30
ATOM     30  C   LIG d   1       5.120  -1.835  -3.761  0.00  0.00     0.387 C 
ATOM     31  F   LIG d   1       4.700  -1.268  -4.969  0.00  0.00    -0.192 F 
ATOM     32  F   LIG d   1       5.045  -3.230  -3.849  0.00  0.00    -0.192 F 
BRANCH  30  33
ATOM     33  C   LIG d   1       4.216  -1.347  -2.627  0.00  0.00     0.409 C 
ATOM     34  F   LIG d   1       3.427  -2.407  -2.169  0.00  0.00    -0.189 F 
ATOM     35  F   LIG d   1       5.004  -0.864  -1.577  0.00  0.00    -0.189 F 
BRANCH  33  36
ATOM     36  C   LIG d   1       3.312  -0.225  -3.143  0.00  0.00     0.460 C 
ATOM     37  F   LIG d   1       3.007   0.649  -2.093  0.00  0.00    -0.165 F 
ATOM     38  F   LIG d   1       3.973   0.478  -4.157  0.00  0.00    -0.165 F 
ATOM     39  F   LIG d   1       2.130  -0.774  -3.651  0.00  0.00    -0.165 F 
ENDBRANCH  33  36
ENDBRANCH  30  33
ENDBRANCH  27  30
ENDBRANCH  24  27
ENDBRANCH  21  24
ENDBRANCH   1  21
TORSDOF 9
ENDMDL
MODEL 5
REMARK VINA RESULT:      -6.7      6.115      8.878
REMARK  9 active torsions:
REMARK  status: ('A' for Active; 'I' for Inactive)
REMARK    1  A    between atoms: C_6  and  N_7 
REMARK    2  A    between atoms: C_8  and  C_10 
REMARK    3  A    between atoms: C_10  and  C_11 
REMARK    4  A    between atoms: C_11  and  C_12 
REMARK    5  A    between atoms: C_12  and  C_13 
REMARK    6  A    between atoms: C_13  and  C_14 
REMARK    7  A    between atoms: C_14  and  C_15 
REMARK    8  A    between atoms: C_15  and  C_16 
REMARK    9  A    between atoms: C_16  and  C_17 
ROOT
ATOM      1  C   LIG d   1       8.949  -4.380  -4.650  0.00  0.00     0.382 C 
ATOM      2  F   LIG d   1       9.249  -4.277  -6.012  0.00  0.00    -0.192 F 
ATOM      3  F   LIG d   1       7.991  -5.381  -4.457  0.00  0.00    -0.192 F 
ENDROOT
BRANCH   1   4
ATOM      4  C   LIG d   1      10.219  -4.734  -3.873  0.00  0.00     0.345 C 
ATOM      5  F   LIG d   1      10.665  -3.608  -3.171  0.00  0.00    -0.193 F 
ATOM      6  F   LIG d   1      11.212  -5.149  -4.767  0.00  0.00    -0.193 F 
BRANCH   4   7
ATOM      7  C   LIG d   1       9.920  -5.846  -2.901  0.00  0.00     0.041 C 
ATOM      8  N   LIG d   1      10.065  -7.084  -3.267  0.00  0.00    -0.259 NA
ATOM      9  O   LIG d   1       9.503  -5.556  -1.652  0.00  0.00    -0.859 OA
BRANCH   8  10
ATOM     10  C   LIG d   1       9.793  -8.097  -2.381  0.00  0.00     0.101 A 
ATOM     11  C   LIG d   1      10.779  -8.541  -1.501  0.00  0.00    -0.031 A 
ATOM     12  C   LIG d   1      10.501  -9.560  -0.612  0.00  0.00    -0.021 A 
ATOM     13  H   LIG d   1      11.758  -8.086  -1.512  0.00  0.00     0.064 H 
ATOM     14  C   LIG d   1       9.245 -10.143  -0.591  0.00  0.00     0.161 A 
ATOM     15  H   LIG d   1      11.265  -9.903   0.069  0.00  0.00     0.065 H 
ATOM     16  C   LIG d   1       8.258  -9.706  -1.464  0.00  0.00     0.195 A 
ATOM     17  F   LIG d   1       8.979 -11.140   0.281  0.00  0.00    -0.202 F 
ATOM     18  C   LIG d   1       8.526  -8.687  -2.359  0.00  0.00     0.186 A 
ATOM     19  F   LIG d   1       7.034 -10.278  -1.439  0.00  0.00    -0.199 F 
ATOM     20  F   LIG d   1       7.566  -8.261  -3.209  0.00  0.00    -0.200 F 
ENDBRANCH   8  10
ENDBRANCH   4   7
ENDBRANCH   1   4
BRANCH   1  21
ATOM     21  C   LIG d   1       8.399  -3.043  -4.147  0.00  0.00     0.384 C 
ATOM     22  F   LIG d   1       8.308  -3.073  -2.750  0.00  0.00    -0.192 F 
ATOM     23  F   LIG d   1       9.256  -2.010  -4.537  0.00  0.00    -0.192 F 
BRANCH  21  24
ATOM     24  C   LIG d   1       7.010  -2.807  -4.743  0.00  0.00     0.384 C 
ATOM     25  F   LIG d   1       7.092  -2.827  -6.139  0.00  0.00    -0.192 F 
ATOM     26  F   LIG d   1       6.139  -3.814  -4.313  0.00  0.00    -0.192 F 
BRANCH  24  27
ATOM     27  C   LIG d   1       6.483  -1.446  -4.283  0.00  0.00     0.384 C 
ATOM     28  F   LIG d   1       7.130  -1.070  -3.102  0.00  0.00    -0.192 F 
ATOM     29  F   LIG d   1       6.730  -0.491  -5.275  0.00  0.00    -0.192 F 
BRANCH  27  30
ATOM     30  C   LIG d   1       4.977  -1.541  -4.032  0.00  0.00     0.387 C 
ATOM     31  F   LIG d   1       4.348  -2.070  -5.164  0.00  0.00    -0.192 F 
ATOM     32  F   LIG d   1       4.739  -2.376  -2.934  0.00  0.00    -0.192 F 
BRANCH  30  33
ATOM     33  C   LIG d   1       4.419  -0.146  -3.744  0.00  0.00     0.409 C 
ATOM     34  F   LIG d   1       5.477   0.747  -3.543  0.00  0.00    -0.189 F 
ATOM     35  F   LIG d   1       3.647   0.282  -4.829  0.00  0.00    -0.189 F 
BRANCH  33  36
ATOM     36  C   LIG d   1       3.548  -0.195  -2.487  0.00  0.00     0.460 C 
ATOM     37  F   LIG d   1       3.076   1.090  -2.196  0.00  0.00    -0.165 F 
ATOM     38  F   LIG d   1       2.463  -1.052  -2.704  0.00  0.00    -0.165 F 
ATOM     39  F   LIG d   1       4.307  -0.667  -1.412  0.00  0.00    -0.165 F 
ENDBRANCH  33  36
ENDBRANCH  30  33
ENDBRANCH  27  30
ENDBRANCH  24  27
ENDBRANCH  21  24
ENDBRANCH   1  21
TORSDOF 9
ENDMDL
MODEL 6
REMARK VINA RESULT:      -6.6      2.011      3.292
REMARK  9 active torsions:
REMARK  status: ('A' for Active; 'I' for Inactive)
REMARK    1  A    between atoms: C_6  and  N_7 
REMARK    2  A    between atoms: C_8  and  C_10 
REMARK    3  A    between atoms: C_10  and  C_11 
REMARK    4  A    between atoms: C_11  and  C_12 
REMARK    5  A    between atoms: C_12  and  C_13 
REMARK    6  A    between atoms: C_13  and  C_14 
REMARK    7  A    between atoms: C_14  and  C_15 
REMARK    8  A    between atoms: C_15  and  C_16 
REMARK    9  A    between atoms: C_16  and  C_17 
ROOT
ATOM      1  C   LIG d   1       9.640   2.118  -4.588  0.00  0.00     0.382 C 
ATOM      2  F   LIG d   1       8.626   2.535  -3.719  0.00  0.00    -0.192 F 
ATOM      3  F   LIG d   1      10.835   1.972  -3.875  0.00  0.00    -0.192 F 
ENDROOT
BRANCH   1   4
ATOM      4  C   LIG d   1       9.255   0.776  -5.215  0.00  0.00     0.345 C 
ATOM      5  F   LIG d   1      10.099  -0.227  -4.727  0.00  0.00    -0.193 F 
ATOM      6  F   LIG d   1       9.383   0.858  -6.606  0.00  0.00    -0.193 F 
BRANCH   4   7
ATOM      7  C   LIG d   1       7.827   0.448  -4.860  0.00  0.00     0.041 C 
ATOM      8  N   LIG d   1       7.560  -0.162  -3.745  0.00  0.00    -0.259 NA
ATOM      9  O   LIG d   1       6.828   0.787  -5.700  0.00  0.00    -0.859 OA
BRANCH   8  10
ATOM     10  C   LIG d   1       6.260  -0.462  -3.422  0.00  0.00     0.101 A 
ATOM     11  C   LIG d   1       5.774  -1.756  -3.603  0.00  0.00    -0.031 A 
ATOM     12  C   LIG d   1       4.466  -2.053  -3.277  0.00  0.00    -0.021 A 
ATOM     13  H   LIG d   1       6.421  -2.526  -3.996  0.00  0.00     0.064 H 
ATOM     14  C   LIG d   1       3.634  -1.069  -2.768  0.00  0.00     0.161 A 
ATOM     15  H   LIG d   1       4.090  -3.055  -3.418  0.00  0.00     0.065 H 
ATOM     16  C   LIG d   1       4.110   0.221  -2.584  0.00  0.00     0.195 A 
ATOM     17  F   LIG d   1       2.355  -1.366  -2.450  0.00  0.00    -0.202 F 
ATOM     18  C   LIG d   1       5.419   0.529  -2.909  0.00  0.00     0.186 A 
ATOM     19  F   LIG d   1       3.296   1.177  -2.086  0.00  0.00    -0.199 F 
ATOM     20  F   LIG d   1       5.884   1.785  -2.730  0.00  0.00    -0.200 F 
ENDBRANCH   8  10
ENDBRANCH   4   7
ENDBRANCH   1   4
BRANCH   1  21
ATOM     21  C   LIG d   1       9.828   3.161  -5.691  0.00  0.00     0.384 C 
ATOM     22  F   LIG d   1      11.034   2.921  -6.360  0.00  0.00    -0.192 F 
ATOM     23  F   LIG d   1       8.767   3.078  -6.598  0.00  0.00    -0.192 F 
BRANCH  21  24
ATOM     24  C   LIG d   1       9.859   4.560  -5.070  0.00  0.00     0.384 C 
ATOM     25  F   LIG d   1       8.587   4.884  -4.588  0.00  0.00    -0.192 F 
ATOM     26  F   LIG d   1      10.778   4.581  -4.014  0.00  0.00    -0.192 F 
BRANCH  24  27
ATOM     27  C   LIG d   1      10.278   5.580  -6.131  0.00  0.00     0.384 C 
ATOM     28  F   LIG d   1      11.657   5.487  -6.348  0.00  0.00    -0.192 F 
ATOM     29  F   LIG d   1       9.599   5.316  -7.325  0.00  0.00    -0.192 F 
BRANCH  27  30
ATOM     30  C   LIG d   1       9.931   6.989  -5.648  0.00  0.00     0.387 C 
ATOM     31  F   LIG d   1       8.648   6.988  -5.090  0.00  0.00    -0.192 F 
ATOM     32  F   LIG d   1      10.859   7.393  -4.682  0.00  0.00    -0.192 F 
BRANCH  30  33
ATOM     33  C   LIG d   1       9.971   7.957  -6.832  0.00  0.00     0.409 C 
ATOM     34  F   LIG d   1      11.118   7.715  -7.594  0.00  0.00    -0.189 F 
ATOM     35  F   LIG d   1       8.835   7.770  -7.626  0.00  0.00    -0.189 F 
BRANCH  33  36
ATOM     36  C   LIG d   1       9.998   9.397  -6.313  0.00  0.00     0.460 C 
ATOM     37  F   LIG d   1       9.618  10.270  -7.338  0.00  0.00    -0.165 F 
ATOM     38  F   LIG d   1       9.110   9.523  -5.239  0.00  0.00    -0.165 F 
ATOM     39  F   LIG d   1      11.292   9.713  -5.887  0.00  0.00    -0.165 F 
ENDBRANCH  33  36
ENDBRANCH  30  33
ENDBRANCH  27  30
ENDBRANCH  24  27
ENDBRANCH  21  24
ENDBRANCH   1  21
TORSDOF 9
ENDMDL
MODEL 7
REMARK VINA RESULT:      -6.4      1.995      7.791
REMARK  9 active torsions:
REMARK  status: ('A' for Active; 'I' for Inactive)
REMARK    1  A    between atoms: C_6  and  N_7 
REMARK    2  A    between atoms: C_8  and  C_10 
REMARK    3  A    between atoms: C_10  and  C_11 
REMARK    4  A    between atoms: C_11  and  C_12 
REMARK    5  A    between atoms: C_12  and  C_13 
REMARK    6  A    between atoms: C_13  and  C_14 
REMARK    7  A    between atoms: C_14  and  C_15 
REMARK    8  A    between atoms: C_15  and  C_16 
REMARK    9  A    between atoms: C_16  and  C_17 
ROOT
ATOM      1  C   LIG d   1       9.856   0.907  -5.819  0.00  0.00     0.382 C 
ATOM      2  F   LIG d   1      10.767   0.062  -6.461  0.00  0.00    -0.192 F 
ATOM      3  F   LIG d   1      10.145   0.952  -4.452  0.00  0.00    -0.192 F 
ENDROOT
BRANCH   1   4
ATOM      4  C   LIG d   1       9.962   2.314  -6.410  0.00  0.00     0.345 C 
ATOM      5  F   LIG d   1       9.014   2.465  -7.429  0.00  0.00    -0.193 F 
ATOM      6  F   LIG d   1      11.245   2.505  -6.934  0.00  0.00    -0.193 F 
BRANCH   4   7
ATOM      7  C   LIG d   1       9.704   3.333  -5.330  0.00  0.00     0.041 C 
ATOM      8  N   LIG d   1      10.680   4.061  -4.877  0.00  0.00    -0.259 NA
ATOM      9  O   LIG d   1       8.460   3.489  -4.833  0.00  0.00    -0.859 OA
BRANCH   8  10
ATOM     10  C   LIG d   1      10.445   4.989  -3.893  0.00  0.00     0.101 A 
ATOM     11  C   LIG d   1      10.044   6.280  -4.231  0.00  0.00    -0.031 A 
ATOM     12  C   LIG d   1       9.808   7.210  -3.238  0.00  0.00    -0.021 A 
ATOM     13  H   LIG d   1       9.913   6.552  -5.268  0.00  0.00     0.064 H 
ATOM     14  C   LIG d   1       9.969   6.864  -1.907  0.00  0.00     0.161 A 
ATOM     15  H   LIG d   1       9.497   8.211  -3.501  0.00  0.00     0.065 H 
ATOM     16  C   LIG d   1      10.369   5.581  -1.563  0.00  0.00     0.195 A 
ATOM     17  F   LIG d   1       9.738   7.779  -0.941  0.00  0.00    -0.202 F 
ATOM     18  C   LIG d   1      10.608   4.642  -2.550  0.00  0.00     0.186 A 
ATOM     19  F   LIG d   1      10.524   5.248  -0.263  0.00  0.00    -0.199 F 
ATOM     20  F   LIG d   1      10.997   3.392  -2.216  0.00  0.00    -0.200 F 
ENDBRANCH   8  10
ENDBRANCH   4   7
ENDBRANCH   1   4
BRANCH   1  21
ATOM     21  C   LIG d   1       8.436   0.374  -6.023  0.00  0.00     0.384 C 
ATOM     22  F   LIG d   1       7.577   1.438  -6.320  0.00  0.00    -0.192 F 
ATOM     23  F   LIG d   1       8.428  -0.541  -7.082  0.00  0.00    -0.192 F 
BRANCH  21  24
ATOM     24  C   LIG d   1       7.964  -0.322  -4.745  0.00  0.00     0.384 C 
ATOM     25  F   LIG d   1       8.818  -1.391  -4.453  0.00  0.00    -0.192 F 
ATOM     26  F   LIG d   1       7.979   0.591  -3.684  0.00  0.00    -0.192 F 
BRANCH  24  27
ATOM     27  C   LIG d   1       6.540  -0.847  -4.946  0.00  0.00     0.384 C 
ATOM     28  F   LIG d   1       5.861  -0.018  -5.844  0.00  0.00    -0.192 F 
ATOM     29  F   LIG d   1       6.591  -2.148  -5.457  0.00  0.00    -0.192 F 
BRANCH  27  30
ATOM     30  C   LIG d   1       5.807  -0.854  -3.604  0.00  0.00     0.387 C 
ATOM     31  F   LIG d   1       6.310  -1.884  -2.802  0.00  0.00    -0.192 F 
ATOM     32  F   LIG d   1       5.998   0.373  -2.960  0.00  0.00    -0.192 F 
BRANCH  30  33
ATOM     33  C   LIG d   1       4.312  -1.078  -3.842  0.00  0.00     0.409 C 
ATOM     34  F   LIG d   1       3.743   0.089  -4.364  0.00  0.00    -0.189 F 
ATOM     35  F   LIG d   1       4.136  -2.128  -4.748  0.00  0.00    -0.189 F 
BRANCH  33  36
ATOM     36  C   LIG d   1       3.631  -1.428  -2.517  0.00  0.00     0.460 C 
ATOM     37  F   LIG d   1       4.257  -0.736  -1.474  0.00  0.00    -0.165 F 
ATOM     38  F   LIG d   1       2.281  -1.062  -2.575  0.00  0.00    -0.165 F 
ATOM     39  F   LIG d   1       3.731  -2.804  -2.291  0.00  0.00    -0.165 F 
ENDBRANCH  33  36
ENDBRANCH  30  33
ENDBRANCH  27  30
ENDBRANCH  24  27
ENDBRANCH  21  24
ENDBRANCH   1  21
TORSDOF 9
ENDMDL
MODEL 8
REMARK VINA RESULT:      -6.3      2.310      8.257
REMARK  9 active torsions:
REMARK  status: ('A' for Active; 'I' for Inactive)
REMARK    1  A    between atoms: C_6  and  N_7 
REMARK    2  A    between atoms: C_8  and  C_10 
REMARK    3  A    between atoms: C_10  and  C_11 
REMARK    4  A    between atoms: C_11  and  C_12 
REMARK    5  A    between atoms: C_12  and  C_13 
REMARK    6  A    between atoms: C_13  and  C_14 
REMARK    7  A    between atoms: C_14  and  C_15 
REMARK    8  A    between atoms: C_15  and  C_16 
REMARK    9  A    between atoms: C_16  and  C_17 
ROOT
ATOM      1  C   LIG d   1       9.189   1.682  -4.920  0.00  0.00     0.382 C 
ATOM      2  F   LIG d   1      10.298   0.960  -4.469  0.00  0.00    -0.192 F 
ATOM      3  F   LIG d   1       8.580   2.327  -3.838  0.00  0.00    -0.192 F 
ENDROOT
BRANCH   1   4
ATOM      4  C   LIG d   1       9.641   2.724  -5.946  0.00  0.00     0.345 C 
ATOM      5  F   LIG d   1       8.593   2.990  -6.834  0.00  0.00    -0.193 F 
ATOM      6  F   LIG d   1      10.742   2.232  -6.656  0.00  0.00    -0.193 F 
BRANCH   4   7
ATOM      7  C   LIG d   1      10.029   3.994  -5.233  0.00  0.00     0.041 C 
ATOM      8  N   LIG d   1       9.150   4.933  -5.055  0.00  0.00    -0.259 NA
ATOM      9  O   LIG d   1      11.290   4.156  -4.781  0.00  0.00    -0.859 OA
BRANCH   8  10
ATOM     10  C   LIG d   1       9.503   6.091  -4.406  0.00  0.00     0.101 A 
ATOM     11  C   LIG d   1       9.585   6.115  -3.015  0.00  0.00    -0.031 A 
ATOM     12  C   LIG d   1       9.941   7.281  -2.366  0.00  0.00    -0.021 A 
ATOM     13  H   LIG d   1       9.374   5.222  -2.445  0.00  0.00     0.064 H 
ATOM     14  C   LIG d   1      10.218   8.426  -3.094  0.00  0.00     0.161 A 
ATOM     15  H   LIG d   1      10.004   7.299  -1.288  0.00  0.00     0.065 H 
ATOM     16  C   LIG d   1      10.138   8.409  -4.479  0.00  0.00     0.195 A 
ATOM     17  F   LIG d   1      10.565   9.564  -2.453  0.00  0.00    -0.202 F 
ATOM     18  C   LIG d   1       9.782   7.247  -5.138  0.00  0.00     0.186 A 
ATOM     19  F   LIG d   1      10.410   9.529  -5.184  0.00  0.00    -0.199 F 
ATOM     20  F   LIG d   1       9.704   7.230  -6.487  0.00  0.00    -0.200 F 
ENDBRANCH   8  10
ENDBRANCH   4   7
ENDBRANCH   1   4
BRANCH   1  21
ATOM     21  C   LIG d   1       8.188   0.726  -5.573  0.00  0.00     0.384 C 
ATOM     22  F   LIG d   1       6.967   1.385  -5.760  0.00  0.00    -0.192 F 
ATOM     23  F   LIG d   1       8.685   0.304  -6.810  0.00  0.00    -0.192 F 
BRANCH  21  24
ATOM     24  C   LIG d   1       7.978  -0.489  -4.666  0.00  0.00     0.384 C 
ATOM     25  F   LIG d   1       8.929  -1.468  -4.971  0.00  0.00    -0.192 F 
ATOM     26  F   LIG d   1       8.118  -0.103  -3.329  0.00  0.00    -0.192 F 
BRANCH  24  27
ATOM     27  C   LIG d   1       6.574  -1.055  -4.890  0.00  0.00     0.384 C 
ATOM     28  F   LIG d   1       5.987  -0.425  -5.992  0.00  0.00    -0.192 F 
ATOM     29  F   LIG d   1       6.659  -2.431  -5.129  0.00  0.00    -0.192 F 
BRANCH  27  30
ATOM     30  C   LIG d   1       5.721  -0.806  -3.645  0.00  0.00     0.387 C 
ATOM     31  F   LIG d   1       6.139  -1.655  -2.615  0.00  0.00    -0.192 F 
ATOM     32  F   LIG d   1       5.864   0.525  -3.240  0.00  0.00    -0.192 F 
BRANCH  30  33
ATOM     33  C   LIG d   1       4.252  -1.085  -3.971  0.00  0.00     0.409 C 
ATOM     34  F   LIG d   1       3.728  -0.021  -4.711  0.00  0.00    -0.189 F 
ATOM     35  F   LIG d   1       4.155  -2.265  -4.716  0.00  0.00    -0.189 F 
BRANCH  33  36
ATOM     36  C   LIG d   1       3.461  -1.238  -2.669  0.00  0.00     0.460 C 
ATOM     37  F   LIG d   1       2.124  -0.893  -2.892  0.00  0.00    -0.165 F 
ATOM     38  F   LIG d   1       3.533  -2.566  -2.233  0.00  0.00    -0.165 F 
ATOM     39  F   LIG d   1       4.004  -0.397  -1.693  0.00  0.00    -0.165 F 
ENDBRANCH  33  36
ENDBRANCH  30  33
ENDBRANCH  27  30
ENDBRANCH  24  27
ENDBRANCH  21  24
ENDBRANCH   1  21
TORSDOF 9
ENDMDL
MODEL 9
REMARK VINA RESULT:      -6.1      5.747      8.576
REMARK  9 active torsions:
REMARK  status: ('A' for Active; 'I' for Inactive)
REMARK    1  A    between atoms: C_6  and  N_7 
REMARK    2  A    between atoms: C_8  and  C_10 
REMARK    3  A    between atoms: C_10  and  C_11 
REMARK    4  A    between atoms: C_11  and  C_12 
REMARK    5  A    between atoms: C_12  and  C_13 
REMARK    6  A    between atoms: C_13  and  C_14 
REMARK    7  A    between atoms: C_14  and  C_15 
REMARK    8  A    between atoms: C_15  and  C_16 
REMARK    9  A    between atoms: C_16  and  C_17 
ROOT
ATOM      1  C   LIG d   1       8.747  -3.388  -5.912  0.00  0.00     0.382 C 
ATOM      2  F   LIG d   1       9.466  -2.189  -5.934  0.00  0.00    -0.192 F 
ATOM      3  F   LIG d   1       8.133  -3.587  -7.153  0.00  0.00    -0.192 F 
ENDROOT
BRANCH   1   4
ATOM      4  C   LIG d   1       9.702  -4.550  -5.624  0.00  0.00     0.345 C 
ATOM      5  F   LIG d   1       9.780  -5.379  -6.749  0.00  0.00    -0.193 F 
ATOM      6  F   LIG d   1       9.225  -5.286  -4.534  0.00  0.00    -0.193 F 
BRANCH   4   7
ATOM      7  C   LIG d   1      11.071  -4.007  -5.304  0.00  0.00     0.041 C 
ATOM      8  N   LIG d   1      11.340  -3.592  -4.103  0.00  0.00    -0.259 NA
ATOM      9  O   LIG d   1      12.016  -3.952  -6.265  0.00  0.00    -0.859 OA
BRANCH   8  10
ATOM     10  C   LIG d   1      12.587  -3.098  -3.811  0.00  0.00     0.101 A 
ATOM     11  C   LIG d   1      12.862  -1.743  -3.990  0.00  0.00    -0.031 A 
ATOM     12  C   LIG d   1      14.117  -1.250  -3.695  0.00  0.00    -0.021 A 
ATOM     13  H   LIG d   1      12.092  -1.078  -4.355  0.00  0.00     0.064 H 
ATOM     14  C   LIG d   1      15.105  -2.097  -3.222  0.00  0.00     0.161 A 
ATOM     15  H   LIG d   1      14.329  -0.200  -3.834  0.00  0.00     0.065 H 
ATOM     16  C   LIG d   1      14.839  -3.446  -3.042  0.00  0.00     0.195 A 
ATOM     17  F   LIG d   1      16.331  -1.608  -2.936  0.00  0.00    -0.202 F 
ATOM     18  C   LIG d   1      13.586  -3.951  -3.334  0.00  0.00     0.186 A 
ATOM     19  F   LIG d   1      15.806  -4.269  -2.579  0.00  0.00    -0.199 F 
ATOM     20  F   LIG d   1      13.326  -5.265  -3.160  0.00  0.00    -0.200 F 
ENDBRANCH   8  10
ENDBRANCH   4   7
ENDBRANCH   1   4
BRANCH   1  21
ATOM     21  C   LIG d   1       7.679  -3.323  -4.819  0.00  0.00     0.384 C 
ATOM     22  F   LIG d   1       6.925  -4.503  -4.833  0.00  0.00    -0.192 F 
ATOM     23  F   LIG d   1       8.295  -3.179  -3.572  0.00  0.00    -0.192 F 
BRANCH  21  24
ATOM     24  C   LIG d   1       6.759  -2.127  -5.075  0.00  0.00     0.384 C 
ATOM     25  F   LIG d   1       7.498  -1.085  -5.645  0.00  0.00    -0.192 F 
ATOM     26  F   LIG d   1       5.734  -2.505  -5.949  0.00  0.00    -0.192 F 
BRANCH  24  27
ATOM     27  C   LIG d   1       6.153  -1.657  -3.751  0.00  0.00     0.384 C 
ATOM     28  F   LIG d   1       5.699  -2.764  -3.027  0.00  0.00    -0.192 F 
ATOM     29  F   LIG d   1       7.126  -0.981  -3.007  0.00  0.00    -0.192 F 
BRANCH  27  30
ATOM     30  C   LIG d   1       4.981  -0.716  -4.033  0.00  0.00     0.387 C 
ATOM     31  F   LIG d   1       5.308   0.130  -5.098  0.00  0.00    -0.192 F 
ATOM     32  F   LIG d   1       3.848  -1.467  -4.365  0.00  0.00    -0.192 F 
BRANCH  30  33
ATOM     33  C   LIG d   1       4.690   0.123  -2.787  0.00  0.00     0.409 C 
ATOM     34  F   LIG d   1       4.779  -0.686  -1.649  0.00  0.00    -0.189 F 
ATOM     35  F   LIG d   1       5.623   1.161  -2.695  0.00  0.00    -0.189 F 
BRANCH  33  36
ATOM     36  C   LIG d   1       3.281   0.711  -2.885  0.00  0.00     0.460 C 
ATOM     37  F   LIG d   1       3.162   1.789  -2.001  0.00  0.00    -0.165 F 
ATOM     38  F   LIG d   1       3.050   1.153  -4.193  0.00  0.00    -0.165 F 
ATOM     39  F   LIG d   1       2.342  -0.271  -2.552  0.00  0.00    -0.165 F 
ENDBRANCH  33  36
ENDBRANCH  30  33
ENDBRANCH  27  30
ENDBRANCH  24  27
ENDBRANCH  21  24
ENDBRANCH   1  21
TORSDOF 9
ENDMDL
