MODEL 1
REMARK VINA RESULT:      -7.5      0.000      0.000
REMARK  2 active torsions:
REMARK  status: ('A' for Active; 'I' for Inactive)
REMARK    1  A    between atoms: C_4  and  C_8 
REMARK       I    between atoms: C_8  and  N_10 
REMARK       I    between atoms: N_10  and  C_11 
REMARK       I    between atoms: C_11  and  N_13 
REMARK    2  A    between atoms: N_13  and  C_14 
ROOT
ATOM      1  C   LIG d   1       4.144  -0.696  -5.748  0.00  0.00     0.257 C 
ATOM      2  O   LIG d   1       4.311  -1.887  -5.925  0.00  0.00    -0.270 OA
ATOM      3  N   LIG d   1       3.794   0.096  -6.780  0.00  0.00    -0.236 N 
ATOM      4  C   LIG d   1       3.628  -0.431  -8.009  0.00  0.00     0.310 C 
ATOM      5  O   LIG d   1       3.794  -1.623  -8.187  0.00  0.00    -0.252 OA
ATOM      6  N   LIG d   1       3.277   0.361  -9.041  0.00  0.00    -0.267 N 
ATOM      7  H   LIG d   1       3.661   1.047  -6.639  0.00  0.00     0.159 HD
ATOM      8  H   LIG d   1       3.081   1.299  -8.888  0.00  0.00     0.157 HD
ENDROOT
BRANCH   1   9
ATOM      9  C   LIG d   1       4.326  -0.118  -4.403  0.00  0.00     0.107 A 
ATOM     10  C   LIG d   1       3.220   0.090  -3.571  0.00  0.00     0.138 A 
ATOM     11  C   LIG d   1       3.400   0.632  -2.313  0.00  0.00    -0.025 A 
ATOM     12  F   LIG d   1       1.980  -0.236  -3.997  0.00  0.00    -0.205 F 
ATOM     13  C   LIG d   1       4.668   0.967  -1.874  0.00  0.00    -0.056 A 
ATOM     14  H   LIG d   1       2.547   0.793  -1.669  0.00  0.00     0.065 H 
ATOM     15  C   LIG d   1       5.767   0.763  -2.689  0.00  0.00    -0.025 A 
ATOM     16  H   LIG d   1       4.801   1.392  -0.891  0.00  0.00     0.062 H 
ATOM     17  C   LIG d   1       5.605   0.223  -3.952  0.00  0.00     0.138 A 
ATOM     18  H   LIG d   1       6.754   1.027  -2.339  0.00  0.00     0.065 H 
ATOM     19  F   LIG d   1       6.679   0.025  -4.746  0.00  0.00    -0.205 F 
ENDBRANCH   1   9
BRANCH   6  20
ATOM     20  C   LIG d   1       3.196  -0.170 -10.337  0.00  0.00     0.073 A 
ATOM     21  C   LIG d   1       1.993  -0.687 -10.802  0.00  0.00     0.166 A 
ATOM     22  C   LIG d   1       1.914  -1.206 -12.082  0.00  0.00     0.114 A 
ATOM     23  F   LIG d   1       0.901  -0.680 -10.007  0.00  0.00    -0.202 F 
ATOM     24  C   LIG d   1       3.036  -1.218 -12.896  0.00  0.00     0.163 A 
ATOM     25 CL   LIG d   1       0.411  -1.847 -12.668  0.00  0.00    -0.077 Cl
ATOM     26  C   LIG d   1       4.236  -0.707 -12.430  0.00  0.00     0.080 A 
ATOM     27  F   LIG d   1       2.958  -1.729 -14.144  0.00  0.00    -0.202 F 
ATOM     28  C   LIG d   1       4.318  -0.183 -11.154  0.00  0.00    -0.016 A 
ATOM     29 CL   LIG d   1       5.639  -0.723 -13.453  0.00  0.00    -0.081 Cl
ATOM     30  H   LIG d   1       5.254   0.215 -10.793  0.00  0.00     0.065 H 
ENDBRANCH   6  20
TORSDOF 2
ENDMDL
MODEL 2
REMARK VINA RESULT:      -7.5      0.004      1.691
REMARK  2 active torsions:
REMARK  status: ('A' for Active; 'I' for Inactive)
REMARK    1  A    between atoms: C_4  and  C_8 
REMARK       I    between atoms: C_8  and  N_10 
REMARK       I    between atoms: N_10  and  C_11 
REMARK       I    between atoms: C_11  and  N_13 
REMARK    2  A    between atoms: N_13  and  C_14 
ROOT
ATOM      1  C   LIG d   1       4.144  -0.695  -5.745  0.00  0.00     0.257 C 
ATOM      2  O   LIG d   1       4.311  -1.886  -5.923  0.00  0.00    -0.270 OA
ATOM      3  N   LIG d   1       3.794   0.097  -6.777  0.00  0.00    -0.236 N 
ATOM      4  C   LIG d   1       3.627  -0.430  -8.007  0.00  0.00     0.310 C 
ATOM      5  O   LIG d   1       3.793  -1.622  -8.184  0.00  0.00    -0.252 OA
ATOM      6  N   LIG d   1       3.277   0.362  -9.039  0.00  0.00    -0.267 N 
ATOM      7  H   LIG d   1       3.662   1.049  -6.637  0.00  0.00     0.159 HD
ATOM      8  H   LIG d   1       3.081   1.300  -8.885  0.00  0.00     0.157 HD
ENDROOT
BRANCH   1   9
ATOM      9  C   LIG d   1       4.327  -0.117  -4.401  0.00  0.00     0.107 A 
ATOM     10  C   LIG d   1       5.607   0.226  -3.950  0.00  0.00     0.138 A 
ATOM     11  C   LIG d   1       5.768   0.767  -2.689  0.00  0.00    -0.025 A 
ATOM     12  F   LIG d   1       6.681   0.028  -4.745  0.00  0.00    -0.205 F 
ATOM     13  C   LIG d   1       4.670   0.971  -1.873  0.00  0.00    -0.056 A 
ATOM     14  H   LIG d   1       6.755   1.033  -2.339  0.00  0.00     0.065 H 
ATOM     15  C   LIG d   1       3.402   0.636  -2.311  0.00  0.00    -0.025 A 
ATOM     16  H   LIG d   1       4.804   1.392  -0.888  0.00  0.00     0.062 H 
ATOM     17  C   LIG d   1       3.222   0.093  -3.570  0.00  0.00     0.138 A 
ATOM     18  H   LIG d   1       2.549   0.798  -1.668  0.00  0.00     0.065 H 
ATOM     19  F   LIG d   1       1.982  -0.234  -3.995  0.00  0.00    -0.205 F 
ENDBRANCH   1   9
BRANCH   6  20
ATOM     20  C   LIG d   1       3.194  -0.169 -10.334  0.00  0.00     0.073 A 
ATOM     21  C   LIG d   1       1.992  -0.687 -10.798  0.00  0.00     0.166 A 
ATOM     22  C   LIG d   1       1.912  -1.206 -12.078  0.00  0.00     0.114 A 
ATOM     23  F   LIG d   1       0.900  -0.681 -10.002  0.00  0.00    -0.202 F 
ATOM     24  C   LIG d   1       3.033  -1.217 -12.893  0.00  0.00     0.163 A 
ATOM     25 CL   LIG d   1       0.408  -1.848 -12.663  0.00  0.00    -0.077 Cl
ATOM     26  C   LIG d   1       4.233  -0.705 -12.429  0.00  0.00     0.080 A 
ATOM     27  F   LIG d   1       2.955  -1.728 -14.141  0.00  0.00    -0.202 F 
ATOM     28  C   LIG d   1       4.316  -0.181 -11.152  0.00  0.00    -0.016 A 
ATOM     29 CL   LIG d   1       5.636  -0.720 -13.452  0.00  0.00    -0.081 Cl
ATOM     30  H   LIG d   1       5.252   0.218 -10.792  0.00  0.00     0.065 H 
ENDBRANCH   6  20
TORSDOF 2
ENDMDL
MODEL 3
REMARK VINA RESULT:      -7.4      0.932      2.668
REMARK  2 active torsions:
REMARK  status: ('A' for Active; 'I' for Inactive)
REMARK    1  A    between atoms: C_4  and  C_8 
REMARK       I    between atoms: C_8  and  N_10 
REMARK       I    between atoms: N_10  and  C_11 
REMARK       I    between atoms: C_11  and  N_13 
REMARK    2  A    between atoms: N_13  and  C_14 
ROOT
ATOM      1  C   LIG d   1       4.102  -0.717  -5.765  0.00  0.00     0.257 C 
ATOM      2  O   LIG d   1       4.382  -1.882  -5.966  0.00  0.00    -0.270 OA
ATOM      3  N   LIG d   1       3.622   0.043  -6.769  0.00  0.00    -0.236 N 
ATOM      4  C   LIG d   1       3.450  -0.489  -7.996  0.00  0.00     0.310 C 
ATOM      5  O   LIG d   1       3.729  -1.656  -8.196  0.00  0.00    -0.252 OA
ATOM      6  N   LIG d   1       2.970   0.271  -8.999  0.00  0.00    -0.267 N 
ATOM      7  H   LIG d   1       3.400   0.975  -6.610  0.00  0.00     0.159 HD
ATOM      8  H   LIG d   1       2.687   1.182  -8.825  0.00  0.00     0.157 HD
ENDROOT
BRANCH   1   9
ATOM      9  C   LIG d   1       4.290  -0.134  -4.424  0.00  0.00     0.107 A 
ATOM     10  C   LIG d   1       5.572   0.208  -3.978  0.00  0.00     0.138 A 
ATOM     11  C   LIG d   1       5.739   0.753  -2.720  0.00  0.00    -0.025 A 
ATOM     12  F   LIG d   1       6.644   0.003  -4.775  0.00  0.00    -0.205 F 
ATOM     13  C   LIG d   1       4.644   0.964  -1.902  0.00  0.00    -0.056 A 
ATOM     14  H   LIG d   1       6.728   1.018  -2.374  0.00  0.00     0.065 H 
ATOM     15  C   LIG d   1       3.373   0.631  -2.335  0.00  0.00    -0.025 A 
ATOM     16  H   LIG d   1       4.781   1.388  -0.919  0.00  0.00     0.062 H 
ATOM     17  C   LIG d   1       3.188   0.083  -3.591  0.00  0.00     0.138 A 
ATOM     18  H   LIG d   1       2.523   0.798  -1.690  0.00  0.00     0.065 H 
ATOM     19  F   LIG d   1       1.946  -0.242  -4.011  0.00  0.00    -0.205 F 
ENDBRANCH   1   9
BRANCH   6  20
ATOM     20  C   LIG d   1       2.879  -0.255 -10.296  0.00  0.00     0.073 A 
ATOM     21  C   LIG d   1       3.975  -0.198 -11.149  0.00  0.00     0.166 A 
ATOM     22  C   LIG d   1       3.884  -0.721 -12.426  0.00  0.00     0.114 A 
ATOM     23  F   LIG d   1       5.129   0.366 -10.730  0.00  0.00    -0.202 F 
ATOM     24  C   LIG d   1       2.698  -1.295 -12.857  0.00  0.00     0.163 A 
ATOM     25 CL   LIG d   1       5.253  -0.657 -13.491  0.00  0.00    -0.077 Cl
ATOM     26  C   LIG d   1       1.604  -1.348 -12.009  0.00  0.00     0.080 A 
ATOM     27  F   LIG d   1       2.609  -1.803 -14.106  0.00  0.00    -0.202 F 
ATOM     28  C   LIG d   1       1.693  -0.830 -10.730  0.00  0.00    -0.016 A 
ATOM     29 CL   LIG d   1       0.120  -2.068 -12.552  0.00  0.00    -0.081 Cl
ATOM     30  H   LIG d   1       0.839  -0.872 -10.070  0.00  0.00     0.065 H 
ENDBRANCH   6  20
TORSDOF 2
ENDMDL
MODEL 4
REMARK VINA RESULT:      -7.1      7.300      9.366
REMARK  2 active torsions:
REMARK  status: ('A' for Active; 'I' for Inactive)
REMARK    1  A    between atoms: C_4  and  C_8 
REMARK       I    between atoms: C_8  and  N_10 
REMARK       I    between atoms: N_10  and  C_11 
REMARK       I    between atoms: C_11  and  N_13 
REMARK    2  A    between atoms: N_13  and  C_14 
ROOT
ATOM      1  C   LIG d   1       6.630  -2.046  -3.556  0.00  0.00     0.257 C 
ATOM      2  O   LIG d   1       6.465  -2.624  -4.613  0.00  0.00    -0.270 OA
ATOM      3  N   LIG d   1       7.700  -2.335  -2.791  0.00  0.00    -0.236 N 
ATOM      4  C   LIG d   1       8.589  -3.263  -3.197  0.00  0.00     0.310 C 
ATOM      5  O   LIG d   1       8.425  -3.840  -4.255  0.00  0.00    -0.252 OA
ATOM      6  N   LIG d   1       9.660  -3.552  -2.432  0.00  0.00    -0.267 N 
ATOM      7  H   LIG d   1       7.832  -1.875  -1.946  0.00  0.00     0.159 HD
ATOM      8  H   LIG d   1       9.827  -3.047  -1.620  0.00  0.00     0.157 HD
ENDROOT
BRANCH   1   9
ATOM      9  C   LIG d   1       5.657  -1.031  -3.111  0.00  0.00     0.107 A 
ATOM     10  C   LIG d   1       4.378  -1.417  -2.695  0.00  0.00     0.138 A 
ATOM     11  C   LIG d   1       3.473  -0.458  -2.279  0.00  0.00    -0.025 A 
ATOM     12  F   LIG d   1       4.027  -2.722  -2.701  0.00  0.00    -0.205 F 
ATOM     13  C   LIG d   1       3.829   0.878  -2.271  0.00  0.00    -0.056 A 
ATOM     14  H   LIG d   1       2.485  -0.754  -1.958  0.00  0.00     0.065 H 
ATOM     15  C   LIG d   1       5.092   1.268  -2.680  0.00  0.00    -0.025 A 
ATOM     16  H   LIG d   1       3.116   1.622  -1.948  0.00  0.00     0.062 H 
ATOM     17  C   LIG d   1       6.009   0.323  -3.100  0.00  0.00     0.138 A 
ATOM     18  H   LIG d   1       5.362   2.314  -2.671  0.00  0.00     0.065 H 
ATOM     19  F   LIG d   1       7.242   0.706  -3.497  0.00  0.00    -0.205 F 
ENDBRANCH   1   9
BRANCH   6  20
ATOM     20  C   LIG d   1      10.534  -4.582  -2.808  0.00  0.00     0.073 A 
ATOM     21  C   LIG d   1      10.301  -5.883  -2.382  0.00  0.00     0.166 A 
ATOM     22  C   LIG d   1      11.162  -6.899  -2.758  0.00  0.00     0.114 A 
ATOM     23  F   LIG d   1       9.231  -6.158  -1.603  0.00  0.00    -0.202 F 
ATOM     24  C   LIG d   1      12.262  -6.615  -3.553  0.00  0.00     0.163 A 
ATOM     25 CL   LIG d   1      10.869  -8.527  -2.232  0.00  0.00    -0.077 Cl
ATOM     26  C   LIG d   1      12.498  -5.317  -3.974  0.00  0.00     0.080 A 
ATOM     27  F   LIG d   1      13.104  -7.607  -3.917  0.00  0.00    -0.202 F 
ATOM     28  C   LIG d   1      11.637  -4.301  -3.604  0.00  0.00    -0.016 A 
ATOM     29 CL   LIG d   1      13.876  -4.966  -4.970  0.00  0.00    -0.081 Cl
ATOM     30  H   LIG d   1      11.822  -3.290  -3.933  0.00  0.00     0.065 H 
ENDBRANCH   6  20
TORSDOF 2
ENDMDL
MODEL 5
REMARK VINA RESULT:      -7.0      7.319      9.515
REMARK  2 active torsions:
REMARK  status: ('A' for Active; 'I' for Inactive)
REMARK    1  A    between atoms: C_4  and  C_8 
REMARK       I    between atoms: C_8  and  N_10 
REMARK       I    between atoms: N_10  and  C_11 
REMARK       I    between atoms: C_11  and  N_13 
REMARK    2  A    between atoms: N_13  and  C_14 
ROOT
ATOM      1  C   LIG d   1       6.624  -2.020  -3.555  0.00  0.00     0.257 C 
ATOM      2  O   LIG d   1       6.492  -2.575  -4.628  0.00  0.00    -0.270 OA
ATOM      3  N   LIG d   1       7.667  -2.329  -2.760  0.00  0.00    -0.236 N 
ATOM      4  C   LIG d   1       8.565  -3.253  -3.155  0.00  0.00     0.310 C 
ATOM      5  O   LIG d   1       8.434  -3.808  -4.230  0.00  0.00    -0.252 OA
ATOM      6  N   LIG d   1       9.609  -3.562  -2.361  0.00  0.00    -0.267 N 
ATOM      7  H   LIG d   1       7.773  -1.887  -1.902  0.00  0.00     0.159 HD
ATOM      8  H   LIG d   1       9.750  -3.074  -1.534  0.00  0.00     0.157 HD
ENDROOT
BRANCH   1   9
ATOM      9  C   LIG d   1       5.641  -1.010  -3.121  0.00  0.00     0.107 A 
ATOM     10  C   LIG d   1       4.356  -1.400  -2.728  0.00  0.00     0.138 A 
ATOM     11  C   LIG d   1       3.442  -0.446  -2.324  0.00  0.00    -0.025 A 
ATOM     12  F   LIG d   1       4.010  -2.706  -2.745  0.00  0.00    -0.205 F 
ATOM     13  C   LIG d   1       3.794   0.891  -2.305  0.00  0.00    -0.056 A 
ATOM     14  H   LIG d   1       2.449  -0.746  -2.019  0.00  0.00     0.065 H 
ATOM     15  C   LIG d   1       5.062   1.286  -2.691  0.00  0.00    -0.025 A 
ATOM     16  H   LIG d   1       3.073   1.631  -1.990  0.00  0.00     0.062 H 
ATOM     17  C   LIG d   1       5.989   0.346  -3.099  0.00  0.00     0.138 A 
ATOM     18  H   LIG d   1       5.329   2.333  -2.674  0.00  0.00     0.065 H 
ATOM     19  F   LIG d   1       7.226   0.733  -3.476  0.00  0.00    -0.205 F 
ENDBRANCH   1   9
BRANCH   6  20
ATOM     20  C   LIG d   1      10.491  -4.589  -2.729  0.00  0.00     0.073 A 
ATOM     21  C   LIG d   1      11.638  -4.293  -3.456  0.00  0.00     0.166 A 
ATOM     22  C   LIG d   1      12.508  -5.307  -3.814  0.00  0.00     0.114 A 
ATOM     23  F   LIG d   1      11.904  -3.017  -3.811  0.00  0.00    -0.202 F 
ATOM     24  C   LIG d   1      12.232  -6.617  -3.455  0.00  0.00     0.163 A 
ATOM     25 CL   LIG d   1      13.945  -4.940  -4.717  0.00  0.00    -0.077 Cl
ATOM     26  C   LIG d   1      11.087  -6.912  -2.735  0.00  0.00     0.080 A 
ATOM     27  F   LIG d   1      13.081  -7.606  -3.809  0.00  0.00    -0.202 F 
ATOM     28  C   LIG d   1      10.217  -5.901  -2.371  0.00  0.00    -0.016 A 
ATOM     29 CL   LIG d   1      10.744  -8.554  -2.286  0.00  0.00    -0.081 Cl
ATOM     30  H   LIG d   1       9.325  -6.133  -1.809  0.00  0.00     0.065 H 
ENDBRANCH   6  20
TORSDOF 2
ENDMDL
MODEL 6
REMARK VINA RESULT:      -6.8      4.944      5.379
REMARK  2 active torsions:
REMARK  status: ('A' for Active; 'I' for Inactive)
REMARK    1  A    between atoms: C_4  and  C_8 
REMARK       I    between atoms: C_8  and  N_10 
REMARK       I    between atoms: N_10  and  C_11 
REMARK       I    between atoms: C_11  and  N_13 
REMARK    2  A    between atoms: N_13  and  C_14 
ROOT
ATOM      1  C   LIG d   1       4.855  -1.871  -4.973  0.00  0.00     0.257 C 
ATOM      2  O   LIG d   1       5.945  -1.822  -5.508  0.00  0.00    -0.270 OA
ATOM      3  N   LIG d   1       4.010  -2.883  -5.255  0.00  0.00    -0.236 N 
ATOM      4  C   LIG d   1       4.374  -3.841  -6.130  0.00  0.00     0.310 C 
ATOM      5  O   LIG d   1       5.466  -3.792  -6.665  0.00  0.00    -0.252 OA
ATOM      6  N   LIG d   1       3.530  -4.852  -6.412  0.00  0.00    -0.267 N 
ATOM      7  H   LIG d   1       3.139  -2.922  -4.828  0.00  0.00     0.159 HD
ATOM      8  H   LIG d   1       2.687  -4.927  -5.938  0.00  0.00     0.157 HD
ENDROOT
BRANCH   1   9
ATOM      9  C   LIG d   1       4.456  -0.823  -4.015  0.00  0.00     0.107 A 
ATOM     10  C   LIG d   1       3.555   0.177  -4.401  0.00  0.00     0.138 A 
ATOM     11  C   LIG d   1       3.187   1.155  -3.497  0.00  0.00    -0.025 A 
ATOM     12  F   LIG d   1       3.049   0.187  -5.653  0.00  0.00    -0.205 F 
ATOM     13  C   LIG d   1       3.704   1.148  -2.214  0.00  0.00    -0.056 A 
ATOM     14  H   LIG d   1       2.492   1.928  -3.793  0.00  0.00     0.065 H 
ATOM     15  C   LIG d   1       4.594   0.163  -1.824  0.00  0.00    -0.025 A 
ATOM     16  H   LIG d   1       3.414   1.917  -1.514  0.00  0.00     0.062 H 
ATOM     17  C   LIG d   1       4.974  -0.823  -2.716  0.00  0.00     0.138 A 
ATOM     18  H   LIG d   1       4.993   0.164  -0.821  0.00  0.00     0.065 H 
ATOM     19  F   LIG d   1       5.842  -1.784  -2.333  0.00  0.00    -0.205 F 
ENDBRANCH   1   9
BRANCH   6  20
ATOM     20  C   LIG d   1       3.870  -5.797  -7.391  0.00  0.00     0.073 A 
ATOM     21  C   LIG d   1       4.505  -6.979  -7.027  0.00  0.00     0.166 A 
ATOM     22  C   LIG d   1       4.835  -7.911  -7.994  0.00  0.00     0.114 A 
ATOM     23  F   LIG d   1       4.796  -7.218  -5.730  0.00  0.00    -0.202 F 
ATOM     24  C   LIG d   1       4.540  -7.663  -9.325  0.00  0.00     0.163 A 
ATOM     25 CL   LIG d   1       5.622  -9.391  -7.541  0.00  0.00    -0.077 Cl
ATOM     26  C   LIG d   1       3.912  -6.484  -9.689  0.00  0.00     0.080 A 
ATOM     27  F   LIG d   1       4.867  -8.573 -10.269  0.00  0.00    -0.202 F 
ATOM     28  C   LIG d   1       3.576  -5.551  -8.725  0.00  0.00    -0.016 A 
ATOM     29 CL   LIG d   1       3.544  -6.176 -11.358  0.00  0.00    -0.081 Cl
ATOM     30  H   LIG d   1       3.086  -4.633  -9.010  0.00  0.00     0.065 H 
ENDBRANCH   6  20
TORSDOF 2
ENDMDL
MODEL 7
REMARK VINA RESULT:      -6.7      4.883      5.263
REMARK  2 active torsions:
REMARK  status: ('A' for Active; 'I' for Inactive)
REMARK    1  A    between atoms: C_4  and  C_8 
REMARK       I    between atoms: C_8  and  N_10 
REMARK       I    between atoms: N_10  and  C_11 
REMARK       I    between atoms: C_11  and  N_13 
REMARK    2  A    between atoms: N_13  and  C_14 
ROOT
ATOM      1  C   LIG d   1       5.435  -2.439  -4.350  0.00  0.00     0.257 C 
ATOM      2  O   LIG d   1       6.552  -2.908  -4.453  0.00  0.00    -0.270 OA
ATOM      3  N   LIG d   1       4.406  -2.998  -5.015  0.00  0.00    -0.236 N 
ATOM      4  C   LIG d   1       4.613  -4.078  -5.795  0.00  0.00     0.310 C 
ATOM      5  O   LIG d   1       5.731  -4.548  -5.897  0.00  0.00    -0.252 OA
ATOM      6  N   LIG d   1       3.584  -4.637  -6.460  0.00  0.00    -0.267 N 
ATOM      7  H   LIG d   1       3.514  -2.623  -4.935  0.00  0.00     0.159 HD
ATOM      8  H   LIG d   1       2.682  -4.303  -6.328  0.00  0.00     0.157 HD
ENDROOT
BRANCH   1   9
ATOM      9  C   LIG d   1       5.208  -1.257  -3.498  0.00  0.00     0.107 A 
ATOM     10  C   LIG d   1       4.401  -1.355  -2.358  0.00  0.00     0.138 A 
ATOM     11  C   LIG d   1       4.193  -0.242  -1.566  0.00  0.00    -0.025 A 
ATOM     12  F   LIG d   1       3.825  -2.534  -2.035  0.00  0.00    -0.205 F 
ATOM     13  C   LIG d   1       4.781   0.966  -1.894  0.00  0.00    -0.056 A 
ATOM     14  H   LIG d   1       3.571  -0.316  -0.686  0.00  0.00     0.065 H 
ATOM     15  C   LIG d   1       5.581   1.072  -3.018  0.00  0.00    -0.025 A 
ATOM     16  H   LIG d   1       4.612   1.832  -1.272  0.00  0.00     0.062 H 
ATOM     17  C   LIG d   1       5.799  -0.031  -3.823  0.00  0.00     0.138 A 
ATOM     18  H   LIG d   1       6.036   2.019  -3.268  0.00  0.00     0.065 H 
ATOM     19  F   LIG d   1       6.580   0.075  -4.919  0.00  0.00    -0.205 F 
ENDBRANCH   1   9
BRANCH   6  20
ATOM     20  C   LIG d   1       3.815  -5.702  -7.343  0.00  0.00     0.073 A 
ATOM     21  C   LIG d   1       3.548  -5.553  -8.698  0.00  0.00     0.166 A 
ATOM     22  C   LIG d   1       3.781  -6.603  -9.568  0.00  0.00     0.114 A 
ATOM     23  F   LIG d   1       3.065  -4.381  -9.167  0.00  0.00    -0.202 F 
ATOM     24  C   LIG d   1       4.272  -7.807  -9.085  0.00  0.00     0.163 A 
ATOM     25 CL   LIG d   1       3.455  -6.417 -11.263  0.00  0.00    -0.077 Cl
ATOM     26  C   LIG d   1       4.533  -7.957  -7.733  0.00  0.00     0.080 A 
ATOM     27  F   LIG d   1       4.495  -8.833  -9.934  0.00  0.00    -0.202 F 
ATOM     28  C   LIG d   1       4.306  -6.908  -6.862  0.00  0.00    -0.016 A 
ATOM     29 CL   LIG d   1       5.147  -9.466  -7.132  0.00  0.00    -0.081 Cl
ATOM     30  H   LIG d   1       4.510  -7.027  -5.809  0.00  0.00     0.065 H 
ENDBRANCH   6  20
TORSDOF 2
ENDMDL
MODEL 8
REMARK VINA RESULT:      -6.6      6.778      9.105
REMARK  2 active torsions:
REMARK  status: ('A' for Active; 'I' for Inactive)
REMARK    1  A    between atoms: C_4  and  C_8 
REMARK       I    between atoms: C_8  and  N_10 
REMARK       I    between atoms: N_10  and  C_11 
REMARK       I    between atoms: C_11  and  N_13 
REMARK    2  A    between atoms: N_13  and  C_14 
ROOT
ATOM      1  C   LIG d   1       6.794   0.495  -4.161  0.00  0.00     0.257 C 
ATOM      2  O   LIG d   1       6.614   0.949  -5.275  0.00  0.00    -0.270 OA
ATOM      3  N   LIG d   1       7.886   0.851  -3.457  0.00  0.00    -0.236 N 
ATOM      4  C   LIG d   1       8.780   1.710  -3.987  0.00  0.00     0.310 C 
ATOM      5  O   LIG d   1       8.600   2.164  -5.101  0.00  0.00    -0.252 OA
ATOM      6  N   LIG d   1       9.873   2.065  -3.283  0.00  0.00    -0.267 N 
ATOM      7  H   LIG d   1       8.031   0.488  -2.569  0.00  0.00     0.159 HD
ATOM      8  H   LIG d   1       9.984   1.754  -2.371  0.00  0.00     0.157 HD
ENDROOT
BRANCH   1   9
ATOM      9  C   LIG d   1       5.817  -0.445  -3.582  0.00  0.00     0.107 A 
ATOM     10  C   LIG d   1       5.061  -0.074  -2.464  0.00  0.00     0.138 A 
ATOM     11  C   LIG d   1       4.148  -0.962  -1.928  0.00  0.00    -0.025 A 
ATOM     12  F   LIG d   1       5.224   1.147  -1.910  0.00  0.00    -0.205 F 
ATOM     13  C   LIG d   1       3.978  -2.213  -2.493  0.00  0.00    -0.056 A 
ATOM     14  H   LIG d   1       3.563  -0.678  -1.064  0.00  0.00     0.065 H 
ATOM     15  C   LIG d   1       4.720  -2.587  -3.599  0.00  0.00    -0.025 A 
ATOM     16  H   LIG d   1       3.264  -2.902  -2.067  0.00  0.00     0.062 H 
ATOM     17  C   LIG d   1       5.639  -1.712  -4.148  0.00  0.00     0.138 A 
ATOM     18  H   LIG d   1       4.582  -3.566  -4.034  0.00  0.00     0.065 H 
ATOM     19  F   LIG d   1       6.362  -2.079  -5.227  0.00  0.00    -0.205 F 
ENDBRANCH   1   9
BRANCH   6  20
ATOM     20  C   LIG d   1      10.849   2.884  -3.869  0.00  0.00     0.073 A 
ATOM     21  C   LIG d   1      10.779   4.264  -3.719  0.00  0.00     0.166 A 
ATOM     22  C   LIG d   1      11.746   5.070  -4.294  0.00  0.00     0.114 A 
ATOM     23  F   LIG d   1       9.771   4.818  -3.011  0.00  0.00    -0.202 F 
ATOM     24  C   LIG d   1      12.777   4.502  -5.026  0.00  0.00     0.163 A 
ATOM     25 CL   LIG d   1      11.666   6.794  -4.104  0.00  0.00    -0.077 Cl
ATOM     26  C   LIG d   1      12.843   3.127  -5.179  0.00  0.00     0.080 A 
ATOM     27  F   LIG d   1      13.718   5.290  -5.590  0.00  0.00    -0.202 F 
ATOM     28  C   LIG d   1      11.882   2.318  -4.602  0.00  0.00    -0.016 A 
ATOM     29 CL   LIG d   1      14.136   2.418  -6.096  0.00  0.00    -0.081 Cl
ATOM     30  H   LIG d   1      11.935   1.246  -4.722  0.00  0.00     0.065 H 
ENDBRANCH   6  20
TORSDOF 2
ENDMDL
MODEL 9
REMARK VINA RESULT:      -6.4      6.834      9.017
REMARK  2 active torsions:
REMARK  status: ('A' for Active; 'I' for Inactive)
REMARK    1  A    between atoms: C_4  and  C_8 
REMARK       I    between atoms: C_8  and  N_10 
REMARK       I    between atoms: N_10  and  C_11 
REMARK       I    between atoms: C_11  and  N_13 
REMARK    2  A    between atoms: N_13  and  C_14 
ROOT
ATOM      1  C   LIG d   1       6.513   0.625  -4.321  0.00  0.00     0.257 C 
ATOM      2  O   LIG d   1       6.643   0.642  -5.529  0.00  0.00    -0.270 OA
ATOM      3  N   LIG d   1       7.351   1.337  -3.543  0.00  0.00    -0.236 N 
ATOM      4  C   LIG d   1       8.334   2.069  -4.105  0.00  0.00     0.310 C 
ATOM      5  O   LIG d   1       8.463   2.087  -5.315  0.00  0.00    -0.252 OA
ATOM      6  N   LIG d   1       9.172   2.782  -3.328  0.00  0.00    -0.267 N 
ATOM      7  H   LIG d   1       7.249   1.323  -2.578  0.00  0.00     0.159 HD
ATOM      8  H   LIG d   1       9.030   2.820  -2.369  0.00  0.00     0.157 HD
ENDROOT
BRANCH   1   9
ATOM      9  C   LIG d   1       5.438  -0.177  -3.706  0.00  0.00     0.107 A 
ATOM     10  C   LIG d   1       4.334   0.456  -3.124  0.00  0.00     0.138 A 
ATOM     11  C   LIG d   1       3.332  -0.303  -2.550  0.00  0.00    -0.025 A 
ATOM     12  F   LIG d   1       4.248   1.804  -3.121  0.00  0.00    -0.205 F 
ATOM     13  C   LIG d   1       3.416  -1.684  -2.551  0.00  0.00    -0.056 A 
ATOM     14  H   LIG d   1       2.478   0.183  -2.099  0.00  0.00     0.065 H 
ATOM     15  C   LIG d   1       4.504  -2.317  -3.125  0.00  0.00    -0.025 A 
ATOM     16  H   LIG d   1       2.631  -2.270  -2.098  0.00  0.00     0.062 H 
ATOM     17  C   LIG d   1       5.516  -1.573  -3.703  0.00  0.00     0.138 A 
ATOM     18  H   LIG d   1       4.563  -3.395  -3.122  0.00  0.00     0.065 H 
ATOM     19  F   LIG d   1       6.576  -2.194  -4.264  0.00  0.00    -0.205 F 
ENDBRANCH   1   9
BRANCH   6  20
ATOM     20  C   LIG d   1      10.251   3.468  -3.904  0.00  0.00     0.073 A 
ATOM     21  C   LIG d   1      11.516   2.894  -3.913  0.00  0.00     0.166 A 
ATOM     22  C   LIG d   1      12.578   3.572  -4.486  0.00  0.00     0.114 A 
ATOM     23  F   LIG d   1      11.710   1.675  -3.365  0.00  0.00    -0.202 F 
ATOM     24  C   LIG d   1      12.380   4.826  -5.044  0.00  0.00     0.163 A 
ATOM     25 CL   LIG d   1      14.158   2.855  -4.504  0.00  0.00    -0.077 Cl
ATOM     26  C   LIG d   1      11.119   5.400  -5.030  0.00  0.00     0.080 A 
ATOM     27  F   LIG d   1      13.418   5.488  -5.599  0.00  0.00    -0.202 F 
ATOM     28  C   LIG d   1      10.056   4.724  -4.463  0.00  0.00    -0.016 A 
ATOM     29 CL   LIG d   1      10.875   6.970  -5.730  0.00  0.00    -0.081 Cl
ATOM     30  H   LIG d   1       9.074   5.173  -4.454  0.00  0.00     0.065 H 
ENDBRANCH   6  20
TORSDOF 2
ENDMDL
MODEL 10
REMARK VINA RESULT:      -6.3      4.662      6.481
REMARK  2 active torsions:
REMARK  status: ('A' for Active; 'I' for Inactive)
REMARK    1  A    between atoms: C_4  and  C_8 
REMARK       I    between atoms: C_8  and  N_10 
REMARK       I    between atoms: N_10  and  C_11 
REMARK       I    between atoms: C_11  and  N_13 
REMARK    2  A    between atoms: N_13  and  C_14 
ROOT
ATOM      1  C   LIG d   1       2.435  -1.707  -9.820  0.00  0.00     0.257 C 
ATOM      2  O   LIG d   1       3.178  -2.583  -9.425  0.00  0.00    -0.270 OA
ATOM      3  N   LIG d   1       1.262  -2.030 -10.401  0.00  0.00    -0.236 N 
ATOM      4  C   LIG d   1       0.913  -3.324 -10.542  0.00  0.00     0.310 C 
ATOM      5  O   LIG d   1       1.657  -4.201 -10.145  0.00  0.00    -0.252 OA
ATOM      6  N   LIG d   1      -0.259  -3.646 -11.122  0.00  0.00    -0.267 N 
ATOM      7  H   LIG d   1       0.669  -1.330 -10.718  0.00  0.00     0.159 HD
ATOM      8  H   LIG d   1      -0.881  -2.948 -11.380  0.00  0.00     0.157 HD
ENDROOT
BRANCH   1   9
ATOM      9  C   LIG d   1       2.816  -0.291  -9.666  0.00  0.00     0.107 A 
ATOM     10  C   LIG d   1       2.624   0.361  -8.443  0.00  0.00     0.138 A 
ATOM     11  C   LIG d   1       2.984   1.688  -8.308  0.00  0.00    -0.025 A 
ATOM     12  F   LIG d   1       2.085  -0.304  -7.398  0.00  0.00    -0.205 F 
ATOM     13  C   LIG d   1       3.536   2.372  -9.377  0.00  0.00    -0.056 A 
ATOM     14  H   LIG d   1       2.836   2.194  -7.365  0.00  0.00     0.065 H 
ATOM     15  C   LIG d   1       3.731   1.735 -10.589  0.00  0.00    -0.025 A 
ATOM     16  H   LIG d   1       3.813   3.410  -9.265  0.00  0.00     0.062 H 
ATOM     17  C   LIG d   1       3.375   0.408 -10.742  0.00  0.00     0.138 A 
ATOM     18  H   LIG d   1       4.162   2.276 -11.418  0.00  0.00     0.065 H 
ATOM     19  F   LIG d   1       3.567  -0.212 -11.926  0.00  0.00    -0.205 F 
ENDBRANCH   1   9
BRANCH   6  20
ATOM     20  C   LIG d   1      -0.581  -4.992 -11.354  0.00  0.00     0.073 A 
ATOM     21  C   LIG d   1      -1.304  -5.707 -10.407  0.00  0.00     0.166 A 
ATOM     22  C   LIG d   1      -1.624  -7.033 -10.640  0.00  0.00     0.114 A 
ATOM     23  F   LIG d   1      -1.699  -5.107  -9.263  0.00  0.00    -0.202 F 
ATOM     24  C   LIG d   1      -1.215  -7.649 -11.812  0.00  0.00     0.163 A 
ATOM     25 CL   LIG d   1      -2.534  -7.926  -9.462  0.00  0.00    -0.077 Cl
ATOM     26  C   LIG d   1      -0.489  -6.938 -12.753  0.00  0.00     0.080 A 
ATOM     27  F   LIG d   1      -1.524  -8.945 -12.036  0.00  0.00    -0.202 F 
ATOM     28  C   LIG d   1      -0.172  -5.612 -12.527  0.00  0.00    -0.016 A 
ATOM     29 CL   LIG d   1       0.022  -7.713 -14.220  0.00  0.00    -0.081 Cl
ATOM     30  H   LIG d   1       0.394  -5.058 -13.261  0.00  0.00     0.065 H 
ENDBRANCH   6  20
TORSDOF 2
ENDMDL
