MODEL 1
REMARK VINA RESULT:      -6.8      0.000      0.000
REMARK  8 active torsions:
REMARK  status: ('A' for Active; 'I' for Inactive)
REMARK    1  A    between atoms: C_4  and  C_7 
REMARK    2  A    between atoms: C_7  and  O_8 
REMARK    3  A    between atoms: O_8  and  C_9 
REMARK       I    between atoms: C_9  and  N_11 
REMARK    4  A    between atoms: N_11  and  CA_12 
REMARK    5  A    between atoms: CA_12  and  C_14 
REMARK    6  A    between atoms: CA_12  and  C_24 
REMARK    7  A    between atoms: C_14  and  C_15 
REMARK    8  A    between atoms: C_18  and  N_21 
ROOT
ATOM      1  CA  LIG d   1       4.690  -2.450  -7.059  0.00  0.00     0.070 C 
ATOM      2  HA  LIG d   1       5.676  -1.986  -7.052  0.00  0.00     0.056 H 
ENDROOT
BRANCH   1   3
ATOM      3  N   LIG d   1       3.678  -1.452  -6.701  0.00  0.00    -0.273 N 
ATOM      4  C   LIG d   1       4.054  -0.203  -6.361  0.00  0.00     0.401 C 
ATOM      5  O   LIG d   1       5.233   0.095  -6.351  0.00  0.00    -0.227 OA
ATOM      6  H   LIG d   1       2.738  -1.690  -6.709  0.00  0.00     0.153 HD
BRANCH   4   7
ATOM      7  O   LIG d   1       3.125   0.713  -6.032  0.00  0.00    -0.446 OA
BRANCH   7   8
ATOM      8  C   LIG d   1       2.245   0.392  -4.924  0.00  0.00     0.119 C 
ATOM      9  H   LIG d   1       1.626  -0.466  -5.188  0.00  0.00     0.075 H 
ATOM     10  H   LIG d   1       1.605   1.248  -4.708  0.00  0.00     0.075 H 
BRANCH   8  11
ATOM     11  C   LIG d   1       3.068   0.061  -3.706  0.00  0.00    -0.010 A 
ATOM     12  C   LIG d   1       3.156  -1.246  -3.266  0.00  0.00    -0.055 A 
ATOM     13  C   LIG d   1       3.912  -1.550  -2.149  0.00  0.00    -0.061 A 
ATOM     14  H   LIG d   1       2.634  -2.031  -3.795  0.00  0.00     0.062 H 
ATOM     15  C   LIG d   1       4.579  -0.546  -1.472  0.00  0.00    -0.062 A 
ATOM     16  H   LIG d   1       3.981  -2.571  -1.804  0.00  0.00     0.062 H 
ATOM     17  C   LIG d   1       4.492   0.761  -1.913  0.00  0.00    -0.061 A 
ATOM     18  H   LIG d   1       5.170  -0.783  -0.599  0.00  0.00     0.062 H 
ATOM     19  C   LIG d   1       3.740   1.064  -3.033  0.00  0.00    -0.055 A 
ATOM     20  H   LIG d   1       5.014   1.545  -1.385  0.00  0.00     0.062 H 
ATOM     21  H   LIG d   1       3.675   2.085  -3.380  0.00  0.00     0.062 H 
ENDBRANCH   8  11
ENDBRANCH   7   8
ENDBRANCH   4   7
ENDBRANCH   1   3
BRANCH   1  22
ATOM     22  C   LIG d   1       4.658  -3.594  -6.043  0.00  0.00    -0.004 C 
ATOM     23  H   LIG d   1       3.853  -3.422  -5.328  0.00  0.00     0.034 H 
ATOM     24  H   LIG d   1       4.487  -4.537  -6.564  0.00  0.00     0.034 H 
BRANCH  22  25
ATOM     25  C   LIG d   1       5.974  -3.655  -5.313  0.00  0.00    -0.045 A 
ATOM     26  C   LIG d   1       6.808  -4.744  -5.479  0.00  0.00    -0.052 A 
ATOM     27  C   LIG d   1       8.016  -4.799  -4.809  0.00  0.00     0.016 A 
ATOM     28  H   LIG d   1       6.516  -5.552  -6.133  0.00  0.00     0.062 H 
ATOM     29  C   LIG d   1       8.390  -3.764  -3.973  0.00  0.00     0.273 A 
ATOM     30  H   LIG d   1       8.667  -5.651  -4.938  0.00  0.00     0.069 H 
ATOM     31  C   LIG d   1       7.557  -2.674  -3.807  0.00  0.00     0.016 A 
ATOM     32  C   LIG d   1       6.351  -2.616  -4.481  0.00  0.00    -0.052 A 
ATOM     33  H   LIG d   1       7.849  -1.865  -3.153  0.00  0.00     0.069 H 
ATOM     34  H   LIG d   1       5.701  -1.763  -4.354  0.00  0.00     0.062 H 
BRANCH  29  35
ATOM     35  N   LIG d   1       9.684  -3.823  -3.255  0.00  0.00     0.080 N 
ATOM     36  O   LIG d   1      10.717  -3.555  -3.840  0.00  0.00     0.041 OA
ATOM     37  O   LIG d   1       9.714  -4.141  -2.080  0.00  0.00    -0.576 OA
ENDBRANCH  29  35
ENDBRANCH  22  25
ENDBRANCH   1  22
BRANCH   1  38
ATOM     38  C   LIG d   1       4.399  -2.991  -8.434  0.00  0.00     0.062 C 
ATOM     39  O   LIG d   1       5.273  -3.531  -9.069  0.00  0.00    -0.548 OA
ATOM     40  OXT LIG d   1       3.167  -2.873  -8.954  0.00  0.00    -0.548 OA
ENDBRANCH   1  38
TORSDOF 8
ENDMDL
MODEL 2
REMARK VINA RESULT:      -6.8      1.609      2.208
REMARK  8 active torsions:
REMARK  status: ('A' for Active; 'I' for Inactive)
REMARK    1  A    between atoms: C_4  and  C_7 
REMARK    2  A    between atoms: C_7  and  O_8 
REMARK    3  A    between atoms: O_8  and  C_9 
REMARK       I    between atoms: C_9  and  N_11 
REMARK    4  A    between atoms: N_11  and  CA_12 
REMARK    5  A    between atoms: CA_12  and  C_14 
REMARK    6  A    between atoms: CA_12  and  C_24 
REMARK    7  A    between atoms: C_14  and  C_15 
REMARK    8  A    between atoms: C_18  and  N_21 
ROOT
ATOM      1  CA  LIG d   1       3.409  -1.289  -8.628  0.00  0.00     0.070 C 
ATOM      2  HA  LIG d   1       4.333  -0.778  -8.897  0.00  0.00     0.056 H 
ENDROOT
BRANCH   1   3
ATOM      3  N   LIG d   1       2.825  -0.653  -7.444  0.00  0.00    -0.273 N 
ATOM      4  C   LIG d   1       3.316   0.521  -6.999  0.00  0.00     0.401 C 
ATOM      5  O   LIG d   1       4.244   1.051  -7.579  0.00  0.00    -0.227 OA
ATOM      6  H   LIG d   1       2.085  -1.075  -6.981  0.00  0.00     0.153 HD
BRANCH   4   7
ATOM      7  O   LIG d   1       2.781   1.106  -5.912  0.00  0.00    -0.446 OA
BRANCH   7   8
ATOM      8  C   LIG d   1       2.082   0.244  -4.976  0.00  0.00     0.119 C 
ATOM      9  H   LIG d   1       1.836  -0.699  -5.464  0.00  0.00     0.075 H 
ATOM     10  H   LIG d   1       1.164   0.733  -4.648  0.00  0.00     0.075 H 
BRANCH   8  11
ATOM     11  C   LIG d   1       2.963  -0.022  -3.782  0.00  0.00    -0.010 A 
ATOM     12  C   LIG d   1       3.227  -1.323  -3.396  0.00  0.00    -0.055 A 
ATOM     13  C   LIG d   1       4.035  -1.568  -2.302  0.00  0.00    -0.061 A 
ATOM     14  H   LIG d   1       2.802  -2.148  -3.949  0.00  0.00     0.062 H 
ATOM     15  C   LIG d   1       4.579  -0.512  -1.594  0.00  0.00    -0.062 A 
ATOM     16  H   LIG d   1       4.243  -2.583  -1.999  0.00  0.00     0.062 H 
ATOM     17  C   LIG d   1       4.315   0.789  -1.981  0.00  0.00    -0.061 A 
ATOM     18  H   LIG d   1       5.211  -0.703  -0.739  0.00  0.00     0.062 H 
ATOM     19  C   LIG d   1       3.511   1.033  -3.078  0.00  0.00    -0.055 A 
ATOM     20  H   LIG d   1       4.741   1.613  -1.429  0.00  0.00     0.062 H 
ATOM     21  H   LIG d   1       3.308   2.049  -3.384  0.00  0.00     0.062 H 
ENDBRANCH   8  11
ENDBRANCH   7   8
ENDBRANCH   4   7
ENDBRANCH   1   3
BRANCH   1  22
ATOM     22  C   LIG d   1       3.711  -2.757  -8.319  0.00  0.00    -0.004 C 
ATOM     23  H   LIG d   1       2.790  -3.265  -8.030  0.00  0.00     0.034 H 
ATOM     24  H   LIG d   1       4.127  -3.237  -9.206  0.00  0.00     0.034 H 
BRANCH  22  25
ATOM     25  C   LIG d   1       4.705  -2.839  -7.191  0.00  0.00    -0.045 A 
ATOM     26  C   LIG d   1       5.867  -2.092  -7.236  0.00  0.00    -0.052 A 
ATOM     27  C   LIG d   1       6.779  -2.167  -6.200  0.00  0.00     0.016 A 
ATOM     28  H   LIG d   1       6.062  -1.449  -8.082  0.00  0.00     0.062 H 
ATOM     29  C   LIG d   1       6.530  -2.990  -5.118  0.00  0.00     0.273 A 
ATOM     30  H   LIG d   1       7.687  -1.584  -6.237  0.00  0.00     0.069 H 
ATOM     31  C   LIG d   1       5.367  -3.736  -5.071  0.00  0.00     0.016 A 
ATOM     32  C   LIG d   1       4.452  -3.658  -6.105  0.00  0.00    -0.052 A 
ATOM     33  H   LIG d   1       5.172  -4.379  -4.225  0.00  0.00     0.069 H 
ATOM     34  H   LIG d   1       3.543  -4.239  -6.067  0.00  0.00     0.062 H 
BRANCH  29  35
ATOM     35  N   LIG d   1       7.506  -3.070  -4.008  0.00  0.00     0.080 N 
ATOM     36  O   LIG d   1       8.327  -3.970  -3.985  0.00  0.00     0.041 OA
ATOM     37  O   LIG d   1       7.488  -2.239  -3.119  0.00  0.00    -0.576 OA
ENDBRANCH  29  35
ENDBRANCH  22  25
ENDBRANCH   1  22
BRANCH   1  38
ATOM     38  C   LIG d   1       2.435  -1.207  -9.775  0.00  0.00     0.062 C 
ATOM     39  O   LIG d   1       2.505  -0.293 -10.561  0.00  0.00    -0.548 OA
ATOM     40  OXT LIG d   1       1.492  -2.150  -9.922  0.00  0.00    -0.548 OA
ENDBRANCH   1  38
TORSDOF 8
ENDMDL
MODEL 3
REMARK VINA RESULT:      -6.7      4.119      5.745
REMARK  8 active torsions:
REMARK  status: ('A' for Active; 'I' for Inactive)
REMARK    1  A    between atoms: C_4  and  C_7 
REMARK    2  A    between atoms: C_7  and  O_8 
REMARK    3  A    between atoms: O_8  and  C_9 
REMARK       I    between atoms: C_9  and  N_11 
REMARK    4  A    between atoms: N_11  and  CA_12 
REMARK    5  A    between atoms: CA_12  and  C_14 
REMARK    6  A    between atoms: CA_12  and  C_24 
REMARK    7  A    between atoms: C_14  and  C_15 
REMARK    8  A    between atoms: C_18  and  N_21 
ROOT
ATOM      1  CA  LIG d   1       3.050   0.061  -9.442  0.00  0.00     0.070 C 
ATOM      2  HA  LIG d   1       3.788  -0.708  -9.218  0.00  0.00     0.056 H 
ENDROOT
BRANCH   1   3
ATOM      3  N   LIG d   1       2.730   0.801  -8.218  0.00  0.00    -0.273 N 
ATOM      4  C   LIG d   1       3.212   0.382  -7.031  0.00  0.00     0.401 C 
ATOM      5  O   LIG d   1       3.913  -0.610  -6.976  0.00  0.00    -0.227 OA
ATOM      6  H   LIG d   1       2.170   1.592  -8.261  0.00  0.00     0.153 HD
BRANCH   4   7
ATOM      7  O   LIG d   1       2.918   1.060  -5.907  0.00  0.00    -0.446 OA
BRANCH   7   8
ATOM      8  C   LIG d   1       2.125   0.368  -4.907  0.00  0.00     0.119 C 
ATOM      9  H   LIG d   1       1.729  -0.555  -5.332  0.00  0.00     0.075 H 
ATOM     10  H   LIG d   1       1.299   1.006  -4.592  0.00  0.00     0.075 H 
BRANCH   8  11
ATOM     11  C   LIG d   1       2.990   0.042  -3.717  0.00  0.00    -0.010 A 
ATOM     12  C   LIG d   1       3.189  -1.276  -3.348  0.00  0.00    -0.055 A 
ATOM     13  C   LIG d   1       3.983  -1.575  -2.256  0.00  0.00    -0.061 A 
ATOM     14  H   LIG d   1       2.725  -2.071  -3.912  0.00  0.00     0.062 H 
ATOM     15  C   LIG d   1       4.577  -0.557  -1.533  0.00  0.00    -0.062 A 
ATOM     16  H   LIG d   1       4.139  -2.604  -1.967  0.00  0.00     0.062 H 
ATOM     17  C   LIG d   1       4.379   0.760  -1.903  0.00  0.00    -0.061 A 
ATOM     18  H   LIG d   1       5.198  -0.790  -0.681  0.00  0.00     0.062 H 
ATOM     19  C   LIG d   1       3.589   1.059  -2.998  0.00  0.00    -0.055 A 
ATOM     20  H   LIG d   1       4.843   1.555  -1.339  0.00  0.00     0.062 H 
ATOM     21  H   LIG d   1       3.437   2.088  -3.290  0.00  0.00     0.062 H 
ENDBRANCH   8  11
ENDBRANCH   7   8
ENDBRANCH   4   7
ENDBRANCH   1   3
BRANCH   1  22
ATOM     22  C   LIG d   1       1.780  -0.593  -9.988  0.00  0.00    -0.004 C 
ATOM     23  H   LIG d   1       0.930  -0.315  -9.364  0.00  0.00     0.034 H 
ATOM     24  H   LIG d   1       1.608  -0.253 -11.010  0.00  0.00     0.034 H 
BRANCH  22  25
ATOM     25  C   LIG d   1       1.942  -2.091  -9.977  0.00  0.00    -0.045 A 
ATOM     26  C   LIG d   1       1.027  -2.891 -10.634  0.00  0.00    -0.052 A 
ATOM     27  C   LIG d   1       1.176  -4.265 -10.624  0.00  0.00     0.016 A 
ATOM     28  H   LIG d   1       0.194  -2.441 -11.155  0.00  0.00     0.062 H 
ATOM     29  C   LIG d   1       2.241  -4.840  -9.957  0.00  0.00     0.273 A 
ATOM     30  H   LIG d   1       0.459  -4.890 -11.136  0.00  0.00     0.069 H 
ATOM     31  C   LIG d   1       3.158  -4.040  -9.301  0.00  0.00     0.016 A 
ATOM     32  C   LIG d   1       3.012  -2.665  -9.315  0.00  0.00    -0.052 A 
ATOM     33  H   LIG d   1       3.991  -4.488  -8.779  0.00  0.00     0.069 H 
ATOM     34  H   LIG d   1       3.730  -2.040  -8.805  0.00  0.00     0.062 H 
BRANCH  29  35
ATOM     35  N   LIG d   1       2.401  -6.311  -9.945  0.00  0.00     0.080 N 
ATOM     36  O   LIG d   1       2.068  -6.967 -10.916  0.00  0.00     0.041 OA
ATOM     37  O   LIG d   1       2.864  -6.865  -8.965  0.00  0.00    -0.576 OA
ENDBRANCH  29  35
ENDBRANCH  22  25
ENDBRANCH   1  22
BRANCH   1  38
ATOM     38  C   LIG d   1       3.609   1.011 -10.470  0.00  0.00     0.062 C 
ATOM     39  O   LIG d   1       3.690   2.190 -10.223  0.00  0.00    -0.548 OA
ATOM     40  OXT LIG d   1       4.017   0.545 -11.661  0.00  0.00    -0.548 OA
ENDBRANCH   1  38
TORSDOF 8
ENDMDL
MODEL 4
REMARK VINA RESULT:      -6.7      2.433      2.951
REMARK  8 active torsions:
REMARK  status: ('A' for Active; 'I' for Inactive)
REMARK    1  A    between atoms: C_4  and  C_7 
REMARK    2  A    between atoms: C_7  and  O_8 
REMARK    3  A    between atoms: O_8  and  C_9 
REMARK       I    between atoms: C_9  and  N_11 
REMARK    4  A    between atoms: N_11  and  CA_12 
REMARK    5  A    between atoms: CA_12  and  C_14 
REMARK    6  A    between atoms: CA_12  and  C_24 
REMARK    7  A    between atoms: C_14  and  C_15 
REMARK    8  A    between atoms: C_18  and  N_21 
ROOT
ATOM      1  CA  LIG d   1       4.408  -1.671  -7.691  0.00  0.00     0.070 C 
ATOM      2  HA  LIG d   1       4.826  -0.938  -8.380  0.00  0.00     0.056 H 
ENDROOT
BRANCH   1   3
ATOM      3  N   LIG d   1       3.567  -0.989  -6.704  0.00  0.00    -0.273 N 
ATOM      4  C   LIG d   1       3.429   0.351  -6.747  0.00  0.00     0.401 C 
ATOM      5  O   LIG d   1       4.002   0.994  -7.606  0.00  0.00    -0.227 OA
ATOM      6  H   LIG d   1       3.110  -1.501  -6.018  0.00  0.00     0.153 HD
BRANCH   4   7
ATOM      7  O   LIG d   1       2.657   0.978  -5.840  0.00  0.00    -0.446 OA
BRANCH   7   8
ATOM      8  C   LIG d   1       2.014   0.150  -4.836  0.00  0.00     0.119 C 
ATOM      9  H   LIG d   1       1.782  -0.825  -5.263  0.00  0.00     0.075 H 
ATOM     10  H   LIG d   1       1.091   0.630  -4.506  0.00  0.00     0.075 H 
BRANCH   8  11
ATOM     11  C   LIG d   1       2.938  -0.023  -3.659  0.00  0.00    -0.010 A 
ATOM     12  C   LIG d   1       3.527   1.083  -3.074  0.00  0.00    -0.055 A 
ATOM     13  C   LIG d   1       4.375   0.925  -1.994  0.00  0.00    -0.061 A 
ATOM     14  H   LIG d   1       3.323   2.071  -3.460  0.00  0.00     0.062 H 
ATOM     15  C   LIG d   1       4.635  -0.340  -1.499  0.00  0.00    -0.062 A 
ATOM     16  H   LIG d   1       4.834   1.788  -1.536  0.00  0.00     0.062 H 
ATOM     17  C   LIG d   1       4.046  -1.446  -2.084  0.00  0.00    -0.061 A 
ATOM     18  H   LIG d   1       5.297  -0.465  -0.655  0.00  0.00     0.062 H 
ATOM     19  C   LIG d   1       3.194  -1.286  -3.161  0.00  0.00    -0.055 A 
ATOM     20  H   LIG d   1       4.249  -2.433  -1.697  0.00  0.00     0.062 H 
ATOM     21  H   LIG d   1       2.731  -2.149  -3.615  0.00  0.00     0.062 H 
ENDBRANCH   8  11
ENDBRANCH   7   8
ENDBRANCH   4   7
ENDBRANCH   1   3
BRANCH   1  22
ATOM     22  C   LIG d   1       5.544  -2.403  -6.973  0.00  0.00    -0.004 C 
ATOM     23  H   LIG d   1       5.126  -3.112  -6.259  0.00  0.00     0.034 H 
ATOM     24  H   LIG d   1       6.150  -2.938  -7.705  0.00  0.00     0.034 H 
BRANCH  22  25
ATOM     25  C   LIG d   1       6.404  -1.403  -6.244  0.00  0.00    -0.045 A 
ATOM     26  C   LIG d   1       7.129  -0.466  -6.955  0.00  0.00    -0.052 A 
ATOM     27  C   LIG d   1       7.917   0.452  -6.286  0.00  0.00     0.016 A 
ATOM     28  H   LIG d   1       7.080  -0.451  -8.034  0.00  0.00     0.062 H 
ATOM     29  C   LIG d   1       7.980   0.432  -4.905  0.00  0.00     0.273 A 
ATOM     30  H   LIG d   1       8.486   1.182  -6.841  0.00  0.00     0.069 H 
ATOM     31  C   LIG d   1       7.253  -0.503  -4.194  0.00  0.00     0.016 A 
ATOM     32  C   LIG d   1       6.461  -1.419  -4.862  0.00  0.00    -0.052 A 
ATOM     33  H   LIG d   1       7.301  -0.519  -3.115  0.00  0.00     0.069 H 
ATOM     34  H   LIG d   1       5.891  -2.148  -4.307  0.00  0.00     0.062 H 
BRANCH  29  35
ATOM     35  N   LIG d   1       8.824   1.415  -4.188  0.00  0.00     0.080 N 
ATOM     36  O   LIG d   1      10.031   1.414  -4.352  0.00  0.00     0.041 OA
ATOM     37  O   LIG d   1       8.312   2.221  -3.433  0.00  0.00    -0.576 OA
ENDBRANCH  29  35
ENDBRANCH  22  25
ENDBRANCH   1  22
BRANCH   1  38
ATOM     38  C   LIG d   1       3.576  -2.666  -8.458  0.00  0.00     0.062 C 
ATOM     39  O   LIG d   1       3.704  -3.849  -8.249  0.00  0.00    -0.548 OA
ATOM     40  OXT LIG d   1       2.692  -2.238  -9.372  0.00  0.00    -0.548 OA
ENDBRANCH   1  38
TORSDOF 8
ENDMDL
MODEL 5
REMARK VINA RESULT:      -6.6      4.262      6.886
REMARK  8 active torsions:
REMARK  status: ('A' for Active; 'I' for Inactive)
REMARK    1  A    between atoms: C_4  and  C_7 
REMARK    2  A    between atoms: C_7  and  O_8 
REMARK    3  A    between atoms: O_8  and  C_9 
REMARK       I    between atoms: C_9  and  N_11 
REMARK    4  A    between atoms: N_11  and  CA_12 
REMARK    5  A    between atoms: CA_12  and  C_14 
REMARK    6  A    between atoms: CA_12  and  C_24 
REMARK    7  A    between atoms: C_14  and  C_15 
REMARK    8  A    between atoms: C_18  and  N_21 
ROOT
ATOM      1  CA  LIG d   1       4.405   0.767  -9.210  0.00  0.00     0.070 C 
ATOM      2  HA  LIG d   1       4.391  -0.319  -9.114  0.00  0.00     0.056 H 
ENDROOT
BRANCH   1   3
ATOM      3  N   LIG d   1       3.940   1.373  -7.960  0.00  0.00    -0.273 N 
ATOM      4  C   LIG d   1       3.306   0.619  -7.040  0.00  0.00     0.401 C 
ATOM      5  O   LIG d   1       3.122  -0.565  -7.247  0.00  0.00    -0.227 OA
ATOM      6  H   LIG d   1       4.087   2.318  -7.795  0.00  0.00     0.153 HD
BRANCH   4   7
ATOM      7  O   LIG d   1       2.878   1.176  -5.892  0.00  0.00    -0.446 OA
BRANCH   7   8
ATOM      8  C   LIG d   1       2.138   0.322  -4.981  0.00  0.00     0.119 C 
ATOM      9  H   LIG d   1       1.880  -0.610  -5.484  0.00  0.00     0.075 H 
ATOM     10  H   LIG d   1       1.225   0.830  -4.668  0.00  0.00     0.075 H 
BRANCH   8  11
ATOM     11  C   LIG d   1       2.986   0.023  -3.771  0.00  0.00    -0.010 A 
ATOM     12  C   LIG d   1       3.187  -1.287  -3.376  0.00  0.00    -0.055 A 
ATOM     13  C   LIG d   1       3.965  -1.562  -2.267  0.00  0.00    -0.061 A 
ATOM     14  H   LIG d   1       2.736  -2.095  -3.934  0.00  0.00     0.062 H 
ATOM     15  C   LIG d   1       4.541  -0.527  -1.553  0.00  0.00    -0.062 A 
ATOM     16  H   LIG d   1       4.123  -2.584  -1.958  0.00  0.00     0.062 H 
ATOM     17  C   LIG d   1       4.340   0.782  -1.949  0.00  0.00    -0.061 A 
ATOM     18  H   LIG d   1       5.149  -0.742  -0.687  0.00  0.00     0.062 H 
ATOM     19  C   LIG d   1       3.567   1.056  -3.061  0.00  0.00    -0.055 A 
ATOM     20  H   LIG d   1       4.791   1.589  -1.392  0.00  0.00     0.062 H 
ATOM     21  H   LIG d   1       3.413   2.079  -3.373  0.00  0.00     0.062 H 
ENDBRANCH   8  11
ENDBRANCH   7   8
ENDBRANCH   4   7
ENDBRANCH   1   3
BRANCH   1  22
ATOM     22  C   LIG d   1       3.484   1.190 -10.356  0.00  0.00    -0.004 C 
ATOM     23  H   LIG d   1       2.666   1.793  -9.960  0.00  0.00     0.034 H 
ATOM     24  H   LIG d   1       4.051   1.777 -11.080  0.00  0.00     0.034 H 
BRANCH  22  25
ATOM     25  C   LIG d   1       2.925  -0.035 -11.030  0.00  0.00    -0.045 A 
ATOM     26  C   LIG d   1       3.541  -0.548 -12.156  0.00  0.00    -0.052 A 
ATOM     27  C   LIG d   1       3.028  -1.673 -12.773  0.00  0.00     0.016 A 
ATOM     28  H   LIG d   1       4.424  -0.069 -12.553  0.00  0.00     0.062 H 
ATOM     29  C   LIG d   1       1.898  -2.286 -12.265  0.00  0.00     0.273 A 
ATOM     30  H   LIG d   1       3.508  -2.072 -13.654  0.00  0.00     0.069 H 
ATOM     31  C   LIG d   1       1.283  -1.775 -11.138  0.00  0.00     0.016 A 
ATOM     32  C   LIG d   1       1.798  -0.652 -10.517  0.00  0.00    -0.052 A 
ATOM     33  H   LIG d   1       0.399  -2.254 -10.740  0.00  0.00     0.069 H 
ATOM     34  H   LIG d   1       1.319  -0.255  -9.635  0.00  0.00     0.062 H 
BRANCH  29  35
ATOM     35  N   LIG d   1       1.348  -3.491 -12.927  0.00  0.00     0.080 N 
ATOM     36  O   LIG d   1       1.931  -3.983 -13.876  0.00  0.00     0.041 OA
ATOM     37  O   LIG d   1       0.312  -3.988 -12.522  0.00  0.00    -0.576 OA
ENDBRANCH  29  35
ENDBRANCH  22  25
ENDBRANCH   1  22
BRANCH   1  38
ATOM     38  C   LIG d   1       5.811   1.227  -9.499  0.00  0.00     0.062 C 
ATOM     39  O   LIG d   1       6.599   0.472 -10.017  0.00  0.00    -0.548 OA
ATOM     40  OXT LIG d   1       6.186   2.476  -9.182  0.00  0.00    -0.548 OA
ENDBRANCH   1  38
TORSDOF 8
ENDMDL
MODEL 6
REMARK VINA RESULT:      -6.3      6.211      8.179
REMARK  8 active torsions:
REMARK  status: ('A' for Active; 'I' for Inactive)
REMARK    1  A    between atoms: C_4  and  C_7 
REMARK    2  A    between atoms: C_7  and  O_8 
REMARK    3  A    between atoms: O_8  and  C_9 
REMARK       I    between atoms: C_9  and  N_11 
REMARK    4  A    between atoms: N_11  and  CA_12 
REMARK    5  A    between atoms: CA_12  and  C_14 
REMARK    6  A    between atoms: CA_12  and  C_24 
REMARK    7  A    between atoms: C_14  and  C_15 
REMARK    8  A    between atoms: C_18  and  N_21 
ROOT
ATOM      1  CA  LIG d   1      10.417   2.307  -4.169  0.00  0.00     0.070 C 
ATOM      2  HA  LIG d   1      10.142   3.066  -4.901  0.00  0.00     0.056 H 
ENDROOT
BRANCH   1   3
ATOM      3  N   LIG d   1       9.209   1.804  -3.509  0.00  0.00    -0.273 N 
ATOM      4  C   LIG d   1       7.998   2.035  -4.055  0.00  0.00     0.401 C 
ATOM      5  O   LIG d   1       7.908   2.659  -5.094  0.00  0.00    -0.227 OA
ATOM      6  H   LIG d   1       9.280   1.307  -2.680  0.00  0.00     0.153 HD
BRANCH   4   7
ATOM      7  O   LIG d   1       6.888   1.574  -3.449  0.00  0.00    -0.446 OA
BRANCH   7   8
ATOM      8  C   LIG d   1       6.854   0.160  -3.121  0.00  0.00     0.119 C 
ATOM      9  H   LIG d   1       7.403  -0.011  -2.195  0.00  0.00     0.075 H 
ATOM     10  H   LIG d   1       7.313  -0.411  -3.927  0.00  0.00     0.075 H 
BRANCH   8  11
ATOM     11  C   LIG d   1       5.423  -0.280  -2.944  0.00  0.00    -0.010 A 
ATOM     12  C   LIG d   1       4.407   0.657  -2.946  0.00  0.00    -0.055 A 
ATOM     13  C   LIG d   1       3.095   0.253  -2.784  0.00  0.00    -0.061 A 
ATOM     14  H   LIG d   1       4.638   1.704  -3.073  0.00  0.00     0.062 H 
ATOM     15  C   LIG d   1       2.799  -1.088  -2.620  0.00  0.00    -0.062 A 
ATOM     16  H   LIG d   1       2.300   0.984  -2.785  0.00  0.00     0.062 H 
ATOM     17  C   LIG d   1       3.816  -2.024  -2.619  0.00  0.00    -0.061 A 
ATOM     18  H   LIG d   1       1.774  -1.404  -2.494  0.00  0.00     0.062 H 
ATOM     19  C   LIG d   1       5.127  -1.621  -2.786  0.00  0.00    -0.055 A 
ATOM     20  H   LIG d   1       3.585  -3.071  -2.492  0.00  0.00     0.062 H 
ATOM     21  H   LIG d   1       5.922  -2.353  -2.790  0.00  0.00     0.062 H 
ENDBRANCH   8  11
ENDBRANCH   7   8
ENDBRANCH   4   7
ENDBRANCH   1   3
BRANCH   1  22
ATOM     22  C   LIG d   1      11.351   2.920  -3.124  0.00  0.00    -0.004 C 
ATOM     23  H   LIG d   1      11.414   2.258  -2.260  0.00  0.00     0.034 H 
ATOM     24  H   LIG d   1      12.344   3.050  -3.556  0.00  0.00     0.034 H 
BRANCH  22  25
ATOM     25  C   LIG d   1      10.811   4.258  -2.692  0.00  0.00    -0.045 A 
ATOM     26  C   LIG d   1      11.012   4.701  -1.398  0.00  0.00    -0.052 A 
ATOM     27  C   LIG d   1      10.517   5.929  -1.003  0.00  0.00     0.016 A 
ATOM     28  H   LIG d   1      11.556   4.086  -0.696  0.00  0.00     0.062 H 
ATOM     29  C   LIG d   1       9.821   6.716  -1.901  0.00  0.00     0.273 A 
ATOM     30  H   LIG d   1      10.673   6.274   0.008  0.00  0.00     0.069 H 
ATOM     31  C   LIG d   1       9.621   6.275  -3.196  0.00  0.00     0.016 A 
ATOM     32  C   LIG d   1      10.120   5.048  -3.593  0.00  0.00    -0.052 A 
ATOM     33  H   LIG d   1       9.077   6.889  -3.898  0.00  0.00     0.069 H 
ATOM     34  H   LIG d   1       9.966   4.704  -4.605  0.00  0.00     0.062 H 
BRANCH  29  35
ATOM     35  N   LIG d   1       9.290   8.032  -1.477  0.00  0.00     0.080 N 
ATOM     36  O   LIG d   1       9.834   9.056  -1.852  0.00  0.00     0.041 OA
ATOM     37  O   LIG d   1       8.312   8.089  -0.755  0.00  0.00    -0.576 OA
ENDBRANCH  29  35
ENDBRANCH  22  25
ENDBRANCH   1  22
BRANCH   1  38
ATOM     38  C   LIG d   1      11.119   1.169  -4.864  0.00  0.00     0.062 C 
ATOM     39  O   LIG d   1      10.833   0.889  -6.004  0.00  0.00    -0.548 OA
ATOM     40  OXT LIG d   1      12.063   0.468  -4.217  0.00  0.00    -0.548 OA
ENDBRANCH   1  38
TORSDOF 8
ENDMDL
MODEL 7
REMARK VINA RESULT:      -6.2      2.792      5.482
REMARK  8 active torsions:
REMARK  status: ('A' for Active; 'I' for Inactive)
REMARK    1  A    between atoms: C_4  and  C_7 
REMARK    2  A    between atoms: C_7  and  O_8 
REMARK    3  A    between atoms: O_8  and  C_9 
REMARK       I    between atoms: C_9  and  N_11 
REMARK    4  A    between atoms: N_11  and  CA_12 
REMARK    5  A    between atoms: CA_12  and  C_14 
REMARK    6  A    between atoms: CA_12  and  C_24 
REMARK    7  A    between atoms: C_14  and  C_15 
REMARK    8  A    between atoms: C_18  and  N_21 
ROOT
ATOM      1  CA  LIG d   1       3.949   0.152  -3.042  0.00  0.00     0.070 C 
ATOM      2  HA  LIG d   1       2.925   0.494  -2.895  0.00  0.00     0.056 H 
ENDROOT
BRANCH   1   3
ATOM      3  N   LIG d   1       4.242   0.088  -4.476  0.00  0.00    -0.273 N 
ATOM      4  C   LIG d   1       3.245   0.217  -5.374  0.00  0.00     0.401 C 
ATOM      5  O   LIG d   1       2.103   0.386  -4.994  0.00  0.00    -0.227 OA
ATOM      6  H   LIG d   1       5.153  -0.047  -4.779  0.00  0.00     0.153 HD
BRANCH   4   7
ATOM      7  O   LIG d   1       3.514   0.158  -6.691  0.00  0.00    -0.446 OA
BRANCH   7   8
ATOM      8  C   LIG d   1       2.866   1.141  -7.542  0.00  0.00     0.119 C 
ATOM      9  H   LIG d   1       3.358   2.106  -7.422  0.00  0.00     0.075 H 
ATOM     10  H   LIG d   1       1.817   1.231  -7.259  0.00  0.00     0.075 H 
BRANCH   8  11
ATOM     11  C   LIG d   1       2.963   0.703  -8.980  0.00  0.00    -0.010 A 
ATOM     12  C   LIG d   1       3.852   1.329  -9.834  0.00  0.00    -0.055 A 
ATOM     13  C   LIG d   1       3.942   0.928 -11.154  0.00  0.00    -0.061 A 
ATOM     14  H   LIG d   1       4.477   2.132  -9.470  0.00  0.00     0.062 H 
ATOM     15  C   LIG d   1       3.142  -0.100 -11.620  0.00  0.00    -0.062 A 
ATOM     16  H   LIG d   1       4.636   1.415 -11.822  0.00  0.00     0.062 H 
ATOM     17  C   LIG d   1       2.254  -0.726 -10.766  0.00  0.00    -0.061 A 
ATOM     18  H   LIG d   1       3.211  -0.414 -12.651  0.00  0.00     0.062 H 
ATOM     19  C   LIG d   1       2.168  -0.328  -9.445  0.00  0.00    -0.055 A 
ATOM     20  H   LIG d   1       1.630  -1.529 -11.129  0.00  0.00     0.062 H 
ATOM     21  H   LIG d   1       1.477  -0.820  -8.776  0.00  0.00     0.062 H 
ENDBRANCH   8  11
ENDBRANCH   7   8
ENDBRANCH   4   7
ENDBRANCH   1   3
BRANCH   1  22
ATOM     22  C   LIG d   1       4.114  -1.239  -2.426  0.00  0.00    -0.004 C 
ATOM     23  H   LIG d   1       4.467  -1.142  -1.399  0.00  0.00     0.034 H 
ATOM     24  H   LIG d   1       3.153  -1.756  -2.433  0.00  0.00     0.034 H 
BRANCH  22  25
ATOM     25  C   LIG d   1       5.115  -2.028  -3.229  0.00  0.00    -0.045 A 
ATOM     26  C   LIG d   1       6.466  -1.771  -3.096  0.00  0.00    -0.052 A 
ATOM     27  C   LIG d   1       7.384  -2.495  -3.832  0.00  0.00     0.016 A 
ATOM     28  H   LIG d   1       6.804  -1.003  -2.415  0.00  0.00     0.062 H 
ATOM     29  C   LIG d   1       6.952  -3.478  -4.703  0.00  0.00     0.273 A 
ATOM     30  H   LIG d   1       8.440  -2.293  -3.729  0.00  0.00     0.069 H 
ATOM     31  C   LIG d   1       5.600  -3.737  -4.835  0.00  0.00     0.016 A 
ATOM     32  C   LIG d   1       4.682  -3.016  -4.095  0.00  0.00    -0.052 A 
ATOM     33  H   LIG d   1       5.261  -4.505  -5.516  0.00  0.00     0.069 H 
ATOM     34  H   LIG d   1       3.626  -3.220  -4.196  0.00  0.00     0.062 H 
BRANCH  29  35
ATOM     35  N   LIG d   1       7.935  -4.253  -5.492  0.00  0.00     0.080 N 
ATOM     36  O   LIG d   1       8.697  -3.679  -6.248  0.00  0.00     0.041 OA
ATOM     37  O   LIG d   1       7.980  -5.466  -5.386  0.00  0.00    -0.576 OA
ENDBRANCH  29  35
ENDBRANCH  22  25
ENDBRANCH   1  22
BRANCH   1  38
ATOM     38  C   LIG d   1       4.901   1.112  -2.376  0.00  0.00     0.062 C 
ATOM     39  O   LIG d   1       4.818   1.319  -1.189  0.00  0.00    -0.548 OA
ATOM     40  OXT LIG d   1       5.841   1.736  -3.103  0.00  0.00    -0.548 OA
ENDBRANCH   1  38
TORSDOF 8
ENDMDL
MODEL 8
REMARK VINA RESULT:      -6.0      6.921      9.155
REMARK  8 active torsions:
REMARK  status: ('A' for Active; 'I' for Inactive)
REMARK    1  A    between atoms: C_4  and  C_7 
REMARK    2  A    between atoms: C_7  and  O_8 
REMARK    3  A    between atoms: O_8  and  C_9 
REMARK       I    between atoms: C_9  and  N_11 
REMARK    4  A    between atoms: N_11  and  CA_12 
REMARK    5  A    between atoms: CA_12  and  C_14 
REMARK    6  A    between atoms: CA_12  and  C_24 
REMARK    7  A    between atoms: C_14  and  C_15 
REMARK    8  A    between atoms: C_18  and  N_21 
ROOT
ATOM      1  CA  LIG d   1       9.947   3.701  -4.627  0.00  0.00     0.070 C 
ATOM      2  HA  LIG d   1      10.156   3.766  -5.694  0.00  0.00     0.056 H 
ENDROOT
BRANCH   1   3
ATOM      3  N   LIG d   1       8.851   2.755  -4.400  0.00  0.00    -0.273 N 
ATOM      4  C   LIG d   1       8.277   2.125  -5.445  0.00  0.00     0.401 C 
ATOM      5  O   LIG d   1       8.670   2.342  -6.575  0.00  0.00    -0.227 OA
ATOM      6  H   LIG d   1       8.537   2.583  -3.499  0.00  0.00     0.153 HD
BRANCH   4   7
ATOM      7  O   LIG d   1       7.271   1.257  -5.238  0.00  0.00    -0.446 OA
BRANCH   7   8
ATOM      8  C   LIG d   1       7.533   0.143  -4.345  0.00  0.00     0.119 C 
ATOM      9  H   LIG d   1       8.416   0.359  -3.743  0.00  0.00     0.075 H 
ATOM     10  H   LIG d   1       7.706  -0.760  -4.932  0.00  0.00     0.075 H 
BRANCH   8  11
ATOM     11  C   LIG d   1       6.347  -0.066  -3.439  0.00  0.00    -0.010 A 
ATOM     12  C   LIG d   1       5.733   1.020  -2.843  0.00  0.00    -0.055 A 
ATOM     13  C   LIG d   1       4.645   0.829  -2.013  0.00  0.00    -0.061 A 
ATOM     14  H   LIG d   1       6.103   2.018  -3.027  0.00  0.00     0.062 H 
ATOM     15  C   LIG d   1       4.171  -0.449  -1.777  0.00  0.00    -0.062 A 
ATOM     16  H   LIG d   1       4.164   1.676  -1.547  0.00  0.00     0.062 H 
ATOM     17  C   LIG d   1       4.785  -1.535  -2.373  0.00  0.00    -0.061 A 
ATOM     18  H   LIG d   1       3.321  -0.599  -1.128  0.00  0.00     0.062 H 
ATOM     19  C   LIG d   1       5.870  -1.343  -3.208  0.00  0.00    -0.055 A 
ATOM     20  H   LIG d   1       4.414  -2.532  -2.190  0.00  0.00     0.062 H 
ATOM     21  H   LIG d   1       6.347  -2.190  -3.678  0.00  0.00     0.062 H 
ENDBRANCH   8  11
ENDBRANCH   7   8
ENDBRANCH   4   7
ENDBRANCH   1   3
BRANCH   1  22
ATOM     22  C   LIG d   1       9.545   5.081  -4.101  0.00  0.00    -0.004 C 
ATOM     23  H   LIG d   1       8.537   5.033  -3.688  0.00  0.00     0.034 H 
ATOM     24  H   LIG d   1      10.243   5.389  -3.322  0.00  0.00     0.034 H 
BRANCH  22  25
ATOM     25  C   LIG d   1       9.579   6.077  -5.230  0.00  0.00    -0.045 A 
ATOM     26  C   LIG d   1       9.266   7.403  -4.993  0.00  0.00    -0.052 A 
ATOM     27  C   LIG d   1       9.298   8.317  -6.028  0.00  0.00     0.016 A 
ATOM     28  H   LIG d   1       8.997   7.723  -3.997  0.00  0.00     0.062 H 
ATOM     29  C   LIG d   1       9.642   7.907  -7.303  0.00  0.00     0.273 A 
ATOM     30  H   LIG d   1       9.052   9.352  -5.843  0.00  0.00     0.069 H 
ATOM     31  C   LIG d   1       9.957   6.582  -7.540  0.00  0.00     0.016 A 
ATOM     32  C   LIG d   1       9.930   5.667  -6.503  0.00  0.00    -0.052 A 
ATOM     33  H   LIG d   1      10.226   6.260  -8.536  0.00  0.00     0.069 H 
ATOM     34  H   LIG d   1      10.178   4.633  -6.688  0.00  0.00     0.062 H 
BRANCH  29  35
ATOM     35  N   LIG d   1       9.675   8.886  -8.413  0.00  0.00     0.080 N 
ATOM     36  O   LIG d   1       9.633   8.498  -9.567  0.00  0.00     0.041 OA
ATOM     37  O   LIG d   1       9.746  10.077  -8.172  0.00  0.00    -0.576 OA
ENDBRANCH  29  35
ENDBRANCH  22  25
ENDBRANCH   1  22
BRANCH   1  38
ATOM     38  C   LIG d   1      11.178   3.226  -3.900  0.00  0.00     0.062 C 
ATOM     39  O   LIG d   1      12.273   3.437  -4.365  0.00  0.00    -0.548 OA
ATOM     40  OXT LIG d   1      11.059   2.568  -2.736  0.00  0.00    -0.548 OA
ENDBRANCH   1  38
TORSDOF 8
ENDMDL
MODEL 9
REMARK VINA RESULT:      -6.0      2.967      5.445
REMARK  8 active torsions:
REMARK  status: ('A' for Active; 'I' for Inactive)
REMARK    1  A    between atoms: C_4  and  C_7 
REMARK    2  A    between atoms: C_7  and  O_8 
REMARK    3  A    between atoms: O_8  and  C_9 
REMARK       I    between atoms: C_9  and  N_11 
REMARK    4  A    between atoms: N_11  and  CA_12 
REMARK    5  A    between atoms: CA_12  and  C_14 
REMARK    6  A    between atoms: CA_12  and  C_24 
REMARK    7  A    between atoms: C_14  and  C_15 
REMARK    8  A    between atoms: C_18  and  N_21 
ROOT
ATOM      1  CA  LIG d   1       5.019  -0.258  -3.521  0.00  0.00     0.070 C 
ATOM      2  HA  LIG d   1       4.237  -0.847  -3.044  0.00  0.00     0.056 H 
ENDROOT
BRANCH   1   3
ATOM      3  N   LIG d   1       4.558   0.195  -4.836  0.00  0.00    -0.273 N 
ATOM      4  C   LIG d   1       3.238   0.233  -5.110  0.00  0.00     0.401 C 
ATOM      5  O   LIG d   1       2.432  -0.108  -4.266  0.00  0.00    -0.227 OA
ATOM      6  H   LIG d   1       5.201   0.466  -5.509  0.00  0.00     0.153 HD
BRANCH   4   7
ATOM      7  O   LIG d   1       2.814   0.648  -6.318  0.00  0.00    -0.446 OA
BRANCH   7   8
ATOM      8  C   LIG d   1       3.706   0.430  -7.442  0.00  0.00     0.119 C 
ATOM      9  H   LIG d   1       4.711   0.224  -7.073  0.00  0.00     0.075 H 
ATOM     10  H   LIG d   1       3.726   1.322  -8.068  0.00  0.00     0.075 H 
BRANCH   8  11
ATOM     11  C   LIG d   1       3.218  -0.742  -8.252  0.00  0.00    -0.010 A 
ATOM     12  C   LIG d   1       3.826  -1.977  -8.118  0.00  0.00    -0.055 A 
ATOM     13  C   LIG d   1       3.379  -3.053  -8.861  0.00  0.00    -0.061 A 
ATOM     14  H   LIG d   1       4.652  -2.100  -7.432  0.00  0.00     0.062 H 
ATOM     15  C   LIG d   1       2.322  -2.895  -9.739  0.00  0.00    -0.062 A 
ATOM     16  H   LIG d   1       3.853  -4.017  -8.757  0.00  0.00     0.062 H 
ATOM     17  C   LIG d   1       1.713  -1.661  -9.873  0.00  0.00    -0.061 A 
ATOM     18  H   LIG d   1       1.971  -3.735 -10.320  0.00  0.00     0.062 H 
ATOM     19  C   LIG d   1       2.158  -0.586  -9.125  0.00  0.00    -0.055 A 
ATOM     20  H   LIG d   1       0.888  -1.537 -10.557  0.00  0.00     0.062 H 
ATOM     21  H   LIG d   1       1.680   0.377  -9.226  0.00  0.00     0.062 H 
ENDBRANCH   8  11
ENDBRANCH   7   8
ENDBRANCH   4   7
ENDBRANCH   1   3
BRANCH   1  22
ATOM     22  C   LIG d   1       6.274  -1.118  -3.690  0.00  0.00    -0.004 C 
ATOM     23  H   LIG d   1       7.043  -0.541  -4.204  0.00  0.00     0.034 H 
ATOM     24  H   LIG d   1       6.641  -1.421  -2.708  0.00  0.00     0.034 H 
BRANCH  22  25
ATOM     25  C   LIG d   1       5.938  -2.342  -4.501  0.00  0.00    -0.045 A 
ATOM     26  C   LIG d   1       4.828  -3.101  -4.181  0.00  0.00    -0.052 A 
ATOM     27  C   LIG d   1       4.520  -4.223  -4.926  0.00  0.00     0.016 A 
ATOM     28  H   LIG d   1       4.201  -2.816  -3.349  0.00  0.00     0.062 H 
ATOM     29  C   LIG d   1       5.322  -4.588  -5.991  0.00  0.00     0.273 A 
ATOM     30  H   LIG d   1       3.654  -4.817  -4.675  0.00  0.00     0.069 H 
ATOM     31  C   LIG d   1       6.431  -3.828  -6.313  0.00  0.00     0.016 A 
ATOM     32  C   LIG d   1       6.737  -2.702  -5.571  0.00  0.00    -0.052 A 
ATOM     33  H   LIG d   1       7.058  -4.113  -7.145  0.00  0.00     0.069 H 
ATOM     34  H   LIG d   1       7.602  -2.107  -5.823  0.00  0.00     0.062 H 
BRANCH  29  35
ATOM     35  N   LIG d   1       4.992  -5.791  -6.789  0.00  0.00     0.080 N 
ATOM     36  O   LIG d   1       4.025  -6.470  -6.495  0.00  0.00     0.041 OA
ATOM     37  O   LIG d   1       5.689  -6.101  -7.738  0.00  0.00    -0.576 OA
ENDBRANCH  29  35
ENDBRANCH  22  25
ENDBRANCH   1  22
BRANCH   1  38
ATOM     38  C   LIG d   1       5.342   0.938  -2.663  0.00  0.00     0.062 C 
ATOM     39  O   LIG d   1       6.106   1.782  -3.067  0.00  0.00    -0.548 OA
ATOM     40  OXT LIG d   1       4.780   1.066  -1.451  0.00  0.00    -0.548 OA
ENDBRANCH   1  38
TORSDOF 8
ENDMDL
MODEL 10
REMARK VINA RESULT:      -5.9      3.515      6.949
REMARK  8 active torsions:
REMARK  status: ('A' for Active; 'I' for Inactive)
REMARK    1  A    between atoms: C_4  and  C_7 
REMARK    2  A    between atoms: C_7  and  O_8 
REMARK    3  A    between atoms: O_8  and  C_9 
REMARK       I    between atoms: C_9  and  N_11 
REMARK    4  A    between atoms: N_11  and  CA_12 
REMARK    5  A    between atoms: CA_12  and  C_14 
REMARK    6  A    between atoms: CA_12  and  C_24 
REMARK    7  A    between atoms: C_14  and  C_15 
REMARK    8  A    between atoms: C_18  and  N_21 
ROOT
ATOM      1  CA  LIG d   1       3.267  -0.109  -8.097  0.00  0.00     0.070 C 
ATOM      2  HA  LIG d   1       4.184  -0.086  -8.684  0.00  0.00     0.056 H 
ENDROOT
BRANCH   1   3
ATOM      3  N   LIG d   1       3.379  -1.133  -7.055  0.00  0.00    -0.273 N 
ATOM      4  C   LIG d   1       4.592  -1.601  -6.698  0.00  0.00     0.401 C 
ATOM      5  O   LIG d   1       5.593  -1.172  -7.241  0.00  0.00    -0.227 OA
ATOM      6  H   LIG d   1       2.582  -1.475  -6.623  0.00  0.00     0.153 HD
BRANCH   4   7
ATOM      7  O   LIG d   1       4.697  -2.541  -5.742  0.00  0.00    -0.446 OA
BRANCH   7   8
ATOM      8  C   LIG d   1       5.556  -2.241  -4.611  0.00  0.00     0.119 C 
ATOM      9  H   LIG d   1       6.532  -1.917  -4.973  0.00  0.00     0.075 H 
ATOM     10  H   LIG d   1       5.675  -3.134  -3.997  0.00  0.00     0.075 H 
BRANCH   8  11
ATOM     11  C   LIG d   1       4.937  -1.143  -3.786  0.00  0.00    -0.010 A 
ATOM     12  C   LIG d   1       3.626  -1.254  -3.361  0.00  0.00    -0.055 A 
ATOM     13  C   LIG d   1       3.057  -0.247  -2.604  0.00  0.00    -0.061 A 
ATOM     14  H   LIG d   1       3.046  -2.127  -3.621  0.00  0.00     0.062 H 
ATOM     15  C   LIG d   1       3.800   0.872  -2.271  0.00  0.00    -0.062 A 
ATOM     16  H   LIG d   1       2.034  -0.333  -2.271  0.00  0.00     0.062 H 
ATOM     17  C   LIG d   1       5.111   0.982  -2.696  0.00  0.00    -0.061 A 
ATOM     18  H   LIG d   1       3.356   1.658  -1.679  0.00  0.00     0.062 H 
ATOM     19  C   LIG d   1       5.681  -0.028  -3.449  0.00  0.00    -0.055 A 
ATOM     20  H   LIG d   1       5.691   1.854  -2.435  0.00  0.00     0.062 H 
ATOM     21  H   LIG d   1       6.706   0.056  -3.777  0.00  0.00     0.062 H 
ENDBRANCH   8  11
ENDBRANCH   7   8
ENDBRANCH   4   7
ENDBRANCH   1   3
BRANCH   1  22
ATOM     22  C   LIG d   1       2.085  -0.440  -9.011  0.00  0.00    -0.004 C 
ATOM     23  H   LIG d   1       1.614  -1.365  -8.675  0.00  0.00     0.034 H 
ATOM     24  H   LIG d   1       1.358   0.372  -8.972  0.00  0.00     0.034 H 
BRANCH  22  25
ATOM     25  C   LIG d   1       2.575  -0.610 -10.425  0.00  0.00    -0.045 A 
ATOM     26  C   LIG d   1       3.745   0.003 -10.830  0.00  0.00    -0.052 A 
ATOM     27  C   LIG d   1       4.195  -0.153 -12.127  0.00  0.00     0.016 A 
ATOM     28  H   LIG d   1       4.308   0.605 -10.131  0.00  0.00     0.062 H 
ATOM     29  C   LIG d   1       3.475  -0.923 -13.020  0.00  0.00     0.273 A 
ATOM     30  H   LIG d   1       5.109   0.328 -12.444  0.00  0.00     0.069 H 
ATOM     31  C   LIG d   1       2.305  -1.539 -12.616  0.00  0.00     0.016 A 
ATOM     32  C   LIG d   1       1.857  -1.386 -11.316  0.00  0.00    -0.052 A 
ATOM     33  H   LIG d   1       1.742  -2.140 -13.313  0.00  0.00     0.069 H 
ATOM     34  H   LIG d   1       0.945  -1.869 -10.999  0.00  0.00     0.062 H 
BRANCH  29  35
ATOM     35  N   LIG d   1       3.956  -1.091 -14.410  0.00  0.00     0.080 N 
ATOM     36  O   LIG d   1       4.006  -2.201 -14.907  0.00  0.00     0.041 OA
ATOM     37  O   LIG d   1       4.304  -0.118 -15.055  0.00  0.00    -0.576 OA
ENDBRANCH  29  35
ENDBRANCH  22  25
ENDBRANCH   1  22
BRANCH   1  38
ATOM     38  C   LIG d   1       3.045   1.237  -7.457  0.00  0.00     0.062 C 
ATOM     39  O   LIG d   1       3.046   2.236  -8.136  0.00  0.00    -0.548 OA
ATOM     40  OXT LIG d   1       2.846   1.325  -6.132  0.00  0.00    -0.548 OA
ENDBRANCH   1  38
TORSDOF 8
ENDMDL
