MODEL 1
REMARK VINA RESULT:      -6.8      0.000      0.000
REMARK  5 active torsions:
REMARK  status: ('A' for Active; 'I' for Inactive)
REMARK    1  A    between atoms: C_1  and  C_2 
REMARK    2  A    between atoms: C_3  and  O_26 
REMARK    3  A    between atoms: C_12  and  C_13 
REMARK    4  A    between atoms: C_13  and  N_14 
REMARK    5  A    between atoms: N_17  and  C_20 
ROOT
ATOM      1  N   LIG d   1       8.509   1.883  -5.289  0.00  0.00    -0.295 N 
ATOM      2  C   LIG d   1       8.382   1.792  -3.827  0.00  0.00     0.015 C 
ATOM      3  C   LIG d   1       6.951   1.387  -3.467  0.00  0.00     0.030 C 
ATOM      4  N   LIG d   1       6.633   0.101  -4.101  0.00  0.00    -0.276 NA
ATOM      5  C   LIG d   1       6.761   0.192  -5.562  0.00  0.00     0.030 C 
ATOM      6  C   LIG d   1       8.192   0.596  -5.923  0.00  0.00     0.015 C 
ATOM      7  H   LIG d   1       9.085   1.037  -3.444  0.00  0.00     0.044 H 
ATOM      8  H   LIG d   1       8.613   2.769  -3.378  0.00  0.00     0.044 H 
ATOM      9  H   LIG d   1       6.861   1.291  -2.375  0.00  0.00     0.048 H 
ATOM     10  H   LIG d   1       6.251   2.157  -3.825  0.00  0.00     0.048 H 
ATOM     11  H   LIG d   1       6.531  -0.786  -6.012  0.00  0.00     0.048 H 
ATOM     12  H   LIG d   1       6.058   0.947  -5.945  0.00  0.00     0.048 H 
ATOM     13  H   LIG d   1       8.282   0.693  -7.015  0.00  0.00     0.044 H 
ATOM     14  H   LIG d   1       8.893  -0.173  -5.564  0.00  0.00     0.044 H 
ENDROOT
BRANCH   1  15
ATOM     15  C   LIG d   1       9.851   2.342  -5.673  0.00  0.00     0.025 C 
ATOM     16  H   LIG d   1      10.352   1.560  -6.261  0.00  0.00     0.048 H 
ATOM     17  H   LIG d   1      10.439   2.554  -4.767  0.00  0.00     0.048 H 
BRANCH  15  18
ATOM     18  C   LIG d   1       9.734   3.597  -6.499  0.00  0.00    -0.016 A 
ATOM     19  C   LIG d   1       9.716   4.917  -5.864  0.00  0.00     0.022 A 
ATOM     20  C   LIG d   1       9.805   5.048  -4.473  0.00  0.00    -0.047 A 
ATOM     21  C   LIG d   1       9.606   6.062  -6.674  0.00  0.00     0.146 A 
ATOM     22  C   LIG d   1       9.786   6.289  -3.907  0.00  0.00    -0.019 A 
ATOM     23  H   LIG d   1       9.889   4.170  -3.850  0.00  0.00     0.063 H 
ATOM     24  C   LIG d   1       9.677   7.428  -4.704  0.00  0.00     0.123 A 
ATOM     25  H   LIG d   1       9.851   6.391  -2.834  0.00  0.00     0.065 H 
ATOM     26  C   LIG d   1       9.587   7.315  -6.082  0.00  0.00     0.034 A 
ATOM     27  O   LIG d   1       9.519   5.931  -8.015  0.00  0.00    -0.422 OA
ATOM     28  C   LIG d   1       9.537   4.725  -8.604  0.00  0.00     0.338 A 
ATOM     29  O   LIG d   1       9.457   4.655  -9.817  0.00  0.00    -0.245 OA
ATOM     30  C   LIG d   1       9.644   3.535  -7.853  0.00  0.00     0.028 A 
ATOM     31  H   LIG d   1       9.655   2.578  -8.353  0.00  0.00     0.069 H 
BRANCH  24  32
ATOM     32  O   LIG d   1       9.659   8.655  -4.126  0.00  0.00    -0.506 OA
ATOM     33  H   LIG d   1       9.678   9.559  -4.752  0.00  0.00     0.292 HD
ENDBRANCH  24  32
BRANCH  26  34
ATOM     34  C   LIG d   1       9.469   8.552  -6.935  0.00  0.00    -0.033 C 
ATOM     35  H   LIG d   1       8.487   8.563  -7.433  0.00  0.00     0.028 H 
ATOM     36  H   LIG d   1      10.264   8.552  -7.695  0.00  0.00     0.028 H 
ATOM     37  H   LIG d   1       9.567   9.446  -6.301  0.00  0.00     0.028 H 
ENDBRANCH  26  34
ENDBRANCH  15  18
ENDBRANCH   1  15
BRANCH   4  38
ATOM     38  C   LIG d   1       5.364  -0.335  -3.738  0.00  0.00     0.272 A 
ATOM     39  N   LIG d   1       4.297   0.222  -4.289  0.00  0.00    -0.198 N 
ATOM     40  C   LIG d   1       3.075  -0.166  -3.976  0.00  0.00     0.171 A 
ATOM     41  H   LIG d   1       4.416   1.028  -5.027  0.00  0.00     0.454 HD
ATOM     42  C   LIG d   1       2.865  -1.165  -3.047  0.00  0.00     0.002 A 
ATOM     43  H   LIG d   1       2.227   0.308  -4.449  0.00  0.00     0.138 H 
ATOM     44  C   LIG d   1       3.958  -1.771  -2.441  0.00  0.00    -0.049 A 
ATOM     45  H   LIG d   1       1.862  -1.472  -2.793  0.00  0.00     0.068 H 
ATOM     46  C   LIG d   1       5.227  -1.348  -2.793  0.00  0.00     0.026 A 
ATOM     47  H   LIG d   1       3.821  -2.555  -1.712  0.00  0.00     0.062 H 
ATOM     48  H   LIG d   1       6.099  -1.797  -2.342  0.00  0.00     0.070 H 
ENDBRANCH   4  38
TORSDOF 5
ENDMDL
MODEL 2
REMARK VINA RESULT:      -6.6      7.138      9.733
REMARK  5 active torsions:
REMARK  status: ('A' for Active; 'I' for Inactive)
REMARK    1  A    between atoms: C_1  and  C_2 
REMARK    2  A    between atoms: C_3  and  O_26 
REMARK    3  A    between atoms: C_12  and  C_13 
REMARK    4  A    between atoms: C_13  and  N_14 
REMARK    5  A    between atoms: N_17  and  C_20 
ROOT
ATOM      1  N   LIG d   1       8.571  -5.618  -3.855  0.00  0.00    -0.295 N 
ATOM      2  C   LIG d   1       9.684  -5.031  -3.097  0.00  0.00     0.015 C 
ATOM      3  C   LIG d   1       9.907  -5.838  -1.816  0.00  0.00     0.030 C 
ATOM      4  N   LIG d   1      10.191  -7.237  -2.163  0.00  0.00    -0.276 NA
ATOM      5  C   LIG d   1       9.078  -7.824  -2.922  0.00  0.00     0.030 C 
ATOM      6  C   LIG d   1       8.855  -7.017  -4.203  0.00  0.00     0.015 C 
ATOM      7  H   LIG d   1      10.598  -5.055  -3.710  0.00  0.00     0.044 H 
ATOM      8  H   LIG d   1       9.443  -3.989  -2.838  0.00  0.00     0.044 H 
ATOM      9  H   LIG d   1      10.759  -5.417  -1.261  0.00  0.00     0.048 H 
ATOM     10  H   LIG d   1       9.003  -5.790  -1.190  0.00  0.00     0.048 H 
ATOM     11  H   LIG d   1       9.319  -8.865  -3.181  0.00  0.00     0.048 H 
ATOM     12  H   LIG d   1       8.164  -7.800  -2.309  0.00  0.00     0.048 H 
ATOM     13  H   LIG d   1       8.002  -7.437  -4.758  0.00  0.00     0.044 H 
ATOM     14  H   LIG d   1       9.758  -7.063  -4.829  0.00  0.00     0.044 H 
ENDROOT
BRANCH   1  15
ATOM     15  C   LIG d   1       8.276  -4.826  -5.057  0.00  0.00     0.025 C 
ATOM     16  H   LIG d   1       8.456  -5.438  -5.952  0.00  0.00     0.048 H 
ATOM     17  H   LIG d   1       8.929  -3.941  -5.081  0.00  0.00     0.048 H 
BRANCH  15  18
ATOM     18  C   LIG d   1       6.835  -4.386  -5.027  0.00  0.00    -0.016 A 
ATOM     19  C   LIG d   1       6.448  -3.119  -4.401  0.00  0.00     0.022 A 
ATOM     20  C   LIG d   1       7.405  -2.285  -3.813  0.00  0.00    -0.047 A 
ATOM     21  C   LIG d   1       5.091  -2.748  -4.397  0.00  0.00     0.146 A 
ATOM     22  C   LIG d   1       7.019  -1.110  -3.236  0.00  0.00    -0.019 A 
ATOM     23  H   LIG d   1       8.447  -2.570  -3.815  0.00  0.00     0.063 H 
ATOM     24  C   LIG d   1       5.675  -0.736  -3.229  0.00  0.00     0.123 A 
ATOM     25  H   LIG d   1       7.756  -0.468  -2.779  0.00  0.00     0.065 H 
ATOM     26  C   LIG d   1       4.715  -1.551  -3.806  0.00  0.00     0.034 A 
ATOM     27  O   LIG d   1       4.171  -3.556  -4.964  0.00  0.00    -0.422 OA
ATOM     28  C   LIG d   1       4.518  -4.717  -5.541  0.00  0.00     0.338 A 
ATOM     29  O   LIG d   1       3.654  -5.413  -6.041  0.00  0.00    -0.245 OA
ATOM     30  C   LIG d   1       5.859  -5.152  -5.581  0.00  0.00     0.028 A 
ATOM     31  H   LIG d   1       6.111  -6.091  -6.051  0.00  0.00     0.069 H 
BRANCH  24  32
ATOM     32  O   LIG d   1       5.307   0.435  -2.651  0.00  0.00    -0.506 OA
ATOM     33  H   LIG d   1       5.808   1.372  -2.937  0.00  0.00     0.292 HD
ENDBRANCH  24  32
BRANCH  26  34
ATOM     34  C   LIG d   1       3.266  -1.138  -3.791  0.00  0.00    -0.033 C 
ATOM     35  H   LIG d   1       2.683  -1.864  -3.204  0.00  0.00     0.028 H 
ATOM     36  H   LIG d   1       2.882  -1.108  -4.822  0.00  0.00     0.028 H 
ATOM     37  H   LIG d   1       3.173  -0.141  -3.336  0.00  0.00     0.028 H 
ENDBRANCH  26  34
ENDBRANCH  15  18
ENDBRANCH   1  15
BRANCH   4  38
ATOM     38  C   LIG d   1      10.470  -7.987  -1.027  0.00  0.00     0.272 A 
ATOM     39  N   LIG d   1      11.040  -7.408   0.018  0.00  0.00    -0.198 N 
ATOM     40  C   LIG d   1      11.316  -8.084   1.118  0.00  0.00     0.171 A 
ATOM     41  H   LIG d   1      11.295  -6.339  -0.016  0.00  0.00     0.454 HD
ATOM     42  C   LIG d   1      11.028  -9.431   1.212  0.00  0.00     0.002 A 
ATOM     43  H   LIG d   1      11.777  -7.577   1.953  0.00  0.00     0.138 H 
ATOM     44  C   LIG d   1      10.436 -10.077   0.136  0.00  0.00    -0.049 A 
ATOM     45  H   LIG d   1      11.263  -9.976   2.114  0.00  0.00     0.068 H 
ATOM     46  C   LIG d   1      10.153  -9.342  -1.001  0.00  0.00     0.026 A 
ATOM     47  H   LIG d   1      10.201 -11.129   0.185  0.00  0.00     0.062 H 
ATOM     48  H   LIG d   1       9.692  -9.813  -1.857  0.00  0.00     0.070 H 
ENDBRANCH   4  38
TORSDOF 5
ENDMDL
MODEL 3
REMARK VINA RESULT:      -6.6      1.145      2.864
REMARK  5 active torsions:
REMARK  status: ('A' for Active; 'I' for Inactive)
REMARK    1  A    between atoms: C_1  and  C_2 
REMARK    2  A    between atoms: C_3  and  O_26 
REMARK    3  A    between atoms: C_12  and  C_13 
REMARK    4  A    between atoms: C_13  and  N_14 
REMARK    5  A    between atoms: N_17  and  C_20 
ROOT
ATOM      1  N   LIG d   1       8.644   1.757  -5.397  0.00  0.00    -0.295 N 
ATOM      2  C   LIG d   1       8.536   1.706  -3.932  0.00  0.00     0.015 C 
ATOM      3  C   LIG d   1       7.093   1.381  -3.541  0.00  0.00     0.030 C 
ATOM      4  N   LIG d   1       6.702   0.098  -4.139  0.00  0.00    -0.276 NA
ATOM      5  C   LIG d   1       6.810   0.149  -5.604  0.00  0.00     0.030 C 
ATOM      6  C   LIG d   1       8.254   0.473  -5.995  0.00  0.00     0.015 C 
ATOM      7  H   LIG d   1       9.207   0.926  -3.542  0.00  0.00     0.044 H 
ATOM      8  H   LIG d   1       8.822   2.680  -3.509  0.00  0.00     0.044 H 
ATOM      9  H   LIG d   1       7.016   1.315  -2.445  0.00  0.00     0.048 H 
ATOM     10  H   LIG d   1       6.426   2.176  -3.906  0.00  0.00     0.048 H 
ATOM     11  H   LIG d   1       6.525  -0.826  -6.027  0.00  0.00     0.048 H 
ATOM     12  H   LIG d   1       6.140   0.929  -5.994  0.00  0.00     0.048 H 
ATOM     13  H   LIG d   1       8.331   0.541  -7.091  0.00  0.00     0.044 H 
ATOM     14  H   LIG d   1       8.922  -0.321  -5.629  0.00  0.00     0.044 H 
ENDROOT
BRANCH   1  15
ATOM     15  C   LIG d   1      10.001   2.140  -5.812  0.00  0.00     0.025 C 
ATOM     16  H   LIG d   1      10.249   1.640  -6.759  0.00  0.00     0.048 H 
ATOM     17  H   LIG d   1      10.720   1.836  -5.037  0.00  0.00     0.048 H 
BRANCH  15  18
ATOM     18  C   LIG d   1      10.065   3.634  -5.998  0.00  0.00    -0.016 A 
ATOM     19  C   LIG d   1       9.622   4.256  -7.249  0.00  0.00     0.022 A 
ATOM     20  C   LIG d   1       9.128   3.480  -8.303  0.00  0.00    -0.047 A 
ATOM     21  C   LIG d   1       9.700   5.654  -7.379  0.00  0.00     0.146 A 
ATOM     22  C   LIG d   1       8.721   4.084  -9.457  0.00  0.00    -0.019 A 
ATOM     23  H   LIG d   1       9.068   2.406  -8.204  0.00  0.00     0.063 H 
ATOM     24  C   LIG d   1       8.796   5.469  -9.593  0.00  0.00     0.123 A 
ATOM     25  H   LIG d   1       8.344   3.485 -10.272  0.00  0.00     0.065 H 
ATOM     26  C   LIG d   1       9.284   6.252  -8.559  0.00  0.00     0.034 A 
ATOM     27  O   LIG d   1      10.178   6.400  -6.360  0.00  0.00    -0.422 OA
ATOM     28  C   LIG d   1      10.584   5.837  -5.211  0.00  0.00     0.338 A 
ATOM     29  O   LIG d   1      11.008   6.549  -4.319  0.00  0.00    -0.245 OA
ATOM     30  C   LIG d   1      10.535   4.441  -5.012  0.00  0.00     0.028 A 
ATOM     31  H   LIG d   1      10.870   4.015  -4.078  0.00  0.00     0.069 H 
BRANCH  24  32
ATOM     32  O   LIG d   1       8.388   6.055 -10.747  0.00  0.00    -0.506 OA
ATOM     33  H   LIG d   1       7.408   5.800 -11.177  0.00  0.00     0.292 HD
ENDBRANCH  24  32
BRANCH  26  34
ATOM     34  C   LIG d   1       9.361   7.749  -8.717  0.00  0.00    -0.033 C 
ATOM     35  H   LIG d   1      10.265   8.012  -9.287  0.00  0.00     0.028 H 
ATOM     36  H   LIG d   1       9.404   8.221  -7.724  0.00  0.00     0.028 H 
ATOM     37  H   LIG d   1       8.471   8.107  -9.255  0.00  0.00     0.028 H 
ENDBRANCH  26  34
ENDBRANCH  15  18
ENDBRANCH   1  15
BRANCH   4  38
ATOM     38  C   LIG d   1       5.419  -0.265  -3.747  0.00  0.00     0.272 A 
ATOM     39  N   LIG d   1       4.374   0.378  -4.244  0.00  0.00    -0.198 N 
ATOM     40  C   LIG d   1       3.139   0.061  -3.901  0.00  0.00     0.171 A 
ATOM     41  H   LIG d   1       4.523   1.199  -4.960  0.00  0.00     0.454 HD
ATOM     42  C   LIG d   1       2.894  -0.953  -2.997  0.00  0.00     0.002 A 
ATOM     43  H   LIG d   1       2.310   0.604  -4.331  0.00  0.00     0.138 H 
ATOM     44  C   LIG d   1       3.963  -1.649  -2.448  0.00  0.00    -0.049 A 
ATOM     45  H   LIG d   1       1.881  -1.202  -2.719  0.00  0.00     0.068 H 
ATOM     46  C   LIG d   1       5.245  -1.298  -2.830  0.00  0.00     0.026 A 
ATOM     47  H   LIG d   1       3.797  -2.446  -1.740  0.00  0.00     0.062 H 
ATOM     48  H   LIG d   1       6.100  -1.818  -2.423  0.00  0.00     0.070 H 
ENDBRANCH   4  38
TORSDOF 5
ENDMDL
MODEL 4
REMARK VINA RESULT:      -6.6      7.635     11.616
REMARK  5 active torsions:
REMARK  status: ('A' for Active; 'I' for Inactive)
REMARK    1  A    between atoms: C_1  and  C_2 
REMARK    2  A    between atoms: C_3  and  O_26 
REMARK    3  A    between atoms: C_12  and  C_13 
REMARK    4  A    between atoms: C_13  and  N_14 
REMARK    5  A    between atoms: N_17  and  C_20 
ROOT
ATOM      1  N   LIG d   1       7.358  -4.666  -4.770  0.00  0.00    -0.295 N 
ATOM      2  C   LIG d   1       6.144  -4.151  -5.416  0.00  0.00     0.015 C 
ATOM      3  C   LIG d   1       5.478  -3.123  -4.499  0.00  0.00     0.030 C 
ATOM      4  N   LIG d   1       6.423  -2.035  -4.218  0.00  0.00    -0.276 NA
ATOM      5  C   LIG d   1       7.638  -2.550  -3.572  0.00  0.00     0.030 C 
ATOM      6  C   LIG d   1       8.304  -3.578  -4.490  0.00  0.00     0.015 C 
ATOM      7  H   LIG d   1       6.411  -3.673  -6.371  0.00  0.00     0.044 H 
ATOM      8  H   LIG d   1       5.448  -4.982  -5.605  0.00  0.00     0.044 H 
ATOM      9  H   LIG d   1       4.584  -2.715  -4.994  0.00  0.00     0.048 H 
ATOM     10  H   LIG d   1       5.184  -3.608  -3.556  0.00  0.00     0.048 H 
ATOM     11  H   LIG d   1       8.334  -1.720  -3.384  0.00  0.00     0.048 H 
ATOM     12  H   LIG d   1       7.371  -3.029  -2.618  0.00  0.00     0.048 H 
ATOM     13  H   LIG d   1       9.198  -3.988  -3.995  0.00  0.00     0.044 H 
ATOM     14  H   LIG d   1       8.597  -3.094  -5.433  0.00  0.00     0.044 H 
ENDROOT
BRANCH   1  15
ATOM     15  C   LIG d   1       7.987  -5.713  -5.588  0.00  0.00     0.025 C 
ATOM     16  H   LIG d   1       9.020  -5.420  -5.826  0.00  0.00     0.048 H 
ATOM     17  H   LIG d   1       7.417  -5.840  -6.520  0.00  0.00     0.048 H 
BRANCH  15  18
ATOM     18  C   LIG d   1       7.995  -7.011  -4.823  0.00  0.00    -0.016 A 
ATOM     19  C   LIG d   1       6.879  -7.956  -4.934  0.00  0.00     0.022 A 
ATOM     20  C   LIG d   1       5.779  -7.677  -5.752  0.00  0.00    -0.047 A 
ATOM     21  C   LIG d   1       6.929  -9.156  -4.203  0.00  0.00     0.146 A 
ATOM     22  C   LIG d   1       4.754  -8.574  -5.838  0.00  0.00    -0.019 A 
ATOM     23  H   LIG d   1       5.740  -6.755  -6.313  0.00  0.00     0.063 H 
ATOM     24  C   LIG d   1       4.796  -9.766  -5.115  0.00  0.00     0.123 A 
ATOM     25  H   LIG d   1       3.903  -8.358  -6.465  0.00  0.00     0.065 H 
ATOM     26  C   LIG d   1       5.878 -10.056  -4.301  0.00  0.00     0.034 A 
ATOM     27  O   LIG d   1       7.992  -9.421  -3.414  0.00  0.00    -0.422 OA
ATOM     28  C   LIG d   1       9.017  -8.561  -3.309  0.00  0.00     0.338 A 
ATOM     29  O   LIG d   1       9.956  -8.842  -2.586  0.00  0.00    -0.245 OA
ATOM     30  C   LIG d   1       9.034  -7.339  -4.013  0.00  0.00     0.028 A 
ATOM     31  H   LIG d   1       9.872  -6.665  -3.909  0.00  0.00     0.069 H 
BRANCH  24  32
ATOM     32  O   LIG d   1       3.769 -10.647  -5.211  0.00  0.00    -0.506 OA
ATOM     33  H   LIG d   1       3.085 -10.604  -6.072  0.00  0.00     0.292 HD
ENDBRANCH  24  32
BRANCH  26  34
ATOM     34  C   LIG d   1       5.914 -11.347  -3.523  0.00  0.00    -0.033 C 
ATOM     35  H   LIG d   1       5.772 -11.135  -2.453  0.00  0.00     0.028 H 
ATOM     36  H   LIG d   1       6.886 -11.839  -3.673  0.00  0.00     0.028 H 
ATOM     37  H   LIG d   1       5.109 -12.009  -3.875  0.00  0.00     0.028 H 
ENDBRANCH  26  34
ENDBRANCH  15  18
ENDBRANCH   1  15
BRANCH   4  38
ATOM     38  C   LIG d   1       5.829  -1.044  -3.444  0.00  0.00     0.272 A 
ATOM     39  N   LIG d   1       6.186   0.219  -3.609  0.00  0.00    -0.198 N 
ATOM     40  C   LIG d   1       5.643   1.190  -2.898  0.00  0.00     0.171 A 
ATOM     41  H   LIG d   1       6.952   0.483  -4.353  0.00  0.00     0.454 HD
ATOM     42  C   LIG d   1       4.685   0.916  -1.942  0.00  0.00     0.002 A 
ATOM     43  H   LIG d   1       5.955   2.211  -3.063  0.00  0.00     0.138 H 
ATOM     44  C   LIG d   1       4.287  -0.398  -1.734  0.00  0.00    -0.049 A 
ATOM     45  H   LIG d   1       4.250   1.716  -1.362  0.00  0.00     0.068 H 
ATOM     46  C   LIG d   1       4.870  -1.393  -2.498  0.00  0.00     0.026 A 
ATOM     47  H   LIG d   1       3.540  -0.637  -0.993  0.00  0.00     0.062 H 
ATOM     48  H   LIG d   1       4.584  -2.425  -2.362  0.00  0.00     0.070 H 
ENDBRANCH   4  38
TORSDOF 5
ENDMDL
MODEL 5
REMARK VINA RESULT:      -6.4      7.650     11.391
REMARK  5 active torsions:
REMARK  status: ('A' for Active; 'I' for Inactive)
REMARK    1  A    between atoms: C_1  and  C_2 
REMARK    2  A    between atoms: C_3  and  O_26 
REMARK    3  A    between atoms: C_12  and  C_13 
REMARK    4  A    between atoms: C_13  and  N_14 
REMARK    5  A    between atoms: N_17  and  C_20 
ROOT
ATOM      1  N   LIG d   1       6.316  -4.733  -5.149  0.00  0.00    -0.295 N 
ATOM      2  C   LIG d   1       5.102  -4.056  -5.627  0.00  0.00     0.015 C 
ATOM      3  C   LIG d   1       4.692  -2.979  -4.621  0.00  0.00     0.030 C 
ATOM      4  N   LIG d   1       5.793  -2.021  -4.456  0.00  0.00    -0.276 NA
ATOM      5  C   LIG d   1       7.008  -2.697  -3.979  0.00  0.00     0.030 C 
ATOM      6  C   LIG d   1       7.418  -3.775  -4.985  0.00  0.00     0.015 C 
ATOM      7  H   LIG d   1       5.302  -3.591  -6.604  0.00  0.00     0.044 H 
ATOM      8  H   LIG d   1       4.290  -4.792  -5.731  0.00  0.00     0.044 H 
ATOM      9  H   LIG d   1       3.799  -2.452  -4.990  0.00  0.00     0.048 H 
ATOM     10  H   LIG d   1       4.465  -3.449  -3.652  0.00  0.00     0.048 H 
ATOM     11  H   LIG d   1       7.820  -1.963  -3.876  0.00  0.00     0.048 H 
ATOM     12  H   LIG d   1       6.808  -3.164  -3.003  0.00  0.00     0.048 H 
ATOM     13  H   LIG d   1       8.310  -4.303  -4.616  0.00  0.00     0.044 H 
ATOM     14  H   LIG d   1       7.644  -3.306  -5.954  0.00  0.00     0.044 H 
ENDROOT
BRANCH   1  15
ATOM     15  C   LIG d   1       6.700  -5.826  -6.052  0.00  0.00     0.025 C 
ATOM     16  H   LIG d   1       7.766  -5.736  -6.305  0.00  0.00     0.048 H 
ATOM     17  H   LIG d   1       6.099  -5.770  -6.972  0.00  0.00     0.048 H 
BRANCH  15  18
ATOM     18  C   LIG d   1       6.453  -7.148  -5.373  0.00  0.00    -0.016 A 
ATOM     19  C   LIG d   1       7.520  -7.822  -4.629  0.00  0.00     0.022 A 
ATOM     20  C   LIG d   1       8.796  -7.257  -4.529  0.00  0.00    -0.047 A 
ATOM     21  C   LIG d   1       7.245  -9.055  -4.010  0.00  0.00     0.146 A 
ATOM     22  C   LIG d   1       9.772  -7.905  -3.829  0.00  0.00    -0.019 A 
ATOM     23  H   LIG d   1       9.008  -6.310  -5.004  0.00  0.00     0.063 H 
ATOM     24  C   LIG d   1       9.506  -9.127  -3.213  0.00  0.00     0.123 A 
ATOM     25  H   LIG d   1      10.758  -7.470  -3.755  0.00  0.00     0.065 H 
ATOM     26  C   LIG d   1       8.249  -9.701  -3.303  0.00  0.00     0.034 A 
ATOM     27  O   LIG d   1       6.013  -9.598  -4.108  0.00  0.00    -0.422 OA
ATOM     28  C   LIG d   1       5.030  -8.985  -4.788  0.00  0.00     0.338 A 
ATOM     29  O   LIG d   1       3.934  -9.512  -4.850  0.00  0.00    -0.245 OA
ATOM     30  C   LIG d   1       5.236  -7.748  -5.433  0.00  0.00     0.028 A 
ATOM     31  H   LIG d   1       4.427  -7.279  -5.974  0.00  0.00     0.069 H 
BRANCH  24  32
ATOM     32  O   LIG d   1      10.487  -9.759  -2.521  0.00  0.00    -0.506 OA
ATOM     33  H   LIG d   1      11.409 -10.071  -3.034  0.00  0.00     0.292 HD
ENDBRANCH  24  32
BRANCH  26  34
ATOM     34  C   LIG d   1       7.972 -11.023  -2.634  0.00  0.00    -0.033 C 
ATOM     35  H   LIG d   1       7.026 -11.436  -3.016  0.00  0.00     0.028 H 
ATOM     36  H   LIG d   1       7.894 -10.875  -1.547  0.00  0.00     0.028 H 
ATOM     37  H   LIG d   1       8.792 -11.723  -2.852  0.00  0.00     0.028 H 
ENDBRANCH  26  34
ENDBRANCH  15  18
ENDBRANCH   1  15
BRANCH   4  38
ATOM     38  C   LIG d   1       5.431  -0.986  -3.602  0.00  0.00     0.272 A 
ATOM     39  N   LIG d   1       5.783   0.257  -3.891  0.00  0.00    -0.198 N 
ATOM     40  C   LIG d   1       5.455   1.268  -3.109  0.00  0.00     0.171 A 
ATOM     41  H   LIG d   1       6.362   0.467  -4.802  0.00  0.00     0.454 HD
ATOM     42  C   LIG d   1       4.738   1.061  -1.947  0.00  0.00     0.002 A 
ATOM     43  H   LIG d   1       5.754   2.270  -3.379  0.00  0.00     0.138 H 
ATOM     44  C   LIG d   1       4.355  -0.229  -1.604  0.00  0.00    -0.049 A 
ATOM     45  H   LIG d   1       4.479   1.894  -1.311  0.00  0.00     0.068 H 
ATOM     46  C   LIG d   1       4.709  -1.268  -2.446  0.00  0.00     0.026 A 
ATOM     47  H   LIG d   1       3.795  -0.417  -0.702  0.00  0.00     0.062 H 
ATOM     48  H   LIG d   1       4.427  -2.284  -2.210  0.00  0.00     0.070 H 
ENDBRANCH   4  38
TORSDOF 5
ENDMDL
MODEL 6
REMARK VINA RESULT:      -6.2      1.694      3.006
REMARK  5 active torsions:
REMARK  status: ('A' for Active; 'I' for Inactive)
REMARK    1  A    between atoms: C_1  and  C_2 
REMARK    2  A    between atoms: C_3  and  O_26 
REMARK    3  A    between atoms: C_12  and  C_13 
REMARK    4  A    between atoms: C_13  and  N_14 
REMARK    5  A    between atoms: N_17  and  C_20 
ROOT
ATOM      1  N   LIG d   1       8.992   2.910  -5.244  0.00  0.00    -0.295 N 
ATOM      2  C   LIG d   1       8.993   2.354  -3.884  0.00  0.00     0.015 C 
ATOM      3  C   LIG d   1       7.679   1.609  -3.639  0.00  0.00     0.030 C 
ATOM      4  N   LIG d   1       7.528   0.544  -4.639  0.00  0.00    -0.276 NA
ATOM      5  C   LIG d   1       7.527   1.100  -5.999  0.00  0.00     0.030 C 
ATOM      6  C   LIG d   1       8.842   1.845  -6.244  0.00  0.00     0.015 C 
ATOM      7  H   LIG d   1       9.837   1.657  -3.773  0.00  0.00     0.044 H 
ATOM      8  H   LIG d   1       9.094   3.171  -3.154  0.00  0.00     0.044 H 
ATOM      9  H   LIG d   1       7.689   1.168  -2.631  0.00  0.00     0.048 H 
ATOM     10  H   LIG d   1       6.837   2.313  -3.721  0.00  0.00     0.048 H 
ATOM     11  H   LIG d   1       7.427   0.283  -6.729  0.00  0.00     0.048 H 
ATOM     12  H   LIG d   1       6.684   1.797  -6.110  0.00  0.00     0.048 H 
ATOM     13  H   LIG d   1       8.831   2.287  -7.252  0.00  0.00     0.044 H 
ATOM     14  H   LIG d   1       9.684   1.142  -6.161  0.00  0.00     0.044 H 
ENDROOT
BRANCH   1  15
ATOM     15  C   LIG d   1      10.207   3.698  -5.492  0.00  0.00     0.025 C 
ATOM     16  H   LIG d   1      10.377   3.778  -6.575  0.00  0.00     0.048 H 
ATOM     17  H   LIG d   1      11.068   3.200  -5.022  0.00  0.00     0.048 H 
BRANCH  15  18
ATOM     18  C   LIG d   1      10.041   5.075  -4.904  0.00  0.00    -0.016 A 
ATOM     19  C   LIG d   1       9.815   6.238  -5.767  0.00  0.00     0.022 A 
ATOM     20  C   LIG d   1       9.748   6.101  -7.157  0.00  0.00    -0.047 A 
ATOM     21  C   LIG d   1       9.666   7.506  -5.175  0.00  0.00     0.146 A 
ATOM     22  C   LIG d   1       9.536   7.201  -7.938  0.00  0.00    -0.019 A 
ATOM     23  H   LIG d   1       9.863   5.128  -7.613  0.00  0.00     0.063 H 
ATOM     24  C   LIG d   1       9.387   8.460  -7.357  0.00  0.00     0.123 A 
ATOM     25  H   LIG d   1       9.488   7.096  -9.011  0.00  0.00     0.065 H 
ATOM     26  C   LIG d   1       9.452   8.613  -5.982  0.00  0.00     0.034 A 
ATOM     27  O   LIG d   1       9.732   7.634  -3.832  0.00  0.00    -0.422 OA
ATOM     28  C   LIG d   1       9.937   6.572  -3.037  0.00  0.00     0.338 A 
ATOM     29  O   LIG d   1       9.990   6.736  -1.831  0.00  0.00    -0.245 OA
ATOM     30  C   LIG d   1      10.097   5.273  -3.562  0.00  0.00     0.028 A 
ATOM     31  H   LIG d   1      10.262   4.437  -2.898  0.00  0.00     0.069 H 
BRANCH  24  32
ATOM     32  O   LIG d   1       9.177   9.543  -8.147  0.00  0.00    -0.506 OA
ATOM     33  H   LIG d   1       9.594   9.572  -9.165  0.00  0.00     0.292 HD
ENDBRANCH  24  32
BRANCH  26  34
ATOM     34  C   LIG d   1       9.291   9.978  -5.365  0.00  0.00    -0.033 C 
ATOM     35  H   LIG d   1       9.531   9.927  -4.293  0.00  0.00     0.028 H 
ATOM     36  H   LIG d   1       8.252  10.318  -5.492  0.00  0.00     0.028 H 
ATOM     37  H   LIG d   1       9.972  10.687  -5.860  0.00  0.00     0.028 H 
ENDBRANCH  26  34
ENDBRANCH  15  18
ENDBRANCH   1  15
BRANCH   4  38
ATOM     38  C   LIG d   1       6.378  -0.202  -4.405  0.00  0.00     0.272 A 
ATOM     39  N   LIG d   1       5.310  -0.016  -5.164  0.00  0.00    -0.198 N 
ATOM     40  C   LIG d   1       4.201  -0.706  -4.979  0.00  0.00     0.171 A 
ATOM     41  H   LIG d   1       5.333   0.729  -5.974  0.00  0.00     0.454 HD
ATOM     42  C   LIG d   1       4.112  -1.646  -3.971  0.00  0.00     0.002 A 
ATOM     43  H   LIG d   1       3.350  -0.532  -5.621  0.00  0.00     0.138 H 
ATOM     44  C   LIG d   1       5.209  -1.867  -3.148  0.00  0.00    -0.049 A 
ATOM     45  H   LIG d   1       3.199  -2.202  -3.823  0.00  0.00     0.068 H 
ATOM     46  C   LIG d   1       6.359  -1.132  -3.370  0.00  0.00     0.026 A 
ATOM     47  H   LIG d   1       5.165  -2.596  -2.353  0.00  0.00     0.062 H 
ATOM     48  H   LIG d   1       7.231  -1.278  -2.749  0.00  0.00     0.070 H 
ENDBRANCH   4  38
TORSDOF 5
ENDMDL
MODEL 7
REMARK VINA RESULT:      -5.9      5.700      7.484
REMARK  5 active torsions:
REMARK  status: ('A' for Active; 'I' for Inactive)
REMARK    1  A    between atoms: C_1  and  C_2 
REMARK    2  A    between atoms: C_3  and  O_26 
REMARK    3  A    between atoms: C_12  and  C_13 
REMARK    4  A    between atoms: C_13  and  N_14 
REMARK    5  A    between atoms: N_17  and  C_20 
ROOT
ATOM      1  N   LIG d   1      10.654   4.971  -2.564  0.00  0.00    -0.295 N 
ATOM      2  C   LIG d   1      11.868   5.071  -3.386  0.00  0.00     0.015 C 
ATOM      3  C   LIG d   1      12.644   3.754  -3.308  0.00  0.00     0.030 C 
ATOM      4  N   LIG d   1      11.786   2.655  -3.772  0.00  0.00    -0.276 NA
ATOM      5  C   LIG d   1      10.572   2.555  -2.949  0.00  0.00     0.030 C 
ATOM      6  C   LIG d   1       9.796   3.873  -3.028  0.00  0.00     0.015 C 
ATOM      7  H   LIG d   1      11.588   5.271  -4.431  0.00  0.00     0.044 H 
ATOM      8  H   LIG d   1      12.498   5.891  -3.012  0.00  0.00     0.044 H 
ATOM      9  H   LIG d   1      13.538   3.816  -3.945  0.00  0.00     0.048 H 
ATOM     10  H   LIG d   1      12.948   3.569  -2.267  0.00  0.00     0.048 H 
ATOM     11  H   LIG d   1       9.942   1.735  -3.324  0.00  0.00     0.048 H 
ATOM     12  H   LIG d   1      10.852   2.356  -1.905  0.00  0.00     0.048 H 
ATOM     13  H   LIG d   1       8.902   3.811  -2.390  0.00  0.00     0.044 H 
ATOM     14  H   LIG d   1       9.492   4.059  -4.069  0.00  0.00     0.044 H 
ENDROOT
BRANCH   1  15
ATOM     15  C   LIG d   1       9.920   6.244  -2.553  0.00  0.00     0.025 C 
ATOM     16  H   LIG d   1       8.839   6.043  -2.542  0.00  0.00     0.048 H 
ATOM     17  H   LIG d   1      10.176   6.822  -3.452  0.00  0.00     0.048 H 
BRANCH  15  18
ATOM     18  C   LIG d   1      10.298   7.031  -1.325  0.00  0.00    -0.016 A 
ATOM     19  C   LIG d   1      10.211   8.494  -1.314  0.00  0.00     0.022 A 
ATOM     20  C   LIG d   1       9.776   9.198  -2.442  0.00  0.00    -0.047 A 
ATOM     21  C   LIG d   1      10.574   9.189  -0.146  0.00  0.00     0.146 A 
ATOM     22  C   LIG d   1       9.704  10.560  -2.405  0.00  0.00    -0.019 A 
ATOM     23  H   LIG d   1       9.497   8.665  -3.339  0.00  0.00     0.063 H 
ATOM     24  C   LIG d   1      10.062  11.255  -1.250  0.00  0.00     0.123 A 
ATOM     25  H   LIG d   1       9.371  11.104  -3.276  0.00  0.00     0.065 H 
ATOM     26  C   LIG d   1      10.496  10.573  -0.125  0.00  0.00     0.034 A 
ATOM     27  O   LIG d   1      10.995   8.506   0.940  0.00  0.00    -0.422 OA
ATOM     28  C   LIG d   1      11.075   7.166   0.937  0.00  0.00     0.338 A 
ATOM     29  O   LIG d   1      11.459   6.592   1.940  0.00  0.00    -0.245 OA
ATOM     30  C   LIG d   1      10.728   6.406  -0.199  0.00  0.00     0.028 A 
ATOM     31  H   LIG d   1      10.803   5.329  -0.173  0.00  0.00     0.069 H 
BRANCH  24  32
ATOM     32  O   LIG d   1       9.985  12.610  -1.229  0.00  0.00    -0.506 OA
ATOM     33  H   LIG d   1      10.782  13.199  -0.752  0.00  0.00     0.292 HD
ENDBRANCH  24  32
BRANCH  26  34
ATOM     34  C   LIG d   1      10.882  11.334   1.117  0.00  0.00    -0.033 C 
ATOM     35  H   LIG d   1      11.568  12.151   0.849  0.00  0.00     0.028 H 
ATOM     36  H   LIG d   1      11.381  10.654   1.823  0.00  0.00     0.028 H 
ATOM     37  H   LIG d   1       9.979  11.752   1.586  0.00  0.00     0.028 H 
ENDBRANCH  26  34
ENDBRANCH  15  18
ENDBRANCH   1  15
BRANCH   4  38
ATOM     38  C   LIG d   1      12.481   1.450  -3.782  0.00  0.00     0.272 A 
ATOM     39  N   LIG d   1      13.657   1.366  -3.181  0.00  0.00    -0.198 N 
ATOM     40  C   LIG d   1      14.345   0.240  -3.164  0.00  0.00     0.171 A 
ATOM     41  H   LIG d   1      14.084   2.247  -2.680  0.00  0.00     0.454 HD
ATOM     42  C   LIG d   1      13.864  -0.894  -3.787  0.00  0.00     0.002 A 
ATOM     43  H   LIG d   1      15.300   0.206  -2.659  0.00  0.00     0.138 H 
ATOM     44  C   LIG d   1      12.636  -0.846  -4.434  0.00  0.00    -0.049 A 
ATOM     45  H   LIG d   1      14.437  -1.809  -3.772  0.00  0.00     0.068 H 
ATOM     46  C   LIG d   1      11.935   0.346  -4.430  0.00  0.00     0.026 A 
ATOM     47  H   LIG d   1      12.238  -1.718  -4.928  0.00  0.00     0.062 H 
ATOM     48  H   LIG d   1      10.977   0.420  -4.924  0.00  0.00     0.070 H 
ENDBRANCH   4  38
TORSDOF 5
ENDMDL
MODEL 8
REMARK VINA RESULT:      -5.6      6.649     10.083
REMARK  5 active torsions:
REMARK  status: ('A' for Active; 'I' for Inactive)
REMARK    1  A    between atoms: C_1  and  C_2 
REMARK    2  A    between atoms: C_3  and  O_26 
REMARK    3  A    between atoms: C_12  and  C_13 
REMARK    4  A    between atoms: C_13  and  N_14 
REMARK    5  A    between atoms: N_17  and  C_20 
ROOT
ATOM      1  N   LIG d   1      10.507   9.768  -4.493  0.00  0.00    -0.295 N 
ATOM      2  C   LIG d   1      11.683  10.591  -4.810  0.00  0.00     0.015 C 
ATOM      3  C   LIG d   1      12.098  10.345  -6.262  0.00  0.00     0.030 C 
ATOM      4  N   LIG d   1      10.976  10.671  -7.152  0.00  0.00    -0.276 NA
ATOM      5  C   LIG d   1       9.801   9.847  -6.835  0.00  0.00     0.030 C 
ATOM      6  C   LIG d   1       9.385  10.094  -5.383  0.00  0.00     0.015 C 
ATOM      7  H   LIG d   1      11.433  11.654  -4.674  0.00  0.00     0.044 H 
ATOM      8  H   LIG d   1      12.511  10.320  -4.139  0.00  0.00     0.044 H 
ATOM      9  H   LIG d   1      12.960  10.982  -6.510  0.00  0.00     0.048 H 
ATOM     10  H   LIG d   1      12.375   9.288  -6.390  0.00  0.00     0.048 H 
ATOM     11  H   LIG d   1       8.971  10.119  -7.506  0.00  0.00     0.048 H 
ATOM     12  H   LIG d   1      10.050   8.785  -6.970  0.00  0.00     0.048 H 
ATOM     13  H   LIG d   1       8.523   9.456  -5.134  0.00  0.00     0.044 H 
ATOM     14  H   LIG d   1       9.109  11.151  -5.253  0.00  0.00     0.044 H 
ENDROOT
BRANCH   1  15
ATOM     15  C   LIG d   1      10.123   9.919  -3.083  0.00  0.00     0.025 C 
ATOM     16  H   LIG d   1       9.098  10.316  -3.023  0.00  0.00     0.048 H 
ATOM     17  H   LIG d   1      10.815  10.616  -2.587  0.00  0.00     0.048 H 
BRANCH  15  18
ATOM     18  C   LIG d   1      10.185   8.579  -2.398  0.00  0.00    -0.016 A 
ATOM     19  C   LIG d   1      10.585   8.470  -0.992  0.00  0.00     0.022 A 
ATOM     20  C   LIG d   1      10.918   9.608  -0.249  0.00  0.00    -0.047 A 
ATOM     21  C   LIG d   1      10.629   7.198  -0.393  0.00  0.00     0.146 A 
ATOM     22  C   LIG d   1      11.287   9.479   1.059  0.00  0.00    -0.019 A 
ATOM     23  H   LIG d   1      10.885  10.585  -0.709  0.00  0.00     0.063 H 
ATOM     24  C   LIG d   1      11.333   8.221   1.658  0.00  0.00     0.123 A 
ATOM     25  H   LIG d   1      11.548  10.356   1.631  0.00  0.00     0.065 H 
ATOM     26  C   LIG d   1      11.006   7.085   0.936  0.00  0.00     0.034 A 
ATOM     27  O   LIG d   1      10.307   6.103  -1.114  0.00  0.00    -0.422 OA
ATOM     28  C   LIG d   1       9.939   6.196  -2.402  0.00  0.00     0.338 A 
ATOM     29  O   LIG d   1       9.656   5.181  -3.012  0.00  0.00    -0.245 OA
ATOM     30  C   LIG d   1       9.873   7.438  -3.066  0.00  0.00     0.028 A 
ATOM     31  H   LIG d   1       9.575   7.483  -4.103  0.00  0.00     0.069 H 
BRANCH  24  32
ATOM     32  O   LIG d   1      11.701   8.110   2.960  0.00  0.00    -0.506 OA
ATOM     33  H   LIG d   1      11.334   7.268   3.566  0.00  0.00     0.292 HD
ENDBRANCH  24  32
BRANCH  26  34
ATOM     34  C   LIG d   1      11.060   5.730   1.594  0.00  0.00    -0.033 C 
ATOM     35  H   LIG d   1      10.037   5.371   1.779  0.00  0.00     0.028 H 
ATOM     36  H   LIG d   1      11.599   5.808   2.550  0.00  0.00     0.028 H 
ATOM     37  H   LIG d   1      11.583   5.023   0.934  0.00  0.00     0.028 H 
ENDBRANCH  26  34
ENDBRANCH  15  18
ENDBRANCH   1  15
BRANCH   4  38
ATOM     38  C   LIG d   1      11.339  10.527  -8.486  0.00  0.00     0.272 A 
ATOM     39  N   LIG d   1      11.040   9.411  -9.131  0.00  0.00    -0.198 N 
ATOM     40  C   LIG d   1      11.362   9.237 -10.399  0.00  0.00     0.171 A 
ATOM     41  H   LIG d   1      10.509   8.600  -8.611  0.00  0.00     0.454 HD
ATOM     42  C   LIG d   1      12.038  10.217 -11.099  0.00  0.00     0.002 A 
ATOM     43  H   LIG d   1      11.096   8.315 -10.896  0.00  0.00     0.138 H 
ATOM     44  C   LIG d   1      12.377  11.401 -10.457  0.00  0.00    -0.049 A 
ATOM     45  H   LIG d   1      12.302  10.063 -12.134  0.00  0.00     0.068 H 
ATOM     46  C   LIG d   1      12.021  11.556  -9.129  0.00  0.00     0.026 A 
ATOM     47  H   LIG d   1      12.905  12.181 -10.981  0.00  0.00     0.062 H 
ATOM     48  H   LIG d   1      12.268  12.464  -8.599  0.00  0.00     0.070 H 
ENDBRANCH   4  38
TORSDOF 5
ENDMDL
MODEL 9
REMARK VINA RESULT:      -5.6      3.883      7.831
REMARK  5 active torsions:
REMARK  status: ('A' for Active; 'I' for Inactive)
REMARK    1  A    between atoms: C_1  and  C_2 
REMARK    2  A    between atoms: C_3  and  O_26 
REMARK    3  A    between atoms: C_12  and  C_13 
REMARK    4  A    between atoms: C_13  and  N_14 
REMARK    5  A    between atoms: N_17  and  C_20 
ROOT
ATOM      1  N   LIG d   1      10.501   4.632  -3.203  0.00  0.00    -0.295 N 
ATOM      2  C   LIG d   1      10.900   5.843  -3.933  0.00  0.00     0.015 C 
ATOM      3  C   LIG d   1      10.389   7.077  -3.187  0.00  0.00     0.030 C 
ATOM      4  N   LIG d   1      10.936   7.084  -1.824  0.00  0.00    -0.276 NA
ATOM      5  C   LIG d   1      10.537   5.873  -1.093  0.00  0.00     0.030 C 
ATOM      6  C   LIG d   1      11.049   4.638  -1.840  0.00  0.00     0.015 C 
ATOM      7  H   LIG d   1      11.998   5.884  -4.003  0.00  0.00     0.044 H 
ATOM      8  H   LIG d   1      10.469   5.819  -4.945  0.00  0.00     0.044 H 
ATOM      9  H   LIG d   1      10.712   7.986  -3.717  0.00  0.00     0.048 H 
ATOM     10  H   LIG d   1       9.290   7.050  -3.142  0.00  0.00     0.048 H 
ATOM     11  H   LIG d   1      10.969   5.895  -0.082  0.00  0.00     0.048 H 
ATOM     12  H   LIG d   1       9.440   5.831  -1.024  0.00  0.00     0.048 H 
ATOM     13  H   LIG d   1      10.725   3.729  -1.310  0.00  0.00     0.044 H 
ATOM     14  H   LIG d   1      12.147   4.665  -1.886  0.00  0.00     0.044 H 
ENDROOT
BRANCH   1  15
ATOM     15  C   LIG d   1      10.909   3.421  -3.928  0.00  0.00     0.025 C 
ATOM     16  H   LIG d   1      11.438   2.743  -3.242  0.00  0.00     0.048 H 
ATOM     17  H   LIG d   1      11.577   3.698  -4.757  0.00  0.00     0.048 H 
BRANCH  15  18
ATOM     18  C   LIG d   1       9.688   2.729  -4.478  0.00  0.00    -0.016 A 
ATOM     19  C   LIG d   1       9.433   2.687  -5.920  0.00  0.00     0.022 A 
ATOM     20  C   LIG d   1      10.316   3.287  -6.825  0.00  0.00    -0.047 A 
ATOM     21  C   LIG d   1       8.281   2.030  -6.389  0.00  0.00     0.146 A 
ATOM     22  C   LIG d   1      10.055   3.233  -8.164  0.00  0.00    -0.019 A 
ATOM     23  H   LIG d   1      11.200   3.792  -6.466  0.00  0.00     0.063 H 
ATOM     24  C   LIG d   1       8.915   2.584  -8.635  0.00  0.00     0.123 A 
ATOM     25  H   LIG d   1      10.734   3.699  -8.862  0.00  0.00     0.065 H 
ATOM     26  C   LIG d   1       8.031   1.985  -7.752  0.00  0.00     0.034 A 
ATOM     27  O   LIG d   1       7.432   1.453  -5.513  0.00  0.00    -0.422 OA
ATOM     28  C   LIG d   1       7.660   1.486  -4.191  0.00  0.00     0.338 A 
ATOM     29  O   LIG d   1       6.867   0.952  -3.438  0.00  0.00    -0.245 OA
ATOM     30  C   LIG d   1       8.794   2.128  -3.651  0.00  0.00     0.028 A 
ATOM     31  H   LIG d   1       8.952   2.141  -2.582  0.00  0.00     0.069 H 
BRANCH  24  32
ATOM     32  O   LIG d   1       8.670   2.539  -9.969  0.00  0.00    -0.506 OA
ATOM     33  H   LIG d   1       9.241   3.181 -10.655  0.00  0.00     0.292 HD
ENDBRANCH  24  32
BRANCH  26  34
ATOM     34  C   LIG d   1       6.801   1.287  -8.272  0.00  0.00    -0.033 C 
ATOM     35  H   LIG d   1       5.937   1.548  -7.643  0.00  0.00     0.028 H 
ATOM     36  H   LIG d   1       6.958   0.198  -8.245  0.00  0.00     0.028 H 
ATOM     37  H   LIG d   1       6.609   1.604  -9.308  0.00  0.00     0.028 H 
ENDBRANCH  26  34
ENDBRANCH  15  18
ENDBRANCH   1  15
BRANCH   4  38
ATOM     38  C   LIG d   1      10.551   8.229  -1.137  0.00  0.00     0.272 A 
ATOM     39  N   LIG d   1      11.451   8.919  -0.454  0.00  0.00    -0.198 N 
ATOM     40  C   LIG d   1      11.127  10.015   0.207  0.00  0.00     0.171 A 
ATOM     41  H   LIG d   1      12.498   8.584  -0.428  0.00  0.00     0.454 HD
ATOM     42  C   LIG d   1       9.825  10.475   0.219  0.00  0.00     0.002 A 
ATOM     43  H   LIG d   1      11.889  10.556   0.749  0.00  0.00     0.138 H 
ATOM     44  C   LIG d   1       8.849   9.777  -0.479  0.00  0.00    -0.049 A 
ATOM     45  H   LIG d   1       9.569  11.370   0.768  0.00  0.00     0.068 H 
ATOM     46  C   LIG d   1       9.220   8.636  -1.168  0.00  0.00     0.026 A 
ATOM     47  H   LIG d   1       7.825  10.117  -0.486  0.00  0.00     0.062 H 
ATOM     48  H   LIG d   1       8.487   8.068  -1.721  0.00  0.00     0.070 H 
ENDBRANCH   4  38
TORSDOF 5
ENDMDL
