MODEL 1
REMARK VINA RESULT:      -8.1      0.000      0.000
REMARK  6 active torsions:
REMARK  status: ('A' for Active; 'I' for Inactive)
REMARK    1  A    between atoms: C_4  and  C_7 
REMARK    2  A    between atoms: C_12  and  C_13 
REMARK    3  A    between atoms: C_16  and  O_20 
REMARK    4  A    between atoms: C_18  and  O_19 
REMARK    5  A    between atoms: O_20  and  C_21 
REMARK    6  A    between atoms: C_21  and  C_22 
ROOT
ATOM      1  C   LIG d   1       4.349  -2.713  -7.831  0.00  0.00     0.044 A 
ATOM      2  C   LIG d   1       5.296  -1.699  -7.967  0.00  0.00    -0.045 A 
ATOM      3  C   LIG d   1       6.217  -1.476  -6.965  0.00  0.00    -0.019 A 
ATOM      4  C   LIG d   1       6.205  -2.260  -5.818  0.00  0.00     0.124 A 
ATOM      5  C   LIG d   1       5.267  -3.272  -5.675  0.00  0.00     0.022 A 
ATOM      6  C   LIG d   1       4.335  -3.498  -6.672  0.00  0.00     0.130 A 
ATOM      7  H   LIG d   1       5.309  -1.088  -8.858  0.00  0.00     0.063 H 
ATOM      8  H   LIG d   1       6.950  -0.690  -7.072  0.00  0.00     0.065 H 
ATOM      9  H   LIG d   1       5.261  -3.880  -4.782  0.00  0.00     0.069 H 
ENDROOT
BRANCH   1  10
ATOM     10  C   LIG d   1       3.358  -2.955  -8.905  0.00  0.00     0.104 A 
ATOM     11  C   LIG d   1       2.748  -1.964  -9.717  0.00  0.00     0.027 A 
ATOM     12  C   LIG d   1       1.909  -2.603 -10.580  0.00  0.00     0.031 A 
ATOM     13  N   LIG d   1       1.980  -3.925 -10.323  0.00  0.00    -0.283 N 
ATOM     14  H   LIG d   1       1.295  -2.134 -11.334  0.00  0.00     0.083 H 
ATOM     15  H   LIG d   1       1.487  -4.621 -10.788  0.00  0.00     0.188 HD
ATOM     16  N   LIG d   1       2.886  -4.125  -9.275  0.00  0.00    -0.173 NA
BRANCH  11  17
ATOM     17  C   LIG d   1       2.985  -0.502  -9.644  0.00  0.00    -0.014 A 
ATOM     18  C   LIG d   1       2.508   0.231  -8.559  0.00  0.00    -0.054 A 
ATOM     19  C   LIG d   1       2.732   1.591  -8.495  0.00  0.00    -0.061 A 
ATOM     20  H   LIG d   1       1.963  -0.265  -7.768  0.00  0.00     0.062 H 
ATOM     21  C   LIG d   1       3.430   2.227  -9.506  0.00  0.00    -0.062 A 
ATOM     22  H   LIG d   1       2.363   2.160  -7.655  0.00  0.00     0.062 H 
ATOM     23  C   LIG d   1       3.906   1.504 -10.586  0.00  0.00    -0.061 A 
ATOM     24  H   LIG d   1       3.600   3.292  -9.454  0.00  0.00     0.062 H 
ATOM     25  C   LIG d   1       3.687   0.144 -10.659  0.00  0.00    -0.054 A 
ATOM     26  H   LIG d   1       4.450   2.006 -11.372  0.00  0.00     0.062 H 
ATOM     27  H   LIG d   1       4.059  -0.419 -11.502  0.00  0.00     0.062 H 
ENDBRANCH  11  17
ENDBRANCH   1  10
BRANCH   6  28
ATOM     28  O   LIG d   1       3.411  -4.484  -6.531  0.00  0.00    -0.506 OA
ATOM     29  H   LIG d   1       3.706  -5.348  -6.848  0.00  0.00     0.292 HD
ENDBRANCH   6  28
BRANCH   4  30
ATOM     30  O   LIG d   1       7.115  -2.037  -4.835  0.00  0.00    -0.487 OA
BRANCH  30  31
ATOM     31  C   LIG d   1       6.682  -2.250  -3.489  0.00  0.00     0.117 C 
ATOM     32  H   LIG d   1       6.104  -3.172  -3.434  0.00  0.00     0.075 H 
ATOM     33  H   LIG d   1       7.551  -2.325  -2.836  0.00  0.00     0.075 H 
BRANCH  31  34
ATOM     34  C   LIG d   1       5.823  -1.093  -3.049  0.00  0.00     0.025 A 
ATOM     35  C   LIG d   1       4.557  -1.324  -2.539  0.00  0.00     0.130 A 
ATOM     36  C   LIG d   1       3.771  -0.260  -2.130  0.00  0.00    -0.026 A 
ATOM     37  F   LIG d   1       4.091  -2.589  -2.435  0.00  0.00    -0.205 F 
ATOM     38  C   LIG d   1       4.245   1.032  -2.242  0.00  0.00    -0.059 A 
ATOM     39  H   LIG d   1       2.784  -0.441  -1.729  0.00  0.00     0.065 H 
ATOM     40  C   LIG d   1       5.508   1.263  -2.756  0.00  0.00    -0.061 A 
ATOM     41  H   LIG d   1       3.631   1.862  -1.926  0.00  0.00     0.062 H 
ATOM     42  C   LIG d   1       6.296   0.202  -3.160  0.00  0.00    -0.053 A 
ATOM     43  H   LIG d   1       5.879   2.273  -2.843  0.00  0.00     0.062 H 
ATOM     44  H   LIG d   1       7.282   0.383  -3.561  0.00  0.00     0.062 H 
ENDBRANCH  31  34
ENDBRANCH  30  31
ENDBRANCH   4  30
TORSDOF 6
ENDMDL
MODEL 2
REMARK VINA RESULT:      -7.8      1.195      1.485
REMARK  6 active torsions:
REMARK  status: ('A' for Active; 'I' for Inactive)
REMARK    1  A    between atoms: C_4  and  C_7 
REMARK    2  A    between atoms: C_12  and  C_13 
REMARK    3  A    between atoms: C_16  and  O_20 
REMARK    4  A    between atoms: C_18  and  O_19 
REMARK    5  A    between atoms: O_20  and  C_21 
REMARK    6  A    between atoms: C_21  and  C_22 
ROOT
ATOM      1  C   LIG d   1       4.403  -3.311  -7.648  0.00  0.00     0.044 A 
ATOM      2  C   LIG d   1       5.457  -2.400  -7.696  0.00  0.00    -0.045 A 
ATOM      3  C   LIG d   1       6.295  -2.258  -6.610  0.00  0.00    -0.019 A 
ATOM      4  C   LIG d   1       6.093  -3.021  -5.467  0.00  0.00     0.124 A 
ATOM      5  C   LIG d   1       5.047  -3.931  -5.411  0.00  0.00     0.022 A 
ATOM      6  C   LIG d   1       4.197  -4.075  -6.494  0.00  0.00     0.130 A 
ATOM      7  H   LIG d   1       5.617  -1.805  -8.583  0.00  0.00     0.063 H 
ATOM      8  H   LIG d   1       7.111  -1.552  -6.648  0.00  0.00     0.065 H 
ATOM      9  H   LIG d   1       4.893  -4.523  -4.521  0.00  0.00     0.069 H 
ENDROOT
BRANCH   1  10
ATOM     10  C   LIG d   1       3.500  -3.466  -8.813  0.00  0.00     0.104 A 
ATOM     11  C   LIG d   1       2.915  -2.413  -9.563  0.00  0.00     0.027 A 
ATOM     12  C   LIG d   1       2.164  -2.980 -10.547  0.00  0.00     0.031 A 
ATOM     13  N   LIG d   1       2.261  -4.319 -10.422  0.00  0.00    -0.283 N 
ATOM     14  H   LIG d   1       1.589  -2.452 -11.293  0.00  0.00     0.083 H 
ATOM     15  H   LIG d   1       1.827  -4.975 -10.991  0.00  0.00     0.188 HD
ATOM     16  N   LIG d   1       3.095  -4.603  -9.334  0.00  0.00    -0.173 NA
BRANCH  11  17
ATOM     17  C   LIG d   1       3.097  -0.960  -9.323  0.00  0.00    -0.014 A 
ATOM     18  C   LIG d   1       2.621  -0.379  -8.149  0.00  0.00    -0.054 A 
ATOM     19  C   LIG d   1       2.793   0.972  -7.930  0.00  0.00    -0.061 A 
ATOM     20  H   LIG d   1       2.117  -0.987  -7.410  0.00  0.00     0.062 H 
ATOM     21  C   LIG d   1       3.438   1.751  -8.875  0.00  0.00    -0.062 A 
ATOM     22  H   LIG d   1       2.424   1.423  -7.022  0.00  0.00     0.062 H 
ATOM     23  C   LIG d   1       3.913   1.180 -10.043  0.00  0.00    -0.061 A 
ATOM     24  H   LIG d   1       3.567   2.809  -8.702  0.00  0.00     0.062 H 
ATOM     25  C   LIG d   1       3.746  -0.171 -10.271  0.00  0.00    -0.054 A 
ATOM     26  H   LIG d   1       4.415   1.792 -10.776  0.00  0.00     0.062 H 
ATOM     27  H   LIG d   1       4.116  -0.615 -11.183  0.00  0.00     0.062 H 
ENDBRANCH  11  17
ENDBRANCH   1  10
BRANCH   6  28
ATOM     28  O   LIG d   1       3.168  -4.960  -6.439  0.00  0.00    -0.506 OA
ATOM     29  H   LIG d   1       2.448  -4.691  -5.853  0.00  0.00     0.292 HD
ENDBRANCH   6  28
BRANCH   4  30
ATOM     30  O   LIG d   1       6.922  -2.878  -4.401  0.00  0.00    -0.487 OA
BRANCH  30  31
ATOM     31  C   LIG d   1       7.341  -1.549  -4.079  0.00  0.00     0.117 C 
ATOM     32  H   LIG d   1       8.238  -1.590  -3.461  0.00  0.00     0.075 H 
ATOM     33  H   LIG d   1       7.556  -1.004  -4.998  0.00  0.00     0.075 H 
BRANCH  31  34
ATOM     34  C   LIG d   1       6.243  -0.845  -3.324  0.00  0.00     0.025 A 
ATOM     35  C   LIG d   1       6.182   0.538  -3.320  0.00  0.00     0.130 A 
ATOM     36  C   LIG d   1       5.170   1.183  -2.630  0.00  0.00    -0.026 A 
ATOM     37  F   LIG d   1       7.106   1.258  -3.994  0.00  0.00    -0.205 F 
ATOM     38  C   LIG d   1       4.228   0.447  -1.937  0.00  0.00    -0.059 A 
ATOM     39  H   LIG d   1       5.119   2.262  -2.629  0.00  0.00     0.065 H 
ATOM     40  C   LIG d   1       4.293  -0.934  -1.937  0.00  0.00    -0.061 A 
ATOM     41  H   LIG d   1       3.441   0.950  -1.396  0.00  0.00     0.062 H 
ATOM     42  C   LIG d   1       5.300  -1.580  -2.630  0.00  0.00    -0.053 A 
ATOM     43  H   LIG d   1       3.557  -1.509  -1.396  0.00  0.00     0.062 H 
ATOM     44  H   LIG d   1       5.350  -2.659  -2.630  0.00  0.00     0.062 H 
ENDBRANCH  31  34
ENDBRANCH  30  31
ENDBRANCH   4  30
TORSDOF 6
ENDMDL
MODEL 3
REMARK VINA RESULT:      -7.4      2.561      4.577
REMARK  6 active torsions:
REMARK  status: ('A' for Active; 'I' for Inactive)
REMARK    1  A    between atoms: C_4  and  C_7 
REMARK    2  A    between atoms: C_12  and  C_13 
REMARK    3  A    between atoms: C_16  and  O_20 
REMARK    4  A    between atoms: C_18  and  O_19 
REMARK    5  A    between atoms: O_20  and  C_21 
REMARK    6  A    between atoms: C_21  and  C_22 
ROOT
ATOM      1  C   LIG d   1       4.143  -1.777  -8.763  0.00  0.00     0.044 A 
ATOM      2  C   LIG d   1       5.041  -1.393  -7.768  0.00  0.00    -0.045 A 
ATOM      3  C   LIG d   1       4.664  -0.465  -6.820  0.00  0.00    -0.019 A 
ATOM      4  C   LIG d   1       3.391   0.089  -6.853  0.00  0.00     0.124 A 
ATOM      5  C   LIG d   1       2.490  -0.288  -7.838  0.00  0.00     0.022 A 
ATOM      6  C   LIG d   1       2.863  -1.213  -8.798  0.00  0.00     0.130 A 
ATOM      7  H   LIG d   1       6.032  -1.822  -7.740  0.00  0.00     0.063 H 
ATOM      8  H   LIG d   1       5.361  -0.169  -6.050  0.00  0.00     0.065 H 
ATOM      9  H   LIG d   1       1.501   0.144  -7.860  0.00  0.00     0.069 H 
ENDROOT
BRANCH   1  10
ATOM     10  C   LIG d   1       4.545  -2.773  -9.784  0.00  0.00     0.104 A 
ATOM     11  C   LIG d   1       5.003  -4.091  -9.530  0.00  0.00     0.027 A 
ATOM     12  C   LIG d   1       5.259  -4.674 -10.734  0.00  0.00     0.031 A 
ATOM     13  N   LIG d   1       4.984  -3.772 -11.698  0.00  0.00    -0.283 N 
ATOM     14  H   LIG d   1       5.619  -5.681 -10.890  0.00  0.00     0.083 H 
ATOM     15  H   LIG d   1       5.075  -3.916 -12.653  0.00  0.00     0.188 HD
ATOM     16  N   LIG d   1       4.544  -2.591 -11.087  0.00  0.00    -0.173 NA
BRANCH  11  17
ATOM     17  C   LIG d   1       5.166  -4.721  -8.197  0.00  0.00    -0.014 A 
ATOM     18  C   LIG d   1       4.049  -5.153  -7.486  0.00  0.00    -0.054 A 
ATOM     19  C   LIG d   1       4.206  -5.740  -6.247  0.00  0.00    -0.061 A 
ATOM     20  H   LIG d   1       3.060  -5.030  -7.904  0.00  0.00     0.062 H 
ATOM     21  C   LIG d   1       5.471  -5.899  -5.710  0.00  0.00    -0.062 A 
ATOM     22  H   LIG d   1       3.341  -6.075  -5.695  0.00  0.00     0.062 H 
ATOM     23  C   LIG d   1       6.585  -5.472  -6.412  0.00  0.00    -0.061 A 
ATOM     24  H   LIG d   1       5.589  -6.356  -4.738  0.00  0.00     0.062 H 
ATOM     25  C   LIG d   1       6.439  -4.884  -7.651  0.00  0.00    -0.054 A 
ATOM     26  H   LIG d   1       7.569  -5.599  -5.988  0.00  0.00     0.062 H 
ATOM     27  H   LIG d   1       7.308  -4.551  -8.198  0.00  0.00     0.062 H 
ENDBRANCH  11  17
ENDBRANCH   1  10
BRANCH   6  28
ATOM     28  O   LIG d   1       1.985  -1.579  -9.768  0.00  0.00    -0.506 OA
ATOM     29  H   LIG d   1       1.161  -1.956  -9.432  0.00  0.00     0.292 HD
ENDBRANCH   6  28
BRANCH   4  30
ATOM     30  O   LIG d   1       3.025   1.001  -5.915  0.00  0.00    -0.487 OA
BRANCH  30  31
ATOM     31  C   LIG d   1       2.172   0.545  -4.863  0.00  0.00     0.117 C 
ATOM     32  H   LIG d   1       1.525   1.359  -4.539  0.00  0.00     0.075 H 
ATOM     33  H   LIG d   1       1.560  -0.283  -5.225  0.00  0.00     0.075 H 
BRANCH  31  34
ATOM     34  C   LIG d   1       3.011   0.077  -3.703  0.00  0.00     0.025 A 
ATOM     35  C   LIG d   1       3.646   1.001  -2.891  0.00  0.00     0.130 A 
ATOM     36  C   LIG d   1       4.413   0.569  -1.822  0.00  0.00    -0.026 A 
ATOM     37  F   LIG d   1       3.514   2.323  -3.138  0.00  0.00    -0.205 F 
ATOM     38  C   LIG d   1       4.553  -0.782  -1.572  0.00  0.00    -0.059 A 
ATOM     39  H   LIG d   1       4.906   1.290  -1.185  0.00  0.00     0.065 H 
ATOM     40  C   LIG d   1       3.922  -1.704  -2.387  0.00  0.00    -0.061 A 
ATOM     41  H   LIG d   1       5.154  -1.119  -0.741  0.00  0.00     0.062 H 
ATOM     42  C   LIG d   1       3.152  -1.275  -3.452  0.00  0.00    -0.053 A 
ATOM     43  H   LIG d   1       4.031  -2.760  -2.192  0.00  0.00     0.062 H 
ATOM     44  H   LIG d   1       2.660  -1.996  -4.087  0.00  0.00     0.062 H 
ENDBRANCH  31  34
ENDBRANCH  30  31
ENDBRANCH   4  30
TORSDOF 6
ENDMDL
MODEL 4
REMARK VINA RESULT:      -7.4      1.424      2.021
REMARK  6 active torsions:
REMARK  status: ('A' for Active; 'I' for Inactive)
REMARK    1  A    between atoms: C_4  and  C_7 
REMARK    2  A    between atoms: C_12  and  C_13 
REMARK    3  A    between atoms: C_16  and  O_20 
REMARK    4  A    between atoms: C_18  and  O_19 
REMARK    5  A    between atoms: O_20  and  C_21 
REMARK    6  A    between atoms: C_21  and  C_22 
ROOT
ATOM      1  C   LIG d   1       4.197  -4.182  -8.022  0.00  0.00     0.044 A 
ATOM      2  C   LIG d   1       5.177  -3.312  -8.499  0.00  0.00    -0.045 A 
ATOM      3  C   LIG d   1       5.987  -2.633  -7.612  0.00  0.00    -0.019 A 
ATOM      4  C   LIG d   1       5.831  -2.815  -6.244  0.00  0.00     0.124 A 
ATOM      5  C   LIG d   1       4.859  -3.680  -5.761  0.00  0.00     0.022 A 
ATOM      6  C   LIG d   1       4.037  -4.359  -6.644  0.00  0.00     0.130 A 
ATOM      7  H   LIG d   1       5.301  -3.168  -9.562  0.00  0.00     0.063 H 
ATOM      8  H   LIG d   1       6.744  -1.959  -7.983  0.00  0.00     0.065 H 
ATOM      9  H   LIG d   1       4.741  -3.819  -4.697  0.00  0.00     0.069 H 
ENDROOT
BRANCH   1  10
ATOM     10  C   LIG d   1       3.325  -4.912  -8.972  0.00  0.00     0.104 A 
ATOM     11  C   LIG d   1       2.623  -4.344 -10.067  0.00  0.00     0.027 A 
ATOM     12  C   LIG d   1       1.949  -5.353 -10.686  0.00  0.00     0.031 A 
ATOM     13  N   LIG d   1       2.203  -6.494 -10.016  0.00  0.00    -0.283 N 
ATOM     14  H   LIG d   1       1.319  -5.255 -11.559  0.00  0.00     0.083 H 
ATOM     15  H   LIG d   1       1.853  -7.372 -10.236  0.00  0.00     0.188 HD
ATOM     16  N   LIG d   1       3.061  -6.200  -8.949  0.00  0.00    -0.173 NA
BRANCH  11  17
ATOM     17  C   LIG d   1       2.630  -2.916 -10.468  0.00  0.00    -0.014 A 
ATOM     18  C   LIG d   1       3.424  -2.492 -11.531  0.00  0.00    -0.054 A 
ATOM     19  C   LIG d   1       3.425  -1.162 -11.901  0.00  0.00    -0.061 A 
ATOM     20  H   LIG d   1       4.037  -3.202 -12.067  0.00  0.00     0.062 H 
ATOM     21  C   LIG d   1       2.640  -0.251 -11.217  0.00  0.00    -0.062 A 
ATOM     22  H   LIG d   1       4.040  -0.832 -12.725  0.00  0.00     0.062 H 
ATOM     23  C   LIG d   1       1.850  -0.667 -10.160  0.00  0.00    -0.061 A 
ATOM     24  H   LIG d   1       2.647   0.789 -11.508  0.00  0.00     0.062 H 
ATOM     25  C   LIG d   1       1.841  -1.994  -9.783  0.00  0.00    -0.054 A 
ATOM     26  H   LIG d   1       1.239   0.048  -9.631  0.00  0.00     0.062 H 
ATOM     27  H   LIG d   1       1.224  -2.317  -8.957  0.00  0.00     0.062 H 
ENDBRANCH  11  17
ENDBRANCH   1  10
BRANCH   6  28
ATOM     28  O   LIG d   1       3.081  -5.202  -6.173  0.00  0.00    -0.506 OA
ATOM     29  H   LIG d   1       2.798  -5.010  -5.269  0.00  0.00     0.292 HD
ENDBRANCH   6  28
BRANCH   4  30
ATOM     30  O   LIG d   1       6.632  -2.145  -5.376  0.00  0.00    -0.487 OA
BRANCH  30  31
ATOM     31  C   LIG d   1       6.458  -2.424  -3.985  0.00  0.00     0.117 C 
ATOM     32  H   LIG d   1       5.829  -3.306  -3.866  0.00  0.00     0.075 H 
ATOM     33  H   LIG d   1       7.431  -2.606  -3.527  0.00  0.00     0.075 H 
BRANCH  31  34
ATOM     34  C   LIG d   1       5.801  -1.246  -3.314  0.00  0.00     0.025 A 
ATOM     35  C   LIG d   1       4.637  -1.423  -2.587  0.00  0.00     0.130 A 
ATOM     36  C   LIG d   1       4.037  -0.340  -1.967  0.00  0.00    -0.026 A 
ATOM     37  F   LIG d   1       4.088  -2.654  -2.477  0.00  0.00    -0.205 F 
ATOM     38  C   LIG d   1       4.594   0.919  -2.084  0.00  0.00    -0.059 A 
ATOM     39  H   LIG d   1       3.130  -0.478  -1.396  0.00  0.00     0.065 H 
ATOM     40  C   LIG d   1       5.754   1.096  -2.815  0.00  0.00    -0.061 A 
ATOM     41  H   LIG d   1       4.125   1.764  -1.604  0.00  0.00     0.062 H 
ATOM     42  C   LIG d   1       6.357   0.015  -3.430  0.00  0.00    -0.053 A 
ATOM     43  H   LIG d   1       6.190   2.079  -2.906  0.00  0.00     0.062 H 
ATOM     44  H   LIG d   1       7.263   0.153  -4.001  0.00  0.00     0.062 H 
ENDBRANCH  31  34
ENDBRANCH  30  31
ENDBRANCH   4  30
TORSDOF 6
ENDMDL
MODEL 5
REMARK VINA RESULT:      -7.3      3.369      7.078
REMARK  6 active torsions:
REMARK  status: ('A' for Active; 'I' for Inactive)
REMARK    1  A    between atoms: C_4  and  C_7 
REMARK    2  A    between atoms: C_12  and  C_13 
REMARK    3  A    between atoms: C_16  and  O_20 
REMARK    4  A    between atoms: C_18  and  O_19 
REMARK    5  A    between atoms: O_20  and  C_21 
REMARK    6  A    between atoms: C_21  and  C_22 
ROOT
ATOM      1  C   LIG d   1       7.249  -0.568  -6.127  0.00  0.00     0.044 A 
ATOM      2  C   LIG d   1       6.229  -0.982  -6.982  0.00  0.00    -0.045 A 
ATOM      3  C   LIG d   1       5.835  -0.175  -8.029  0.00  0.00    -0.019 A 
ATOM      4  C   LIG d   1       6.454   1.052  -8.235  0.00  0.00     0.124 A 
ATOM      5  C   LIG d   1       7.471   1.472  -7.390  0.00  0.00     0.022 A 
ATOM      6  C   LIG d   1       7.867   0.671  -6.332  0.00  0.00     0.130 A 
ATOM      7  H   LIG d   1       5.746  -1.935  -6.825  0.00  0.00     0.063 H 
ATOM      8  H   LIG d   1       5.045  -0.497  -8.690  0.00  0.00     0.065 H 
ATOM      9  H   LIG d   1       7.950   2.426  -7.554  0.00  0.00     0.069 H 
ENDROOT
BRANCH   1  10
ATOM     10  C   LIG d   1       7.673  -1.433  -5.001  0.00  0.00     0.104 A 
ATOM     11  C   LIG d   1       7.045  -1.520  -3.732  0.00  0.00     0.027 A 
ATOM     12  C   LIG d   1       7.740  -2.431  -2.995  0.00  0.00     0.031 A 
ATOM     13  N   LIG d   1       8.756  -2.889  -3.753  0.00  0.00    -0.283 N 
ATOM     14  H   LIG d   1       7.517  -2.732  -1.981  0.00  0.00     0.083 H 
ATOM     15  H   LIG d   1       9.415  -3.548  -3.482  0.00  0.00     0.188 HD
ATOM     16  N   LIG d   1       8.701  -2.253  -4.999  0.00  0.00    -0.173 NA
BRANCH  11  17
ATOM     17  C   LIG d   1       5.847  -0.765  -3.293  0.00  0.00    -0.014 A 
ATOM     18  C   LIG d   1       5.937   0.601  -3.033  0.00  0.00    -0.054 A 
ATOM     19  C   LIG d   1       4.819   1.300  -2.626  0.00  0.00    -0.061 A 
ATOM     20  H   LIG d   1       6.882   1.114  -3.151  0.00  0.00     0.062 H 
ATOM     21  C   LIG d   1       3.609   0.646  -2.475  0.00  0.00    -0.062 A 
ATOM     22  H   LIG d   1       4.889   2.358  -2.423  0.00  0.00     0.062 H 
ATOM     23  C   LIG d   1       3.513  -0.710  -2.732  0.00  0.00    -0.061 A 
ATOM     24  H   LIG d   1       2.738   1.196  -2.152  0.00  0.00     0.062 H 
ATOM     25  C   LIG d   1       4.625  -1.418  -3.140  0.00  0.00    -0.054 A 
ATOM     26  H   LIG d   1       2.567  -1.215  -2.613  0.00  0.00     0.062 H 
ATOM     27  H   LIG d   1       4.549  -2.477  -3.340  0.00  0.00     0.062 H 
ENDBRANCH  11  17
ENDBRANCH   1  10
BRANCH   6  28
ATOM     28  O   LIG d   1       8.858   1.083  -5.500  0.00  0.00    -0.506 OA
ATOM     29  H   LIG d   1       9.629   1.446  -5.955  0.00  0.00     0.292 HD
ENDBRANCH   6  28
BRANCH   4  30
ATOM     30  O   LIG d   1       6.063   1.843  -9.268  0.00  0.00    -0.487 OA
BRANCH  30  31
ATOM     31  C   LIG d   1       4.709   2.299  -9.259  0.00  0.00     0.117 C 
ATOM     32  H   LIG d   1       4.386   2.462  -8.231  0.00  0.00     0.075 H 
ATOM     33  H   LIG d   1       4.638   3.235  -9.815  0.00  0.00     0.075 H 
BRANCH  31  34
ATOM     34  C   LIG d   1       3.825   1.264  -9.905  0.00  0.00     0.025 A 
ATOM     35  C   LIG d   1       2.724   0.771  -9.226  0.00  0.00     0.130 A 
ATOM     36  C   LIG d   1       1.911  -0.176  -9.824  0.00  0.00    -0.026 A 
ATOM     37  F   LIG d   1       2.440   1.219  -7.983  0.00  0.00    -0.205 F 
ATOM     38  C   LIG d   1       2.204  -0.638 -11.092  0.00  0.00    -0.059 A 
ATOM     39  H   LIG d   1       1.049  -0.559  -9.296  0.00  0.00     0.065 H 
ATOM     40  C   LIG d   1       3.307  -0.150 -11.768  0.00  0.00    -0.061 A 
ATOM     41  H   LIG d   1       1.572  -1.380 -11.557  0.00  0.00     0.062 H 
ATOM     42  C   LIG d   1       4.118   0.800 -11.175  0.00  0.00    -0.053 A 
ATOM     43  H   LIG d   1       3.536  -0.510 -12.759  0.00  0.00     0.062 H 
ATOM     44  H   LIG d   1       4.979   1.182 -11.703  0.00  0.00     0.062 H 
ENDBRANCH  31  34
ENDBRANCH  30  31
ENDBRANCH   4  30
TORSDOF 6
ENDMDL
MODEL 6
REMARK VINA RESULT:      -7.2      4.310      6.514
REMARK  6 active torsions:
REMARK  status: ('A' for Active; 'I' for Inactive)
REMARK    1  A    between atoms: C_4  and  C_7 
REMARK    2  A    between atoms: C_12  and  C_13 
REMARK    3  A    between atoms: C_16  and  O_20 
REMARK    4  A    between atoms: C_18  and  O_19 
REMARK    5  A    between atoms: O_20  and  C_21 
REMARK    6  A    between atoms: C_21  and  C_22 
ROOT
ATOM      1  C   LIG d   1       5.245  -3.733  -6.319  0.00  0.00     0.044 A 
ATOM      2  C   LIG d   1       6.612  -3.699  -6.048  0.00  0.00    -0.045 A 
ATOM      3  C   LIG d   1       7.257  -4.835  -5.607  0.00  0.00    -0.019 A 
ATOM      4  C   LIG d   1       6.548  -6.017  -5.432  0.00  0.00     0.124 A 
ATOM      5  C   LIG d   1       5.187  -6.061  -5.700  0.00  0.00     0.022 A 
ATOM      6  C   LIG d   1       4.531  -4.923  -6.137  0.00  0.00     0.130 A 
ATOM      7  H   LIG d   1       7.167  -2.781  -6.183  0.00  0.00     0.063 H 
ATOM      8  H   LIG d   1       8.315  -4.807  -5.397  0.00  0.00     0.065 H 
ATOM      9  H   LIG d   1       4.639  -6.982  -5.564  0.00  0.00     0.069 H 
ENDROOT
BRANCH   1  10
ATOM     10  C   LIG d   1       4.550  -2.514  -6.793  0.00  0.00     0.104 A 
ATOM     11  C   LIG d   1       4.171  -1.405  -5.994  0.00  0.00     0.027 A 
ATOM     12  C   LIG d   1       3.566  -0.499  -6.812  0.00  0.00     0.031 A 
ATOM     13  N   LIG d   1       3.556  -1.010  -8.060  0.00  0.00    -0.283 N 
ATOM     14  H   LIG d   1       3.164   0.459  -6.515  0.00  0.00     0.083 H 
ATOM     15  H   LIG d   1       3.187  -0.580  -8.847  0.00  0.00     0.188 HD
ATOM     16  N   LIG d   1       4.171  -2.268  -8.028  0.00  0.00    -0.173 NA
BRANCH  11  17
ATOM     17  C   LIG d   1       4.399  -1.255  -4.536  0.00  0.00    -0.014 A 
ATOM     18  C   LIG d   1       3.753  -2.100  -3.636  0.00  0.00    -0.054 A 
ATOM     19  C   LIG d   1       3.969  -1.959  -2.281  0.00  0.00    -0.061 A 
ATOM     20  H   LIG d   1       3.083  -2.867  -3.999  0.00  0.00     0.062 H 
ATOM     21  C   LIG d   1       4.827  -0.978  -1.814  0.00  0.00    -0.062 A 
ATOM     22  H   LIG d   1       3.469  -2.612  -1.583  0.00  0.00     0.062 H 
ATOM     23  C   LIG d   1       5.472  -0.136  -2.703  0.00  0.00    -0.061 A 
ATOM     24  H   LIG d   1       4.991  -0.868  -0.753  0.00  0.00     0.062 H 
ATOM     25  C   LIG d   1       5.263  -0.270  -4.060  0.00  0.00    -0.054 A 
ATOM     26  H   LIG d   1       6.141   0.627  -2.334  0.00  0.00     0.062 H 
ATOM     27  H   LIG d   1       5.766   0.388  -4.753  0.00  0.00     0.062 H 
ENDBRANCH  11  17
ENDBRANCH   1  10
BRANCH   6  28
ATOM     28  O   LIG d   1       3.198  -4.962  -6.394  0.00  0.00    -0.506 OA
ATOM     29  H   LIG d   1       2.647  -5.044  -5.604  0.00  0.00     0.292 HD
ENDBRANCH   6  28
BRANCH   4  30
ATOM     30  O   LIG d   1       7.188  -7.134  -4.998  0.00  0.00    -0.487 OA
BRANCH  30  31
ATOM     31  C   LIG d   1       6.591  -8.391  -5.323  0.00  0.00     0.117 C 
ATOM     32  H   LIG d   1       5.646  -8.224  -5.839  0.00  0.00     0.075 H 
ATOM     33  H   LIG d   1       7.263  -8.956  -5.969  0.00  0.00     0.075 H 
BRANCH  31  34
ATOM     34  C   LIG d   1       6.341  -9.170  -4.058  0.00  0.00     0.025 A 
ATOM     35  C   LIG d   1       5.129  -9.813  -3.868  0.00  0.00     0.130 A 
ATOM     36  C   LIG d   1       4.903 -10.532  -2.707  0.00  0.00    -0.026 A 
ATOM     37  F   LIG d   1       4.170  -9.742  -4.817  0.00  0.00    -0.205 F 
ATOM     38  C   LIG d   1       5.881 -10.600  -1.734  0.00  0.00    -0.059 A 
ATOM     39  H   LIG d   1       3.959 -11.037  -2.559  0.00  0.00     0.065 H 
ATOM     40  C   LIG d   1       7.089  -9.953  -1.921  0.00  0.00    -0.061 A 
ATOM     41  H   LIG d   1       5.704 -11.158  -0.827  0.00  0.00     0.062 H 
ATOM     42  C   LIG d   1       7.319  -9.239  -3.082  0.00  0.00    -0.053 A 
ATOM     43  H   LIG d   1       7.854 -10.006  -1.161  0.00  0.00     0.062 H 
ATOM     44  H   LIG d   1       8.262  -8.734  -3.229  0.00  0.00     0.062 H 
ENDBRANCH  31  34
ENDBRANCH  30  31
ENDBRANCH   4  30
TORSDOF 6
ENDMDL
MODEL 7
REMARK VINA RESULT:      -7.0      7.046     10.234
REMARK  6 active torsions:
REMARK  status: ('A' for Active; 'I' for Inactive)
REMARK    1  A    between atoms: C_4  and  C_7 
REMARK    2  A    between atoms: C_12  and  C_13 
REMARK    3  A    between atoms: C_16  and  O_20 
REMARK    4  A    between atoms: C_18  and  O_19 
REMARK    5  A    between atoms: O_20  and  C_21 
REMARK    6  A    between atoms: C_21  and  C_22 
ROOT
ATOM      1  C   LIG d   1      11.353   3.876  -3.954  0.00  0.00     0.044 A 
ATOM      2  C   LIG d   1      10.280   4.616  -4.447  0.00  0.00    -0.045 A 
ATOM      3  C   LIG d   1       9.033   4.036  -4.554  0.00  0.00    -0.019 A 
ATOM      4  C   LIG d   1       8.843   2.714  -4.170  0.00  0.00     0.124 A 
ATOM      5  C   LIG d   1       9.905   1.970  -3.678  0.00  0.00     0.022 A 
ATOM      6  C   LIG d   1      11.161   2.543  -3.575  0.00  0.00     0.130 A 
ATOM      7  H   LIG d   1      10.425   5.644  -4.745  0.00  0.00     0.063 H 
ATOM      8  H   LIG d   1       8.203   4.611  -4.935  0.00  0.00     0.065 H 
ATOM      9  H   LIG d   1       9.753   0.943  -3.380  0.00  0.00     0.069 H 
ENDROOT
BRANCH   1  10
ATOM     10  C   LIG d   1      12.694   4.496  -3.839  0.00  0.00     0.104 A 
ATOM     11  C   LIG d   1      13.090   5.457  -2.873  0.00  0.00     0.027 A 
ATOM     12  C   LIG d   1      14.397   5.759  -3.110  0.00  0.00     0.031 A 
ATOM     13  N   LIG d   1      14.804   5.036  -4.173  0.00  0.00    -0.283 N 
ATOM     14  H   LIG d   1      15.000   6.457  -2.548  0.00  0.00     0.083 H 
ATOM     15  H   LIG d   1      15.692   5.051  -4.564  0.00  0.00     0.188 HD
ATOM     16  N   LIG d   1      13.728   4.256  -4.616  0.00  0.00    -0.173 NA
BRANCH  11  17
ATOM     17  C   LIG d   1      12.239   6.021  -1.798  0.00  0.00    -0.014 A 
ATOM     18  C   LIG d   1      11.574   7.230  -1.993  0.00  0.00    -0.054 A 
ATOM     19  C   LIG d   1      10.782   7.750  -0.990  0.00  0.00    -0.061 A 
ATOM     20  H   LIG d   1      11.677   7.759  -2.930  0.00  0.00     0.062 H 
ATOM     21  C   LIG d   1      10.648   7.073   0.209  0.00  0.00    -0.062 A 
ATOM     22  H   LIG d   1      10.267   8.687  -1.141  0.00  0.00     0.062 H 
ATOM     23  C   LIG d   1      11.306   5.872   0.409  0.00  0.00    -0.061 A 
ATOM     24  H   LIG d   1      10.030   7.486   0.993  0.00  0.00     0.062 H 
ATOM     25  C   LIG d   1      12.100   5.343  -0.588  0.00  0.00    -0.054 A 
ATOM     26  H   LIG d   1      11.197   5.349   1.346  0.00  0.00     0.062 H 
ATOM     27  H   LIG d   1      12.613   4.406  -0.430  0.00  0.00     0.062 H 
ENDBRANCH  11  17
ENDBRANCH   1  10
BRANCH   6  28
ATOM     28  O   LIG d   1      12.204   1.814  -3.099  0.00  0.00    -0.506 OA
ATOM     29  H   LIG d   1      12.119   1.564  -2.169  0.00  0.00     0.292 HD
ENDBRANCH   6  28
BRANCH   4  30
ATOM     30  O   LIG d   1       7.612   2.149  -4.277  0.00  0.00    -0.487 OA
BRANCH  30  31
ATOM     31  C   LIG d   1       7.548   0.722  -4.227  0.00  0.00     0.117 C 
ATOM     32  H   LIG d   1       7.426   0.327  -5.235  0.00  0.00     0.075 H 
ATOM     33  H   LIG d   1       8.469   0.332  -3.792  0.00  0.00     0.075 H 
BRANCH  31  34
ATOM     34  C   LIG d   1       6.376   0.301  -3.378  0.00  0.00     0.025 A 
ATOM     35  C   LIG d   1       6.068  -1.041  -3.238  0.00  0.00     0.130 A 
ATOM     36  C   LIG d   1       4.994  -1.426  -2.454  0.00  0.00    -0.026 A 
ATOM     37  F   LIG d   1       6.819  -1.976  -3.863  0.00  0.00    -0.205 F 
ATOM     38  C   LIG d   1       4.224  -0.471  -1.820  0.00  0.00    -0.059 A 
ATOM     39  H   LIG d   1       4.755  -2.474  -2.342  0.00  0.00     0.065 H 
ATOM     40  C   LIG d   1       4.529   0.870  -1.964  0.00  0.00    -0.061 A 
ATOM     41  H   LIG d   1       3.384  -0.770  -1.212  0.00  0.00     0.062 H 
ATOM     42  C   LIG d   1       5.604   1.256  -2.743  0.00  0.00    -0.053 A 
ATOM     43  H   LIG d   1       3.927   1.617  -1.469  0.00  0.00     0.062 H 
ATOM     44  H   LIG d   1       5.842   2.303  -2.855  0.00  0.00     0.062 H 
ENDBRANCH  31  34
ENDBRANCH  30  31
ENDBRANCH   4  30
TORSDOF 6
ENDMDL
MODEL 8
REMARK VINA RESULT:      -6.8      3.894      4.946
REMARK  6 active torsions:
REMARK  status: ('A' for Active; 'I' for Inactive)
REMARK    1  A    between atoms: C_4  and  C_7 
REMARK    2  A    between atoms: C_12  and  C_13 
REMARK    3  A    between atoms: C_16  and  O_20 
REMARK    4  A    between atoms: C_18  and  O_19 
REMARK    5  A    between atoms: O_20  and  C_21 
REMARK    6  A    between atoms: C_21  and  C_22 
ROOT
ATOM      1  C   LIG d   1       5.889  -0.583  -5.588  0.00  0.00     0.044 A 
ATOM      2  C   LIG d   1       7.047  -0.010  -6.111  0.00  0.00    -0.045 A 
ATOM      3  C   LIG d   1       7.791   0.863  -5.345  0.00  0.00    -0.019 A 
ATOM      4  C   LIG d   1       7.390   1.173  -4.051  0.00  0.00     0.124 A 
ATOM      5  C   LIG d   1       6.240   0.606  -3.523  0.00  0.00     0.022 A 
ATOM      6  C   LIG d   1       5.483  -0.266  -4.287  0.00  0.00     0.130 A 
ATOM      7  H   LIG d   1       7.361  -0.249  -7.116  0.00  0.00     0.063 H 
ATOM      8  H   LIG d   1       8.687   1.306  -5.752  0.00  0.00     0.065 H 
ATOM      9  H   LIG d   1       5.932   0.849  -2.516  0.00  0.00     0.069 H 
ENDROOT
BRANCH   1  10
ATOM     10  C   LIG d   1       5.087  -1.521  -6.409  0.00  0.00     0.104 A 
ATOM     11  C   LIG d   1       4.321  -1.184  -7.554  0.00  0.00     0.027 A 
ATOM     12  C   LIG d   1       3.748  -2.331  -8.014  0.00  0.00     0.031 A 
ATOM     13  N   LIG d   1       4.124  -3.337  -7.200  0.00  0.00    -0.283 N 
ATOM     14  H   LIG d   1       3.104  -2.418  -8.877  0.00  0.00     0.083 H 
ATOM     15  H   LIG d   1       3.863  -4.268  -7.289  0.00  0.00     0.188 HD
ATOM     16  N   LIG d   1       4.956  -2.813  -6.203  0.00  0.00    -0.173 NA
BRANCH  11  17
ATOM     17  C   LIG d   1       4.179   0.168  -8.146  0.00  0.00    -0.014 A 
ATOM     18  C   LIG d   1       5.171   0.674  -8.984  0.00  0.00    -0.054 A 
ATOM     19  C   LIG d   1       5.033   1.932  -9.534  0.00  0.00    -0.061 A 
ATOM     20  H   LIG d   1       6.048   0.081  -9.203  0.00  0.00     0.062 H 
ATOM     21  C   LIG d   1       3.911   2.691  -9.255  0.00  0.00    -0.062 A 
ATOM     22  H   LIG d   1       5.801   2.324 -10.182  0.00  0.00     0.062 H 
ATOM     23  C   LIG d   1       2.922   2.195  -8.424  0.00  0.00    -0.061 A 
ATOM     24  H   LIG d   1       3.809   3.677  -9.684  0.00  0.00     0.062 H 
ATOM     25  C   LIG d   1       3.050   0.938  -7.869  0.00  0.00    -0.054 A 
ATOM     26  H   LIG d   1       2.049   2.792  -8.210  0.00  0.00     0.062 H 
ATOM     27  H   LIG d   1       2.278   0.552  -7.221  0.00  0.00     0.062 H 
ENDBRANCH  11  17
ENDBRANCH   1  10
BRANCH   6  28
ATOM     28  O   LIG d   1       4.353  -0.817  -3.773  0.00  0.00    -0.506 OA
ATOM     29  H   LIG d   1       3.761  -0.179  -3.352  0.00  0.00     0.292 HD
ENDBRANCH   6  28
BRANCH   4  30
ATOM     30  O   LIG d   1       8.128   2.032  -3.301  0.00  0.00    -0.487 OA
BRANCH  30  31
ATOM     31  C   LIG d   1       9.442   2.340  -3.771  0.00  0.00     0.117 C 
ATOM     32  H   LIG d   1      10.181   1.888  -3.109  0.00  0.00     0.075 H 
ATOM     33  H   LIG d   1       9.568   1.945  -4.780  0.00  0.00     0.075 H 
BRANCH  31  34
ATOM     34  C   LIG d   1       9.632   3.834  -3.790  0.00  0.00     0.025 A 
ATOM     35  C   LIG d   1      10.305   4.460  -2.754  0.00  0.00     0.130 A 
ATOM     36  C   LIG d   1      10.483   5.833  -2.776  0.00  0.00    -0.026 A 
ATOM     37  F   LIG d   1      10.792   3.731  -1.726  0.00  0.00    -0.205 F 
ATOM     38  C   LIG d   1       9.980   6.579  -3.824  0.00  0.00    -0.059 A 
ATOM     39  H   LIG d   1      11.011   6.322  -1.970  0.00  0.00     0.065 H 
ATOM     40  C   LIG d   1       9.304   5.954  -4.856  0.00  0.00    -0.061 A 
ATOM     41  H   LIG d   1      10.116   7.650  -3.839  0.00  0.00     0.062 H 
ATOM     42  C   LIG d   1       9.130   4.582  -4.839  0.00  0.00    -0.053 A 
ATOM     43  H   LIG d   1       8.911   6.536  -5.675  0.00  0.00     0.062 H 
ATOM     44  H   LIG d   1       8.602   4.094  -5.644  0.00  0.00     0.062 H 
ENDBRANCH  31  34
ENDBRANCH  30  31
ENDBRANCH   4  30
TORSDOF 6
ENDMDL
MODEL 9
REMARK VINA RESULT:      -6.8      6.694      8.827
REMARK  6 active torsions:
REMARK  status: ('A' for Active; 'I' for Inactive)
REMARK    1  A    between atoms: C_4  and  C_7 
REMARK    2  A    between atoms: C_12  and  C_13 
REMARK    3  A    between atoms: C_16  and  O_20 
REMARK    4  A    between atoms: C_18  and  O_19 
REMARK    5  A    between atoms: O_20  and  C_21 
REMARK    6  A    between atoms: C_21  and  C_22 
ROOT
ATOM      1  C   LIG d   1      10.620   3.294  -4.660  0.00  0.00     0.044 A 
ATOM      2  C   LIG d   1       9.873   3.112  -5.823  0.00  0.00    -0.045 A 
ATOM      3  C   LIG d   1       8.655   2.467  -5.767  0.00  0.00    -0.019 A 
ATOM      4  C   LIG d   1       8.169   1.998  -4.553  0.00  0.00     0.124 A 
ATOM      5  C   LIG d   1       8.906   2.175  -3.391  0.00  0.00     0.022 A 
ATOM      6  C   LIG d   1      10.132   2.815  -3.440  0.00  0.00     0.130 A 
ATOM      7  H   LIG d   1      10.249   3.476  -6.768  0.00  0.00     0.063 H 
ATOM      8  H   LIG d   1       8.078   2.327  -6.668  0.00  0.00     0.065 H 
ATOM      9  H   LIG d   1       8.524   1.809  -2.449  0.00  0.00     0.069 H 
ENDROOT
BRANCH   1  10
ATOM     10  C   LIG d   1      11.930   3.985  -4.718  0.00  0.00     0.104 A 
ATOM     11  C   LIG d   1      12.156   5.308  -5.178  0.00  0.00     0.027 A 
ATOM     12  C   LIG d   1      13.489   5.559  -5.059  0.00  0.00     0.031 A 
ATOM     13  N   LIG d   1      14.076   4.454  -4.557  0.00  0.00    -0.283 N 
ATOM     14  H   LIG d   1      13.989   6.480  -5.321  0.00  0.00     0.083 H 
ATOM     15  H   LIG d   1      15.022   4.349  -4.368  0.00  0.00     0.188 HD
ATOM     16  N   LIG d   1      13.089   3.482  -4.354  0.00  0.00    -0.173 NA
BRANCH  11  17
ATOM     17  C   LIG d   1      11.127   6.247  -5.688  0.00  0.00    -0.014 A 
ATOM     18  C   LIG d   1      10.991   6.458  -7.059  0.00  0.00    -0.054 A 
ATOM     19  C   LIG d   1      10.032   7.332  -7.529  0.00  0.00    -0.061 A 
ATOM     20  H   LIG d   1      11.635   5.938  -7.754  0.00  0.00     0.062 H 
ATOM     21  C   LIG d   1       9.206   7.998  -6.641  0.00  0.00    -0.062 A 
ATOM     22  H   LIG d   1       9.925   7.496  -8.590  0.00  0.00     0.062 H 
ATOM     23  C   LIG d   1       9.337   7.792  -5.279  0.00  0.00    -0.061 A 
ATOM     24  H   LIG d   1       8.459   8.684  -7.012  0.00  0.00     0.062 H 
ATOM     25  C   LIG d   1      10.292   6.921  -4.799  0.00  0.00    -0.054 A 
ATOM     26  H   LIG d   1       8.690   8.315  -4.591  0.00  0.00     0.062 H 
ATOM     27  H   LIG d   1      10.394   6.761  -3.735  0.00  0.00     0.062 H 
ENDBRANCH  11  17
ENDBRANCH   1  10
BRANCH   6  28
ATOM     28  O   LIG d   1      10.858   2.984  -2.304  0.00  0.00    -0.506 OA
ATOM     29  H   LIG d   1      10.801   2.242  -1.686  0.00  0.00     0.292 HD
ENDBRANCH   6  28
BRANCH   4  30
ATOM     30  O   LIG d   1       6.969   1.364  -4.503  0.00  0.00    -0.487 OA
BRANCH  30  31
ATOM     31  C   LIG d   1       6.341   1.263  -3.223  0.00  0.00     0.117 C 
ATOM     32  H   LIG d   1       7.099   1.306  -2.442  0.00  0.00     0.075 H 
ATOM     33  H   LIG d   1       5.640   2.088  -3.096  0.00  0.00     0.075 H 
BRANCH  31  34
ATOM     34  C   LIG d   1       5.598  -0.044  -3.130  0.00  0.00     0.025 A 
ATOM     35  C   LIG d   1       4.563  -0.190  -2.222  0.00  0.00     0.130 A 
ATOM     36  C   LIG d   1       3.878  -1.391  -2.141  0.00  0.00    -0.026 A 
ATOM     37  F   LIG d   1       4.218   0.841  -1.419  0.00  0.00    -0.205 F 
ATOM     38  C   LIG d   1       4.234  -2.446  -2.959  0.00  0.00    -0.059 A 
ATOM     39  H   LIG d   1       3.068  -1.504  -1.435  0.00  0.00     0.065 H 
ATOM     40  C   LIG d   1       5.271  -2.301  -3.862  0.00  0.00    -0.061 A 
ATOM     41  H   LIG d   1       3.703  -3.383  -2.894  0.00  0.00     0.062 H 
ATOM     42  C   LIG d   1       5.953  -1.102  -3.947  0.00  0.00    -0.053 A 
ATOM     43  H   LIG d   1       5.550  -3.126  -4.501  0.00  0.00     0.062 H 
ATOM     44  H   LIG d   1       6.763  -0.989  -4.653  0.00  0.00     0.062 H 
ENDBRANCH  31  34
ENDBRANCH  30  31
ENDBRANCH   4  30
TORSDOF 6
ENDMDL
MODEL 10
REMARK VINA RESULT:      -6.7      4.747      7.507
REMARK  6 active torsions:
REMARK  status: ('A' for Active; 'I' for Inactive)
REMARK    1  A    between atoms: C_4  and  C_7 
REMARK    2  A    between atoms: C_12  and  C_13 
REMARK    3  A    between atoms: C_16  and  O_20 
REMARK    4  A    between atoms: C_18  and  O_19 
REMARK    5  A    between atoms: O_20  and  C_21 
REMARK    6  A    between atoms: C_21  and  C_22 
ROOT
ATOM      1  C   LIG d   1       6.291  -6.990  -6.130  0.00  0.00     0.044 A 
ATOM      2  C   LIG d   1       7.184  -5.993  -5.741  0.00  0.00    -0.045 A 
ATOM      3  C   LIG d   1       6.709  -4.778  -5.295  0.00  0.00    -0.019 A 
ATOM      4  C   LIG d   1       5.341  -4.544  -5.230  0.00  0.00     0.124 A 
ATOM      5  C   LIG d   1       4.445  -5.531  -5.613  0.00  0.00     0.022 A 
ATOM      6  C   LIG d   1       4.913  -6.751  -6.069  0.00  0.00     0.130 A 
ATOM      7  H   LIG d   1       8.248  -6.172  -5.791  0.00  0.00     0.063 H 
ATOM      8  H   LIG d   1       7.402  -4.006  -4.995  0.00  0.00     0.065 H 
ATOM      9  H   LIG d   1       3.382  -5.346  -5.560  0.00  0.00     0.069 H 
ENDROOT
BRANCH   1  10
ATOM     10  C   LIG d   1       6.798  -8.297  -6.610  0.00  0.00     0.104 A 
ATOM     11  C   LIG d   1       7.259  -9.364  -5.797  0.00  0.00     0.027 A 
ATOM     12  C   LIG d   1       7.627 -10.380  -6.627  0.00  0.00     0.031 A 
ATOM     13  N   LIG d   1       7.419  -9.975  -7.896  0.00  0.00    -0.283 N 
ATOM     14  H   LIG d   1       8.020 -11.340  -6.323  0.00  0.00     0.083 H 
ATOM     15  H   LIG d   1       7.594 -10.497  -8.695  0.00  0.00     0.188 HD
ATOM     16  N   LIG d   1       6.904  -8.673  -7.866  0.00  0.00    -0.173 NA
BRANCH  11  17
ATOM     17  C   LIG d   1       7.320  -9.375  -4.316  0.00  0.00    -0.014 A 
ATOM     18  C   LIG d   1       6.304  -9.978  -3.577  0.00  0.00    -0.054 A 
ATOM     19  C   LIG d   1       6.366  -9.987  -2.199  0.00  0.00    -0.061 A 
ATOM     20  H   LIG d   1       5.468 -10.440  -4.084  0.00  0.00     0.062 H 
ATOM     21  C   LIG d   1       7.436  -9.398  -1.550  0.00  0.00    -0.062 A 
ATOM     22  H   LIG d   1       5.579 -10.454  -1.626  0.00  0.00     0.062 H 
ATOM     23  C   LIG d   1       8.448  -8.797  -2.277  0.00  0.00    -0.061 A 
ATOM     24  H   LIG d   1       7.479  -9.403  -0.470  0.00  0.00     0.062 H 
ATOM     25  C   LIG d   1       8.396  -8.783  -3.656  0.00  0.00    -0.054 A 
ATOM     26  H   LIG d   1       9.280  -8.339  -1.765  0.00  0.00     0.062 H 
ATOM     27  H   LIG d   1       9.186  -8.314  -4.223  0.00  0.00     0.062 H 
ENDBRANCH  11  17
ENDBRANCH   1  10
BRANCH   6  28
ATOM     28  O   LIG d   1       4.038  -7.717  -6.451  0.00  0.00    -0.506 OA
ATOM     29  H   LIG d   1       3.273  -7.809  -5.866  0.00  0.00     0.292 HD
ENDBRANCH   6  28
BRANCH   4  30
ATOM     30  O   LIG d   1       4.879  -3.345  -4.788  0.00  0.00    -0.487 OA
BRANCH  30  31
ATOM     31  C   LIG d   1       5.740  -2.595  -3.928  0.00  0.00     0.117 C 
ATOM     32  H   LIG d   1       6.078  -3.229  -3.108  0.00  0.00     0.075 H 
ATOM     33  H   LIG d   1       6.602  -2.243  -4.495  0.00  0.00     0.075 H 
BRANCH  31  34
ATOM     34  C   LIG d   1       4.989  -1.414  -3.372  0.00  0.00     0.025 A 
ATOM     35  C   LIG d   1       5.679  -0.291  -2.947  0.00  0.00     0.130 A 
ATOM     36  C   LIG d   1       4.986   0.796  -2.441  0.00  0.00    -0.026 A 
ATOM     37  F   LIG d   1       7.027  -0.254  -3.032  0.00  0.00    -0.205 F 
ATOM     38  C   LIG d   1       3.609   0.755  -2.349  0.00  0.00    -0.059 A 
ATOM     39  H   LIG d   1       5.524   1.674  -2.113  0.00  0.00     0.065 H 
ATOM     40  C   LIG d   1       2.920  -0.368  -2.767  0.00  0.00    -0.061 A 
ATOM     41  H   LIG d   1       3.069   1.601  -1.951  0.00  0.00     0.062 H 
ATOM     42  C   LIG d   1       3.609  -1.452  -3.278  0.00  0.00    -0.053 A 
ATOM     43  H   LIG d   1       1.844  -0.399  -2.696  0.00  0.00     0.062 H 
ATOM     44  H   LIG d   1       3.072  -2.329  -3.606  0.00  0.00     0.062 H 
ENDBRANCH  31  34
ENDBRANCH  30  31
ENDBRANCH   4  30
TORSDOF 6
ENDMDL
