MODEL 1
REMARK VINA RESULT:      -6.7      0.000      0.000
REMARK  7 active torsions:
REMARK  status: ('A' for Active; 'I' for Inactive)
REMARK    1  A    between atoms: C_1  and  C_2 
REMARK    2  A    between atoms: C_3  and  C_24 
REMARK    3  A    between atoms: N_14  and  C_17 
REMARK    4  A    between atoms: C_17  and  C_18 
REMARK    5  A    between atoms: C_18  and  C_19 
REMARK    6  A    between atoms: C_27  and  O_30 
REMARK    7  A    between atoms: O_30  and  C_31 
ROOT
ATOM      1  C   LIG d   1      10.576   6.490  -0.960  0.00  0.00     0.114 A 
ATOM      2  C   LIG d   1      10.880   7.759  -1.330  0.00  0.00     0.067 A 
ATOM      3  C   LIG d   1      10.803   8.113  -2.759  0.00  0.00     0.200 A 
ATOM      4  O   LIG d   1      11.063   9.235  -3.160  0.00  0.00    -0.286 OA
ATOM      5  C   LIG d   1      10.394   7.033  -3.676  0.00  0.00     0.065 A 
ATOM      6  C   LIG d   1      10.289   7.256  -5.050  0.00  0.00    -0.044 A 
ATOM      7  C   LIG d   1       9.907   6.238  -5.874  0.00  0.00    -0.019 A 
ATOM      8  C   LIG d   1       9.623   4.975  -5.352  0.00  0.00     0.130 A 
ATOM      9  C   LIG d   1       9.724   4.740  -3.993  0.00  0.00     0.051 A 
ATOM     10  C   LIG d   1      10.112   5.768  -3.137  0.00  0.00     0.147 A 
ATOM     11  O   LIG d   1      10.209   5.540  -1.816  0.00  0.00    -0.459 OA
ATOM     12  C   LIG d   1       9.422   3.380  -3.418  0.00  0.00     0.034 C 
ATOM     13  N   LIG d   1       8.657   2.591  -4.393  0.00  0.00    -0.266 N 
ATOM     14  C   LIG d   1       9.310   2.643  -5.712  0.00  0.00     0.144 C 
ATOM     15  O   LIG d   1       9.241   3.984  -6.201  0.00  0.00    -0.476 OA
ATOM     16  H   LIG d   1      10.508   8.232  -5.459  0.00  0.00     0.063 H 
ATOM     17  H   LIG d   1       9.825   6.410  -6.937  0.00  0.00     0.065 H 
ATOM     18  H   LIG d   1      10.365   2.861  -3.188  0.00  0.00     0.048 H 
ATOM     19  H   LIG d   1       8.833   3.495  -2.497  0.00  0.00     0.048 H 
ATOM     20  H   LIG d   1      10.361   2.334  -5.613  0.00  0.00     0.087 H 
ATOM     21  H   LIG d   1       8.792   1.964  -6.405  0.00  0.00     0.087 H 
ENDROOT
BRANCH   2  22
ATOM     22  C   LIG d   1      11.282   8.769  -0.320  0.00  0.00    -0.011 A 
ATOM     23  C   LIG d   1      12.584   8.781   0.178  0.00  0.00    -0.050 A 
ATOM     24  C   LIG d   1      12.954   9.720   1.118  0.00  0.00    -0.019 A 
ATOM     25  H   LIG d   1      13.303   8.053  -0.172  0.00  0.00     0.062 H 
ATOM     26  C   LIG d   1      12.030  10.654   1.567  0.00  0.00     0.120 A 
ATOM     27  H   LIG d   1      13.962   9.729   1.503  0.00  0.00     0.065 H 
ATOM     28  C   LIG d   1      10.734  10.646   1.073  0.00  0.00    -0.019 A 
ATOM     29  C   LIG d   1      10.359   9.712   0.130  0.00  0.00    -0.050 A 
ATOM     30  H   LIG d   1      10.017  11.375   1.424  0.00  0.00     0.065 H 
ATOM     31  H   LIG d   1       9.351   9.709  -0.258  0.00  0.00     0.062 H 
BRANCH  26  32
ATOM     32  O   LIG d   1      12.399  11.579   2.492  0.00  0.00    -0.495 OA
BRANCH  32  33
ATOM     33  C   LIG d   1      12.912  11.088   3.732  0.00  0.00     0.079 C 
ATOM     34  H   LIG d   1      13.930  10.702   3.581  0.00  0.00     0.066 H 
ATOM     35  H   LIG d   1      12.264  10.279   4.102  0.00  0.00     0.066 H 
ATOM     36  H   LIG d   1      12.935  11.905   4.469  0.00  0.00     0.066 H 
ENDBRANCH  32  33
ENDBRANCH  26  32
ENDBRANCH   2  22
BRANCH   1  37
ATOM     37  C   LIG d   1      10.657   6.138   0.503  0.00  0.00    -0.006 C 
ATOM     38  H   LIG d   1      10.018   6.821   1.081  0.00  0.00     0.031 H 
ATOM     39  H   LIG d   1      11.699   6.233   0.845  0.00  0.00     0.031 H 
ATOM     40  H   LIG d   1      10.315   5.103   0.651  0.00  0.00     0.031 H 
ENDBRANCH   1  37
BRANCH  13  41
ATOM     41  C   LIG d   1       8.499   1.203  -3.939  0.00  0.00     0.007 C 
ATOM     42  H   LIG d   1       9.393   0.623  -4.213  0.00  0.00     0.043 H 
ATOM     43  H   LIG d   1       8.373   1.187  -2.846  0.00  0.00     0.043 H 
BRANCH  41  44
ATOM     44  C   LIG d   1       7.266   0.586  -4.604  0.00  0.00    -0.009 C 
ATOM     45  H   LIG d   1       6.875   1.278  -5.364  0.00  0.00     0.033 H 
ATOM     46  H   LIG d   1       7.545  -0.364  -5.082  0.00  0.00     0.033 H 
BRANCH  44  47
ATOM     47  C   LIG d   1       6.207   0.333  -3.562  0.00  0.00    -0.009 A 
ATOM     48  S   LIG d   1       5.453  -1.211  -3.077  0.00  0.00    -0.102 SA
ATOM     49  C   LIG d   1       4.354  -0.571  -1.825  0.00  0.00    -0.024 A 
ATOM     50  C   LIG d   1       4.626   0.756  -1.863  0.00  0.00    -0.054 A 
ATOM     51  H   LIG d   1       3.651  -1.104  -1.200  0.00  0.00     0.069 H 
ATOM     52  C   LIG d   1       5.576   1.220  -2.754  0.00  0.00    -0.051 A 
ATOM     53  H   LIG d   1       4.108   1.441  -1.209  0.00  0.00     0.062 H 
ATOM     54  H   LIG d   1       5.812   2.272  -2.805  0.00  0.00     0.063 H 
ENDBRANCH  44  47
ENDBRANCH  41  44
ENDBRANCH  13  41
TORSDOF 7
ENDMDL
MODEL 2
REMARK VINA RESULT:      -6.5     14.415     18.307
REMARK  7 active torsions:
REMARK  status: ('A' for Active; 'I' for Inactive)
REMARK    1  A    between atoms: C_1  and  C_2 
REMARK    2  A    between atoms: C_3  and  C_24 
REMARK    3  A    between atoms: N_14  and  C_17 
REMARK    4  A    between atoms: C_17  and  C_18 
REMARK    5  A    between atoms: C_18  and  C_19 
REMARK    6  A    between atoms: C_27  and  O_30 
REMARK    7  A    between atoms: O_30  and  C_31 
ROOT
ATOM      1  C   LIG d   1       7.574 -11.009  -1.238  0.00  0.00     0.114 A 
ATOM      2  C   LIG d   1       7.168 -10.294  -2.317  0.00  0.00     0.067 A 
ATOM      3  C   LIG d   1       7.938  -9.096  -2.697  0.00  0.00     0.200 A 
ATOM      4  O   LIG d   1       7.628  -8.409  -3.655  0.00  0.00    -0.286 OA
ATOM      5  C   LIG d   1       9.104  -8.776  -1.854  0.00  0.00     0.065 A 
ATOM      6  C   LIG d   1       9.904  -7.664  -2.121  0.00  0.00    -0.044 A 
ATOM      7  C   LIG d   1      10.977  -7.394  -1.324  0.00  0.00    -0.019 A 
ATOM      8  C   LIG d   1      11.279  -8.222  -0.241  0.00  0.00     0.130 A 
ATOM      9  C   LIG d   1      10.495  -9.326   0.037  0.00  0.00     0.051 A 
ATOM     10  C   LIG d   1       9.395  -9.617  -0.768  0.00  0.00     0.147 A 
ATOM     11  O   LIG d   1       8.633 -10.692  -0.498  0.00  0.00    -0.459 OA
ATOM     12  C   LIG d   1      10.809 -10.225   1.204  0.00  0.00     0.034 C 
ATOM     13  N   LIG d   1      12.191  -9.994   1.648  0.00  0.00    -0.266 N 
ATOM     14  C   LIG d   1      12.435  -8.551   1.814  0.00  0.00     0.144 C 
ATOM     15  O   LIG d   1      12.359  -7.926   0.531  0.00  0.00    -0.476 OA
ATOM     16  H   LIG d   1       9.674  -7.021  -2.958  0.00  0.00     0.063 H 
ATOM     17  H   LIG d   1      11.596  -6.534  -1.530  0.00  0.00     0.065 H 
ATOM     18  H   LIG d   1      10.118 -10.007   2.033  0.00  0.00     0.048 H 
ATOM     19  H   LIG d   1      10.694 -11.276   0.899  0.00  0.00     0.048 H 
ATOM     20  H   LIG d   1      11.673  -8.126   2.484  0.00  0.00     0.087 H 
ATOM     21  H   LIG d   1      13.433  -8.395   2.248  0.00  0.00     0.087 H 
ENDROOT
BRANCH   2  22
ATOM     22  C   LIG d   1       5.975 -10.708  -3.097  0.00  0.00    -0.011 A 
ATOM     23  C   LIG d   1       4.704 -10.289  -2.705  0.00  0.00    -0.050 A 
ATOM     24  C   LIG d   1       3.598 -10.676  -3.432  0.00  0.00    -0.019 A 
ATOM     25  H   LIG d   1       4.586  -9.663  -1.833  0.00  0.00     0.062 H 
ATOM     26  C   LIG d   1       3.749 -11.481  -4.553  0.00  0.00     0.120 A 
ATOM     27  H   LIG d   1       2.613 -10.352  -3.130  0.00  0.00     0.065 H 
ATOM     28  C   LIG d   1       5.012 -11.899  -4.946  0.00  0.00    -0.019 A 
ATOM     29  C   LIG d   1       6.124 -11.512  -4.226  0.00  0.00    -0.050 A 
ATOM     30  H   LIG d   1       5.127 -12.525  -5.818  0.00  0.00     0.065 H 
ATOM     31  H   LIG d   1       7.107 -11.833  -4.534  0.00  0.00     0.062 H 
BRANCH  26  32
ATOM     32  O   LIG d   1       2.656 -11.860  -5.267  0.00  0.00    -0.495 OA
BRANCH  32  33
ATOM     33  C   LIG d   1       2.859 -12.830  -6.296  0.00  0.00     0.079 C 
ATOM     34  H   LIG d   1       2.169 -13.673  -6.147  0.00  0.00     0.066 H 
ATOM     35  H   LIG d   1       3.896 -13.194  -6.258  0.00  0.00     0.066 H 
ATOM     36  H   LIG d   1       2.667 -12.370  -7.278  0.00  0.00     0.066 H 
ENDBRANCH  32  33
ENDBRANCH  26  32
ENDBRANCH   2  22
BRANCH   1  37
ATOM     37  C   LIG d   1       6.780 -12.233  -0.857  0.00  0.00    -0.006 C 
ATOM     38  H   LIG d   1       6.271 -12.632  -1.746  0.00  0.00     0.031 H 
ATOM     39  H   LIG d   1       6.032 -11.961  -0.097  0.00  0.00     0.031 H 
ATOM     40  H   LIG d   1       7.458 -12.997  -0.448  0.00  0.00     0.031 H 
ENDBRANCH   1  37
BRANCH  13  41
ATOM     41  C   LIG d   1      12.473 -10.722   2.891  0.00  0.00     0.007 C 
ATOM     42  H   LIG d   1      13.219 -11.507   2.696  0.00  0.00     0.043 H 
ATOM     43  H   LIG d   1      12.866 -10.024   3.645  0.00  0.00     0.043 H 
BRANCH  41  44
ATOM     44  C   LIG d   1      11.184 -11.361   3.412  0.00  0.00    -0.009 C 
ATOM     45  H   LIG d   1      10.397 -10.595   3.482  0.00  0.00     0.033 H 
ATOM     46  H   LIG d   1      10.862 -12.153   2.720  0.00  0.00     0.033 H 
BRANCH  44  47
ATOM     47  C   LIG d   1      11.431 -11.954   4.775  0.00  0.00    -0.009 A 
ATOM     48  S   LIG d   1      12.958 -12.066   5.693  0.00  0.00    -0.102 SA
ATOM     49  C   LIG d   1      12.320 -12.886   7.144  0.00  0.00    -0.024 A 
ATOM     50  C   LIG d   1      11.008 -13.023   6.835  0.00  0.00    -0.054 A 
ATOM     51  H   LIG d   1      12.844 -13.195   8.036  0.00  0.00     0.069 H 
ATOM     52  C   LIG d   1      10.551 -12.545   5.621  0.00  0.00    -0.051 A 
ATOM     53  H   LIG d   1      10.328 -13.499   7.527  0.00  0.00     0.062 H 
ATOM     54  H   LIG d   1       9.511 -12.642   5.349  0.00  0.00     0.063 H 
ENDBRANCH  44  47
ENDBRANCH  41  44
ENDBRANCH  13  41
TORSDOF 7
ENDMDL
MODEL 3
REMARK VINA RESULT:      -6.4      5.170      8.661
REMARK  7 active torsions:
REMARK  status: ('A' for Active; 'I' for Inactive)
REMARK    1  A    between atoms: C_1  and  C_2 
REMARK    2  A    between atoms: C_3  and  C_24 
REMARK    3  A    between atoms: N_14  and  C_17 
REMARK    4  A    between atoms: C_17  and  C_18 
REMARK    5  A    between atoms: C_18  and  C_19 
REMARK    6  A    between atoms: C_27  and  O_30 
REMARK    7  A    between atoms: O_30  and  C_31 
ROOT
ATOM      1  C   LIG d   1       8.629  -0.019  -4.994  0.00  0.00     0.114 A 
ATOM      2  C   LIG d   1       8.119   1.027  -4.297  0.00  0.00     0.067 A 
ATOM      3  C   LIG d   1       6.795   0.877  -3.669  0.00  0.00     0.200 A 
ATOM      4  O   LIG d   1       6.279   1.777  -3.028  0.00  0.00    -0.286 OA
ATOM      5  C   LIG d   1       6.128  -0.425  -3.859  0.00  0.00     0.065 A 
ATOM      6  C   LIG d   1       4.870  -0.677  -3.309  0.00  0.00    -0.044 A 
ATOM      7  C   LIG d   1       4.278  -1.891  -3.501  0.00  0.00    -0.019 A 
ATOM      8  C   LIG d   1       4.922  -2.881  -4.245  0.00  0.00     0.130 A 
ATOM      9  C   LIG d   1       6.167  -2.645  -4.796  0.00  0.00     0.051 A 
ATOM     10  C   LIG d   1       6.787  -1.411  -4.610  0.00  0.00     0.147 A 
ATOM     11  O   LIG d   1       7.999  -1.181  -5.145  0.00  0.00    -0.459 OA
ATOM     12  C   LIG d   1       6.871  -3.706  -5.603  0.00  0.00     0.034 C 
ATOM     13  N   LIG d   1       6.262  -5.016  -5.334  0.00  0.00    -0.266 N 
ATOM     14  C   LIG d   1       4.798  -4.928  -5.454  0.00  0.00     0.144 C 
ATOM     15  O   LIG d   1       4.305  -4.082  -4.413  0.00  0.00    -0.476 OA
ATOM     16  H   LIG d   1       4.368   0.086  -2.732  0.00  0.00     0.063 H 
ATOM     17  H   LIG d   1       3.305  -2.087  -3.076  0.00  0.00     0.065 H 
ATOM     18  H   LIG d   1       6.779  -3.473  -6.675  0.00  0.00     0.048 H 
ATOM     19  H   LIG d   1       7.935  -3.732  -5.325  0.00  0.00     0.048 H 
ATOM     20  H   LIG d   1       4.535  -4.506  -6.435  0.00  0.00     0.087 H 
ATOM     21  H   LIG d   1       4.361  -5.933  -5.358  0.00  0.00     0.087 H 
ENDROOT
BRANCH   2  22
ATOM     22  C   LIG d   1       8.880   2.296  -4.169  0.00  0.00    -0.011 A 
ATOM     23  C   LIG d   1       8.699   3.315  -5.103  0.00  0.00    -0.050 A 
ATOM     24  C   LIG d   1       9.408   4.493  -4.981  0.00  0.00    -0.019 A 
ATOM     25  H   LIG d   1       8.006   3.183  -5.921  0.00  0.00     0.062 H 
ATOM     26  C   LIG d   1      10.298   4.663  -3.930  0.00  0.00     0.120 A 
ATOM     27  H   LIG d   1       9.268   5.282  -5.704  0.00  0.00     0.065 H 
ATOM     28  C   LIG d   1      10.479   3.650  -2.999  0.00  0.00    -0.019 A 
ATOM     29  C   LIG d   1       9.771   2.472  -3.112  0.00  0.00    -0.050 A 
ATOM     30  H   LIG d   1      11.173   3.785  -2.182  0.00  0.00     0.065 H 
ATOM     31  H   LIG d   1       9.908   1.686  -2.385  0.00  0.00     0.062 H 
BRANCH  26  32
ATOM     32  O   LIG d   1      10.994   5.825  -3.813  0.00  0.00    -0.495 OA
BRANCH  32  33
ATOM     33  C   LIG d   1      10.558   6.742  -2.808  0.00  0.00     0.079 C 
ATOM     34  H   LIG d   1      11.170   6.613  -1.904  0.00  0.00     0.066 H 
ATOM     35  H   LIG d   1       9.502   6.549  -2.568  0.00  0.00     0.066 H 
ATOM     36  H   LIG d   1      10.667   7.772  -3.181  0.00  0.00     0.066 H 
ENDBRANCH  32  33
ENDBRANCH  26  32
ENDBRANCH   2  22
BRANCH   1  37
ATOM     37  C   LIG d   1       9.984   0.144  -5.632  0.00  0.00    -0.006 C 
ATOM     38  H   LIG d   1      10.764  -0.172  -4.925  0.00  0.00     0.031 H 
ATOM     39  H   LIG d   1      10.137   1.201  -5.900  0.00  0.00     0.031 H 
ATOM     40  H   LIG d   1      10.039  -0.476  -6.540  0.00  0.00     0.031 H 
ENDBRANCH   1  37
BRANCH  13  41
ATOM     41  C   LIG d   1       6.804  -6.042  -6.234  0.00  0.00     0.007 C 
ATOM     42  H   LIG d   1       5.979  -6.526  -6.777  0.00  0.00     0.043 H 
ATOM     43  H   LIG d   1       7.492  -5.574  -6.953  0.00  0.00     0.043 H 
BRANCH  41  44
ATOM     44  C   LIG d   1       7.560  -7.090  -5.414  0.00  0.00    -0.009 C 
ATOM     45  H   LIG d   1       8.355  -7.535  -6.032  0.00  0.00     0.033 H 
ATOM     46  H   LIG d   1       8.008  -6.612  -4.531  0.00  0.00     0.033 H 
BRANCH  44  47
ATOM     47  C   LIG d   1       6.605  -8.168  -4.972  0.00  0.00    -0.009 A 
ATOM     48  S   LIG d   1       4.993  -8.578  -5.621  0.00  0.00    -0.102 SA
ATOM     49  C   LIG d   1       4.618  -9.935  -4.524  0.00  0.00    -0.024 A 
ATOM     50  C   LIG d   1       5.725  -9.980  -3.744  0.00  0.00    -0.054 A 
ATOM     51  H   LIG d   1       3.735 -10.556  -4.488  0.00  0.00     0.069 H 
ATOM     52  C   LIG d   1       6.744  -9.075  -3.974  0.00  0.00    -0.051 A 
ATOM     53  H   LIG d   1       5.810 -10.712  -2.954  0.00  0.00     0.062 H 
ATOM     54  H   LIG d   1       7.637  -9.089  -3.367  0.00  0.00     0.063 H 
ENDBRANCH  44  47
ENDBRANCH  41  44
ENDBRANCH  13  41
TORSDOF 7
ENDMDL
MODEL 4
REMARK VINA RESULT:      -6.3      1.584      1.914
REMARK  7 active torsions:
REMARK  status: ('A' for Active; 'I' for Inactive)
REMARK    1  A    between atoms: C_1  and  C_2 
REMARK    2  A    between atoms: C_3  and  C_24 
REMARK    3  A    between atoms: N_14  and  C_17 
REMARK    4  A    between atoms: C_17  and  C_18 
REMARK    5  A    between atoms: C_18  and  C_19 
REMARK    6  A    between atoms: C_27  and  O_30 
REMARK    7  A    between atoms: O_30  and  C_31 
ROOT
ATOM      1  C   LIG d   1      10.072   6.956  -2.318  0.00  0.00     0.114 A 
ATOM      2  C   LIG d   1      10.419   8.107  -2.946  0.00  0.00     0.067 A 
ATOM      3  C   LIG d   1      10.485   8.113  -4.418  0.00  0.00     0.200 A 
ATOM      4  O   LIG d   1      10.789   9.113  -5.046  0.00  0.00    -0.286 OA
ATOM      5  C   LIG d   1      10.163   6.840  -5.090  0.00  0.00     0.065 A 
ATOM      6  C   LIG d   1      10.196   6.731  -6.481  0.00  0.00    -0.044 A 
ATOM      7  C   LIG d   1       9.892   5.541  -7.074  0.00  0.00    -0.019 A 
ATOM      8  C   LIG d   1       9.551   4.431  -6.298  0.00  0.00     0.130 A 
ATOM      9  C   LIG d   1       9.516   4.525  -4.920  0.00  0.00     0.051 A 
ATOM     10  C   LIG d   1       9.822   5.732  -4.297  0.00  0.00     0.147 A 
ATOM     11  O   LIG d   1       9.787   5.824  -2.956  0.00  0.00    -0.459 OA
ATOM     12  C   LIG d   1       9.151   3.333  -4.072  0.00  0.00     0.034 C 
ATOM     13  N   LIG d   1       8.482   2.322  -4.903  0.00  0.00    -0.266 N 
ATOM     14  C   LIG d   1       9.262   2.074  -6.126  0.00  0.00     0.144 C 
ATOM     15  O   LIG d   1       9.249   3.261  -6.923  0.00  0.00    -0.476 OA
ATOM     16  H   LIG d   1      10.459   7.587  -7.086  0.00  0.00     0.063 H 
ATOM     17  H   LIG d   1       9.917   5.455  -8.150  0.00  0.00     0.065 H 
ATOM     18  H   LIG d   1      10.064   2.901  -3.634  0.00  0.00     0.048 H 
ATOM     19  H   LIG d   1       8.474   3.651  -3.265  0.00  0.00     0.048 H 
ATOM     20  H   LIG d   1      10.296   1.817  -5.855  0.00  0.00     0.087 H 
ATOM     21  H   LIG d   1       8.812   1.242  -6.686  0.00  0.00     0.087 H 
ENDROOT
BRANCH   2  22
ATOM     22  C   LIG d   1      10.723   9.334  -2.168  0.00  0.00    -0.011 A 
ATOM     23  C   LIG d   1       9.707  10.239  -1.865  0.00  0.00    -0.050 A 
ATOM     24  C   LIG d   1       9.994  11.378  -1.142  0.00  0.00    -0.019 A 
ATOM     25  H   LIG d   1       8.696  10.048  -2.196  0.00  0.00     0.062 H 
ATOM     26  C   LIG d   1      11.292  11.623  -0.717  0.00  0.00     0.120 A 
ATOM     27  H   LIG d   1       9.207  12.079  -0.906  0.00  0.00     0.065 H 
ATOM     28  C   LIG d   1      12.305  10.725  -1.017  0.00  0.00    -0.019 A 
ATOM     29  C   LIG d   1      12.025   9.581  -1.735  0.00  0.00    -0.050 A 
ATOM     30  H   LIG d   1      13.315  10.918  -0.684  0.00  0.00     0.065 H 
ATOM     31  H   LIG d   1      12.813   8.879  -1.964  0.00  0.00     0.062 H 
BRANCH  26  32
ATOM     32  O   LIG d   1      11.570  12.747  -0.004  0.00  0.00    -0.495 OA
BRANCH  32  33
ATOM     33  C   LIG d   1      10.465  13.422   0.600  0.00  0.00     0.079 C 
ATOM     34  H   LIG d   1       9.585  12.763   0.594  0.00  0.00     0.066 H 
ATOM     35  H   LIG d   1      10.241  14.338   0.035  0.00  0.00     0.066 H 
ATOM     36  H   LIG d   1      10.719  13.684   1.639  0.00  0.00     0.066 H 
ENDBRANCH  32  33
ENDBRANCH  26  32
ENDBRANCH   2  22
BRANCH   1  37
ATOM     37  C   LIG d   1      10.007   6.960  -0.812  0.00  0.00    -0.006 C 
ATOM     38  H   LIG d   1      10.745   7.671  -0.414  0.00  0.00     0.031 H 
ATOM     39  H   LIG d   1      10.227   5.950  -0.433  0.00  0.00     0.031 H 
ATOM     40  H   LIG d   1       8.998   7.260  -0.490  0.00  0.00     0.031 H 
ENDBRANCH   1  37
BRANCH  13  41
ATOM     41  C   LIG d   1       8.272   1.078  -4.151  0.00  0.00     0.007 C 
ATOM     42  H   LIG d   1       9.166   0.443  -4.236  0.00  0.00     0.043 H 
ATOM     43  H   LIG d   1       8.090   1.316  -3.092  0.00  0.00     0.043 H 
BRANCH  41  44
ATOM     44  C   LIG d   1       7.062   0.336  -4.722  0.00  0.00    -0.009 C 
ATOM     45  H   LIG d   1       6.603   0.940  -5.518  0.00  0.00     0.033 H 
ATOM     46  H   LIG d   1       7.387  -0.630  -5.136  0.00  0.00     0.033 H 
BRANCH  44  47
ATOM     47  C   LIG d   1       6.055   0.099  -3.626  0.00  0.00    -0.009 A 
ATOM     48  S   LIG d   1       5.265  -1.425  -3.135  0.00  0.00    -0.102 SA
ATOM     49  C   LIG d   1       4.268  -0.773  -1.805  0.00  0.00    -0.024 A 
ATOM     50  C   LIG d   1       4.593   0.542  -1.828  0.00  0.00    -0.054 A 
ATOM     51  H   LIG d   1       3.580  -1.292  -1.154  0.00  0.00     0.069 H 
ATOM     52  C   LIG d   1       5.509   0.990  -2.762  0.00  0.00    -0.051 A 
ATOM     53  H   LIG d   1       4.143   1.231  -1.128  0.00  0.00     0.062 H 
ATOM     54  H   LIG d   1       5.786   2.032  -2.802  0.00  0.00     0.063 H 
ENDBRANCH  44  47
ENDBRANCH  41  44
ENDBRANCH  13  41
TORSDOF 7
ENDMDL
MODEL 5
REMARK VINA RESULT:      -6.0      4.732      8.428
REMARK  7 active torsions:
REMARK  status: ('A' for Active; 'I' for Inactive)
REMARK    1  A    between atoms: C_1  and  C_2 
REMARK    2  A    between atoms: C_3  and  C_24 
REMARK    3  A    between atoms: N_14  and  C_17 
REMARK    4  A    between atoms: C_17  and  C_18 
REMARK    5  A    between atoms: C_18  and  C_19 
REMARK    6  A    between atoms: C_27  and  O_30 
REMARK    7  A    between atoms: O_30  and  C_31 
ROOT
ATOM      1  C   LIG d   1       8.686   0.016  -4.934  0.00  0.00     0.114 A 
ATOM      2  C   LIG d   1       8.137   1.061  -4.266  0.00  0.00     0.067 A 
ATOM      3  C   LIG d   1       6.797   0.892  -3.676  0.00  0.00     0.200 A 
ATOM      4  O   LIG d   1       6.245   1.790  -3.062  0.00  0.00    -0.286 OA
ATOM      5  C   LIG d   1       6.160  -0.424  -3.870  0.00  0.00     0.065 A 
ATOM      6  C   LIG d   1       4.891  -0.693  -3.356  0.00  0.00    -0.044 A 
ATOM      7  C   LIG d   1       4.328  -1.920  -3.551  0.00  0.00    -0.019 A 
ATOM      8  C   LIG d   1       5.012  -2.907  -4.264  0.00  0.00     0.130 A 
ATOM      9  C   LIG d   1       6.269  -2.653  -4.780  0.00  0.00     0.051 A 
ATOM     10  C   LIG d   1       6.860  -1.406  -4.589  0.00  0.00     0.147 A 
ATOM     11  O   LIG d   1       8.083  -1.160  -5.091  0.00  0.00    -0.459 OA
ATOM     12  C   LIG d   1       7.016  -3.709  -5.553  0.00  0.00     0.034 C 
ATOM     13  N   LIG d   1       6.424  -5.027  -5.286  0.00  0.00    -0.266 N 
ATOM     14  C   LIG d   1       4.962  -4.969  -5.452  0.00  0.00     0.144 C 
ATOM     15  O   LIG d   1       4.423  -4.120  -4.435  0.00  0.00    -0.476 OA
ATOM     16  H   LIG d   1       4.357   0.067  -2.804  0.00  0.00     0.063 H 
ATOM     17  H   LIG d   1       3.346  -2.130  -3.153  0.00  0.00     0.065 H 
ATOM     18  H   LIG d   1       6.952  -3.490  -6.630  0.00  0.00     0.048 H 
ATOM     19  H   LIG d   1       8.071  -3.712  -5.242  0.00  0.00     0.048 H 
ATOM     20  H   LIG d   1       4.722  -4.563  -6.445  0.00  0.00     0.087 H 
ATOM     21  H   LIG d   1       4.541  -5.980  -5.357  0.00  0.00     0.087 H 
ENDROOT
BRANCH   2  22
ATOM     22  C   LIG d   1       8.869   2.344  -4.130  0.00  0.00    -0.011 A 
ATOM     23  C   LIG d   1       8.680   3.359  -5.067  0.00  0.00    -0.050 A 
ATOM     24  C   LIG d   1       9.363   4.551  -4.939  0.00  0.00    -0.019 A 
ATOM     25  H   LIG d   1       8.000   3.211  -5.894  0.00  0.00     0.062 H 
ATOM     26  C   LIG d   1      10.236   4.740  -3.877  0.00  0.00     0.120 A 
ATOM     27  H   LIG d   1       9.216   5.336  -5.664  0.00  0.00     0.065 H 
ATOM     28  C   LIG d   1      10.426   3.733  -2.942  0.00  0.00    -0.019 A 
ATOM     29  C   LIG d   1       9.743   2.540  -3.062  0.00  0.00    -0.050 A 
ATOM     30  H   LIG d   1      11.106   3.883  -2.116  0.00  0.00     0.065 H 
ATOM     31  H   LIG d   1       9.887   1.758  -2.331  0.00  0.00     0.062 H 
BRANCH  26  32
ATOM     32  O   LIG d   1      10.906   5.916  -3.752  0.00  0.00    -0.495 OA
BRANCH  32  33
ATOM     33  C   LIG d   1      12.290   5.914  -4.107  0.00  0.00     0.079 C 
ATOM     34  H   LIG d   1      12.453   5.224  -4.947  0.00  0.00     0.066 H 
ATOM     35  H   LIG d   1      12.889   5.589  -3.243  0.00  0.00     0.066 H 
ATOM     36  H   LIG d   1      12.594   6.930  -4.402  0.00  0.00     0.066 H 
ENDBRANCH  32  33
ENDBRANCH  26  32
ENDBRANCH   2  22
BRANCH   1  37
ATOM     37  C   LIG d   1      10.057   0.198  -5.534  0.00  0.00    -0.006 C 
ATOM     38  H   LIG d   1      10.505   1.127  -5.151  0.00  0.00     0.031 H 
ATOM     39  H   LIG d   1       9.973   0.254  -6.629  0.00  0.00     0.031 H 
ATOM     40  H   LIG d   1      10.693  -0.656  -5.258  0.00  0.00     0.031 H 
ENDBRANCH   1  37
BRANCH  13  41
ATOM     41  C   LIG d   1       7.011  -6.054  -6.157  0.00  0.00     0.007 C 
ATOM     42  H   LIG d   1       6.224  -6.497  -6.785  0.00  0.00     0.043 H 
ATOM     43  H   LIG d   1       7.778  -5.595  -6.800  0.00  0.00     0.043 H 
BRANCH  41  44
ATOM     44  C   LIG d   1       7.653  -7.145  -5.298  0.00  0.00    -0.009 C 
ATOM     45  H   LIG d   1       6.928  -7.497  -4.549  0.00  0.00     0.033 H 
ATOM     46  H   LIG d   1       7.955  -7.987  -5.938  0.00  0.00     0.033 H 
BRANCH  44  47
ATOM     47  C   LIG d   1       8.865  -6.586  -4.598  0.00  0.00    -0.009 A 
ATOM     48  S   LIG d   1      10.278  -5.747  -5.295  0.00  0.00    -0.102 SA
ATOM     49  C   LIG d   1      11.173  -5.458  -3.778  0.00  0.00    -0.024 A 
ATOM     50  C   LIG d   1      10.351  -6.017  -2.857  0.00  0.00    -0.054 A 
ATOM     51  H   LIG d   1      12.124  -4.968  -3.632  0.00  0.00     0.069 H 
ATOM     52  C   LIG d   1       9.168  -6.596  -3.277  0.00  0.00    -0.051 A 
ATOM     53  H   LIG d   1      10.617  -6.012  -1.810  0.00  0.00     0.062 H 
ATOM     54  H   LIG d   1       8.496  -7.048  -2.564  0.00  0.00     0.063 H 
ENDBRANCH  44  47
ENDBRANCH  41  44
ENDBRANCH  13  41
TORSDOF 7
ENDMDL
MODEL 6
REMARK VINA RESULT:      -6.0      4.391      9.864
REMARK  7 active torsions:
REMARK  status: ('A' for Active; 'I' for Inactive)
REMARK    1  A    between atoms: C_1  and  C_2 
REMARK    2  A    between atoms: C_3  and  C_24 
REMARK    3  A    between atoms: N_14  and  C_17 
REMARK    4  A    between atoms: C_17  and  C_18 
REMARK    5  A    between atoms: C_18  and  C_19 
REMARK    6  A    between atoms: C_27  and  O_30 
REMARK    7  A    between atoms: O_30  and  C_31 
ROOT
ATOM      1  C   LIG d   1       9.940   7.717  -6.454  0.00  0.00     0.114 A 
ATOM      2  C   LIG d   1       9.942   6.467  -6.980  0.00  0.00     0.067 A 
ATOM      3  C   LIG d   1       9.960   5.316  -6.059  0.00  0.00     0.200 A 
ATOM      4  O   LIG d   1       9.963   4.167  -6.465  0.00  0.00    -0.286 OA
ATOM      5  C   LIG d   1       9.975   5.634  -4.619  0.00  0.00     0.065 A 
ATOM      6  C   LIG d   1       9.994   4.622  -3.658  0.00  0.00    -0.044 A 
ATOM      7  C   LIG d   1      10.006   4.946  -2.334  0.00  0.00    -0.019 A 
ATOM      8  C   LIG d   1      10.002   6.284  -1.933  0.00  0.00     0.130 A 
ATOM      9  C   LIG d   1       9.985   7.296  -2.874  0.00  0.00     0.051 A 
ATOM     10  C   LIG d   1       9.971   6.983  -4.231  0.00  0.00     0.147 A 
ATOM     11  O   LIG d   1       9.953   7.968  -5.147  0.00  0.00    -0.459 OA
ATOM     12  C   LIG d   1       9.982   8.744  -2.454  0.00  0.00     0.034 C 
ATOM     13  N   LIG d   1       9.587   8.847  -1.043  0.00  0.00    -0.266 N 
ATOM     14  C   LIG d   1      10.368   7.903  -0.227  0.00  0.00     0.144 C 
ATOM     15  O   LIG d   1      10.010   6.571  -0.604  0.00  0.00    -0.476 OA
ATOM     16  H   LIG d   1       9.997   3.585  -3.963  0.00  0.00     0.063 H 
ATOM     17  H   LIG d   1      10.020   4.164  -1.589  0.00  0.00     0.065 H 
ATOM     18  H   LIG d   1      10.991   9.165  -2.583  0.00  0.00     0.048 H 
ATOM     19  H   LIG d   1       9.269   9.304  -3.076  0.00  0.00     0.048 H 
ATOM     20  H   LIG d   1      11.441   8.066  -0.404  0.00  0.00     0.087 H 
ATOM     21  H   LIG d   1      10.144   8.064   0.837  0.00  0.00     0.087 H 
ENDROOT
BRANCH   2  22
ATOM     22  C   LIG d   1       9.926   6.262  -8.450  0.00  0.00    -0.011 A 
ATOM     23  C   LIG d   1      11.125   6.187  -9.157  0.00  0.00    -0.050 A 
ATOM     24  C   LIG d   1      11.107   5.998 -10.524  0.00  0.00    -0.019 A 
ATOM     25  H   LIG d   1      12.068   6.279  -8.636  0.00  0.00     0.062 H 
ATOM     26  C   LIG d   1       9.897   5.881 -11.193  0.00  0.00     0.120 A 
ATOM     27  H   LIG d   1      12.035   5.939 -11.072  0.00  0.00     0.065 H 
ATOM     28  C   LIG d   1       8.702   5.954 -10.491  0.00  0.00    -0.019 A 
ATOM     29  C   LIG d   1       8.713   6.140  -9.124  0.00  0.00    -0.050 A 
ATOM     30  H   LIG d   1       7.762   5.862 -11.015  0.00  0.00     0.065 H 
ATOM     31  H   LIG d   1       7.783   6.192  -8.578  0.00  0.00     0.062 H 
BRANCH  26  32
ATOM     32  O   LIG d   1       9.883   5.692 -12.539  0.00  0.00    -0.495 OA
BRANCH  32  33
ATOM     33  C   LIG d   1       8.829   6.322 -13.271  0.00  0.00     0.079 C 
ATOM     34  H   LIG d   1       8.951   6.112 -14.343  0.00  0.00     0.066 H 
ATOM     35  H   LIG d   1       8.864   7.408 -13.103  0.00  0.00     0.066 H 
ATOM     36  H   LIG d   1       7.860   5.929 -12.928  0.00  0.00     0.066 H 
ENDBRANCH  32  33
ENDBRANCH  26  32
ENDBRANCH   2  22
BRANCH   1  37
ATOM     37  C   LIG d   1       9.922   8.888  -7.403  0.00  0.00    -0.006 C 
ATOM     38  H   LIG d   1      10.333   9.775  -6.900  0.00  0.00     0.031 H 
ATOM     39  H   LIG d   1       8.886   9.089  -7.715  0.00  0.00     0.031 H 
ATOM     40  H   LIG d   1      10.532   8.652  -8.287  0.00  0.00     0.031 H 
ENDBRANCH   1  37
BRANCH  13  41
ATOM     41  C   LIG d   1       9.746  10.223  -0.552  0.00  0.00     0.007 C 
ATOM     42  H   LIG d   1       8.761  10.710  -0.502  0.00  0.00     0.043 H 
ATOM     43  H   LIG d   1      10.197  10.205   0.451  0.00  0.00     0.043 H 
BRANCH  41  44
ATOM     44  C   LIG d   1      10.654  11.002  -1.505  0.00  0.00    -0.009 C 
ATOM     45  H   LIG d   1      11.592  11.259  -0.991  0.00  0.00     0.033 H 
ATOM     46  H   LIG d   1      10.878  10.384  -2.387  0.00  0.00     0.033 H 
BRANCH  44  47
ATOM     47  C   LIG d   1       9.959  12.266  -1.941  0.00  0.00    -0.009 A 
ATOM     48  S   LIG d   1       8.773  12.502  -3.255  0.00  0.00    -0.102 SA
ATOM     49  C   LIG d   1       8.507  14.254  -3.043  0.00  0.00    -0.024 A 
ATOM     50  C   LIG d   1       9.331  14.539  -2.005  0.00  0.00    -0.054 A 
ATOM     51  H   LIG d   1       7.860  14.916  -3.599  0.00  0.00     0.069 H 
ATOM     52  C   LIG d   1      10.076  13.521  -1.440  0.00  0.00    -0.051 A 
ATOM     53  H   LIG d   1       9.406  15.548  -1.626  0.00  0.00     0.062 H 
ATOM     54  H   LIG d   1      10.740  13.721  -0.613  0.00  0.00     0.063 H 
ENDBRANCH  44  47
ENDBRANCH  41  44
ENDBRANCH  13  41
TORSDOF 7
ENDMDL
MODEL 7
REMARK VINA RESULT:      -6.0     14.009     16.670
REMARK  7 active torsions:
REMARK  status: ('A' for Active; 'I' for Inactive)
REMARK    1  A    between atoms: C_1  and  C_2 
REMARK    2  A    between atoms: C_3  and  C_24 
REMARK    3  A    between atoms: N_14  and  C_17 
REMARK    4  A    between atoms: C_17  and  C_18 
REMARK    5  A    between atoms: C_18  and  C_19 
REMARK    6  A    between atoms: C_27  and  O_30 
REMARK    7  A    between atoms: O_30  and  C_31 
ROOT
ATOM      1  C   LIG d   1       7.028  -7.836  -4.819  0.00  0.00     0.114 A 
ATOM      2  C   LIG d   1       5.732  -8.082  -5.134  0.00  0.00     0.067 A 
ATOM      3  C   LIG d   1       5.011  -9.123  -4.380  0.00  0.00     0.200 A 
ATOM      4  O   LIG d   1       3.845  -9.395  -4.612  0.00  0.00    -0.286 OA
ATOM      5  C   LIG d   1       5.779  -9.819  -3.331  0.00  0.00     0.065 A 
ATOM      6  C   LIG d   1       5.196 -10.823  -2.557  0.00  0.00    -0.044 A 
ATOM      7  C   LIG d   1       5.931 -11.448  -1.593  0.00  0.00    -0.019 A 
ATOM      8  C   LIG d   1       7.264 -11.090  -1.377  0.00  0.00     0.130 A 
ATOM      9  C   LIG d   1       7.854 -10.098  -2.137  0.00  0.00     0.051 A 
ATOM     10  C   LIG d   1       7.118  -9.449  -3.125  0.00  0.00     0.147 A 
ATOM     11  O   LIG d   1       7.692  -8.483  -3.864  0.00  0.00    -0.459 OA
ATOM     12  C   LIG d   1       9.292  -9.704  -1.915  0.00  0.00     0.034 C 
ATOM     13  N   LIG d   1       9.740 -10.192  -0.603  0.00  0.00    -0.266 N 
ATOM     14  C   LIG d   1       9.390 -11.613  -0.444  0.00  0.00     0.144 C 
ATOM     15  O   LIG d   1       7.966 -11.730  -0.404  0.00  0.00    -0.476 OA
ATOM     16  H   LIG d   1       4.165 -11.104  -2.720  0.00  0.00     0.063 H 
ATOM     17  H   LIG d   1       5.481 -12.225  -0.994  0.00  0.00     0.065 H 
ATOM     18  H   LIG d   1       9.919 -10.147  -2.703  0.00  0.00     0.048 H 
ATOM     19  H   LIG d   1       9.381  -8.608  -1.948  0.00  0.00     0.048 H 
ATOM     20  H   LIG d   1       9.789 -12.186  -1.294  0.00  0.00     0.087 H 
ATOM     21  H   LIG d   1       9.823 -11.996   0.491  0.00  0.00     0.087 H 
ENDROOT
BRANCH   2  22
ATOM     22  C   LIG d   1       5.055  -7.320  -6.212  0.00  0.00    -0.011 A 
ATOM     23  C   LIG d   1       4.540  -6.051  -5.953  0.00  0.00    -0.050 A 
ATOM     24  C   LIG d   1       3.910  -5.345  -6.957  0.00  0.00    -0.019 A 
ATOM     25  H   LIG d   1       4.633  -5.621  -4.966  0.00  0.00     0.062 H 
ATOM     26  C   LIG d   1       3.791  -5.897  -8.225  0.00  0.00     0.120 A 
ATOM     27  H   LIG d   1       3.512  -4.362  -6.757  0.00  0.00     0.065 H 
ATOM     28  C   LIG d   1       4.303  -7.160  -8.486  0.00  0.00    -0.019 A 
ATOM     29  C   LIG d   1       4.937  -7.870  -7.488  0.00  0.00    -0.050 A 
ATOM     30  H   LIG d   1       4.208  -7.587  -9.474  0.00  0.00     0.065 H 
ATOM     31  H   LIG d   1       5.340  -8.850  -7.693  0.00  0.00     0.062 H 
BRANCH  26  32
ATOM     32  O   LIG d   1       3.171  -5.198  -9.212  0.00  0.00    -0.495 OA
BRANCH  32  33
ATOM     33  C   LIG d   1       3.220  -3.773  -9.126  0.00  0.00     0.079 C 
ATOM     34  H   LIG d   1       2.230  -3.388  -8.842  0.00  0.00     0.066 H 
ATOM     35  H   LIG d   1       3.509  -3.356 -10.103  0.00  0.00     0.066 H 
ATOM     36  H   LIG d   1       3.960  -3.477  -8.368  0.00  0.00     0.066 H 
ENDBRANCH  32  33
ENDBRANCH  26  32
ENDBRANCH   2  22
BRANCH   1  37
ATOM     37  C   LIG d   1       7.757  -6.769  -5.595  0.00  0.00    -0.006 C 
ATOM     38  H   LIG d   1       7.719  -7.005  -6.668  0.00  0.00     0.031 H 
ATOM     39  H   LIG d   1       8.806  -6.729  -5.264  0.00  0.00     0.031 H 
ATOM     40  H   LIG d   1       7.278  -5.794  -5.416  0.00  0.00     0.031 H 
ENDBRANCH   1  37
BRANCH  13  41
ATOM     41  C   LIG d   1      11.183  -9.982  -0.429  0.00  0.00     0.007 C 
ATOM     42  H   LIG d   1      11.544 -10.594   0.411  0.00  0.00     0.043 H 
ATOM     43  H   LIG d   1      11.710 -10.275  -1.349  0.00  0.00     0.043 H 
BRANCH  41  44
ATOM     44  C   LIG d   1      11.451  -8.504  -0.136  0.00  0.00    -0.009 C 
ATOM     45  H   LIG d   1      12.200  -8.120  -0.845  0.00  0.00     0.033 H 
ATOM     46  H   LIG d   1      10.518  -7.933  -0.245  0.00  0.00     0.033 H 
BRANCH  44  47
ATOM     47  C   LIG d   1      11.969  -8.356   1.271  0.00  0.00    -0.009 A 
ATOM     48  S   LIG d   1      11.105  -8.581   2.817  0.00  0.00    -0.102 SA
ATOM     49  C   LIG d   1      12.459  -8.210   3.918  0.00  0.00    -0.024 A 
ATOM     50  C   LIG d   1      13.462  -7.938   3.049  0.00  0.00    -0.054 A 
ATOM     51  H   LIG d   1      12.475  -8.201   4.998  0.00  0.00     0.069 H 
ATOM     52  C   LIG d   1      13.212  -8.013   1.691  0.00  0.00    -0.051 A 
ATOM     53  H   LIG d   1      14.443  -7.666   3.411  0.00  0.00     0.062 H 
ATOM     54  H   LIG d   1      13.992  -7.801   0.977  0.00  0.00     0.063 H 
ENDBRANCH  44  47
ENDBRANCH  41  44
ENDBRANCH  13  41
TORSDOF 7
ENDMDL
MODEL 8
REMARK VINA RESULT:      -5.9      3.875      9.721
REMARK  7 active torsions:
REMARK  status: ('A' for Active; 'I' for Inactive)
REMARK    1  A    between atoms: C_1  and  C_2 
REMARK    2  A    between atoms: C_3  and  C_24 
REMARK    3  A    between atoms: N_14  and  C_17 
REMARK    4  A    between atoms: C_17  and  C_18 
REMARK    5  A    between atoms: C_18  and  C_19 
REMARK    6  A    between atoms: C_27  and  O_30 
REMARK    7  A    between atoms: O_30  and  C_31 
ROOT
ATOM      1  C   LIG d   1       9.837   6.388  -3.730  0.00  0.00     0.114 A 
ATOM      2  C   LIG d   1      10.060   5.053  -3.643  0.00  0.00     0.067 A 
ATOM      3  C   LIG d   1      10.597   4.509  -2.383  0.00  0.00     0.200 A 
ATOM      4  O   LIG d   1      10.820   3.320  -2.237  0.00  0.00    -0.286 OA
ATOM      5  C   LIG d   1      10.850   5.486  -1.308  0.00  0.00     0.065 A 
ATOM      6  C   LIG d   1      11.360   5.083  -0.073  0.00  0.00    -0.044 A 
ATOM      7  C   LIG d   1      11.583   6.009   0.903  0.00  0.00    -0.019 A 
ATOM      8  C   LIG d   1      11.306   7.358   0.673  0.00  0.00     0.130 A 
ATOM      9  C   LIG d   1      10.802   7.772  -0.545  0.00  0.00     0.051 A 
ATOM     10  C   LIG d   1      10.568   6.840  -1.553  0.00  0.00     0.147 A 
ATOM     11  O   LIG d   1      10.077   7.242  -2.738  0.00  0.00    -0.459 OA
ATOM     12  C   LIG d   1      10.502   9.226  -0.806  0.00  0.00     0.034 C 
ATOM     13  N   LIG d   1      10.424   9.950   0.471  0.00  0.00    -0.266 N 
ATOM     14  C   LIG d   1      11.595   9.635   1.305  0.00  0.00     0.144 C 
ATOM     15  O   LIG d   1      11.536   8.255   1.670  0.00  0.00    -0.476 OA
ATOM     16  H   LIG d   1      11.575   4.040   0.110  0.00  0.00     0.063 H 
ATOM     17  H   LIG d   1      11.977   5.698   1.859  0.00  0.00     0.065 H 
ATOM     18  H   LIG d   1      11.302   9.661  -1.424  0.00  0.00     0.048 H 
ATOM     19  H   LIG d   1       9.542   9.313  -1.336  0.00  0.00     0.048 H 
ATOM     20  H   LIG d   1      12.514   9.833   0.735  0.00  0.00     0.087 H 
ATOM     21  H   LIG d   1      11.582  10.262   2.208  0.00  0.00     0.087 H 
ENDROOT
BRANCH   2  22
ATOM     22  C   LIG d   1       9.768   4.158  -4.791  0.00  0.00    -0.011 A 
ATOM     23  C   LIG d   1       8.717   3.245  -4.716  0.00  0.00    -0.050 A 
ATOM     24  C   LIG d   1       8.449   2.415  -5.785  0.00  0.00    -0.019 A 
ATOM     25  H   LIG d   1       8.114   3.187  -3.821  0.00  0.00     0.062 H 
ATOM     26  C   LIG d   1       9.224   2.490  -6.934  0.00  0.00     0.120 A 
ATOM     27  H   LIG d   1       7.635   1.708  -5.727  0.00  0.00     0.065 H 
ATOM     28  C   LIG d   1      10.270   3.398  -7.012  0.00  0.00    -0.019 A 
ATOM     29  C   LIG d   1      10.541   4.234  -5.949  0.00  0.00    -0.050 A 
ATOM     30  H   LIG d   1      10.871   3.454  -7.908  0.00  0.00     0.065 H 
ATOM     31  H   LIG d   1      11.352   4.944  -6.012  0.00  0.00     0.062 H 
BRANCH  26  32
ATOM     32  O   LIG d   1       8.956   1.671  -7.986  0.00  0.00    -0.495 OA
BRANCH  32  33
ATOM     33  C   LIG d   1       7.581   1.387  -8.252  0.00  0.00     0.079 C 
ATOM     34  H   LIG d   1       7.245   1.980  -9.115  0.00  0.00     0.066 H 
ATOM     35  H   LIG d   1       6.975   1.646  -7.371  0.00  0.00     0.066 H 
ATOM     36  H   LIG d   1       7.464   0.316  -8.475  0.00  0.00     0.066 H 
ENDBRANCH  32  33
ENDBRANCH  26  32
ENDBRANCH   2  22
BRANCH   1  37
ATOM     37  C   LIG d   1       9.287   6.934  -5.023  0.00  0.00    -0.006 C 
ATOM     38  H   LIG d   1      10.040   6.825  -5.817  0.00  0.00     0.031 H 
ATOM     39  H   LIG d   1       9.040   7.999  -4.894  0.00  0.00     0.031 H 
ATOM     40  H   LIG d   1       8.379   6.378  -5.299  0.00  0.00     0.031 H 
ENDBRANCH   1  37
BRANCH  13  41
ATOM     41  C   LIG d   1      10.309  11.397   0.248  0.00  0.00     0.007 C 
ATOM     42  H   LIG d   1       9.254  11.698   0.326  0.00  0.00     0.043 H 
ATOM     43  H   LIG d   1      10.901  11.933   1.006  0.00  0.00     0.043 H 
BRANCH  41  44
ATOM     44  C   LIG d   1      10.836  11.742  -1.147  0.00  0.00    -0.009 C 
ATOM     45  H   LIG d   1      11.871  12.106  -1.068  0.00  0.00     0.033 H 
ATOM     46  H   LIG d   1      10.812  10.843  -1.780  0.00  0.00     0.033 H 
BRANCH  44  47
ATOM     47  C   LIG d   1       9.971  12.812  -1.761  0.00  0.00    -0.009 A 
ATOM     48  S   LIG d   1       8.893  12.710  -3.180  0.00  0.00    -0.102 SA
ATOM     49  C   LIG d   1       8.300  14.394  -3.167  0.00  0.00    -0.024 A 
ATOM     50  C   LIG d   1       8.958  14.915  -2.102  0.00  0.00    -0.054 A 
ATOM     51  H   LIG d   1       7.601  14.874  -3.836  0.00  0.00     0.069 H 
ATOM     52  C   LIG d   1       9.815  14.104  -1.382  0.00  0.00    -0.051 A 
ATOM     53  H   LIG d   1       8.816  15.948  -1.822  0.00  0.00     0.062 H 
ATOM     54  H   LIG d   1      10.351  14.494  -0.530  0.00  0.00     0.063 H 
ENDBRANCH  44  47
ENDBRANCH  41  44
ENDBRANCH  13  41
TORSDOF 7
ENDMDL
MODEL 9
REMARK VINA RESULT:      -5.9      5.672     12.915
REMARK  7 active torsions:
REMARK  status: ('A' for Active; 'I' for Inactive)
REMARK    1  A    between atoms: C_1  and  C_2 
REMARK    2  A    between atoms: C_3  and  C_24 
REMARK    3  A    between atoms: N_14  and  C_17 
REMARK    4  A    between atoms: C_17  and  C_18 
REMARK    5  A    between atoms: C_18  and  C_19 
REMARK    6  A    between atoms: C_27  and  O_30 
REMARK    7  A    between atoms: O_30  and  C_31 
ROOT
ATOM      1  C   LIG d   1       7.037  -3.413  -6.192  0.00  0.00     0.114 A 
ATOM      2  C   LIG d   1       5.962  -4.003  -5.611  0.00  0.00     0.067 A 
ATOM      3  C   LIG d   1       5.241  -3.270  -4.556  0.00  0.00     0.200 A 
ATOM      4  O   LIG d   1       4.268  -3.741  -3.993  0.00  0.00    -0.286 OA
ATOM      5  C   LIG d   1       5.763  -1.932  -4.219  0.00  0.00     0.065 A 
ATOM      6  C   LIG d   1       5.159  -1.150  -3.234  0.00  0.00    -0.044 A 
ATOM      7  C   LIG d   1       5.664   0.084  -2.945  0.00  0.00    -0.019 A 
ATOM      8  C   LIG d   1       6.782   0.568  -3.627  0.00  0.00     0.130 A 
ATOM      9  C   LIG d   1       7.391  -0.197  -4.604  0.00  0.00     0.051 A 
ATOM     10  C   LIG d   1       6.889  -1.459  -4.913  0.00  0.00     0.147 A 
ATOM     11  O   LIG d   1       7.481  -2.202  -5.864  0.00  0.00    -0.459 OA
ATOM     12  C   LIG d   1       8.600   0.314  -5.345  0.00  0.00     0.034 C 
ATOM     13  N   LIG d   1       8.706   1.769  -5.173  0.00  0.00    -0.266 N 
ATOM     14  C   LIG d   1       8.581   2.122  -3.749  0.00  0.00     0.144 C 
ATOM     15  O   LIG d   1       7.256   1.804  -3.316  0.00  0.00    -0.476 OA
ATOM     16  H   LIG d   1       4.293  -1.520  -2.704  0.00  0.00     0.063 H 
ATOM     17  H   LIG d   1       5.196   0.690  -2.183  0.00  0.00     0.065 H 
ATOM     18  H   LIG d   1       9.506  -0.168  -4.946  0.00  0.00     0.048 H 
ATOM     19  H   LIG d   1       8.501   0.077  -6.414  0.00  0.00     0.048 H 
ATOM     20  H   LIG d   1       9.314   1.548  -3.164  0.00  0.00     0.087 H 
ATOM     21  H   LIG d   1       8.769   3.198  -3.620  0.00  0.00     0.087 H 
ENDROOT
BRANCH   2  22
ATOM     22  C   LIG d   1       5.523  -5.358  -6.029  0.00  0.00    -0.011 A 
ATOM     23  C   LIG d   1       6.032  -6.486  -5.388  0.00  0.00    -0.050 A 
ATOM     24  C   LIG d   1       5.622  -7.744  -5.779  0.00  0.00    -0.019 A 
ATOM     25  H   LIG d   1       6.748  -6.376  -4.586  0.00  0.00     0.062 H 
ATOM     26  C   LIG d   1       4.702  -7.886  -6.809  0.00  0.00     0.120 A 
ATOM     27  H   LIG d   1       6.015  -8.618  -5.283  0.00  0.00     0.065 H 
ATOM     28  C   LIG d   1       4.193  -6.765  -7.449  0.00  0.00    -0.019 A 
ATOM     29  C   LIG d   1       4.596  -5.504  -7.060  0.00  0.00    -0.050 A 
ATOM     30  H   LIG d   1       3.477  -6.878  -8.250  0.00  0.00     0.065 H 
ATOM     31  H   LIG d   1       4.196  -4.631  -7.554  0.00  0.00     0.062 H 
BRANCH  26  32
ATOM     32  O   LIG d   1       4.299  -9.126  -7.191  0.00  0.00    -0.495 OA
BRANCH  32  33
ATOM     33  C   LIG d   1       4.564 -10.201  -6.288  0.00  0.00     0.079 C 
ATOM     34  H   LIG d   1       3.619 -10.559  -5.855  0.00  0.00     0.066 H 
ATOM     35  H   LIG d   1       5.225  -9.848  -5.482  0.00  0.00     0.066 H 
ATOM     36  H   LIG d   1       5.054 -11.024  -6.830  0.00  0.00     0.066 H 
ENDBRANCH  32  33
ENDBRANCH  26  32
ENDBRANCH   2  22
BRANCH   1  37
ATOM     37  C   LIG d   1       7.768  -4.171  -7.271  0.00  0.00    -0.006 C 
ATOM     38  H   LIG d   1       7.067  -4.429  -8.078  0.00  0.00     0.031 H 
ATOM     39  H   LIG d   1       8.194  -5.092  -6.845  0.00  0.00     0.031 H 
ATOM     40  H   LIG d   1       8.577  -3.545  -7.674  0.00  0.00     0.031 H 
ENDBRANCH   1  37
BRANCH  13  41
ATOM     41  C   LIG d   1       9.967   2.274  -5.732  0.00  0.00     0.007 C 
ATOM     42  H   LIG d   1      10.429   2.975  -5.020  0.00  0.00     0.043 H 
ATOM     43  H   LIG d   1      10.651   1.432  -5.914  0.00  0.00     0.043 H 
BRANCH  41  44
ATOM     44  C   LIG d   1       9.686   2.998  -7.050  0.00  0.00    -0.009 C 
ATOM     45  H   LIG d   1      10.440   2.706  -7.797  0.00  0.00     0.033 H 
ATOM     46  H   LIG d   1       8.685   2.723  -7.414  0.00  0.00     0.033 H 
BRANCH  44  47
ATOM     47  C   LIG d   1       9.750   4.488  -6.830  0.00  0.00    -0.009 A 
ATOM     48  S   LIG d   1       9.727   5.399  -5.295  0.00  0.00    -0.102 SA
ATOM     49  C   LIG d   1       9.839   7.044  -5.978  0.00  0.00    -0.024 A 
ATOM     50  C   LIG d   1       9.879   6.793  -7.309  0.00  0.00    -0.054 A 
ATOM     51  H   LIG d   1       9.864   7.994  -5.464  0.00  0.00     0.069 H 
ATOM     52  C   LIG d   1       9.833   5.483  -7.746  0.00  0.00    -0.051 A 
ATOM     53  H   LIG d   1       9.944   7.606  -8.019  0.00  0.00     0.062 H 
ATOM     54  H   LIG d   1       9.863   5.256  -8.801  0.00  0.00     0.063 H 
ENDBRANCH  44  47
ENDBRANCH  41  44
ENDBRANCH  13  41
TORSDOF 7
ENDMDL
