MODEL 1
REMARK VINA RESULT:      -6.6      0.000      0.000
REMARK  10 active torsions:
REMARK  status: ('A' for Active; 'I' for Inactive)
REMARK    1  A    between atoms: C_1  and  O_2 
REMARK    2  A    between atoms: O_2  and  C_3 
REMARK    3  A    between atoms: C_3  and  C_4 
REMARK    4  A    between atoms: C_4  and  N_5 
REMARK    5  A    between atoms: N_5  and  C_6 
REMARK    6  A    between atoms: C_9  and  C_12 
REMARK    7  A    between atoms: C_14  and  C_17 
REMARK    8  A    between atoms: N_22  and  C_23 
REMARK    9  A    between atoms: C_23  and  C_24 
REMARK   10  A    between atoms: C_27  and  C_30 
ROOT
ATOM      1  C   LIG d   1       4.981   0.260  -9.132  0.00  0.00     0.060 C 
ATOM      2  H   LIG d   1       4.836  -0.706  -9.614  0.00  0.00     0.095 H 
ATOM      3  C   LIG d   1       5.052   1.393 -10.187  0.00  0.00     0.004 C 
ATOM      4  C   LIG d   1       3.564   1.667 -10.500  0.00  0.00    -0.007 C 
ATOM      5  C   LIG d   1       2.792   1.140  -9.276  0.00  0.00    -0.031 C 
ATOM      6  N   LIG d   1       3.794   0.625  -8.317  0.00  0.00     0.247 N 
ATOM      7  H   LIG d   1       5.529   2.280  -9.770  0.00  0.00     0.033 H 
ATOM      8  H   LIG d   1       5.579   1.056 -11.080  0.00  0.00     0.033 H 
ATOM      9  H   LIG d   1       3.395   2.737 -10.623  0.00  0.00     0.032 H 
ATOM     10  H   LIG d   1       3.261   1.130 -11.399  0.00  0.00     0.032 H 
ATOM     11  H   LIG d   1       2.222   1.950  -8.819  0.00  0.00     0.082 H 
ATOM     12  H   LIG d   1       2.122   0.336  -9.579  0.00  0.00     0.082 H 
ATOM     13  H   LIG d   1       4.037   1.341  -7.650  0.00  0.00     0.204 HD
ENDROOT
BRANCH   1  14
ATOM     14  C   LIG d   1       6.226   0.247  -8.282  0.00  0.00     0.276 A 
ATOM     15  N   LIG d   1       6.521   1.109  -7.350  0.00  0.00    -0.186 NA
ATOM     16  C   LIG d   1       7.705   0.798  -6.793  0.00  0.00     0.208 A 
ATOM     17  N   LIG d   1       8.174  -0.275  -7.380  0.00  0.00    -0.056 NA
ATOM     18  O   LIG d   1       7.214  -0.653  -8.355  0.00  0.00    -0.332 OA
BRANCH  16  19
ATOM     19  C   LIG d   1       8.370   1.549  -5.700  0.00  0.00     0.086 A 
ATOM     20  C   LIG d   1       8.947   2.800  -5.948  0.00  0.00    -0.038 A 
ATOM     21  C   LIG d   1       9.554   3.462  -4.901  0.00  0.00     0.027 A 
ATOM     22  H   LIG d   1       8.918   3.237  -6.935  0.00  0.00     0.063 H 
ATOM     23  C   LIG d   1       9.573   2.869  -3.641  0.00  0.00     0.269 A 
ATOM     24  H   LIG d   1      10.009   4.430  -5.055  0.00  0.00     0.070 H 
ATOM     25  N   LIG d   1       9.021   1.681  -3.441  0.00  0.00    -0.198 N 
ATOM     26  C   LIG d   1       8.428   1.020  -4.414  0.00  0.00     0.182 A 
ATOM     27  H   LIG d   1       9.053   1.289  -2.555  0.00  0.00     0.454 HD
ATOM     28  H   LIG d   1       7.985   0.056  -4.213  0.00  0.00     0.138 H 
BRANCH  23  29
ATOM     29  N   LIG d   1      10.181   3.528  -2.581  0.00  0.00    -0.289 N 
ATOM     30  H   LIG d   1      10.683   3.025  -1.921  0.00  0.00     0.152 HD
BRANCH  29  31
ATOM     31  C   LIG d   1      10.064   4.983  -2.461  0.00  0.00     0.038 C 
ATOM     32  H   LIG d   1       9.022   5.252  -2.289  0.00  0.00     0.049 H 
ATOM     33  H   LIG d   1      10.414   5.453  -3.380  0.00  0.00     0.049 H 
BRANCH  31  34
ATOM     34  C   LIG d   1      10.915   5.468  -1.284  0.00  0.00     0.063 C 
ATOM     35  H   LIG d   1      11.761   6.043  -1.661  0.00  0.00     0.058 H 
ATOM     36  H   LIG d   1      11.280   4.609  -0.722  0.00  0.00     0.058 H 
BRANCH  34  37
ATOM     37  O   LIG d   1      10.119   6.293  -0.430  0.00  0.00    -0.381 OA
BRANCH  37  38
ATOM     38  C   LIG d   1      10.874   7.237   0.332  0.00  0.00     0.036 C 
ATOM     39  H   LIG d   1      11.513   7.815  -0.335  0.00  0.00     0.052 H 
ATOM     40  H   LIG d   1      10.193   7.909   0.855  0.00  0.00     0.052 H 
ATOM     41  H   LIG d   1      11.491   6.708   1.058  0.00  0.00     0.052 H 
ENDBRANCH  37  38
ENDBRANCH  34  37
ENDBRANCH  31  34
ENDBRANCH  29  31
ENDBRANCH  23  29
ENDBRANCH  16  19
ENDBRANCH   1  14
BRANCH   6  42
ATOM     42  C   LIG d   1       3.274  -0.562  -7.623  0.00  0.00    -0.005 C 
ATOM     43  H   LIG d   1       2.201  -0.642  -7.796  0.00  0.00     0.087 H 
ATOM     44  H   LIG d   1       3.772  -1.453  -8.004  0.00  0.00     0.087 H 
BRANCH  42  45
ATOM     45  C   LIG d   1       3.536  -0.434  -6.144  0.00  0.00    -0.003 A 
ATOM     46  C   LIG d   1       2.780   0.441  -5.384  0.00  0.00    -0.053 A 
ATOM     47  C   LIG d   1       3.011   0.560  -4.030  0.00  0.00    -0.052 A 
ATOM     48  H   LIG d   1       2.006   1.030  -5.853  0.00  0.00     0.062 H 
ATOM     49  C   LIG d   1       4.017  -0.199  -3.427  0.00  0.00    -0.003 A 
ATOM     50  H   LIG d   1       2.418   1.239  -3.436  0.00  0.00     0.062 H 
ATOM     51  C   LIG d   1       4.780  -1.077  -4.202  0.00  0.00    -0.052 A 
ATOM     52  C   LIG d   1       4.535  -1.188  -5.555  0.00  0.00    -0.053 A 
ATOM     53  H   LIG d   1       5.559  -1.666  -3.743  0.00  0.00     0.062 H 
ATOM     54  H   LIG d   1       5.124  -1.866  -6.155  0.00  0.00     0.062 H 
BRANCH  49  55
ATOM     55  C   LIG d   1       4.273  -0.075  -1.980  0.00  0.00     0.072 C 
ATOM     56  O   LIG d   1       4.521  -1.072  -1.314  0.00  0.00    -0.545 OA
ATOM     57  O   LIG d   1       4.238   1.023  -1.444  0.00  0.00    -0.545 OA
ENDBRANCH  49  55
ENDBRANCH  42  45
ENDBRANCH   6  42
TORSDOF 10
ENDMDL
MODEL 2
REMARK VINA RESULT:      -6.6      3.450      6.005
REMARK  10 active torsions:
REMARK  status: ('A' for Active; 'I' for Inactive)
REMARK    1  A    between atoms: C_1  and  O_2 
REMARK    2  A    between atoms: O_2  and  C_3 
REMARK    3  A    between atoms: C_3  and  C_4 
REMARK    4  A    between atoms: C_4  and  N_5 
REMARK    5  A    between atoms: N_5  and  C_6 
REMARK    6  A    between atoms: C_9  and  C_12 
REMARK    7  A    between atoms: C_14  and  C_17 
REMARK    8  A    between atoms: N_22  and  C_23 
REMARK    9  A    between atoms: C_23  and  C_24 
REMARK   10  A    between atoms: C_27  and  C_30 
ROOT
ATOM      1  C   LIG d   1       9.769   2.861  -5.209  0.00  0.00     0.060 C 
ATOM      2  H   LIG d   1      10.625   2.193  -5.304  0.00  0.00     0.095 H 
ATOM      3  C   LIG d   1       9.556   3.667  -6.515  0.00  0.00     0.004 C 
ATOM      4  C   LIG d   1       8.796   2.670  -7.417  0.00  0.00    -0.007 C 
ATOM      5  C   LIG d   1       8.152   1.661  -6.447  0.00  0.00    -0.031 C 
ATOM      6  N   LIG d   1       8.509   2.087  -5.075  0.00  0.00     0.247 N 
ATOM      7  H   LIG d   1       8.953   4.555  -6.327  0.00  0.00     0.033 H 
ATOM      8  H   LIG d   1      10.514   3.939  -6.961  0.00  0.00     0.033 H 
ATOM      9  H   LIG d   1       8.026   3.189  -7.989  0.00  0.00     0.032 H 
ATOM     10  H   LIG d   1       9.488   2.161  -8.088  0.00  0.00     0.032 H 
ATOM     11  H   LIG d   1       7.068   1.668  -6.569  0.00  0.00     0.082 H 
ATOM     12  H   LIG d   1       8.543   0.662  -6.638  0.00  0.00     0.082 H 
ATOM     13  H   LIG d   1       7.781   2.670  -4.692  0.00  0.00     0.204 HD
ENDROOT
BRANCH   1  14
ATOM     14  C   LIG d   1       9.950   3.789  -4.035  0.00  0.00     0.276 A 
ATOM     15  N   LIG d   1       9.696   5.068  -4.029  0.00  0.00    -0.186 NA
ATOM     16  C   LIG d   1       9.970   5.586  -2.819  0.00  0.00     0.208 A 
ATOM     17  N   LIG d   1      10.409   4.626  -2.042  0.00  0.00    -0.056 NA
ATOM     18  O   LIG d   1      10.397   3.440  -2.823  0.00  0.00    -0.332 OA
BRANCH  16  19
ATOM     19  C   LIG d   1       9.808   7.008  -2.430  0.00  0.00     0.086 A 
ATOM     20  C   LIG d   1       9.417   7.346  -1.129  0.00  0.00    -0.038 A 
ATOM     21  C   LIG d   1       9.279   8.683  -0.812  0.00  0.00     0.027 A 
ATOM     22  H   LIG d   1       9.227   6.581  -0.390  0.00  0.00     0.063 H 
ATOM     23  C   LIG d   1       9.531   9.643  -1.788  0.00  0.00     0.269 A 
ATOM     24  H   LIG d   1       8.979   8.981   0.183  0.00  0.00     0.070 H 
ATOM     25  N   LIG d   1       9.896   9.288  -3.011  0.00  0.00    -0.198 N 
ATOM     26  C   LIG d   1      10.043   8.023  -3.351  0.00  0.00     0.182 A 
ATOM     27  H   LIG d   1      10.061   9.977  -3.674  0.00  0.00     0.454 HD
ATOM     28  H   LIG d   1      10.346   7.771  -4.357  0.00  0.00     0.138 H 
BRANCH  23  29
ATOM     29  N   LIG d   1       9.396  10.989  -1.478  0.00  0.00    -0.289 N 
ATOM     30  H   LIG d   1       9.000  11.255  -0.633  0.00  0.00     0.152 HD
BRANCH  29  31
ATOM     31  C   LIG d   1       9.852  12.008  -2.426  0.00  0.00     0.038 C 
ATOM     32  H   LIG d   1      10.631  11.590  -3.063  0.00  0.00     0.049 H 
ATOM     33  H   LIG d   1      10.251  12.862  -1.878  0.00  0.00     0.049 H 
BRANCH  31  34
ATOM     34  C   LIG d   1       8.675  12.462  -3.293  0.00  0.00     0.063 C 
ATOM     35  H   LIG d   1       8.822  13.501  -3.588  0.00  0.00     0.058 H 
ATOM     36  H   LIG d   1       7.750  12.373  -2.725  0.00  0.00     0.058 H 
BRANCH  34  37
ATOM     37  O   LIG d   1       8.599  11.641  -4.460  0.00  0.00    -0.381 OA
BRANCH  37  38
ATOM     38  C   LIG d   1       9.563  11.966  -5.463  0.00  0.00     0.036 C 
ATOM     39  H   LIG d   1      10.213  12.761  -5.099  0.00  0.00     0.052 H 
ATOM     40  H   LIG d   1      10.162  11.084  -5.690  0.00  0.00     0.052 H 
ATOM     41  H   LIG d   1       9.050  12.300  -6.365  0.00  0.00     0.052 H 
ENDBRANCH  37  38
ENDBRANCH  34  37
ENDBRANCH  31  34
ENDBRANCH  29  31
ENDBRANCH  23  29
ENDBRANCH  16  19
ENDBRANCH   1  14
BRANCH   6  42
ATOM     42  C   LIG d   1       8.726   0.914  -4.217  0.00  0.00    -0.005 C 
ATOM     43  H   LIG d   1       9.307   0.168  -4.760  0.00  0.00     0.087 H 
ATOM     44  H   LIG d   1       9.267   1.214  -3.320  0.00  0.00     0.087 H 
BRANCH  42  45
ATOM     45  C   LIG d   1       7.394   0.325  -3.826  0.00  0.00    -0.003 A 
ATOM     46  C   LIG d   1       6.385   1.152  -3.365  0.00  0.00    -0.053 A 
ATOM     47  C   LIG d   1       5.162   0.622  -3.010  0.00  0.00    -0.052 A 
ATOM     48  H   LIG d   1       6.554   2.216  -3.287  0.00  0.00     0.062 H 
ATOM     49  C   LIG d   1       4.948  -0.756  -3.107  0.00  0.00    -0.003 A 
ATOM     50  H   LIG d   1       4.374   1.268  -2.655  0.00  0.00     0.062 H 
ATOM     51  C   LIG d   1       5.973  -1.585  -3.568  0.00  0.00    -0.052 A 
ATOM     52  C   LIG d   1       7.190  -1.039  -3.924  0.00  0.00    -0.053 A 
ATOM     53  H   LIG d   1       5.815  -2.650  -3.646  0.00  0.00     0.062 H 
ATOM     54  H   LIG d   1       7.983  -1.680  -4.280  0.00  0.00     0.062 H 
BRANCH  49  55
ATOM     55  C   LIG d   1       3.644  -1.331  -2.725  0.00  0.00     0.072 C 
ATOM     56  O   LIG d   1       2.640  -0.633  -2.737  0.00  0.00    -0.545 OA
ATOM     57  O   LIG d   1       3.567  -2.507  -2.399  0.00  0.00    -0.545 OA
ENDBRANCH  49  55
ENDBRANCH  42  45
ENDBRANCH   6  42
TORSDOF 10
ENDMDL
MODEL 3
REMARK VINA RESULT:      -6.5      5.893     10.220
REMARK  10 active torsions:
REMARK  status: ('A' for Active; 'I' for Inactive)
REMARK    1  A    between atoms: C_1  and  O_2 
REMARK    2  A    between atoms: O_2  and  C_3 
REMARK    3  A    between atoms: C_3  and  C_4 
REMARK    4  A    between atoms: C_4  and  N_5 
REMARK    5  A    between atoms: N_5  and  C_6 
REMARK    6  A    between atoms: C_9  and  C_12 
REMARK    7  A    between atoms: C_14  and  C_17 
REMARK    8  A    between atoms: N_22  and  C_23 
REMARK    9  A    between atoms: C_23  and  C_24 
REMARK   10  A    between atoms: C_27  and  C_30 
ROOT
ATOM      1  C   LIG d   1       4.664  -1.736  -4.062  0.00  0.00     0.060 C 
ATOM      2  H   LIG d   1       5.407  -0.953  -3.913  0.00  0.00     0.095 H 
ATOM      3  C   LIG d   1       3.909  -2.033  -2.742  0.00  0.00     0.004 C 
ATOM      4  C   LIG d   1       2.850  -0.909  -2.689  0.00  0.00    -0.007 C 
ATOM      5  C   LIG d   1       2.689  -0.439  -4.146  0.00  0.00    -0.031 C 
ATOM      6  N   LIG d   1       3.588  -1.273  -4.975  0.00  0.00     0.247 N 
ATOM      7  H   LIG d   1       3.431  -3.012  -2.783  0.00  0.00     0.033 H 
ATOM      8  H   LIG d   1       4.584  -1.969  -1.888  0.00  0.00     0.033 H 
ATOM      9  H   LIG d   1       1.904  -1.298  -2.310  0.00  0.00     0.032 H 
ATOM     10  H   LIG d   1       3.200  -0.089  -2.062  0.00  0.00     0.032 H 
ATOM     11  H   LIG d   1       1.655  -0.572  -4.468  0.00  0.00     0.082 H 
ATOM     12  H   LIG d   1       2.975   0.609  -4.231  0.00  0.00     0.082 H 
ATOM     13  H   LIG d   1       3.083  -2.063  -5.347  0.00  0.00     0.204 HD
ENDROOT
BRANCH   1  14
ATOM     14  C   LIG d   1       5.312  -2.987  -4.597  0.00  0.00     0.276 A 
ATOM     15  N   LIG d   1       4.686  -4.056  -5.003  0.00  0.00    -0.186 NA
ATOM     16  C   LIG d   1       5.573  -4.980  -5.415  0.00  0.00     0.208 A 
ATOM     17  N   LIG d   1       6.781  -4.496  -5.267  0.00  0.00    -0.056 NA
ATOM     18  O   LIG d   1       6.629  -3.188  -4.736  0.00  0.00    -0.332 OA
BRANCH  16  19
ATOM     19  C   LIG d   1       5.237  -6.324  -5.945  0.00  0.00     0.086 A 
ATOM     20  C   LIG d   1       4.548  -6.456  -7.157  0.00  0.00    -0.038 A 
ATOM     21  C   LIG d   1       4.258  -7.727  -7.611  0.00  0.00     0.027 A 
ATOM     22  H   LIG d   1       4.250  -5.586  -7.722  0.00  0.00     0.063 H 
ATOM     23  C   LIG d   1       4.657  -8.827  -6.856  0.00  0.00     0.269 A 
ATOM     24  H   LIG d   1       3.727  -7.867  -8.542  0.00  0.00     0.070 H 
ATOM     25  N   LIG d   1       5.304  -8.666  -5.712  0.00  0.00    -0.198 N 
ATOM     26  C   LIG d   1       5.604  -7.470  -5.247  0.00  0.00     0.182 A 
ATOM     27  H   LIG d   1       5.566  -9.449  -5.204  0.00  0.00     0.454 HD
ATOM     28  H   LIG d   1       6.136  -7.378  -4.312  0.00  0.00     0.138 H 
BRANCH  23  29
ATOM     29  N   LIG d   1       4.370 -10.108  -7.306  0.00  0.00    -0.289 N 
ATOM     30  H   LIG d   1       3.870 -10.233  -8.128  0.00  0.00     0.152 HD
BRANCH  29  31
ATOM     31  C   LIG d   1       4.823 -11.272  -6.540  0.00  0.00     0.038 C 
ATOM     32  H   LIG d   1       5.586 -10.962  -5.826  0.00  0.00     0.049 H 
ATOM     33  H   LIG d   1       5.241 -12.014  -7.221  0.00  0.00     0.049 H 
BRANCH  31  34
ATOM     34  C   LIG d   1       3.637 -11.879  -5.787  0.00  0.00     0.063 C 
ATOM     35  H   LIG d   1       3.928 -12.844  -5.371  0.00  0.00     0.058 H 
ATOM     36  H   LIG d   1       2.802 -12.017  -6.473  0.00  0.00     0.058 H 
BRANCH  34  37
ATOM     37  O   LIG d   1       3.245 -11.002  -4.729  0.00  0.00    -0.381 OA
BRANCH  37  38
ATOM     38  C   LIG d   1       4.018 -11.149  -3.536  0.00  0.00     0.036 C 
ATOM     39  H   LIG d   1       5.074 -11.226  -3.794  0.00  0.00     0.052 H 
ATOM     40  H   LIG d   1       3.864 -10.282  -2.895  0.00  0.00     0.052 H 
ATOM     41  H   LIG d   1       3.706 -12.051  -3.010  0.00  0.00     0.052 H 
ENDBRANCH  37  38
ENDBRANCH  34  37
ENDBRANCH  31  34
ENDBRANCH  29  31
ENDBRANCH  23  29
ENDBRANCH  16  19
ENDBRANCH   1  14
BRANCH   6  42
ATOM     42  C   LIG d   1       4.161  -0.475  -6.068  0.00  0.00    -0.005 C 
ATOM     43  H   LIG d   1       3.997   0.584  -5.869  0.00  0.00     0.087 H 
ATOM     44  H   LIG d   1       5.231  -0.670  -6.138  0.00  0.00     0.087 H 
BRANCH  42  45
ATOM     45  C   LIG d   1       3.496  -0.851  -7.367  0.00  0.00    -0.003 A 
ATOM     46  C   LIG d   1       3.796  -2.061  -7.969  0.00  0.00    -0.053 A 
ATOM     47  C   LIG d   1       3.188  -2.415  -9.155  0.00  0.00    -0.052 A 
ATOM     48  H   LIG d   1       4.507  -2.730  -7.506  0.00  0.00     0.062 H 
ATOM     49  C   LIG d   1       2.275  -1.544  -9.754  0.00  0.00    -0.003 A 
ATOM     50  H   LIG d   1       3.420  -3.360  -9.622  0.00  0.00     0.062 H 
ATOM     51  C   LIG d   1       1.980  -0.322  -9.143  0.00  0.00    -0.052 A 
ATOM     52  C   LIG d   1       2.593   0.016  -7.954  0.00  0.00    -0.053 A 
ATOM     53  H   LIG d   1       1.275   0.356  -9.601  0.00  0.00     0.062 H 
ATOM     54  H   LIG d   1       2.366   0.961  -7.482  0.00  0.00     0.062 H 
BRANCH  49  55
ATOM     55  C   LIG d   1       1.623  -1.913 -11.025  0.00  0.00     0.072 C 
ATOM     56  O   LIG d   1       1.295  -1.043 -11.820  0.00  0.00    -0.545 OA
ATOM     57  O   LIG d   1       1.411  -3.089 -11.285  0.00  0.00    -0.545 OA
ENDBRANCH  49  55
ENDBRANCH  42  45
ENDBRANCH   6  42
TORSDOF 10
ENDMDL
MODEL 4
REMARK VINA RESULT:      -6.5      2.155      4.900
REMARK  10 active torsions:
REMARK  status: ('A' for Active; 'I' for Inactive)
REMARK    1  A    between atoms: C_1  and  O_2 
REMARK    2  A    between atoms: O_2  and  C_3 
REMARK    3  A    between atoms: C_3  and  C_4 
REMARK    4  A    between atoms: C_4  and  N_5 
REMARK    5  A    between atoms: N_5  and  C_6 
REMARK    6  A    between atoms: C_9  and  C_12 
REMARK    7  A    between atoms: C_14  and  C_17 
REMARK    8  A    between atoms: N_22  and  C_23 
REMARK    9  A    between atoms: C_23  and  C_24 
REMARK   10  A    between atoms: C_27  and  C_30 
ROOT
ATOM      1  C   LIG d   1       4.866   0.116  -3.355  0.00  0.00     0.060 C 
ATOM      2  H   LIG d   1       4.321   0.846  -2.755  0.00  0.00     0.095 H 
ATOM      3  C   LIG d   1       5.298  -1.093  -2.488  0.00  0.00     0.004 C 
ATOM      4  C   LIG d   1       4.017  -1.955  -2.433  0.00  0.00    -0.007 C 
ATOM      5  C   LIG d   1       3.189  -1.523  -3.657  0.00  0.00    -0.031 C 
ATOM      6  N   LIG d   1       3.975  -0.494  -4.375  0.00  0.00     0.247 N 
ATOM      7  H   LIG d   1       6.111  -1.639  -2.966  0.00  0.00     0.033 H 
ATOM      8  H   LIG d   1       5.588  -0.767  -1.488  0.00  0.00     0.033 H 
ATOM      9  H   LIG d   1       4.270  -3.013  -2.502  0.00  0.00     0.032 H 
ATOM     10  H   LIG d   1       3.466  -1.756  -1.514  0.00  0.00     0.032 H 
ATOM     11  H   LIG d   1       3.013  -2.379  -4.309  0.00  0.00     0.082 H 
ATOM     12  H   LIG d   1       2.239  -1.100  -3.331  0.00  0.00     0.082 H 
ATOM     13  H   LIG d   1       4.524  -0.924  -5.104  0.00  0.00     0.204 HD
ENDROOT
BRANCH   1  14
ATOM     14  C   LIG d   1       6.063   0.757  -4.010  0.00  0.00     0.276 A 
ATOM     15  N   LIG d   1       6.920   1.544  -3.424  0.00  0.00    -0.186 NA
ATOM     16  C   LIG d   1       7.861   1.934  -4.302  0.00  0.00     0.208 A 
ATOM     17  N   LIG d   1       7.599   1.392  -5.466  0.00  0.00    -0.056 NA
ATOM     18  O   LIG d   1       6.425   0.612  -5.290  0.00  0.00    -0.332 OA
BRANCH  16  19
ATOM     19  C   LIG d   1       9.003   2.833  -4.004  0.00  0.00     0.086 A 
ATOM     20  C   LIG d   1       9.117   4.071  -4.648  0.00  0.00    -0.038 A 
ATOM     21  C   LIG d   1      10.196   4.875  -4.338  0.00  0.00     0.027 A 
ATOM     22  H   LIG d   1       8.380   4.390  -5.370  0.00  0.00     0.063 H 
ATOM     23  C   LIG d   1      11.127   4.432  -3.402  0.00  0.00     0.269 A 
ATOM     24  H   LIG d   1      10.316   5.837  -4.815  0.00  0.00     0.070 H 
ATOM     25  N   LIG d   1      10.991   3.253  -2.814  0.00  0.00    -0.198 N 
ATOM     26  C   LIG d   1       9.973   2.459  -3.079  0.00  0.00     0.182 A 
ATOM     27  H   LIG d   1      11.657   2.967  -2.169  0.00  0.00     0.454 HD
ATOM     28  H   LIG d   1       9.892   1.507  -2.577  0.00  0.00     0.138 H 
BRANCH  23  29
ATOM     29  N   LIG d   1      12.214   5.234  -3.084  0.00  0.00    -0.289 N 
ATOM     30  H   LIG d   1      12.634   5.777  -3.770  0.00  0.00     0.152 HD
BRANCH  29  31
ATOM     31  C   LIG d   1      12.728   5.260  -1.712  0.00  0.00     0.038 C 
ATOM     32  H   LIG d   1      13.747   5.648  -1.713  0.00  0.00     0.049 H 
ATOM     33  H   LIG d   1      12.723   4.250  -1.303  0.00  0.00     0.049 H 
BRANCH  31  34
ATOM     34  C   LIG d   1      11.841   6.164  -0.852  0.00  0.00     0.063 C 
ATOM     35  H   LIG d   1      10.796   5.885  -0.992  0.00  0.00     0.058 H 
ATOM     36  H   LIG d   1      11.983   7.202  -1.150  0.00  0.00     0.058 H 
BRANCH  34  37
ATOM     37  O   LIG d   1      12.196   6.010   0.523  0.00  0.00    -0.381 OA
BRANCH  37  38
ATOM     38  C   LIG d   1      11.077   5.861   1.399  0.00  0.00     0.036 C 
ATOM     39  H   LIG d   1      11.172   4.929   1.955  0.00  0.00     0.052 H 
ATOM     40  H   LIG d   1      11.048   6.699   2.096  0.00  0.00     0.052 H 
ATOM     41  H   LIG d   1      10.158   5.843   0.814  0.00  0.00     0.052 H 
ENDBRANCH  37  38
ENDBRANCH  34  37
ENDBRANCH  31  34
ENDBRANCH  29  31
ENDBRANCH  23  29
ENDBRANCH  16  19
ENDBRANCH   1  14
BRANCH   6  42
ATOM     42  C   LIG d   1       3.083   0.526  -4.943  0.00  0.00    -0.005 C 
ATOM     43  H   LIG d   1       2.062   0.342  -4.611  0.00  0.00     0.087 H 
ATOM     44  H   LIG d   1       3.402   1.514  -4.611  0.00  0.00     0.087 H 
BRANCH  42  45
ATOM     45  C   LIG d   1       3.141   0.461  -6.449  0.00  0.00    -0.003 A 
ATOM     46  C   LIG d   1       3.600  -0.687  -7.071  0.00  0.00    -0.053 A 
ATOM     47  C   LIG d   1       3.651  -0.755  -8.447  0.00  0.00    -0.052 A 
ATOM     48  H   LIG d   1       3.917  -1.531  -6.477  0.00  0.00     0.062 H 
ATOM     49  C   LIG d   1       3.246   0.341  -9.213  0.00  0.00    -0.003 A 
ATOM     50  H   LIG d   1       4.006  -1.652  -8.932  0.00  0.00     0.062 H 
ATOM     51  C   LIG d   1       2.788   1.498  -8.578  0.00  0.00    -0.052 A 
ATOM     52  C   LIG d   1       2.739   1.550  -7.200  0.00  0.00    -0.053 A 
ATOM     53  H   LIG d   1       2.473   2.349  -9.163  0.00  0.00     0.062 H 
ATOM     54  H   LIG d   1       2.385   2.444  -6.708  0.00  0.00     0.062 H 
BRANCH  49  55
ATOM     55  C   LIG d   1       3.301   0.277 -10.686  0.00  0.00     0.072 C 
ATOM     56  O   LIG d   1       3.922   1.124 -11.313  0.00  0.00    -0.545 OA
ATOM     57  O   LIG d   1       2.727  -0.624 -11.281  0.00  0.00    -0.545 OA
ENDBRANCH  49  55
ENDBRANCH  42  45
ENDBRANCH   6  42
TORSDOF 10
ENDMDL
MODEL 5
REMARK VINA RESULT:      -6.4      4.842      8.499
REMARK  10 active torsions:
REMARK  status: ('A' for Active; 'I' for Inactive)
REMARK    1  A    between atoms: C_1  and  O_2 
REMARK    2  A    between atoms: O_2  and  C_3 
REMARK    3  A    between atoms: C_3  and  C_4 
REMARK    4  A    between atoms: C_4  and  N_5 
REMARK    5  A    between atoms: N_5  and  C_6 
REMARK    6  A    between atoms: C_9  and  C_12 
REMARK    7  A    between atoms: C_14  and  C_17 
REMARK    8  A    between atoms: N_22  and  C_23 
REMARK    9  A    between atoms: C_23  and  C_24 
REMARK   10  A    between atoms: C_27  and  C_30 
ROOT
ATOM      1  C   LIG d   1       3.226  -0.795  -9.654  0.00  0.00     0.060 C 
ATOM      2  H   LIG d   1       2.254  -0.411  -9.964  0.00  0.00     0.095 H 
ATOM      3  C   LIG d   1       4.309  -0.461 -10.711  0.00  0.00     0.004 C 
ATOM      4  C   LIG d   1       4.677   1.003 -10.378  0.00  0.00    -0.007 C 
ATOM      5  C   LIG d   1       4.254   1.200  -8.911  0.00  0.00    -0.031 C 
ATOM      6  N   LIG d   1       3.705  -0.091  -8.438  0.00  0.00     0.247 N 
ATOM      7  H   LIG d   1       5.175  -1.113 -10.595  0.00  0.00     0.033 H 
ATOM      8  H   LIG d   1       3.901  -0.537 -11.719  0.00  0.00     0.033 H 
ATOM      9  H   LIG d   1       5.751   1.157 -10.487  0.00  0.00     0.032 H 
ATOM     10  H   LIG d   1       4.129   1.688 -11.025  0.00  0.00     0.032 H 
ATOM     11  H   LIG d   1       5.120   1.479  -8.309  0.00  0.00     0.082 H 
ATOM     12  H   LIG d   1       3.489   1.972  -8.846  0.00  0.00     0.082 H 
ATOM     13  H   LIG d   1       4.428  -0.630  -7.985  0.00  0.00     0.204 HD
ENDROOT
BRANCH   1  14
ATOM     14  C   LIG d   1       3.156  -2.281  -9.416  0.00  0.00     0.276 A 
ATOM     15  N   LIG d   1       3.751  -2.926  -8.452  0.00  0.00    -0.186 NA
ATOM     16  C   LIG d   1       3.474  -4.240  -8.538  0.00  0.00     0.208 A 
ATOM     17  N   LIG d   1       2.695  -4.437  -9.573  0.00  0.00    -0.056 NA
ATOM     18  O   LIG d   1       2.473  -3.162 -10.158  0.00  0.00    -0.332 OA
BRANCH  16  19
ATOM     19  C   LIG d   1       3.972  -5.290  -7.616  0.00  0.00     0.086 A 
ATOM     20  C   LIG d   1       4.150  -5.013  -6.256  0.00  0.00    -0.038 A 
ATOM     21  C   LIG d   1       4.614  -6.022  -5.436  0.00  0.00     0.027 A 
ATOM     22  H   LIG d   1       3.930  -4.034  -5.856  0.00  0.00     0.063 H 
ATOM     23  C   LIG d   1       4.888  -7.273  -5.984  0.00  0.00     0.269 A 
ATOM     24  H   LIG d   1       4.764  -5.844  -4.381  0.00  0.00     0.070 H 
ATOM     25  N   LIG d   1       4.712  -7.500  -7.278  0.00  0.00    -0.198 N 
ATOM     26  C   LIG d   1       4.265  -6.565  -8.092  0.00  0.00     0.182 A 
ATOM     27  H   LIG d   1       4.914  -8.379  -7.634  0.00  0.00     0.454 HD
ATOM     28  H   LIG d   1       4.130  -6.788  -9.140  0.00  0.00     0.138 H 
BRANCH  23  29
ATOM     29  N   LIG d   1       5.354  -8.293  -5.167  0.00  0.00    -0.289 N 
ATOM     30  H   LIG d   1       5.505  -8.127  -4.223  0.00  0.00     0.152 HD
BRANCH  29  31
ATOM     31  C   LIG d   1       5.617  -9.619  -5.730  0.00  0.00     0.038 C 
ATOM     32  H   LIG d   1       6.534 -10.022  -5.299  0.00  0.00     0.049 H 
ATOM     33  H   LIG d   1       5.728  -9.540  -6.812  0.00  0.00     0.049 H 
BRANCH  31  34
ATOM     34  C   LIG d   1       4.449 -10.553  -5.404  0.00  0.00     0.063 C 
ATOM     35  H   LIG d   1       4.834 -11.488  -4.997  0.00  0.00     0.058 H 
ATOM     36  H   LIG d   1       3.883 -10.758  -6.312  0.00  0.00     0.058 H 
BRANCH  34  37
ATOM     37  O   LIG d   1       3.596  -9.930  -4.442  0.00  0.00    -0.381 OA
BRANCH  37  38
ATOM     38  C   LIG d   1       3.289 -10.755  -3.316  0.00  0.00     0.036 C 
ATOM     39  H   LIG d   1       2.435 -10.339  -2.783  0.00  0.00     0.052 H 
ATOM     40  H   LIG d   1       3.047 -11.761  -3.659  0.00  0.00     0.052 H 
ATOM     41  H   LIG d   1       4.150 -10.795  -2.650  0.00  0.00     0.052 H 
ENDBRANCH  37  38
ENDBRANCH  34  37
ENDBRANCH  31  34
ENDBRANCH  29  31
ENDBRANCH  23  29
ENDBRANCH  16  19
ENDBRANCH   1  14
BRANCH   6  42
ATOM     42  C   LIG d   1       2.587   0.138  -7.512  0.00  0.00    -0.005 C 
ATOM     43  H   LIG d   1       2.138   1.110  -7.718  0.00  0.00     0.087 H 
ATOM     44  H   LIG d   1       1.839  -0.644  -7.645  0.00  0.00     0.087 H 
BRANCH  42  45
ATOM     45  C   LIG d   1       3.096   0.111  -6.093  0.00  0.00    -0.003 A 
ATOM     46  C   LIG d   1       2.437   0.831  -5.112  0.00  0.00    -0.053 A 
ATOM     47  C   LIG d   1       2.893   0.806  -3.811  0.00  0.00    -0.052 A 
ATOM     48  H   LIG d   1       1.562   1.410  -5.366  0.00  0.00     0.062 H 
ATOM     49  C   LIG d   1       4.029   0.061  -3.487  0.00  0.00    -0.003 A 
ATOM     50  H   LIG d   1       2.376   1.365  -3.045  0.00  0.00     0.062 H 
ATOM     51  C   LIG d   1       4.692  -0.660  -4.484  0.00  0.00    -0.052 A 
ATOM     52  C   LIG d   1       4.222  -0.629  -5.781  0.00  0.00    -0.053 A 
ATOM     53  H   LIG d   1       5.571  -1.238  -4.241  0.00  0.00     0.062 H 
ATOM     54  H   LIG d   1       4.734  -1.185  -6.552  0.00  0.00     0.062 H 
BRANCH  49  55
ATOM     55  C   LIG d   1       4.526   0.033  -2.098  0.00  0.00     0.072 C 
ATOM     56  O   LIG d   1       4.480  -1.005  -1.452  0.00  0.00    -0.545 OA
ATOM     57  O   LIG d   1       4.985   1.047  -1.592  0.00  0.00    -0.545 OA
ENDBRANCH  49  55
ENDBRANCH  42  45
ENDBRANCH   6  42
TORSDOF 10
ENDMDL
MODEL 6
REMARK VINA RESULT:      -6.3      3.331      5.901
REMARK  10 active torsions:
REMARK  status: ('A' for Active; 'I' for Inactive)
REMARK    1  A    between atoms: C_1  and  O_2 
REMARK    2  A    between atoms: O_2  and  C_3 
REMARK    3  A    between atoms: C_3  and  C_4 
REMARK    4  A    between atoms: C_4  and  N_5 
REMARK    5  A    between atoms: N_5  and  C_6 
REMARK    6  A    between atoms: C_9  and  C_12 
REMARK    7  A    between atoms: C_14  and  C_17 
REMARK    8  A    between atoms: N_22  and  C_23 
REMARK    9  A    between atoms: C_23  and  C_24 
REMARK   10  A    between atoms: C_27  and  C_30 
ROOT
ATOM      1  C   LIG d   1       9.742   2.867  -5.119  0.00  0.00     0.060 C 
ATOM      2  H   LIG d   1      10.595   2.192  -5.186  0.00  0.00     0.095 H 
ATOM      3  C   LIG d   1       9.547   3.636  -6.450  0.00  0.00     0.004 C 
ATOM      4  C   LIG d   1       8.788   2.617  -7.329  0.00  0.00    -0.007 C 
ATOM      5  C   LIG d   1       8.130   1.641  -6.337  0.00  0.00    -0.031 C 
ATOM      6  N   LIG d   1       8.477   2.104  -4.975  0.00  0.00     0.247 N 
ATOM      7  H   LIG d   1       8.947   4.533  -6.293  0.00  0.00     0.033 H 
ATOM      8  H   LIG d   1      10.510   3.889  -6.894  0.00  0.00     0.033 H 
ATOM      9  H   LIG d   1       8.027   3.123  -7.924  0.00  0.00     0.032 H 
ATOM     10  H   LIG d   1       9.484   2.085  -7.978  0.00  0.00     0.032 H 
ATOM     11  H   LIG d   1       7.047   1.650  -6.469  0.00  0.00     0.082 H 
ATOM     12  H   LIG d   1       8.517   0.635  -6.495  0.00  0.00     0.082 H 
ATOM     13  H   LIG d   1       7.749   2.702  -4.615  0.00  0.00     0.204 HD
ENDROOT
BRANCH   1  14
ATOM     14  C   LIG d   1       9.918   3.828  -3.971  0.00  0.00     0.276 A 
ATOM     15  N   LIG d   1       9.669   5.107  -4.004  0.00  0.00    -0.186 NA
ATOM     16  C   LIG d   1       9.936   5.658  -2.806  0.00  0.00     0.208 A 
ATOM     17  N   LIG d   1      10.364   4.720  -1.999  0.00  0.00    -0.056 NA
ATOM     18  O   LIG d   1      10.353   3.511  -2.745  0.00  0.00    -0.332 OA
BRANCH  16  19
ATOM     19  C   LIG d   1       9.776   7.092  -2.459  0.00  0.00     0.086 A 
ATOM     20  C   LIG d   1      10.453   8.077  -3.189  0.00  0.00    -0.038 A 
ATOM     21  C   LIG d   1      10.273   9.398  -2.831  0.00  0.00     0.027 A 
ATOM     22  H   LIG d   1      11.099   7.811  -4.012  0.00  0.00     0.063 H 
ATOM     23  C   LIG d   1       9.432   9.705  -1.765  0.00  0.00     0.269 A 
ATOM     24  H   LIG d   1      10.778  10.185  -3.372  0.00  0.00     0.070 H 
ATOM     25  N   LIG d   1       8.810   8.748  -1.092  0.00  0.00    -0.198 N 
ATOM     26  C   LIG d   1       8.951   7.476  -1.407  0.00  0.00     0.182 A 
ATOM     27  H   LIG d   1       8.233   8.989  -0.351  0.00  0.00     0.454 HD
ATOM     28  H   LIG d   1       8.426   6.723  -0.839  0.00  0.00     0.138 H 
BRANCH  23  29
ATOM     29  N   LIG d   1       9.245  11.031  -1.399  0.00  0.00    -0.289 N 
ATOM     30  H   LIG d   1       8.373  11.445  -1.502  0.00  0.00     0.152 HD
BRANCH  29  31
ATOM     31  C   LIG d   1      10.363  11.805  -0.855  0.00  0.00     0.038 C 
ATOM     32  H   LIG d   1      10.180  12.868  -1.009  0.00  0.00     0.049 H 
ATOM     33  H   LIG d   1      11.285  11.517  -1.362  0.00  0.00     0.049 H 
BRANCH  31  34
ATOM     34  C   LIG d   1      10.497  11.524   0.644  0.00  0.00     0.063 C 
ATOM     35  H   LIG d   1      11.474  11.086   0.845  0.00  0.00     0.058 H 
ATOM     36  H   LIG d   1       9.716  10.831   0.955  0.00  0.00     0.058 H 
BRANCH  34  37
ATOM     37  O   LIG d   1      10.364  12.748   1.371  0.00  0.00    -0.381 OA
BRANCH  37  38
ATOM     38  C   LIG d   1      10.387  13.917   0.549  0.00  0.00     0.036 C 
ATOM     39  H   LIG d   1      11.267  13.893  -0.092  0.00  0.00     0.052 H 
ATOM     40  H   LIG d   1       9.489  13.945  -0.067  0.00  0.00     0.052 H 
ATOM     41  H   LIG d   1      10.422  14.804   1.182  0.00  0.00     0.052 H 
ENDBRANCH  37  38
ENDBRANCH  34  37
ENDBRANCH  31  34
ENDBRANCH  29  31
ENDBRANCH  23  29
ENDBRANCH  16  19
ENDBRANCH   1  14
BRANCH   6  42
ATOM     42  C   LIG d   1       8.678   0.955  -4.081  0.00  0.00    -0.005 C 
ATOM     43  H   LIG d   1       9.295   0.208  -4.582  0.00  0.00     0.087 H 
ATOM     44  H   LIG d   1       9.177   1.286  -3.170  0.00  0.00     0.087 H 
BRANCH  42  45
ATOM     45  C   LIG d   1       7.342   0.350  -3.731  0.00  0.00    -0.003 A 
ATOM     46  C   LIG d   1       6.331   1.155  -3.237  0.00  0.00    -0.053 A 
ATOM     47  C   LIG d   1       5.104   0.611  -2.919  0.00  0.00    -0.052 A 
ATOM     48  H   LIG d   1       6.502   2.214  -3.103  0.00  0.00     0.062 H 
ATOM     49  C   LIG d   1       4.888  -0.759  -3.088  0.00  0.00    -0.003 A 
ATOM     50  H   LIG d   1       4.314   1.240  -2.538  0.00  0.00     0.062 H 
ATOM     51  C   LIG d   1       5.916  -1.567  -3.582  0.00  0.00    -0.052 A 
ATOM     52  C   LIG d   1       7.136  -1.007  -3.900  0.00  0.00    -0.053 A 
ATOM     53  H   LIG d   1       5.756  -2.626  -3.714  0.00  0.00     0.062 H 
ATOM     54  H   LIG d   1       7.931  -1.630  -4.282  0.00  0.00     0.062 H 
BRANCH  49  55
ATOM     55  C   LIG d   1       3.580  -1.351  -2.746  0.00  0.00     0.072 C 
ATOM     56  O   LIG d   1       2.562  -0.678  -2.837  0.00  0.00    -0.545 OA
ATOM     57  O   LIG d   1       3.513  -2.513  -2.374  0.00  0.00    -0.545 OA
ENDBRANCH  49  55
ENDBRANCH  42  45
ENDBRANCH   6  42
TORSDOF 10
ENDMDL
MODEL 7
REMARK VINA RESULT:      -6.3      5.333     10.184
REMARK  10 active torsions:
REMARK  status: ('A' for Active; 'I' for Inactive)
REMARK    1  A    between atoms: C_1  and  O_2 
REMARK    2  A    between atoms: O_2  and  C_3 
REMARK    3  A    between atoms: C_3  and  C_4 
REMARK    4  A    between atoms: C_4  and  N_5 
REMARK    5  A    between atoms: N_5  and  C_6 
REMARK    6  A    between atoms: C_9  and  C_12 
REMARK    7  A    between atoms: C_14  and  C_17 
REMARK    8  A    between atoms: N_22  and  C_23 
REMARK    9  A    between atoms: C_23  and  C_24 
REMARK   10  A    between atoms: C_27  and  C_30 
ROOT
ATOM      1  C   LIG d   1       4.534  -1.694  -4.045  0.00  0.00     0.060 C 
ATOM      2  H   LIG d   1       5.361  -1.036  -3.779  0.00  0.00     0.095 H 
ATOM      3  C   LIG d   1       3.660  -2.004  -2.805  0.00  0.00     0.004 C 
ATOM      4  C   LIG d   1       2.755  -0.756  -2.698  0.00  0.00    -0.007 C 
ATOM      5  C   LIG d   1       2.756  -0.137  -4.108  0.00  0.00    -0.031 C 
ATOM      6  N   LIG d   1       3.593  -1.007  -4.966  0.00  0.00     0.247 N 
ATOM      7  H   LIG d   1       3.063  -2.901  -2.968  0.00  0.00     0.033 H 
ATOM      8  H   LIG d   1       4.279  -2.110  -1.913  0.00  0.00     0.033 H 
ATOM      9  H   LIG d   1       1.743  -1.045  -2.413  0.00  0.00     0.032 H 
ATOM     10  H   LIG d   1       3.166  -0.051  -1.976  0.00  0.00     0.032 H 
ATOM     11  H   LIG d   1       1.738  -0.099  -4.498  0.00  0.00     0.082 H 
ATOM     12  H   LIG d   1       3.181   0.865  -4.073  0.00  0.00     0.082 H 
ATOM     13  H   LIG d   1       3.015  -1.684  -5.442  0.00  0.00     0.204 HD
ENDROOT
BRANCH   1  14
ATOM     14  C   LIG d   1       5.050  -2.967  -4.665  0.00  0.00     0.276 A 
ATOM     15  N   LIG d   1       4.373  -3.761  -5.446  0.00  0.00    -0.186 NA
ATOM     16  C   LIG d   1       5.139  -4.803  -5.817  0.00  0.00     0.208 A 
ATOM     17  N   LIG d   1       6.319  -4.675  -5.262  0.00  0.00    -0.056 NA
ATOM     18  O   LIG d   1       6.279  -3.473  -4.507  0.00  0.00    -0.332 OA
BRANCH  16  19
ATOM     19  C   LIG d   1       4.715  -5.915  -6.703  0.00  0.00     0.086 A 
ATOM     20  C   LIG d   1       4.942  -7.245  -6.329  0.00  0.00    -0.038 A 
ATOM     21  C   LIG d   1       4.530  -8.246  -7.185  0.00  0.00     0.027 A 
ATOM     22  H   LIG d   1       5.427  -7.483  -5.394  0.00  0.00     0.063 H 
ATOM     23  C   LIG d   1       3.908  -7.905  -8.383  0.00  0.00     0.269 A 
ATOM     24  H   LIG d   1       4.688  -9.284  -6.929  0.00  0.00     0.070 H 
ATOM     25  N   LIG d   1       3.713  -6.635  -8.708  0.00  0.00    -0.198 N 
ATOM     26  C   LIG d   1       4.086  -5.651  -7.916  0.00  0.00     0.182 A 
ATOM     27  H   LIG d   1       3.281  -6.425  -9.551  0.00  0.00     0.454 HD
ATOM     28  H   LIG d   1       3.907  -4.628  -8.212  0.00  0.00     0.138 H 
BRANCH  23  29
ATOM     29  N   LIG d   1       3.490  -8.905  -9.249  0.00  0.00    -0.289 N 
ATOM     30  H   LIG d   1       3.550  -9.836  -8.981  0.00  0.00     0.152 HD
BRANCH  29  31
ATOM     31  C   LIG d   1       2.958  -8.556 -10.569  0.00  0.00     0.038 C 
ATOM     32  H   LIG d   1       3.370  -9.232 -11.318  0.00  0.00     0.049 H 
ATOM     33  H   LIG d   1       3.235  -7.530 -10.813  0.00  0.00     0.049 H 
BRANCH  31  34
ATOM     34  C   LIG d   1       1.433  -8.683 -10.554  0.00  0.00     0.063 C 
ATOM     35  H   LIG d   1       1.152  -9.625 -10.083  0.00  0.00     0.058 H 
ATOM     36  H   LIG d   1       1.056  -8.662 -11.576  0.00  0.00     0.058 H 
BRANCH  34  37
ATOM     37  O   LIG d   1       0.872  -7.595  -9.817  0.00  0.00    -0.381 OA
BRANCH  37  38
ATOM     38  C   LIG d   1       0.659  -6.415 -10.595  0.00  0.00     0.036 C 
ATOM     39  H   LIG d   1      -0.195  -6.565 -11.256  0.00  0.00     0.052 H 
ATOM     40  H   LIG d   1       0.461  -5.574  -9.932  0.00  0.00     0.052 H 
ATOM     41  H   LIG d   1       1.548  -6.208 -11.191  0.00  0.00     0.052 H 
ENDBRANCH  37  38
ENDBRANCH  34  37
ENDBRANCH  31  34
ENDBRANCH  29  31
ENDBRANCH  23  29
ENDBRANCH  16  19
ENDBRANCH   1  14
BRANCH   6  42
ATOM     42  C   LIG d   1       4.337  -0.198  -5.941  0.00  0.00    -0.005 C 
ATOM     43  H   LIG d   1       4.297   0.851  -5.649  0.00  0.00     0.087 H 
ATOM     44  H   LIG d   1       5.376  -0.528  -5.969  0.00  0.00     0.087 H 
BRANCH  42  45
ATOM     45  C   LIG d   1       3.720  -0.364  -7.306  0.00  0.00    -0.003 A 
ATOM     46  C   LIG d   1       3.041   0.692  -7.887  0.00  0.00    -0.053 A 
ATOM     47  C   LIG d   1       2.478   0.550  -9.138  0.00  0.00    -0.052 A 
ATOM     48  H   LIG d   1       2.953   1.631  -7.360  0.00  0.00     0.062 H 
ATOM     49  C   LIG d   1       2.588  -0.668  -9.815  0.00  0.00    -0.003 A 
ATOM     50  H   LIG d   1       1.951   1.375  -9.593  0.00  0.00     0.062 H 
ATOM     51  C   LIG d   1       3.272  -1.731  -9.220  0.00  0.00    -0.052 A 
ATOM     52  C   LIG d   1       3.833  -1.573  -7.969  0.00  0.00    -0.053 A 
ATOM     53  H   LIG d   1       3.360  -2.675  -9.737  0.00  0.00     0.062 H 
ATOM     54  H   LIG d   1       4.361  -2.394  -7.509  0.00  0.00     0.062 H 
BRANCH  49  55
ATOM     55  C   LIG d   1       1.985  -0.830 -11.152  0.00  0.00     0.072 C 
ATOM     56  O   LIG d   1       2.696  -0.827 -12.148  0.00  0.00    -0.545 OA
ATOM     57  O   LIG d   1       0.776  -0.967 -11.265  0.00  0.00    -0.545 OA
ENDBRANCH  49  55
ENDBRANCH  42  45
ENDBRANCH   6  42
TORSDOF 10
ENDMDL
MODEL 8
REMARK VINA RESULT:      -6.2      6.668      9.398
REMARK  10 active torsions:
REMARK  status: ('A' for Active; 'I' for Inactive)
REMARK    1  A    between atoms: C_1  and  O_2 
REMARK    2  A    between atoms: O_2  and  C_3 
REMARK    3  A    between atoms: C_3  and  C_4 
REMARK    4  A    between atoms: C_4  and  N_5 
REMARK    5  A    between atoms: N_5  and  C_6 
REMARK    6  A    between atoms: C_9  and  C_12 
REMARK    7  A    between atoms: C_14  and  C_17 
REMARK    8  A    between atoms: N_22  and  C_23 
REMARK    9  A    between atoms: C_23  and  C_24 
REMARK   10  A    between atoms: C_27  and  C_30 
ROOT
ATOM      1  C   LIG d   1       5.022  -9.844  -4.895  0.00  0.00     0.060 C 
ATOM      2  H   LIG d   1       5.401 -10.633  -5.544  0.00  0.00     0.095 H 
ATOM      3  C   LIG d   1       3.754 -10.317  -4.140  0.00  0.00     0.004 C 
ATOM      4  C   LIG d   1       4.337 -11.133  -2.964  0.00  0.00    -0.007 C 
ATOM      5  C   LIG d   1       5.778 -10.620  -2.794  0.00  0.00    -0.031 C 
ATOM      6  N   LIG d   1       5.984  -9.555  -3.801  0.00  0.00     0.247 N 
ATOM      7  H   LIG d   1       3.182  -9.465  -3.773  0.00  0.00     0.033 H 
ATOM      8  H   LIG d   1       3.137 -10.949  -4.780  0.00  0.00     0.033 H 
ATOM      9  H   LIG d   1       3.761 -10.951  -2.056  0.00  0.00     0.032 H 
ATOM     10  H   LIG d   1       4.339 -12.196  -3.204  0.00  0.00     0.032 H 
ATOM     11  H   LIG d   1       5.913 -10.214  -1.790  0.00  0.00     0.082 H 
ATOM     12  H   LIG d   1       6.484 -11.432  -2.966  0.00  0.00     0.082 H 
ATOM     13  H   LIG d   1       5.789  -8.651  -3.396  0.00  0.00     0.204 HD
ENDROOT
BRANCH   1  14
ATOM     14  C   LIG d   1       4.732  -8.597  -5.691  0.00  0.00     0.276 A 
ATOM     15  N   LIG d   1       4.888  -7.373  -5.272  0.00  0.00    -0.186 NA
ATOM     16  C   LIG d   1       4.534  -6.507  -6.239  0.00  0.00     0.208 A 
ATOM     17  N   LIG d   1       4.144  -7.188  -7.289  0.00  0.00    -0.056 NA
ATOM     18  O   LIG d   1       4.271  -8.561  -6.948  0.00  0.00    -0.332 OA
BRANCH  16  19
ATOM     19  C   LIG d   1       4.576  -5.028  -6.133  0.00  0.00     0.086 A 
ATOM     20  C   LIG d   1       5.198  -4.414  -5.040  0.00  0.00    -0.038 A 
ATOM     21  C   LIG d   1       5.213  -3.035  -4.985  0.00  0.00     0.027 A 
ATOM     22  H   LIG d   1       5.656  -5.003  -4.260  0.00  0.00     0.063 H 
ATOM     23  C   LIG d   1       4.613  -2.305  -6.008  0.00  0.00     0.269 A 
ATOM     24  H   LIG d   1       5.685  -2.526  -4.156  0.00  0.00     0.070 H 
ATOM     25  N   LIG d   1       4.029  -2.919  -7.026  0.00  0.00    -0.198 N 
ATOM     26  C   LIG d   1       3.998  -4.233  -7.119  0.00  0.00     0.182 A 
ATOM     27  H   LIG d   1       3.615  -2.387  -7.724  0.00  0.00     0.454 HD
ATOM     28  H   LIG d   1       3.516  -4.699  -7.965  0.00  0.00     0.138 H 
BRANCH  23  29
ATOM     29  N   LIG d   1       4.625  -0.918  -5.960  0.00  0.00    -0.289 N 
ATOM     30  H   LIG d   1       5.461  -0.444  -5.828  0.00  0.00     0.152 HD
BRANCH  29  31
ATOM     31  C   LIG d   1       3.374  -0.171  -6.109  0.00  0.00     0.038 C 
ATOM     32  H   LIG d   1       2.618  -0.812  -6.563  0.00  0.00     0.049 H 
ATOM     33  H   LIG d   1       3.543   0.698  -6.745  0.00  0.00     0.049 H 
BRANCH  31  34
ATOM     34  C   LIG d   1       2.888   0.291  -4.733  0.00  0.00     0.063 C 
ATOM     35  H   LIG d   1       2.316  -0.508  -4.263  0.00  0.00     0.058 H 
ATOM     36  H   LIG d   1       2.257   1.172  -4.847  0.00  0.00     0.058 H 
BRANCH  34  37
ATOM     37  O   LIG d   1       4.015   0.615  -3.915  0.00  0.00    -0.381 OA
BRANCH  37  38
ATOM     38  C   LIG d   1       3.728   1.554  -2.877  0.00  0.00     0.036 C 
ATOM     39  H   LIG d   1       2.765   1.315  -2.427  0.00  0.00     0.052 H 
ATOM     40  H   LIG d   1       4.507   1.503  -2.116  0.00  0.00     0.052 H 
ATOM     41  H   LIG d   1       3.694   2.560  -3.296  0.00  0.00     0.052 H 
ENDBRANCH  37  38
ENDBRANCH  34  37
ENDBRANCH  31  34
ENDBRANCH  29  31
ENDBRANCH  23  29
ENDBRANCH  16  19
ENDBRANCH   1  14
BRANCH   6  42
ATOM     42  C   LIG d   1       7.360  -9.596  -4.315  0.00  0.00    -0.005 C 
ATOM     43  H   LIG d   1       7.866 -10.480  -3.927  0.00  0.00     0.087 H 
ATOM     44  H   LIG d   1       7.341  -9.636  -5.404  0.00  0.00     0.087 H 
BRANCH  42  45
ATOM     45  C   LIG d   1       8.099  -8.359  -3.871  0.00  0.00    -0.003 A 
ATOM     46  C   LIG d   1       8.694  -8.323  -2.622  0.00  0.00    -0.053 A 
ATOM     47  C   LIG d   1       9.376  -7.197  -2.212  0.00  0.00    -0.052 A 
ATOM     48  H   LIG d   1       8.626  -9.181  -1.969  0.00  0.00     0.062 H 
ATOM     49  C   LIG d   1       9.457  -6.087  -3.057  0.00  0.00    -0.003 A 
ATOM     50  H   LIG d   1       9.844  -7.172  -1.239  0.00  0.00     0.062 H 
ATOM     51  C   LIG d   1       8.849  -6.129  -4.314  0.00  0.00    -0.052 A 
ATOM     52  C   LIG d   1       8.174  -7.264  -4.713  0.00  0.00    -0.053 A 
ATOM     53  H   LIG d   1       8.908  -5.275  -4.972  0.00  0.00     0.062 H 
ATOM     54  H   LIG d   1       7.704  -7.297  -5.685  0.00  0.00     0.062 H 
BRANCH  49  55
ATOM     55  C   LIG d   1      10.181  -4.878  -2.623  0.00  0.00     0.072 C 
ATOM     56  O   LIG d   1      11.319  -4.670  -3.022  0.00  0.00    -0.545 OA
ATOM     57  O   LIG d   1       9.645  -4.081  -1.866  0.00  0.00    -0.545 OA
ENDBRANCH  49  55
ENDBRANCH  42  45
ENDBRANCH   6  42
TORSDOF 10
ENDMDL
MODEL 9
REMARK VINA RESULT:      -6.2      5.977     13.743
REMARK  10 active torsions:
REMARK  status: ('A' for Active; 'I' for Inactive)
REMARK    1  A    between atoms: C_1  and  O_2 
REMARK    2  A    between atoms: O_2  and  C_3 
REMARK    3  A    between atoms: C_3  and  C_4 
REMARK    4  A    between atoms: C_4  and  N_5 
REMARK    5  A    between atoms: N_5  and  C_6 
REMARK    6  A    between atoms: C_9  and  C_12 
REMARK    7  A    between atoms: C_14  and  C_17 
REMARK    8  A    between atoms: N_22  and  C_23 
REMARK    9  A    between atoms: C_23  and  C_24 
REMARK   10  A    between atoms: C_27  and  C_30 
ROOT
ATOM      1  C   LIG d   1      13.487  10.339   4.042  0.00  0.00     0.060 C 
ATOM      2  H   LIG d   1      13.332  11.346   4.430  0.00  0.00     0.095 H 
ATOM      3  C   LIG d   1      14.963  10.139   3.616  0.00  0.00     0.004 C 
ATOM      4  C   LIG d   1      15.672   9.834   4.955  0.00  0.00    -0.007 C 
ATOM      5  C   LIG d   1      14.559   9.332   5.893  0.00  0.00    -0.031 C 
ATOM      6  N   LIG d   1      13.300   9.328   5.114  0.00  0.00     0.247 N 
ATOM      7  H   LIG d   1      15.056   9.297   2.930  0.00  0.00     0.033 H 
ATOM      8  H   LIG d   1      15.362  11.049   3.167  0.00  0.00     0.033 H 
ATOM      9  H   LIG d   1      16.427   9.060   4.816  0.00  0.00     0.032 H 
ATOM     10  H   LIG d   1      16.127  10.739   5.358  0.00  0.00     0.032 H 
ATOM     11  H   LIG d   1      14.788   8.321   6.235  0.00  0.00     0.082 H 
ATOM     12  H   LIG d   1      14.463  10.002   6.747  0.00  0.00     0.082 H 
ATOM     13  H   LIG d   1      13.144   8.418   4.711  0.00  0.00     0.204 HD
ENDROOT
BRANCH   1  14
ATOM     14  C   LIG d   1      12.559  10.067   2.887  0.00  0.00     0.276 A 
ATOM     15  N   LIG d   1      12.408   8.921   2.285  0.00  0.00    -0.186 NA
ATOM     16  C   LIG d   1      11.501   9.035   1.299  0.00  0.00     0.208 A 
ATOM     17  N   LIG d   1      11.069  10.271   1.268  0.00  0.00    -0.056 NA
ATOM     18  O   LIG d   1      11.749  10.961   2.307  0.00  0.00    -0.332 OA
BRANCH  16  19
ATOM     19  C   LIG d   1      11.065   7.943   0.394  0.00  0.00     0.086 A 
ATOM     20  C   LIG d   1      10.365   8.234  -0.782  0.00  0.00    -0.038 A 
ATOM     21  C   LIG d   1       9.981   7.186  -1.594  0.00  0.00     0.027 A 
ATOM     22  H   LIG d   1      10.131   9.254  -1.050  0.00  0.00     0.063 H 
ATOM     23  C   LIG d   1      10.299   5.883  -1.219  0.00  0.00     0.269 A 
ATOM     24  H   LIG d   1       9.440   7.373  -2.510  0.00  0.00     0.070 H 
ATOM     25  N   LIG d   1      10.959   5.642  -0.096  0.00  0.00    -0.198 N 
ATOM     26  C   LIG d   1      11.348   6.615   0.703  0.00  0.00     0.182 A 
ATOM     27  H   LIG d   1      11.164   4.725   0.144  0.00  0.00     0.454 HD
ATOM     28  H   LIG d   1      11.888   6.381   1.608  0.00  0.00     0.138 H 
BRANCH  23  29
ATOM     29  N   LIG d   1       9.917   4.823  -2.030  0.00  0.00    -0.289 N 
ATOM     30  H   LIG d   1       9.024   4.799  -2.408  0.00  0.00     0.152 HD
BRANCH  29  31
ATOM     31  C   LIG d   1      10.863   3.741  -2.314  0.00  0.00     0.038 C 
ATOM     32  H   LIG d   1      11.126   3.235  -1.386  0.00  0.00     0.049 H 
ATOM     33  H   LIG d   1      11.763   4.155  -2.770  0.00  0.00     0.049 H 
BRANCH  31  34
ATOM     34  C   LIG d   1      10.219   2.740  -3.275  0.00  0.00     0.063 C 
ATOM     35  H   LIG d   1      10.496   1.727  -2.984  0.00  0.00     0.058 H 
ATOM     36  H   LIG d   1      10.566   2.934  -4.290  0.00  0.00     0.058 H 
BRANCH  34  37
ATOM     37  O   LIG d   1       8.797   2.878  -3.224  0.00  0.00    -0.381 OA
BRANCH  37  38
ATOM     38  C   LIG d   1       8.086   1.789  -3.816  0.00  0.00     0.036 C 
ATOM     39  H   LIG d   1       8.656   0.870  -3.688  0.00  0.00     0.052 H 
ATOM     40  H   LIG d   1       7.115   1.684  -3.332  0.00  0.00     0.052 H 
ATOM     41  H   LIG d   1       7.943   1.984  -4.879  0.00  0.00     0.052 H 
ENDBRANCH  37  38
ENDBRANCH  34  37
ENDBRANCH  31  34
ENDBRANCH  29  31
ENDBRANCH  23  29
ENDBRANCH  16  19
ENDBRANCH   1  14
BRANCH   6  42
ATOM     42  C   LIG d   1      12.168   9.705   5.972  0.00  0.00    -0.005 C 
ATOM     43  H   LIG d   1      12.489  10.464   6.686  0.00  0.00     0.087 H 
ATOM     44  H   LIG d   1      11.362  10.103   5.356  0.00  0.00     0.087 H 
BRANCH  42  45
ATOM     45  C   LIG d   1      11.677   8.490   6.718  0.00  0.00    -0.003 A 
ATOM     46  C   LIG d   1      11.628   8.504   8.100  0.00  0.00    -0.053 A 
ATOM     47  C   LIG d   1      11.175   7.398   8.789  0.00  0.00    -0.052 A 
ATOM     48  H   LIG d   1      11.942   9.385   8.641  0.00  0.00     0.062 H 
ATOM     49  C   LIG d   1      10.774   6.259   8.087  0.00  0.00    -0.003 A 
ATOM     50  H   LIG d   1      11.133   7.412   9.868  0.00  0.00     0.062 H 
ATOM     51  C   LIG d   1      10.831   6.250   6.691  0.00  0.00    -0.052 A 
ATOM     52  C   LIG d   1      11.283   7.366   6.015  0.00  0.00    -0.053 A 
ATOM     53  H   LIG d   1      10.523   5.373   6.142  0.00  0.00     0.062 H 
ATOM     54  H   LIG d   1      11.327   7.360   4.936  0.00  0.00     0.062 H 
BRANCH  49  55
ATOM     55  C   LIG d   1      10.292   5.071   8.816  0.00  0.00     0.072 C 
ATOM     56  O   LIG d   1      11.017   4.093   8.941  0.00  0.00    -0.545 OA
ATOM     57  O   LIG d   1       9.168   5.063   9.297  0.00  0.00    -0.545 OA
ENDBRANCH  49  55
ENDBRANCH  42  45
ENDBRANCH   6  42
TORSDOF 10
ENDMDL
