MODEL 1
REMARK VINA RESULT:      -7.0      0.000      0.000
REMARK  11 active torsions:
REMARK  status: ('A' for Active; 'I' for Inactive)
REMARK    1  A    between atoms: C_1  and  C_2 
REMARK    2  A    between atoms: C_7  and  C_35 
REMARK    3  A    between atoms: C_20  and  C_22 
REMARK    4  A    between atoms: C_22  and  N_65 
REMARK    5  A    between atoms: C_23  and  C_24 
REMARK    6  A    between atoms: C_23  and  N_65 
REMARK    7  A    between atoms: C_24  and  C_25 
REMARK    8  A    between atoms: C_28  and  O_33 
REMARK    9  A    between atoms: C_29  and  O_31 
REMARK   10  A    between atoms: O_31  and  C_32 
REMARK   11  A    between atoms: O_33  and  C_34 
ROOT
ATOM      1  C   LIG d   1       3.161  -0.158  -3.357  0.00  0.00    -0.012 C 
ATOM      2  H   LIG d   1       2.143   0.032  -3.695  0.00  0.00     0.033 H 
ATOM      3  C   LIG d   1       3.616   0.958  -2.429  0.00  0.00    -0.048 C 
ATOM      4  C   LIG d   1       5.078   0.744  -2.034  0.00  0.00    -0.052 C 
ATOM      5  C   LIG d   1       5.971   0.795  -3.277  0.00  0.00    -0.045 C 
ATOM      6  C   LIG d   1       5.588  -0.348  -4.218  0.00  0.00     0.003 C 
ATOM      7  C   LIG d   1       4.099  -0.221  -4.562  0.00  0.00     0.104 A 
ATOM      8  C   LIG d   1       3.615  -0.830  -5.864  0.00  0.00     0.096 A 
ATOM      9  H   LIG d   1       2.591  -1.198  -5.880  0.00  0.00     0.063 H 
ATOM     10  O   LIG d   1       3.760   0.582  -5.697  0.00  0.00    -0.363 OA
ATOM     11  C   LIG d   1       4.568  -1.539  -6.809  0.00  0.00     0.043 C 
ATOM     12  H   LIG d   1       4.426  -1.196  -7.834  0.00  0.00     0.037 H 
ATOM     13  C   LIG d   1       6.037  -1.441  -6.413  0.00  0.00     0.110 C 
ATOM     14  H   LIG d   1       6.607  -1.339  -7.337  0.00  0.00     0.074 H 
ATOM     15  C   LIG d   1       6.369  -0.256  -5.530  0.00  0.00    -0.007 C 
ATOM     16  O   LIG d   1       6.414  -2.700  -5.802  0.00  0.00    -0.461 OA
ATOM     17  C   LIG d   1       5.360  -3.527  -5.720  0.00  0.00     0.316 C 
ATOM     18  O   LIG d   1       5.268  -4.481  -4.983  0.00  0.00    -0.250 OA
ATOM     19  C   LIG d   1       4.304  -3.066  -6.708  0.00  0.00     0.105 C 
ATOM     20  H   LIG d   1       3.304  -3.260  -6.322  0.00  0.00     0.047 H 
ATOM     21  H   LIG d   1       2.996   0.963  -1.532  0.00  0.00     0.027 H 
ATOM     22  H   LIG d   1       3.516   1.913  -2.944  0.00  0.00     0.027 H 
ATOM     23  H   LIG d   1       5.185  -0.228  -1.554  0.00  0.00     0.027 H 
ATOM     24  H   LIG d   1       5.383   1.525  -1.338  0.00  0.00     0.027 H 
ATOM     25  H   LIG d   1       7.014   0.689  -2.980  0.00  0.00     0.027 H 
ATOM     26  H   LIG d   1       5.832   1.749  -3.787  0.00  0.00     0.027 H 
ATOM     27  H   LIG d   1       6.103   0.665  -6.046  0.00  0.00     0.031 H 
ATOM     28  H   LIG d   1       7.438  -0.256  -5.316  0.00  0.00     0.031 H 
ENDROOT
BRANCH  19  29
ATOM     29  C   LIG d   1       4.501  -3.744  -8.065  0.00  0.00    -0.020 C 
ATOM     30  H   LIG d   1       4.750  -2.992  -8.814  0.00  0.00     0.082 H 
ATOM     31  H   LIG d   1       5.311  -4.470  -7.996  0.00  0.00     0.082 H 
BRANCH  29  32
ATOM     32  N   LIG d   1       3.251  -4.430  -8.448  0.00  0.00     0.228 N 
ATOM     33  H   LIG d   1       2.467  -4.017  -7.930  0.00  0.00     0.201 HD
ATOM     34  H   LIG d   1       3.328  -5.427  -8.217  0.00  0.00     0.201 HD
BRANCH  32  35
ATOM     35  C   LIG d   1       3.010  -4.282  -9.895  0.00  0.00    -0.030 C 
ATOM     36  H   LIG d   1       3.903  -3.885 -10.378  0.00  0.00     0.082 H 
ATOM     37  H   LIG d   1       2.764  -5.252 -10.327  0.00  0.00     0.082 H 
BRANCH  35  38
ATOM     38  C   LIG d   1       1.843  -3.316 -10.112  0.00  0.00     0.013 C 
ATOM     39  H   LIG d   1       1.322  -3.578 -11.034  0.00  0.00     0.036 H 
ATOM     40  H   LIG d   1       1.152  -3.386  -9.272  0.00  0.00     0.036 H 
BRANCH  38  41
ATOM     41  C   LIG d   1       2.368  -1.908 -10.215  0.00  0.00    -0.039 A 
ATOM     42  C   LIG d   1       3.276  -1.581 -11.205  0.00  0.00    -0.013 A 
ATOM     43  C   LIG d   1       3.757  -0.285 -11.305  0.00  0.00     0.162 A 
ATOM     44  H   LIG d   1       3.608  -2.335 -11.905  0.00  0.00     0.066 H 
ATOM     45  C   LIG d   1       3.331   0.683 -10.400  0.00  0.00     0.162 A 
ATOM     46  C   LIG d   1       2.426   0.347  -9.406  0.00  0.00    -0.016 A 
ATOM     47  C   LIG d   1       1.947  -0.947  -9.316  0.00  0.00    -0.055 A 
ATOM     48  H   LIG d   1       2.094   1.096  -8.702  0.00  0.00     0.066 H 
ATOM     49  H   LIG d   1       1.241  -1.206  -8.541  0.00  0.00     0.062 H 
BRANCH  43  50
ATOM     50  O   LIG d   1       4.646   0.039 -12.282  0.00  0.00    -0.491 OA
BRANCH  50  51
ATOM     51  C   LIG d   1       4.428  -0.533 -13.573  0.00  0.00     0.079 C 
ATOM     52  H   LIG d   1       5.137  -1.345 -13.735  0.00  0.00     0.066 H 
ATOM     53  H   LIG d   1       3.411  -0.920 -13.633  0.00  0.00     0.066 H 
ATOM     54  H   LIG d   1       4.572   0.231 -14.338  0.00  0.00     0.066 H 
ENDBRANCH  50  51
ENDBRANCH  43  50
BRANCH  45  55
ATOM     55  O   LIG d   1       3.804   1.955 -10.490  0.00  0.00    -0.491 OA
BRANCH  55  56
ATOM     56  C   LIG d   1       4.050   2.644  -9.263  0.00  0.00     0.079 C 
ATOM     57  H   LIG d   1       3.201   2.507  -8.592  0.00  0.00     0.066 H 
ATOM     58  H   LIG d   1       4.950   2.244  -8.796  0.00  0.00     0.066 H 
ATOM     59  H   LIG d   1       4.186   3.706  -9.463  0.00  0.00     0.066 H 
ENDBRANCH  55  56
ENDBRANCH  45  55
ENDBRANCH  38  41
ENDBRANCH  35  38
ENDBRANCH  32  35
ENDBRANCH  29  32
ENDBRANCH  19  29
BRANCH   1  60
ATOM     60  C   LIG d   1       3.215  -1.484  -2.594  0.00  0.00    -0.060 C 
ATOM     61  H   LIG d   1       2.861  -2.288  -3.238  0.00  0.00     0.023 H 
ATOM     62  H   LIG d   1       4.242  -1.685  -2.290  0.00  0.00     0.023 H 
ATOM     63  H   LIG d   1       2.580  -1.419  -1.711  0.00  0.00     0.023 H 
ENDBRANCH   1  60
BRANCH   6  64
ATOM     64  C   LIG d   1       5.856  -1.695  -3.542  0.00  0.00    -0.057 C 
ATOM     65  H   LIG d   1       6.921  -1.786  -3.325  0.00  0.00     0.024 H 
ATOM     66  H   LIG d   1       5.289  -1.753  -2.613  0.00  0.00     0.024 H 
ATOM     67  H   LIG d   1       5.550  -2.502  -4.207  0.00  0.00     0.024 H 
ENDBRANCH   6  64
TORSDOF 11
ENDMDL
MODEL 2
REMARK VINA RESULT:      -6.8      2.281      6.270
REMARK  11 active torsions:
REMARK  status: ('A' for Active; 'I' for Inactive)
REMARK    1  A    between atoms: C_1  and  C_2 
REMARK    2  A    between atoms: C_7  and  C_35 
REMARK    3  A    between atoms: C_20  and  C_22 
REMARK    4  A    between atoms: C_22  and  N_65 
REMARK    5  A    between atoms: C_23  and  C_24 
REMARK    6  A    between atoms: C_23  and  N_65 
REMARK    7  A    between atoms: C_24  and  C_25 
REMARK    8  A    between atoms: C_28  and  O_33 
REMARK    9  A    between atoms: C_29  and  O_31 
REMARK   10  A    between atoms: O_31  and  C_32 
REMARK   11  A    between atoms: O_33  and  C_34 
ROOT
ATOM      1  C   LIG d   1       5.080   1.435  -9.591  0.00  0.00    -0.012 C 
ATOM      2  H   LIG d   1       6.089   1.791  -9.800  0.00  0.00     0.033 H 
ATOM      3  C   LIG d   1       4.131   2.616  -9.452  0.00  0.00    -0.048 C 
ATOM      4  C   LIG d   1       2.738   2.120  -9.062  0.00  0.00    -0.052 C 
ATOM      5  C   LIG d   1       2.792   1.418  -7.702  0.00  0.00    -0.045 C 
ATOM      6  C   LIG d   1       3.692   0.186  -7.808  0.00  0.00     0.003 C 
ATOM      7  C   LIG d   1       5.077   0.633  -8.290  0.00  0.00     0.104 A 
ATOM      8  C   LIG d   1       6.268  -0.237  -7.936  0.00  0.00     0.096 A 
ATOM      9  H   LIG d   1       7.095  -0.245  -8.645  0.00  0.00     0.063 H 
ATOM     10  O   LIG d   1       6.024   1.012  -7.287  0.00  0.00    -0.363 OA
ATOM     11  C   LIG d   1       6.106  -1.508  -7.124  0.00  0.00     0.043 C 
ATOM     12  H   LIG d   1       6.838  -1.551  -6.318  0.00  0.00     0.037 H 
ATOM     13  C   LIG d   1       4.700  -1.733  -6.578  0.00  0.00     0.110 C 
ATOM     14  H   LIG d   1       4.813  -2.170  -5.586  0.00  0.00     0.074 H 
ATOM     15  C   LIG d   1       3.875  -0.471  -6.439  0.00  0.00    -0.007 C 
ATOM     16  O   LIG d   1       4.052  -2.719  -7.420  0.00  0.00    -0.461 OA
ATOM     17  C   LIG d   1       4.852  -3.080  -8.437  0.00  0.00     0.316 C 
ATOM     18  O   LIG d   1       4.492  -3.606  -9.464  0.00  0.00    -0.250 OA
ATOM     19  C   LIG d   1       6.281  -2.721  -8.080  0.00  0.00     0.105 C 
ATOM     20  H   LIG d   1       6.841  -2.432  -8.969  0.00  0.00     0.047 H 
ATOM     21  H   LIG d   1       4.073   3.151 -10.400  0.00  0.00     0.027 H 
ATOM     22  H   LIG d   1       4.508   3.285  -8.680  0.00  0.00     0.027 H 
ATOM     23  H   LIG d   1       2.378   1.420  -9.815  0.00  0.00     0.027 H 
ATOM     24  H   LIG d   1       2.056   2.968  -9.003  0.00  0.00     0.027 H 
ATOM     25  H   LIG d   1       1.787   1.112  -7.412  0.00  0.00     0.027 H 
ATOM     26  H   LIG d   1       3.195   2.102  -6.954  0.00  0.00     0.027 H 
ATOM     27  H   LIG d   1       4.383   0.222  -5.769  0.00  0.00     0.031 H 
ATOM     28  H   LIG d   1       2.898  -0.724  -6.025  0.00  0.00     0.031 H 
ENDROOT
BRANCH  19  29
ATOM     29  C   LIG d   1       6.970  -3.884  -7.363  0.00  0.00    -0.020 C 
ATOM     30  H   LIG d   1       6.216  -4.540  -6.928  0.00  0.00     0.082 H 
ATOM     31  H   LIG d   1       7.571  -4.446  -8.077  0.00  0.00     0.082 H 
BRANCH  29  32
ATOM     32  N   LIG d   1       7.837  -3.348  -6.296  0.00  0.00     0.228 N 
ATOM     33  H   LIG d   1       7.786  -2.323  -6.302  0.00  0.00     0.201 HD
ATOM     34  H   LIG d   1       8.804  -3.646  -6.464  0.00  0.00     0.201 HD
BRANCH  32  35
ATOM     35  C   LIG d   1       7.396  -3.848  -4.980  0.00  0.00    -0.030 C 
ATOM     36  H   LIG d   1       6.309  -3.798  -4.914  0.00  0.00     0.082 H 
ATOM     37  H   LIG d   1       7.720  -4.881  -4.853  0.00  0.00     0.082 H 
BRANCH  35  38
ATOM     38  C   LIG d   1       8.014  -2.981  -3.882  0.00  0.00     0.013 C 
ATOM     39  H   LIG d   1       8.067  -3.552  -2.955  0.00  0.00     0.036 H 
ATOM     40  H   LIG d   1       9.018  -2.678  -4.180  0.00  0.00     0.036 H 
BRANCH  38  41
ATOM     41  C   LIG d   1       7.161  -1.757  -3.669  0.00  0.00    -0.039 A 
ATOM     42  C   LIG d   1       7.631  -0.514  -4.054  0.00  0.00    -0.013 A 
ATOM     43  C   LIG d   1       6.847   0.613  -3.864  0.00  0.00     0.162 A 
ATOM     44  H   LIG d   1       8.606  -0.422  -4.508  0.00  0.00     0.066 H 
ATOM     45  C   LIG d   1       5.592   0.491  -3.275  0.00  0.00     0.162 A 
ATOM     46  C   LIG d   1       5.130  -0.756  -2.885  0.00  0.00    -0.016 A 
ATOM     47  C   LIG d   1       5.916  -1.877  -3.082  0.00  0.00    -0.055 A 
ATOM     48  H   LIG d   1       4.156  -0.853  -2.427  0.00  0.00     0.066 H 
ATOM     49  H   LIG d   1       5.554  -2.847  -2.778  0.00  0.00     0.062 H 
BRANCH  43  50
ATOM     50  O   LIG d   1       7.304   1.834  -4.248  0.00  0.00    -0.491 OA
BRANCH  50  51
ATOM     51  C   LIG d   1       8.599   2.218  -3.780  0.00  0.00     0.079 C 
ATOM     52  H   LIG d   1       8.926   3.112  -4.310  0.00  0.00     0.066 H 
ATOM     53  H   LIG d   1       8.553   2.424  -2.711  0.00  0.00     0.066 H 
ATOM     54  H   LIG d   1       9.306   1.408  -3.964  0.00  0.00     0.066 H 
ENDBRANCH  50  51
ENDBRANCH  43  50
BRANCH  45  55
ATOM     55  O   LIG d   1       4.821   1.594  -3.081  0.00  0.00    -0.491 OA
BRANCH  55  56
ATOM     56  C   LIG d   1       3.558   1.399  -2.440  0.00  0.00     0.079 C 
ATOM     57  H   LIG d   1       3.189   2.354  -2.066  0.00  0.00     0.066 H 
ATOM     58  H   LIG d   1       2.846   0.991  -3.158  0.00  0.00     0.066 H 
ATOM     59  H   LIG d   1       3.675   0.705  -1.609  0.00  0.00     0.066 H 
ENDBRANCH  55  56
ENDBRANCH  45  55
ENDBRANCH  38  41
ENDBRANCH  35  38
ENDBRANCH  32  35
ENDBRANCH  29  32
ENDBRANCH  19  29
BRANCH   1  60
ATOM     60  C   LIG d   1       4.596   0.549 -10.742  0.00  0.00    -0.060 C 
ATOM     61  H   LIG d   1       3.613   0.146 -10.501  0.00  0.00     0.023 H 
ATOM     62  H   LIG d   1       4.533   1.142 -11.654  0.00  0.00     0.023 H 
ATOM     63  H   LIG d   1       5.299  -0.271 -10.889  0.00  0.00     0.023 H 
ENDBRANCH   1  60
BRANCH   6  64
ATOM     64  C   LIG d   1       3.092  -0.817  -8.795  0.00  0.00    -0.057 C 
ATOM     65  H   LIG d   1       2.185  -1.247  -8.369  0.00  0.00     0.024 H 
ATOM     66  H   LIG d   1       2.849  -0.308  -9.727  0.00  0.00     0.024 H 
ATOM     67  H   LIG d   1       3.813  -1.610  -8.991  0.00  0.00     0.024 H 
ENDBRANCH   6  64
TORSDOF 11
ENDMDL
MODEL 3
REMARK VINA RESULT:      -6.7      1.573      2.211
REMARK  11 active torsions:
REMARK  status: ('A' for Active; 'I' for Inactive)
REMARK    1  A    between atoms: C_1  and  C_2 
REMARK    2  A    between atoms: C_7  and  C_35 
REMARK    3  A    between atoms: C_20  and  C_22 
REMARK    4  A    between atoms: C_22  and  N_65 
REMARK    5  A    between atoms: C_23  and  C_24 
REMARK    6  A    between atoms: C_23  and  N_65 
REMARK    7  A    between atoms: C_24  and  C_25 
REMARK    8  A    between atoms: C_28  and  O_33 
REMARK    9  A    between atoms: C_29  and  O_31 
REMARK   10  A    between atoms: O_31  and  C_32 
REMARK   11  A    between atoms: O_33  and  C_34 
ROOT
ATOM      1  C   LIG d   1       3.168   0.287  -3.898  0.00  0.00    -0.012 C 
ATOM      2  H   LIG d   1       2.456   0.689  -4.618  0.00  0.00     0.033 H 
ATOM      3  C   LIG d   1       3.560   1.366  -2.899  0.00  0.00    -0.048 C 
ATOM      4  C   LIG d   1       4.633   0.831  -1.949  0.00  0.00    -0.052 C 
ATOM      5  C   LIG d   1       5.893   0.461  -2.736  0.00  0.00    -0.045 C 
ATOM      6  C   LIG d   1       5.561  -0.664  -3.717  0.00  0.00     0.003 C 
ATOM      7  C   LIG d   1       4.419  -0.198  -4.628  0.00  0.00     0.104 A 
ATOM      8  C   LIG d   1       4.294  -0.840  -5.996  0.00  0.00     0.096 A 
ATOM      9  H   LIG d   1       3.288  -0.922  -6.407  0.00  0.00     0.063 H 
ATOM     10  O   LIG d   1       4.784   0.491  -5.828  0.00  0.00    -0.363 OA
ATOM     11  C   LIG d   1       5.267  -1.907  -6.463  0.00  0.00     0.043 C 
ATOM     12  H   LIG d   1       5.626  -1.692  -7.469  0.00  0.00     0.037 H 
ATOM     13  C   LIG d   1       6.440  -2.145  -5.519  0.00  0.00     0.110 C 
ATOM     14  H   LIG d   1       7.314  -2.335  -6.143  0.00  0.00     0.074 H 
ATOM     15  C   LIG d   1       6.762  -0.976  -4.613  0.00  0.00    -0.007 C 
ATOM     16  O   LIG d   1       6.165  -3.356  -4.771  0.00  0.00    -0.461 OA
ATOM     17  C   LIG d   1       4.959  -3.853  -5.090  0.00  0.00     0.316 C 
ATOM     18  O   LIG d   1       4.317  -4.630  -4.422  0.00  0.00    -0.250 OA
ATOM     19  C   LIG d   1       4.537  -3.278  -6.429  0.00  0.00     0.105 C 
ATOM     20  H   LIG d   1       3.457  -3.141  -6.467  0.00  0.00     0.047 H 
ATOM     21  H   LIG d   1       2.684   1.666  -2.323  0.00  0.00     0.027 H 
ATOM     22  H   LIG d   1       3.951   2.227  -3.440  0.00  0.00     0.027 H 
ATOM     23  H   LIG d   1       4.255  -0.053  -1.437  0.00  0.00     0.027 H 
ATOM     24  H   LIG d   1       4.879   1.597  -1.214  0.00  0.00     0.027 H 
ATOM     25  H   LIG d   1       6.668   0.127  -2.046  0.00  0.00     0.027 H 
ATOM     26  H   LIG d   1       6.248   1.333  -3.288  0.00  0.00     0.027 H 
ATOM     27  H   LIG d   1       6.997  -0.102  -5.220  0.00  0.00     0.031 H 
ATOM     28  H   LIG d   1       7.621  -1.228  -3.991  0.00  0.00     0.031 H 
ENDROOT
BRANCH  19  29
ATOM     29  C   LIG d   1       5.009  -4.174  -7.575  0.00  0.00    -0.020 C 
ATOM     30  H   LIG d   1       5.851  -3.703  -8.083  0.00  0.00     0.082 H 
ATOM     31  H   LIG d   1       5.319  -5.140  -7.178  0.00  0.00     0.082 H 
BRANCH  29  32
ATOM     32  N   LIG d   1       3.898  -4.363  -8.528  0.00  0.00     0.228 N 
ATOM     33  H   LIG d   1       3.062  -3.884  -8.173  0.00  0.00     0.201 HD
ATOM     34  H   LIG d   1       3.703  -5.366  -8.627  0.00  0.00     0.201 HD
BRANCH  32  35
ATOM     35  C   LIG d   1       4.255  -3.805  -9.846  0.00  0.00    -0.030 C 
ATOM     36  H   LIG d   1       5.319  -3.571  -9.869  0.00  0.00     0.082 H 
ATOM     37  H   LIG d   1       4.025  -4.530 -10.626  0.00  0.00     0.082 H 
BRANCH  35  38
ATOM     38  C   LIG d   1       3.447  -2.527 -10.084  0.00  0.00     0.013 C 
ATOM     39  H   LIG d   1       3.039  -2.538 -11.095  0.00  0.00     0.036 H 
ATOM     40  H   LIG d   1       2.631  -2.473  -9.364  0.00  0.00     0.036 H 
BRANCH  38  41
ATOM     41  C   LIG d   1       4.344  -1.327  -9.917  0.00  0.00    -0.039 A 
ATOM     42  C   LIG d   1       3.801  -0.105  -9.564  0.00  0.00    -0.013 A 
ATOM     43  C   LIG d   1       4.624   0.999  -9.405  0.00  0.00     0.162 A 
ATOM     44  H   LIG d   1       2.737  -0.012  -9.407  0.00  0.00     0.066 H 
ATOM     45  C   LIG d   1       5.994   0.876  -9.612  0.00  0.00     0.162 A 
ATOM     46  C   LIG d   1       6.531  -0.351  -9.972  0.00  0.00    -0.016 A 
ATOM     47  C   LIG d   1       5.704  -1.449 -10.124  0.00  0.00    -0.055 A 
ATOM     48  H   LIG d   1       7.595  -0.449 -10.134  0.00  0.00     0.066 H 
ATOM     49  H   LIG d   1       6.124  -2.403 -10.404  0.00  0.00     0.062 H 
BRANCH  43  50
ATOM     50  O   LIG d   1       4.093   2.200  -9.052  0.00  0.00    -0.491 OA
BRANCH  50  51
ATOM     51  C   LIG d   1       2.811   2.182  -8.421  0.00  0.00     0.079 C 
ATOM     52  H   LIG d   1       2.564   3.184  -8.071  0.00  0.00     0.066 H 
ATOM     53  H   LIG d   1       2.058   1.850  -9.136  0.00  0.00     0.066 H 
ATOM     54  H   LIG d   1       2.833   1.497  -7.573  0.00  0.00     0.066 H 
ENDBRANCH  50  51
ENDBRANCH  43  50
BRANCH  45  55
ATOM     55  O   LIG d   1       6.806   1.957  -9.463  0.00  0.00    -0.491 OA
BRANCH  55  56
ATOM     56  C   LIG d   1       7.705   1.945  -8.352  0.00  0.00     0.079 C 
ATOM     57  H   LIG d   1       7.912   0.915  -8.062  0.00  0.00     0.066 H 
ATOM     58  H   LIG d   1       8.637   2.437  -8.634  0.00  0.00     0.066 H 
ATOM     59  H   LIG d   1       7.254   2.475  -7.514  0.00  0.00     0.066 H 
ENDBRANCH  55  56
ENDBRANCH  45  55
ENDBRANCH  38  41
ENDBRANCH  35  38
ENDBRANCH  32  35
ENDBRANCH  29  32
ENDBRANCH  19  29
BRANCH   1  60
ATOM     60  C   LIG d   1       2.532  -0.879  -3.136  0.00  0.00    -0.060 C 
ATOM     61  H   LIG d   1       1.524  -0.605  -2.828  0.00  0.00     0.023 H 
ATOM     62  H   LIG d   1       2.489  -1.754  -3.784  0.00  0.00     0.023 H 
ATOM     63  H   LIG d   1       3.132  -1.107  -2.256  0.00  0.00     0.023 H 
ENDBRANCH   1  60
BRANCH   6  64
ATOM     64  C   LIG d   1       5.140  -1.919  -2.950  0.00  0.00    -0.057 C 
ATOM     65  H   LIG d   1       5.735  -2.005  -2.040  0.00  0.00     0.024 H 
ATOM     66  H   LIG d   1       4.085  -1.848  -2.688  0.00  0.00     0.024 H 
ATOM     67  H   LIG d   1       5.301  -2.798  -3.575  0.00  0.00     0.024 H 
ENDBRANCH   6  64
TORSDOF 11
ENDMDL
MODEL 4
REMARK VINA RESULT:      -6.5      3.904      7.353
REMARK  11 active torsions:
REMARK  status: ('A' for Active; 'I' for Inactive)
REMARK    1  A    between atoms: C_1  and  C_2 
REMARK    2  A    between atoms: C_7  and  C_35 
REMARK    3  A    between atoms: C_20  and  C_22 
REMARK    4  A    between atoms: C_22  and  N_65 
REMARK    5  A    between atoms: C_23  and  C_24 
REMARK    6  A    between atoms: C_23  and  N_65 
REMARK    7  A    between atoms: C_24  and  C_25 
REMARK    8  A    between atoms: C_28  and  O_33 
REMARK    9  A    between atoms: C_29  and  O_31 
REMARK   10  A    between atoms: O_31  and  C_32 
REMARK   11  A    between atoms: O_33  and  C_34 
ROOT
ATOM      1  C   LIG d   1       3.115   0.301  -3.921  0.00  0.00    -0.012 C 
ATOM      2  H   LIG d   1       2.417   0.666  -4.674  0.00  0.00     0.033 H 
ATOM      3  C   LIG d   1       3.465   1.420  -2.952  0.00  0.00    -0.048 C 
ATOM      4  C   LIG d   1       4.519   0.936  -1.956  0.00  0.00    -0.052 C 
ATOM      5  C   LIG d   1       5.805   0.555  -2.695  0.00  0.00    -0.045 C 
ATOM      6  C   LIG d   1       5.515  -0.610  -3.642  0.00  0.00     0.003 C 
ATOM      7  C   LIG d   1       4.392  -0.194  -4.600  0.00  0.00     0.104 A 
ATOM      8  C   LIG d   1       4.312  -0.887  -5.946  0.00  0.00     0.096 A 
ATOM      9  H   LIG d   1       3.319  -0.998  -6.380  0.00  0.00     0.063 H 
ATOM     10  O   LIG d   1       4.779   0.457  -5.813  0.00  0.00    -0.363 OA
ATOM     11  C   LIG d   1       5.311  -1.956  -6.347  0.00  0.00     0.043 C 
ATOM     12  H   LIG d   1       5.694  -1.773  -7.350  0.00  0.00     0.037 H 
ATOM     13  C   LIG d   1       6.461  -2.143  -5.364  0.00  0.00     0.110 C 
ATOM     14  H   LIG d   1       7.354  -2.343  -5.957  0.00  0.00     0.074 H 
ATOM     15  C   LIG d   1       6.743  -0.937  -4.493  0.00  0.00    -0.007 C 
ATOM     16  O   LIG d   1       6.182  -3.330  -4.579  0.00  0.00    -0.461 OA
ATOM     17  C   LIG d   1       4.992  -3.855  -4.911  0.00  0.00     0.316 C 
ATOM     18  O   LIG d   1       4.343  -4.616  -4.232  0.00  0.00    -0.250 OA
ATOM     19  C   LIG d   1       4.599  -3.335  -6.281  0.00  0.00     0.105 C 
ATOM     20  H   LIG d   1       3.519  -3.215  -6.353  0.00  0.00     0.047 H 
ATOM     21  H   LIG d   1       2.570   1.729  -2.412  0.00  0.00     0.027 H 
ATOM     22  H   LIG d   1       3.859   2.266  -3.514  0.00  0.00     0.027 H 
ATOM     23  H   LIG d   1       4.139   0.066  -1.421  0.00  0.00     0.027 H 
ATOM     24  H   LIG d   1       4.735   1.731  -1.242  0.00  0.00     0.027 H 
ATOM     25  H   LIG d   1       6.565   0.257  -1.972  0.00  0.00     0.027 H 
ATOM     26  H   LIG d   1       6.163   1.411  -3.268  0.00  0.00     0.027 H 
ATOM     27  H   LIG d   1       6.983  -0.083  -5.125  0.00  0.00     0.031 H 
ATOM     28  H   LIG d   1       7.588  -1.154  -3.840  0.00  0.00     0.031 H 
ENDROOT
BRANCH  19  29
ATOM     29  C   LIG d   1       5.113  -4.266  -7.381  0.00  0.00    -0.020 C 
ATOM     30  H   LIG d   1       4.278  -4.823  -7.806  0.00  0.00     0.082 H 
ATOM     31  H   LIG d   1       5.591  -3.676  -8.163  0.00  0.00     0.082 H 
BRANCH  29  32
ATOM     32  N   LIG d   1       6.092  -5.205  -6.800  0.00  0.00     0.228 N 
ATOM     33  H   LIG d   1       6.005  -5.194  -5.777  0.00  0.00     0.201 HD
ATOM     34  H   LIG d   1       7.040  -4.914  -7.067  0.00  0.00     0.201 HD
BRANCH  32  35
ATOM     35  C   LIG d   1       5.845  -6.572  -7.295  0.00  0.00    -0.030 C 
ATOM     36  H   LIG d   1       5.507  -6.532  -8.330  0.00  0.00     0.082 H 
ATOM     37  H   LIG d   1       6.763  -7.156  -7.235  0.00  0.00     0.082 H 
BRANCH  35  38
ATOM     38  C   LIG d   1       4.766  -7.230  -6.432  0.00  0.00     0.013 C 
ATOM     39  H   LIG d   1       4.178  -6.458  -5.935  0.00  0.00     0.036 H 
ATOM     40  H   LIG d   1       4.113  -7.833  -7.062  0.00  0.00     0.036 H 
BRANCH  38  41
ATOM     41  C   LIG d   1       5.418  -8.109  -5.396  0.00  0.00    -0.039 A 
ATOM     42  C   LIG d   1       4.675  -9.080  -4.751  0.00  0.00    -0.013 A 
ATOM     43  C   LIG d   1       5.273  -9.894  -3.801  0.00  0.00     0.162 A 
ATOM     44  H   LIG d   1       3.629  -9.209  -4.990  0.00  0.00     0.066 H 
ATOM     45  C   LIG d   1       6.619  -9.723  -3.492  0.00  0.00     0.162 A 
ATOM     46  C   LIG d   1       7.356  -8.743  -4.138  0.00  0.00    -0.016 A 
ATOM     47  C   LIG d   1       6.754  -7.938  -5.088  0.00  0.00    -0.055 A 
ATOM     48  H   LIG d   1       8.401  -8.608  -3.900  0.00  0.00     0.066 H 
ATOM     49  H   LIG d   1       7.330  -7.176  -5.590  0.00  0.00     0.062 H 
BRANCH  43  50
ATOM     50  O   LIG d   1       4.545 -10.853  -3.169  0.00  0.00    -0.491 OA
BRANCH  50  51
ATOM     51  C   LIG d   1       3.158 -10.940  -3.502  0.00  0.00     0.079 C 
ATOM     52  H   LIG d   1       3.049 -11.041  -4.581  0.00  0.00     0.066 H 
ATOM     53  H   LIG d   1       2.719 -11.807  -3.009  0.00  0.00     0.066 H 
ATOM     54  H   LIG d   1       2.648 -10.035  -3.169  0.00  0.00     0.066 H 
ENDBRANCH  50  51
ENDBRANCH  43  50
BRANCH  45  55
ATOM     55  O   LIG d   1       7.210 -10.515  -2.557  0.00  0.00    -0.491 OA
BRANCH  55  56
ATOM     56  C   LIG d   1       8.539 -10.170  -2.161  0.00  0.00     0.079 C 
ATOM     57  H   LIG d   1       8.709  -9.109  -2.344  0.00  0.00     0.066 H 
ATOM     58  H   LIG d   1       8.667 -10.381  -1.099  0.00  0.00     0.066 H 
ATOM     59  H   LIG d   1       9.254 -10.757  -2.736  0.00  0.00     0.066 H 
ENDBRANCH  55  56
ENDBRANCH  45  55
ENDBRANCH  38  41
ENDBRANCH  35  38
ENDBRANCH  32  35
ENDBRANCH  29  32
ENDBRANCH  19  29
BRANCH   1  60
ATOM     60  C   LIG d   1       2.474  -0.846  -3.134  0.00  0.00    -0.060 C 
ATOM     61  H   LIG d   1       2.779  -1.798  -3.567  0.00  0.00     0.023 H 
ATOM     62  H   LIG d   1       2.798  -0.798  -2.095  0.00  0.00     0.023 H 
ATOM     63  H   LIG d   1       1.389  -0.756  -3.181  0.00  0.00     0.023 H 
ENDBRANCH   1  60
BRANCH   6  64
ATOM     64  C   LIG d   1       5.090  -1.842  -2.840  0.00  0.00    -0.057 C 
ATOM     65  H   LIG d   1       5.685  -2.701  -3.152  0.00  0.00     0.024 H 
ATOM     66  H   LIG d   1       5.248  -1.657  -1.778  0.00  0.00     0.024 H 
ATOM     67  H   LIG d   1       4.034  -2.046  -3.020  0.00  0.00     0.024 H 
ENDBRANCH   6  64
TORSDOF 11
ENDMDL
MODEL 5
REMARK VINA RESULT:      -6.4      1.955      2.540
REMARK  11 active torsions:
REMARK  status: ('A' for Active; 'I' for Inactive)
REMARK    1  A    between atoms: C_1  and  C_2 
REMARK    2  A    between atoms: C_7  and  C_35 
REMARK    3  A    between atoms: C_20  and  C_22 
REMARK    4  A    between atoms: C_22  and  N_65 
REMARK    5  A    between atoms: C_23  and  C_24 
REMARK    6  A    between atoms: C_23  and  N_65 
REMARK    7  A    between atoms: C_24  and  C_25 
REMARK    8  A    between atoms: C_28  and  O_33 
REMARK    9  A    between atoms: C_29  and  O_31 
REMARK   10  A    between atoms: O_31  and  C_32 
REMARK   11  A    between atoms: O_33  and  C_34 
ROOT
ATOM      1  C   LIG d   1       3.587  -1.046  -3.502  0.00  0.00    -0.012 C 
ATOM      2  H   LIG d   1       2.723  -1.329  -4.103  0.00  0.00     0.033 H 
ATOM      3  C   LIG d   1       3.229   0.122  -2.597  0.00  0.00    -0.048 C 
ATOM      4  C   LIG d   1       4.468   0.583  -1.827  0.00  0.00    -0.052 C 
ATOM      5  C   LIG d   1       5.540   1.076  -2.803  0.00  0.00    -0.045 C 
ATOM      6  C   LIG d   1       5.975  -0.084  -3.700  0.00  0.00     0.003 C 
ATOM      7  C   LIG d   1       4.738  -0.636  -4.420  0.00  0.00     0.104 A 
ATOM      8  C   LIG d   1       4.945  -1.353  -5.740  0.00  0.00     0.096 A 
ATOM      9  H   LIG d   1       4.238  -2.147  -5.980  0.00  0.00     0.063 H 
ATOM     10  O   LIG d   1       4.393  -0.037  -5.672  0.00  0.00    -0.363 OA
ATOM     11  C   LIG d   1       6.327  -1.520  -6.343  0.00  0.00     0.043 C 
ATOM     12  H   LIG d   1       6.327  -1.245  -7.398  0.00  0.00     0.037 H 
ATOM     13  C   LIG d   1       7.432  -0.778  -5.600  0.00  0.00     0.110 C 
ATOM     14  H   LIG d   1       8.120  -0.397  -6.355  0.00  0.00     0.074 H 
ATOM     15  C   LIG d   1       6.951   0.398  -4.775  0.00  0.00    -0.007 C 
ATOM     16  O   LIG d   1       8.153  -1.748  -4.799  0.00  0.00    -0.461 OA
ATOM     17  C   LIG d   1       7.600  -2.966  -4.910  0.00  0.00     0.316 C 
ATOM     18  O   LIG d   1       7.751  -3.882  -4.135  0.00  0.00    -0.250 OA
ATOM     19  C   LIG d   1       6.757  -3.003  -6.170  0.00  0.00     0.105 C 
ATOM     20  H   LIG d   1       5.886  -3.643  -6.034  0.00  0.00     0.047 H 
ATOM     21  H   LIG d   1       2.458  -0.185  -1.890  0.00  0.00     0.027 H 
ATOM     22  H   LIG d   1       2.856   0.944  -3.207  0.00  0.00     0.027 H 
ATOM     23  H   LIG d   1       4.865  -0.250  -1.247  0.00  0.00     0.027 H 
ATOM     24  H   LIG d   1       4.194   1.394  -1.152  0.00  0.00     0.027 H 
ATOM     25  H   LIG d   1       6.399   1.446  -2.244  0.00  0.00     0.027 H 
ATOM     26  H   LIG d   1       5.132   1.880  -3.418  0.00  0.00     0.027 H 
ATOM     27  H   LIG d   1       6.451   1.114  -5.425  0.00  0.00     0.031 H 
ATOM     28  H   LIG d   1       7.807   0.877  -4.298  0.00  0.00     0.031 H 
ENDROOT
BRANCH  19  29
ATOM     29  C   LIG d   1       7.590  -3.471  -7.365  0.00  0.00    -0.020 C 
ATOM     30  H   LIG d   1       8.172  -2.634  -7.753  0.00  0.00     0.082 H 
ATOM     31  H   LIG d   1       8.264  -4.267  -7.049  0.00  0.00     0.082 H 
BRANCH  29  32
ATOM     32  N   LIG d   1       6.685  -3.974  -8.416  0.00  0.00     0.228 N 
ATOM     33  H   LIG d   1       5.761  -3.542  -8.303  0.00  0.00     0.201 HD
ATOM     34  H   LIG d   1       6.600  -4.994  -8.331  0.00  0.00     0.201 HD
BRANCH  32  35
ATOM     35  C   LIG d   1       7.217  -3.641  -9.751  0.00  0.00    -0.030 C 
ATOM     36  H   LIG d   1       7.989  -2.877  -9.658  0.00  0.00     0.082 H 
ATOM     37  H   LIG d   1       7.642  -4.533 -10.210  0.00  0.00     0.082 H 
BRANCH  35  38
ATOM     38  C   LIG d   1       6.079  -3.112 -10.626  0.00  0.00     0.013 C 
ATOM     39  H   LIG d   1       6.447  -2.941 -11.638  0.00  0.00     0.036 H 
ATOM     40  H   LIG d   1       5.270  -3.842 -10.652  0.00  0.00     0.036 H 
BRANCH  38  41
ATOM     41  C   LIG d   1       5.566  -1.815 -10.054  0.00  0.00    -0.039 A 
ATOM     42  C   LIG d   1       4.244  -1.709  -9.662  0.00  0.00    -0.013 A 
ATOM     43  C   LIG d   1       3.772  -0.519  -9.130  0.00  0.00     0.162 A 
ATOM     44  H   LIG d   1       3.581  -2.555  -9.765  0.00  0.00     0.066 H 
ATOM     45  C   LIG d   1       4.628   0.570  -9.003  0.00  0.00     0.162 A 
ATOM     46  C   LIG d   1       5.951   0.459  -9.403  0.00  0.00    -0.016 A 
ATOM     47  C   LIG d   1       6.416  -0.733  -9.928  0.00  0.00    -0.055 A 
ATOM     48  H   LIG d   1       6.618   1.303  -9.305  0.00  0.00     0.066 H 
ATOM     49  H   LIG d   1       7.447  -0.817 -10.239  0.00  0.00     0.062 H 
BRANCH  43  50
ATOM     50  O   LIG d   1       2.474  -0.416  -8.740  0.00  0.00    -0.491 OA
BRANCH  50  51
ATOM     51  C   LIG d   1       1.476  -0.634  -9.739  0.00  0.00     0.079 C 
ATOM     52  H   LIG d   1       1.941  -1.048 -10.633  0.00  0.00     0.066 H 
ATOM     53  H   LIG d   1       0.730  -1.333  -9.360  0.00  0.00     0.066 H 
ATOM     54  H   LIG d   1       0.995   0.313  -9.985  0.00  0.00     0.066 H 
ENDBRANCH  50  51
ENDBRANCH  43  50
BRANCH  45  55
ATOM     55  O   LIG d   1       4.169   1.741  -8.487  0.00  0.00    -0.491 OA
BRANCH  55  56
ATOM     56  C   LIG d   1       3.862   2.783  -9.415  0.00  0.00     0.079 C 
ATOM     57  H   LIG d   1       3.285   2.374 -10.245  0.00  0.00     0.066 H 
ATOM     58  H   LIG d   1       3.279   3.556  -8.914  0.00  0.00     0.066 H 
ATOM     59  H   LIG d   1       4.787   3.216  -9.795  0.00  0.00     0.066 H 
ENDBRANCH  55  56
ENDBRANCH  45  55
ENDBRANCH  38  41
ENDBRANCH  35  38
ENDBRANCH  32  35
ENDBRANCH  29  32
ENDBRANCH  19  29
BRANCH   1  60
ATOM     60  C   LIG d   1       4.021  -2.228  -2.630  0.00  0.00    -0.060 C 
ATOM     61  H   LIG d   1       4.657  -1.869  -1.822  0.00  0.00     0.023 H 
ATOM     62  H   LIG d   1       3.139  -2.712  -2.212  0.00  0.00     0.023 H 
ATOM     63  H   LIG d   1       4.575  -2.943  -3.238  0.00  0.00     0.023 H 
ENDBRANCH   1  60
BRANCH   6  64
ATOM     64  C   LIG d   1       6.624  -1.183  -2.857  0.00  0.00    -0.057 C 
ATOM     65  H   LIG d   1       6.752  -0.827  -1.834  0.00  0.00     0.024 H 
ATOM     66  H   LIG d   1       5.986  -2.066  -2.857  0.00  0.00     0.024 H 
ATOM     67  H   LIG d   1       7.597  -1.437  -3.278  0.00  0.00     0.024 H 
ENDBRANCH   6  64
TORSDOF 11
ENDMDL
MODEL 6
REMARK VINA RESULT:      -6.2      3.279      6.351
REMARK  11 active torsions:
REMARK  status: ('A' for Active; 'I' for Inactive)
REMARK    1  A    between atoms: C_1  and  C_2 
REMARK    2  A    between atoms: C_7  and  C_35 
REMARK    3  A    between atoms: C_20  and  C_22 
REMARK    4  A    between atoms: C_22  and  N_65 
REMARK    5  A    between atoms: C_23  and  C_24 
REMARK    6  A    between atoms: C_23  and  N_65 
REMARK    7  A    between atoms: C_24  and  C_25 
REMARK    8  A    between atoms: C_28  and  O_33 
REMARK    9  A    between atoms: C_29  and  O_31 
REMARK   10  A    between atoms: O_31  and  C_32 
REMARK   11  A    between atoms: O_33  and  C_34 
ROOT
ATOM      1  C   LIG d   1       3.167   0.297  -4.030  0.00  0.00    -0.012 C 
ATOM      2  H   LIG d   1       2.511   0.679  -4.812  0.00  0.00     0.033 H 
ATOM      3  C   LIG d   1       3.500   1.407  -3.045  0.00  0.00    -0.048 C 
ATOM      4  C   LIG d   1       4.499   0.897  -2.004  0.00  0.00    -0.052 C 
ATOM      5  C   LIG d   1       5.806   0.488  -2.687  0.00  0.00    -0.045 C 
ATOM      6  C   LIG d   1       5.531  -0.669  -3.648  0.00  0.00     0.003 C 
ATOM      7  C   LIG d   1       4.460  -0.226  -4.653  0.00  0.00     0.104 A 
ATOM      8  C   LIG d   1       4.423  -0.915  -6.003  0.00  0.00     0.096 A 
ATOM      9  H   LIG d   1       3.448  -1.003  -6.481  0.00  0.00     0.063 H 
ATOM     10  O   LIG d   1       4.916   0.417  -5.848  0.00  0.00    -0.363 OA
ATOM     11  C   LIG d   1       5.414  -2.007  -6.363  0.00  0.00     0.043 C 
ATOM     12  H   LIG d   1       5.845  -1.832  -7.348  0.00  0.00     0.037 H 
ATOM     13  C   LIG d   1       6.516  -2.222  -5.331  0.00  0.00     0.110 C 
ATOM     14  H   LIG d   1       7.429  -2.442  -5.885  0.00  0.00     0.074 H 
ATOM     15  C   LIG d   1       6.787  -1.024  -4.446  0.00  0.00    -0.007 C 
ATOM     16  O   LIG d   1       6.175  -3.403  -4.562  0.00  0.00    -0.461 OA
ATOM     17  C   LIG d   1       4.989  -3.900  -4.947  0.00  0.00     0.316 C 
ATOM     18  O   LIG d   1       4.293  -4.646  -4.299  0.00  0.00    -0.250 OA
ATOM     19  C   LIG d   1       4.668  -3.369  -6.332  0.00  0.00     0.105 C 
ATOM     20  H   LIG d   1       3.595  -3.224  -6.451  0.00  0.00     0.047 H 
ATOM     21  H   LIG d   1       2.590   1.736  -2.543  0.00  0.00     0.027 H 
ATOM     22  H   LIG d   1       3.938   2.244  -3.587  0.00  0.00     0.027 H 
ATOM     23  H   LIG d   1       4.075   0.035  -1.489  0.00  0.00     0.027 H 
ATOM     24  H   LIG d   1       4.701   1.686  -1.280  0.00  0.00     0.027 H 
ATOM     25  H   LIG d   1       6.526   0.171  -1.933  0.00  0.00     0.027 H 
ATOM     26  H   LIG d   1       6.209   1.335  -3.242  0.00  0.00     0.027 H 
ATOM     27  H   LIG d   1       7.075  -0.175  -5.065  0.00  0.00     0.031 H 
ATOM     28  H   LIG d   1       7.598  -1.261  -3.757  0.00  0.00     0.031 H 
ENDROOT
BRANCH  19  29
ATOM     29  C   LIG d   1       5.208  -4.311  -7.410  0.00  0.00    -0.020 C 
ATOM     30  H   LIG d   1       4.474  -4.407  -8.210  0.00  0.00     0.082 H 
ATOM     31  H   LIG d   1       6.135  -3.905  -7.815  0.00  0.00     0.082 H 
BRANCH  29  32
ATOM     32  N   LIG d   1       5.465  -5.634  -6.810  0.00  0.00     0.228 N 
ATOM     33  H   LIG d   1       4.748  -6.295  -7.130  0.00  0.00     0.201 HD
ATOM     34  H   LIG d   1       5.429  -5.556  -5.788  0.00  0.00     0.201 HD
BRANCH  32  35
ATOM     35  C   LIG d   1       6.795  -6.128  -7.214  0.00  0.00    -0.030 C 
ATOM     36  H   LIG d   1       6.685  -6.897  -7.979  0.00  0.00     0.082 H 
ATOM     37  H   LIG d   1       7.388  -5.304  -7.610  0.00  0.00     0.082 H 
BRANCH  35  38
ATOM     38  C   LIG d   1       7.500  -6.723  -5.993  0.00  0.00     0.013 C 
ATOM     39  H   LIG d   1       6.759  -6.992  -5.241  0.00  0.00     0.036 H 
ATOM     40  H   LIG d   1       8.055  -7.612  -6.290  0.00  0.00     0.036 H 
BRANCH  38  41
ATOM     41  C   LIG d   1       8.452  -5.705  -5.418  0.00  0.00    -0.039 A 
ATOM     42  C   LIG d   1       8.745  -5.723  -4.066  0.00  0.00    -0.013 A 
ATOM     43  C   LIG d   1       9.624  -4.792  -3.536  0.00  0.00     0.162 A 
ATOM     44  H   LIG d   1       8.293  -6.465  -3.425  0.00  0.00     0.066 H 
ATOM     45  C   LIG d   1      10.202  -3.834  -4.364  0.00  0.00     0.162 A 
ATOM     46  C   LIG d   1       9.899  -3.819  -5.717  0.00  0.00    -0.016 A 
ATOM     47  C   LIG d   1       9.025  -4.754  -6.240  0.00  0.00    -0.055 A 
ATOM     48  H   LIG d   1      10.346  -3.076  -6.362  0.00  0.00     0.066 H 
ATOM     49  H   LIG d   1       8.790  -4.740  -7.294  0.00  0.00     0.062 H 
BRANCH  43  50
ATOM     50  O   LIG d   1       9.918  -4.811  -2.208  0.00  0.00    -0.491 OA
BRANCH  50  51
ATOM     51  C   LIG d   1       9.918  -6.085  -1.562  0.00  0.00     0.079 C 
ATOM     52  H   LIG d   1       9.970  -6.873  -2.313  0.00  0.00     0.066 H 
ATOM     53  H   LIG d   1      10.780  -6.157  -0.899  0.00  0.00     0.066 H 
ATOM     54  H   LIG d   1       9.002  -6.197  -0.981  0.00  0.00     0.066 H 
ENDBRANCH  50  51
ENDBRANCH  43  50
BRANCH  45  55
ATOM     55  O   LIG d   1      11.061  -2.915  -3.848  0.00  0.00    -0.491 OA
BRANCH  55  56
ATOM     56  C   LIG d   1      11.935  -2.256  -4.767  0.00  0.00     0.079 C 
ATOM     57  H   LIG d   1      11.903  -2.766  -5.729  0.00  0.00     0.066 H 
ATOM     58  H   LIG d   1      11.614  -1.221  -4.894  0.00  0.00     0.066 H 
ATOM     59  H   LIG d   1      12.952  -2.275  -4.379  0.00  0.00     0.066 H 
ENDBRANCH  55  56
ENDBRANCH  45  55
ENDBRANCH  38  41
ENDBRANCH  35  38
ENDBRANCH  32  35
ENDBRANCH  29  32
ENDBRANCH  19  29
BRANCH   1  60
ATOM     60  C   LIG d   1       2.466  -0.835  -3.275  0.00  0.00    -0.060 C 
ATOM     61  H   LIG d   1       3.021  -1.762  -3.412  0.00  0.00     0.023 H 
ATOM     62  H   LIG d   1       2.423  -0.591  -2.214  0.00  0.00     0.023 H 
ATOM     63  H   LIG d   1       1.454  -0.957  -3.661  0.00  0.00     0.023 H 
ENDBRANCH   1  60
BRANCH   6  64
ATOM     64  C   LIG d   1       5.042  -1.892  -2.869  0.00  0.00    -0.057 C 
ATOM     65  H   LIG d   1       5.386  -2.800  -3.366  0.00  0.00     0.024 H 
ATOM     66  H   LIG d   1       5.441  -1.860  -1.855  0.00  0.00     0.024 H 
ATOM     67  H   LIG d   1       3.953  -1.888  -2.832  0.00  0.00     0.024 H 
ENDBRANCH   6  64
TORSDOF 11
ENDMDL
MODEL 7
REMARK VINA RESULT:      -6.2      4.265      7.420
REMARK  11 active torsions:
REMARK  status: ('A' for Active; 'I' for Inactive)
REMARK    1  A    between atoms: C_1  and  C_2 
REMARK    2  A    between atoms: C_7  and  C_35 
REMARK    3  A    between atoms: C_20  and  C_22 
REMARK    4  A    between atoms: C_22  and  N_65 
REMARK    5  A    between atoms: C_23  and  C_24 
REMARK    6  A    between atoms: C_23  and  N_65 
REMARK    7  A    between atoms: C_24  and  C_25 
REMARK    8  A    between atoms: C_28  and  O_33 
REMARK    9  A    between atoms: C_29  and  O_31 
REMARK   10  A    between atoms: O_31  and  C_32 
REMARK   11  A    between atoms: O_33  and  C_34 
ROOT
ATOM      1  C   LIG d   1       3.175   0.273  -3.947  0.00  0.00    -0.012 C 
ATOM      2  H   LIG d   1       2.481   0.658  -4.694  0.00  0.00     0.033 H 
ATOM      3  C   LIG d   1       3.545   1.376  -2.966  0.00  0.00    -0.048 C 
ATOM      4  C   LIG d   1       4.594   0.863  -1.978  0.00  0.00    -0.052 C 
ATOM      5  C   LIG d   1       5.872   0.472  -2.725  0.00  0.00    -0.045 C 
ATOM      6  C   LIG d   1       5.562  -0.677  -3.686  0.00  0.00     0.003 C 
ATOM      7  C   LIG d   1       4.442  -0.233  -4.635  0.00  0.00     0.104 A 
ATOM      8  C   LIG d   1       4.349  -0.908  -5.989  0.00  0.00     0.096 A 
ATOM      9  H   LIG d   1       3.353  -0.998  -6.422  0.00  0.00     0.063 H 
ATOM     10  O   LIG d   1       4.837   0.427  -5.842  0.00  0.00    -0.363 OA
ATOM     11  C   LIG d   1       5.330  -1.987  -6.406  0.00  0.00     0.043 C 
ATOM     12  H   LIG d   1       5.714  -1.798  -7.409  0.00  0.00     0.037 H 
ATOM     13  C   LIG d   1       6.480  -2.204  -5.429  0.00  0.00     0.110 C 
ATOM     14  H   LIG d   1       7.368  -2.410  -6.027  0.00  0.00     0.074 H 
ATOM     15  C   LIG d   1       6.782  -1.012  -4.544  0.00  0.00    -0.007 C 
ATOM     16  O   LIG d   1       6.185  -3.395  -4.657  0.00  0.00    -0.461 OA
ATOM     17  C   LIG d   1       4.986  -3.898  -4.993  0.00  0.00     0.316 C 
ATOM     18  O   LIG d   1       4.328  -4.657  -4.321  0.00  0.00    -0.250 OA
ATOM     19  C   LIG d   1       4.598  -3.356  -6.355  0.00  0.00     0.105 C 
ATOM     20  H   LIG d   1       3.519  -3.218  -6.423  0.00  0.00     0.047 H 
ATOM     21  H   LIG d   1       2.657   1.691  -2.419  0.00  0.00     0.027 H 
ATOM     22  H   LIG d   1       3.950   2.222  -3.519  0.00  0.00     0.027 H 
ATOM     23  H   LIG d   1       4.203  -0.007  -1.454  0.00  0.00     0.027 H 
ATOM     24  H   LIG d   1       4.824   1.646  -1.256  0.00  0.00     0.027 H 
ATOM     25  H   LIG d   1       6.629   0.154  -2.009  0.00  0.00     0.027 H 
ATOM     26  H   LIG d   1       6.242   1.329  -3.290  0.00  0.00     0.027 H 
ATOM     27  H   LIG d   1       7.034  -0.154  -5.167  0.00  0.00     0.031 H 
ATOM     28  H   LIG d   1       7.626  -1.250  -3.896  0.00  0.00     0.031 H 
ENDROOT
BRANCH  19  29
ATOM     29  C   LIG d   1       5.095  -4.281  -7.468  0.00  0.00    -0.020 C 
ATOM     30  H   LIG d   1       4.817  -3.867  -8.437  0.00  0.00     0.082 H 
ATOM     31  H   LIG d   1       6.180  -4.370  -7.409  0.00  0.00     0.082 H 
BRANCH  29  32
ATOM     32  N   LIG d   1       4.478  -5.611  -7.301  0.00  0.00     0.228 N 
ATOM     33  H   LIG d   1       3.709  -5.714  -7.973  0.00  0.00     0.201 HD
ATOM     34  H   LIG d   1       4.113  -5.698  -6.346  0.00  0.00     0.201 HD
BRANCH  32  35
ATOM     35  C   LIG d   1       5.476  -6.671  -7.539  0.00  0.00    -0.030 C 
ATOM     36  H   LIG d   1       5.002  -7.515  -8.040  0.00  0.00     0.082 H 
ATOM     37  H   LIG d   1       6.280  -6.284  -8.163  0.00  0.00     0.082 H 
BRANCH  35  38
ATOM     38  C   LIG d   1       6.048  -7.130  -6.197  0.00  0.00     0.013 C 
ATOM     39  H   LIG d   1       7.122  -6.944  -6.177  0.00  0.00     0.036 H 
ATOM     40  H   LIG d   1       5.570  -6.577  -5.389  0.00  0.00     0.036 H 
BRANCH  38  41
ATOM     41  C   LIG d   1       5.791  -8.605  -6.018  0.00  0.00    -0.039 A 
ATOM     42  C   LIG d   1       4.735  -9.030  -5.233  0.00  0.00    -0.013 A 
ATOM     43  C   LIG d   1       4.493 -10.385  -5.072  0.00  0.00     0.162 A 
ATOM     44  H   LIG d   1       4.096  -8.306  -4.749  0.00  0.00     0.066 H 
ATOM     45  C   LIG d   1       5.321 -11.315  -5.693  0.00  0.00     0.162 A 
ATOM     46  C   LIG d   1       6.381 -10.882  -6.474  0.00  0.00    -0.016 A 
ATOM     47  C   LIG d   1       6.614  -9.528  -6.635  0.00  0.00    -0.055 A 
ATOM     48  H   LIG d   1       7.026 -11.602  -6.958  0.00  0.00     0.066 H 
ATOM     49  H   LIG d   1       7.440  -9.193  -7.243  0.00  0.00     0.062 H 
BRANCH  43  50
ATOM     50  O   LIG d   1       3.452 -10.805  -4.304  0.00  0.00    -0.491 OA
BRANCH  50  51
ATOM     51  C   LIG d   1       3.203 -10.082  -3.096  0.00  0.00     0.079 C 
ATOM     52  H   LIG d   1       2.599 -10.692  -2.426  0.00  0.00     0.066 H 
ATOM     53  H   LIG d   1       4.151  -9.841  -2.615  0.00  0.00     0.066 H 
ATOM     54  H   LIG d   1       2.669  -9.160  -3.329  0.00  0.00     0.066 H 
ENDBRANCH  50  51
ENDBRANCH  43  50
BRANCH  45  55
ATOM     55  O   LIG d   1       5.091 -12.646  -5.534  0.00  0.00    -0.491 OA
BRANCH  55  56
ATOM     56  C   LIG d   1       4.912 -13.420  -6.721  0.00  0.00     0.079 C 
ATOM     57  H   LIG d   1       3.995 -14.004  -6.640  0.00  0.00     0.066 H 
ATOM     58  H   LIG d   1       4.844 -12.754  -7.582  0.00  0.00     0.066 H 
ATOM     59  H   LIG d   1       5.760 -14.092  -6.848  0.00  0.00     0.066 H 
ENDBRANCH  55  56
ENDBRANCH  45  55
ENDBRANCH  38  41
ENDBRANCH  35  38
ENDBRANCH  32  35
ENDBRANCH  29  32
ENDBRANCH  19  29
BRANCH   1  60
ATOM     60  C   LIG d   1       2.519  -0.873  -3.172  0.00  0.00    -0.060 C 
ATOM     61  H   LIG d   1       1.939  -1.490  -3.858  0.00  0.00     0.023 H 
ATOM     62  H   LIG d   1       3.291  -1.481  -2.701  0.00  0.00     0.023 H 
ATOM     63  H   LIG d   1       1.861  -0.463  -2.407  0.00  0.00     0.023 H 
ENDBRANCH   1  60
BRANCH   6  64
ATOM     64  C   LIG d   1       5.120  -1.912  -2.898  0.00  0.00    -0.057 C 
ATOM     65  H   LIG d   1       5.408  -1.798  -1.853  0.00  0.00     0.024 H 
ATOM     66  H   LIG d   1       4.038  -2.019  -2.967  0.00  0.00     0.024 H 
ATOM     67  H   LIG d   1       5.600  -2.798  -3.313  0.00  0.00     0.024 H 
ENDBRANCH   6  64
TORSDOF 11
ENDMDL
MODEL 8
REMARK VINA RESULT:      -6.2      3.078      5.910
REMARK  11 active torsions:
REMARK  status: ('A' for Active; 'I' for Inactive)
REMARK    1  A    between atoms: C_1  and  C_2 
REMARK    2  A    between atoms: C_7  and  C_35 
REMARK    3  A    between atoms: C_20  and  C_22 
REMARK    4  A    between atoms: C_22  and  N_65 
REMARK    5  A    between atoms: C_23  and  C_24 
REMARK    6  A    between atoms: C_23  and  N_65 
REMARK    7  A    between atoms: C_24  and  C_25 
REMARK    8  A    between atoms: C_28  and  O_33 
REMARK    9  A    between atoms: C_29  and  O_31 
REMARK   10  A    between atoms: O_31  and  C_32 
REMARK   11  A    between atoms: O_33  and  C_34 
ROOT
ATOM      1  C   LIG d   1       3.346  -0.674  -3.350  0.00  0.00    -0.012 C 
ATOM      2  H   LIG d   1       2.371  -0.783  -3.825  0.00  0.00     0.033 H 
ATOM      3  C   LIG d   1       3.310   0.473  -2.351  0.00  0.00    -0.048 C 
ATOM      4  C   LIG d   1       4.703   0.691  -1.758  0.00  0.00    -0.052 C 
ATOM      5  C   LIG d   1       5.690   1.079  -2.863  0.00  0.00    -0.045 C 
ATOM      6  C   LIG d   1       5.803  -0.072  -3.863  0.00  0.00     0.003 C 
ATOM      7  C   LIG d   1       4.405  -0.383  -4.412  0.00  0.00     0.104 A 
ATOM      8  C   LIG d   1       4.306  -1.035  -5.777  0.00  0.00     0.096 A 
ATOM      9  H   LIG d   1       3.455  -1.696  -5.942  0.00  0.00     0.063 H 
ATOM     10  O   LIG d   1       3.985   0.342  -5.571  0.00  0.00    -0.363 OA
ATOM     11  C   LIG d   1       5.544  -1.368  -6.588  0.00  0.00     0.043 C 
ATOM     12  H   LIG d   1       5.438  -1.027  -7.618  0.00  0.00     0.037 H 
ATOM     13  C   LIG d   1       6.847  -0.852  -5.988  0.00  0.00     0.110 C 
ATOM     14  H   LIG d   1       7.473  -0.531  -6.821  0.00  0.00     0.074 H 
ATOM     15  C   LIG d   1       6.681   0.326  -5.051  0.00  0.00    -0.007 C 
ATOM     16  O   LIG d   1       7.511  -1.970  -5.347  0.00  0.00    -0.461 OA
ATOM     17  C   LIG d   1       6.761  -3.081  -5.425  0.00  0.00     0.316 C 
ATOM     18  O   LIG d   1       6.873  -4.058  -4.722  0.00  0.00    -0.250 OA
ATOM     19  C   LIG d   1       5.753  -2.907  -6.545  0.00  0.00     0.105 C 
ATOM     20  H   LIG d   1       4.820  -3.416  -6.307  0.00  0.00     0.047 H 
ATOM     21  H   LIG d   1       2.608   0.240  -1.551  0.00  0.00     0.027 H 
ATOM     22  H   LIG d   1       2.989   1.380  -2.863  0.00  0.00     0.027 H 
ATOM     23  H   LIG d   1       5.040  -0.229  -1.281  0.00  0.00     0.027 H 
ATOM     24  H   LIG d   1       4.660   1.487  -1.016  0.00  0.00     0.027 H 
ATOM     25  H   LIG d   1       6.667   1.278  -2.423  0.00  0.00     0.027 H 
ATOM     26  H   LIG d   1       5.332   1.973  -3.374  0.00  0.00     0.027 H 
ATOM     27  H   LIG d   1       6.214   1.151  -5.587  0.00  0.00     0.031 H 
ATOM     28  H   LIG d   1       7.661   0.638  -4.688  0.00  0.00     0.031 H 
ENDROOT
BRANCH  19  29
ATOM     29  C   LIG d   1       6.323  -3.416  -7.871  0.00  0.00    -0.020 C 
ATOM     30  H   LIG d   1       6.982  -2.660  -8.297  0.00  0.00     0.082 H 
ATOM     31  H   LIG d   1       6.886  -4.333  -7.696  0.00  0.00     0.082 H 
BRANCH  29  32
ATOM     32  N   LIG d   1       5.211  -3.686  -8.802  0.00  0.00     0.228 N 
ATOM     33  H   LIG d   1       5.544  -4.292  -9.561  0.00  0.00     0.201 HD
ATOM     34  H   LIG d   1       4.873  -2.799  -9.194  0.00  0.00     0.201 HD
BRANCH  32  35
ATOM     35  C   LIG d   1       4.104  -4.358  -8.095  0.00  0.00    -0.030 C 
ATOM     36  H   LIG d   1       4.336  -4.428  -7.032  0.00  0.00     0.082 H 
ATOM     37  H   LIG d   1       3.184  -3.790  -8.230  0.00  0.00     0.082 H 
BRANCH  35  38
ATOM     38  C   LIG d   1       3.924  -5.765  -8.670  0.00  0.00     0.013 C 
ATOM     39  H   LIG d   1       2.888  -5.899  -8.982  0.00  0.00     0.036 H 
ATOM     40  H   LIG d   1       4.581  -5.894  -9.529  0.00  0.00     0.036 H 
BRANCH  38  41
ATOM     41  C   LIG d   1       4.267  -6.786  -7.616  0.00  0.00    -0.039 A 
ATOM     42  C   LIG d   1       4.252  -8.133  -7.931  0.00  0.00    -0.013 A 
ATOM     43  C   LIG d   1       4.572  -9.074  -6.965  0.00  0.00     0.162 A 
ATOM     44  H   LIG d   1       3.994  -8.451  -8.930  0.00  0.00     0.066 H 
ATOM     45  C   LIG d   1       4.900  -8.660  -5.678  0.00  0.00     0.162 A 
ATOM     46  C   LIG d   1       4.907  -7.309  -5.367  0.00  0.00    -0.016 A 
ATOM     47  C   LIG d   1       4.591  -6.376  -6.337  0.00  0.00    -0.055 A 
ATOM     48  H   LIG d   1       5.161  -6.986  -4.368  0.00  0.00     0.066 H 
ATOM     49  H   LIG d   1       4.598  -5.324  -6.094  0.00  0.00     0.062 H 
BRANCH  43  50
ATOM     50  O   LIG d   1       4.563 -10.398  -7.275  0.00  0.00    -0.491 OA
BRANCH  50  51
ATOM     51  C   LIG d   1       4.250 -10.747  -8.624  0.00  0.00     0.079 C 
ATOM     52  H   LIG d   1       5.037 -10.386  -9.285  0.00  0.00     0.066 H 
ATOM     53  H   LIG d   1       4.170 -11.830  -8.711  0.00  0.00     0.066 H 
ATOM     54  H   LIG d   1       3.301 -10.289  -8.907  0.00  0.00     0.066 H 
ENDBRANCH  50  51
ENDBRANCH  43  50
BRANCH  45  55
ATOM     55  O   LIG d   1       5.210  -9.580  -4.725  0.00  0.00    -0.491 OA
BRANCH  55  56
ATOM     56  C   LIG d   1       4.194  -9.895  -3.771  0.00  0.00     0.079 C 
ATOM     57  H   LIG d   1       4.551  -9.659  -2.768  0.00  0.00     0.066 H 
ATOM     58  H   LIG d   1       3.300  -9.308  -3.986  0.00  0.00     0.066 H 
ATOM     59  H   LIG d   1       3.955 -10.956  -3.831  0.00  0.00     0.066 H 
ENDBRANCH  55  56
ENDBRANCH  45  55
ENDBRANCH  38  41
ENDBRANCH  35  38
ENDBRANCH  32  35
ENDBRANCH  29  32
ENDBRANCH  19  29
BRANCH   1  60
ATOM     60  C   LIG d   1       3.705  -1.962  -2.604  0.00  0.00    -0.060 C 
ATOM     61  H   LIG d   1       3.804  -1.751  -1.540  0.00  0.00     0.023 H 
ATOM     62  H   LIG d   1       2.919  -2.701  -2.757  0.00  0.00     0.023 H 
ATOM     63  H   LIG d   1       4.649  -2.351  -2.987  0.00  0.00     0.023 H 
ENDBRANCH   1  60
BRANCH   6  64
ATOM     64  C   LIG d   1       6.383  -1.309  -3.175  0.00  0.00    -0.057 C 
ATOM     65  H   LIG d   1       7.042  -1.834  -3.867  0.00  0.00     0.024 H 
ATOM     66  H   LIG d   1       6.949  -1.003  -2.295  0.00  0.00     0.024 H 
ATOM     67  H   LIG d   1       5.571  -1.970  -2.873  0.00  0.00     0.024 H 
ENDBRANCH   6  64
TORSDOF 11
ENDMDL
MODEL 9
REMARK VINA RESULT:      -6.0      4.178      6.997
REMARK  11 active torsions:
REMARK  status: ('A' for Active; 'I' for Inactive)
REMARK    1  A    between atoms: C_1  and  C_2 
REMARK    2  A    between atoms: C_7  and  C_35 
REMARK    3  A    between atoms: C_20  and  C_22 
REMARK    4  A    between atoms: C_22  and  N_65 
REMARK    5  A    between atoms: C_23  and  C_24 
REMARK    6  A    between atoms: C_23  and  N_65 
REMARK    7  A    between atoms: C_24  and  C_25 
REMARK    8  A    between atoms: C_28  and  O_33 
REMARK    9  A    between atoms: C_29  and  O_31 
REMARK   10  A    between atoms: O_31  and  C_32 
REMARK   11  A    between atoms: O_33  and  C_34 
ROOT
ATOM      1  C   LIG d   1       4.072  -1.863  -4.307  0.00  0.00    -0.012 C 
ATOM      2  H   LIG d   1       3.366  -1.972  -5.130  0.00  0.00     0.033 H 
ATOM      3  C   LIG d   1       3.324  -1.564  -3.017  0.00  0.00    -0.048 C 
ATOM      4  C   LIG d   1       4.320  -1.313  -1.883  0.00  0.00    -0.052 C 
ATOM      5  C   LIG d   1       5.182  -0.089  -2.203  0.00  0.00    -0.045 C 
ATOM      6  C   LIG d   1       6.000  -0.366  -3.465  0.00  0.00     0.003 C 
ATOM      7  C   LIG d   1       5.036  -0.716  -4.606  0.00  0.00     0.104 A 
ATOM      8  C   LIG d   1       5.499  -0.469  -6.029  0.00  0.00     0.096 A 
ATOM      9  H   LIG d   1       5.106  -1.138  -6.793  0.00  0.00     0.063 H 
ATOM     10  O   LIG d   1       4.535   0.371  -5.390  0.00  0.00    -0.363 OA
ATOM     11  C   LIG d   1       6.868   0.112  -6.327  0.00  0.00     0.043 C 
ATOM     12  H   LIG d   1       6.797   0.926  -7.048  0.00  0.00     0.037 H 
ATOM     13  C   LIG d   1       7.644   0.561  -5.093  0.00  0.00     0.110 C 
ATOM     14  H   LIG d   1       8.179   1.470  -5.370  0.00  0.00     0.074 H 
ATOM     15  C   LIG d   1       6.779   0.879  -3.892  0.00  0.00    -0.007 C 
ATOM     16  O   LIG d   1       8.633  -0.458  -4.800  0.00  0.00    -0.461 OA
ATOM     17  C   LIG d   1       8.525  -1.490  -5.651  0.00  0.00     0.316 C 
ATOM     18  O   LIG d   1       8.959  -2.603  -5.468  0.00  0.00    -0.250 OA
ATOM     19  C   LIG d   1       7.769  -1.026  -6.882  0.00  0.00     0.105 C 
ATOM     20  H   LIG d   1       7.162  -1.833  -7.289  0.00  0.00     0.047 H 
ATOM     21  H   LIG d   1       2.687  -2.410  -2.759  0.00  0.00     0.027 H 
ATOM     22  H   LIG d   1       2.708  -0.677  -3.161  0.00  0.00     0.027 H 
ATOM     23  H   LIG d   1       4.961  -2.186  -1.766  0.00  0.00     0.027 H 
ATOM     24  H   LIG d   1       3.775  -1.139  -0.956  0.00  0.00     0.027 H 
ATOM     25  H   LIG d   1       5.855   0.109  -1.369  0.00  0.00     0.027 H 
ATOM     26  H   LIG d   1       4.540   0.777  -2.367  0.00  0.00     0.027 H 
ATOM     27  H   LIG d   1       6.080   1.674  -4.150  0.00  0.00     0.031 H 
ATOM     28  H   LIG d   1       7.414   1.208  -3.069  0.00  0.00     0.031 H 
ENDROOT
BRANCH  19  29
ATOM     29  C   LIG d   1       8.734  -0.489  -7.940  0.00  0.00    -0.020 C 
ATOM     30  H   LIG d   1       8.617  -1.058  -8.862  0.00  0.00     0.082 H 
ATOM     31  H   LIG d   1       8.517   0.562  -8.132  0.00  0.00     0.082 H 
BRANCH  29  32
ATOM     32  N   LIG d   1      10.118  -0.627  -7.445  0.00  0.00     0.228 N 
ATOM     33  H   LIG d   1      10.624  -1.296  -8.036  0.00  0.00     0.201 HD
ATOM     34  H   LIG d   1      10.099  -0.969  -6.477  0.00  0.00     0.201 HD
BRANCH  32  35
ATOM     35  C   LIG d   1      10.807   0.677  -7.486  0.00  0.00    -0.030 C 
ATOM     36  H   LIG d   1      11.390   0.754  -8.404  0.00  0.00     0.082 H 
ATOM     37  H   LIG d   1      10.073   1.481  -7.452  0.00  0.00     0.082 H 
BRANCH  35  38
ATOM     38  C   LIG d   1      11.741   0.788  -6.279  0.00  0.00     0.013 C 
ATOM     39  H   LIG d   1      11.821  -0.184  -5.791  0.00  0.00     0.036 H 
ATOM     40  H   LIG d   1      12.728   1.109  -6.611  0.00  0.00     0.036 H 
BRANCH  38  41
ATOM     41  C   LIG d   1      11.185   1.795  -5.305  0.00  0.00    -0.039 A 
ATOM     42  C   LIG d   1      10.495   2.898  -5.773  0.00  0.00    -0.013 A 
ATOM     43  C   LIG d   1       9.978   3.822  -4.879  0.00  0.00     0.162 A 
ATOM     44  H   LIG d   1      10.354   3.037  -6.834  0.00  0.00     0.066 H 
ATOM     45  C   LIG d   1      10.165   3.643  -3.512  0.00  0.00     0.162 A 
ATOM     46  C   LIG d   1      10.864   2.538  -3.050  0.00  0.00    -0.016 A 
ATOM     47  C   LIG d   1      11.372   1.617  -3.947  0.00  0.00    -0.055 A 
ATOM     48  H   LIG d   1      11.010   2.396  -1.989  0.00  0.00     0.066 H 
ATOM     49  H   LIG d   1      11.915   0.757  -3.586  0.00  0.00     0.062 H 
BRANCH  43  50
ATOM     50  O   LIG d   1       9.295   4.905  -5.337  0.00  0.00    -0.491 OA
BRANCH  50  51
ATOM     51  C   LIG d   1      10.064   5.963  -5.911  0.00  0.00     0.079 C 
ATOM     52  H   LIG d   1      10.656   5.573  -6.739  0.00  0.00     0.066 H 
ATOM     53  H   LIG d   1       9.395   6.742  -6.277  0.00  0.00     0.066 H 
ATOM     54  H   LIG d   1      10.729   6.381  -5.154  0.00  0.00     0.066 H 
ENDBRANCH  50  51
ENDBRANCH  43  50
BRANCH  45  55
ATOM     55  O   LIG d   1       9.665   4.550  -2.630  0.00  0.00    -0.491 OA
BRANCH  55  56
ATOM     56  C   LIG d   1      10.607   5.247  -1.812  0.00  0.00     0.079 C 
ATOM     57  H   LIG d   1      11.619   4.969  -2.105  0.00  0.00     0.066 H 
ATOM     58  H   LIG d   1      10.474   6.322  -1.941  0.00  0.00     0.066 H 
ATOM     59  H   LIG d   1      10.446   4.984  -0.767  0.00  0.00     0.066 H 
ENDBRANCH  55  56
ENDBRANCH  45  55
ENDBRANCH  38  41
ENDBRANCH  35  38
ENDBRANCH  32  35
ENDBRANCH  29  32
ENDBRANCH  19  29
BRANCH   1  60
ATOM     60  C   LIG d   1       4.860  -3.163  -4.127  0.00  0.00    -0.060 C 
ATOM     61  H   LIG d   1       5.494  -3.328  -4.997  0.00  0.00     0.023 H 
ATOM     62  H   LIG d   1       5.480  -3.090  -3.234  0.00  0.00     0.023 H 
ATOM     63  H   LIG d   1       4.166  -3.996  -4.020  0.00  0.00     0.023 H 
ENDBRANCH   1  60
BRANCH   6  64
ATOM     64  C   LIG d   1       6.964  -1.529  -3.220  0.00  0.00    -0.057 C 
ATOM     65  H   LIG d   1       7.991  -1.176  -3.319  0.00  0.00     0.024 H 
ATOM     66  H   LIG d   1       6.811  -1.921  -2.215  0.00  0.00     0.024 H 
ATOM     67  H   LIG d   1       6.777  -2.316  -3.950  0.00  0.00     0.024 H 
ENDBRANCH   6  64
TORSDOF 11
ENDMDL
MODEL 10
REMARK VINA RESULT:      -6.0      4.414      6.634
REMARK  11 active torsions:
REMARK  status: ('A' for Active; 'I' for Inactive)
REMARK    1  A    between atoms: C_1  and  C_2 
REMARK    2  A    between atoms: C_7  and  C_35 
REMARK    3  A    between atoms: C_20  and  C_22 
REMARK    4  A    between atoms: C_22  and  N_65 
REMARK    5  A    between atoms: C_23  and  C_24 
REMARK    6  A    between atoms: C_23  and  N_65 
REMARK    7  A    between atoms: C_24  and  C_25 
REMARK    8  A    between atoms: C_28  and  O_33 
REMARK    9  A    between atoms: C_29  and  O_31 
REMARK   10  A    between atoms: O_31  and  C_32 
REMARK   11  A    between atoms: O_33  and  C_34 
ROOT
ATOM      1  C   LIG d   1       4.084  -1.901  -4.316  0.00  0.00    -0.012 C 
ATOM      2  H   LIG d   1       3.375  -2.011  -5.136  0.00  0.00     0.033 H 
ATOM      3  C   LIG d   1       3.335  -1.661  -3.013  0.00  0.00    -0.048 C 
ATOM      4  C   LIG d   1       4.331  -1.408  -1.879  0.00  0.00    -0.052 C 
ATOM      5  C   LIG d   1       5.151  -0.149  -2.172  0.00  0.00    -0.045 C 
ATOM      6  C   LIG d   1       5.968  -0.364  -3.446  0.00  0.00     0.003 C 
ATOM      7  C   LIG d   1       5.008  -0.715  -4.590  0.00  0.00     0.104 A 
ATOM      8  C   LIG d   1       5.451  -0.415  -6.008  0.00  0.00     0.096 A 
ATOM      9  H   LIG d   1       5.074  -1.076  -6.788  0.00  0.00     0.063 H 
ATOM     10  O   LIG d   1       4.465   0.375  -5.341  0.00  0.00    -0.363 OA
ATOM     11  C   LIG d   1       6.798   0.219  -6.300  0.00  0.00     0.043 C 
ATOM     12  H   LIG d   1       6.695   1.049  -6.998  0.00  0.00     0.037 H 
ATOM     13  C   LIG d   1       7.568   0.660  -5.060  0.00  0.00     0.110 C 
ATOM     14  H   LIG d   1       8.071   1.593  -5.315  0.00  0.00     0.074 H 
ATOM     15  C   LIG d   1       6.702   0.917  -3.844  0.00  0.00    -0.007 C 
ATOM     16  O   LIG d   1       8.592  -0.333  -4.800  0.00  0.00    -0.461 OA
ATOM     17  C   LIG d   1       8.511  -1.345  -5.679  0.00  0.00     0.316 C 
ATOM     18  O   LIG d   1       8.983  -2.448  -5.528  0.00  0.00    -0.250 OA
ATOM     19  C   LIG d   1       7.731  -0.873  -6.891  0.00  0.00     0.105 C 
ATOM     20  H   LIG d   1       7.148  -1.689  -7.316  0.00  0.00     0.047 H 
ATOM     21  H   LIG d   1       2.729  -2.535  -2.774  0.00  0.00     0.027 H 
ATOM     22  H   LIG d   1       2.690  -0.792  -3.128  0.00  0.00     0.027 H 
ATOM     23  H   LIG d   1       5.002  -2.262  -1.790  0.00  0.00     0.027 H 
ATOM     24  H   LIG d   1       3.789  -1.277  -0.944  0.00  0.00     0.027 H 
ATOM     25  H   LIG d   1       5.823   0.049  -1.337  0.00  0.00     0.027 H 
ATOM     26  H   LIG d   1       4.479   0.700  -2.308  0.00  0.00     0.027 H 
ATOM     27  H   LIG d   1       5.975   1.694  -4.076  0.00  0.00     0.031 H 
ATOM     28  H   LIG d   1       7.332   1.245  -3.016  0.00  0.00     0.031 H 
ENDROOT
BRANCH  19  29
ATOM     29  C   LIG d   1       8.671  -0.277  -7.941  0.00  0.00    -0.020 C 
ATOM     30  H   LIG d   1       8.621  -0.871  -8.853  0.00  0.00     0.082 H 
ATOM     31  H   LIG d   1       8.369   0.748  -8.158  0.00  0.00     0.082 H 
BRANCH  29  32
ATOM     32  N   LIG d   1      10.050  -0.288  -7.416  0.00  0.00     0.228 N 
ATOM     33  H   LIG d   1      10.624  -0.918  -7.987  0.00  0.00     0.201 HD
ATOM     34  H   LIG d   1      10.040  -0.618  -6.444  0.00  0.00     0.201 HD
BRANCH  32  35
ATOM     35  C   LIG d   1      10.625   1.070  -7.462  0.00  0.00    -0.030 C 
ATOM     36  H   LIG d   1      10.883   1.394  -6.454  0.00  0.00     0.082 H 
ATOM     37  H   LIG d   1      11.520   1.068  -8.084  0.00  0.00     0.082 H 
BRANCH  35  38
ATOM     38  C   LIG d   1       9.594   2.031  -8.058  0.00  0.00     0.013 C 
ATOM     39  H   LIG d   1       9.797   2.168  -9.120  0.00  0.00     0.036 H 
ATOM     40  H   LIG d   1       8.594   1.616  -7.930  0.00  0.00     0.036 H 
BRANCH  38  41
ATOM     41  C   LIG d   1       9.681   3.360  -7.354  0.00  0.00    -0.039 A 
ATOM     42  C   LIG d   1       9.613   3.416  -5.974  0.00  0.00    -0.013 A 
ATOM     43  C   LIG d   1       9.698   4.637  -5.324  0.00  0.00     0.162 A 
ATOM     44  H   LIG d   1       9.499   2.507  -5.402  0.00  0.00     0.066 H 
ATOM     45  C   LIG d   1       9.841   5.806  -6.064  0.00  0.00     0.162 A 
ATOM     46  C   LIG d   1       9.902   5.745  -7.448  0.00  0.00    -0.016 A 
ATOM     47  C   LIG d   1       9.822   4.522  -8.089  0.00  0.00    -0.055 A 
ATOM     48  H   LIG d   1      10.013   6.651  -8.025  0.00  0.00     0.066 H 
ATOM     49  H   LIG d   1       9.870   4.476  -9.167  0.00  0.00     0.062 H 
BRANCH  43  50
ATOM     50  O   LIG d   1       9.637   4.692  -3.967  0.00  0.00    -0.491 OA
BRANCH  50  51
ATOM     51  C   LIG d   1       9.640   3.447  -3.266  0.00  0.00     0.079 C 
ATOM     52  H   LIG d   1       9.473   2.633  -3.970  0.00  0.00     0.066 H 
ATOM     53  H   LIG d   1      10.601   3.310  -2.772  0.00  0.00     0.066 H 
ATOM     54  H   LIG d   1       8.845   3.449  -2.519  0.00  0.00     0.066 H 
ENDBRANCH  50  51
ENDBRANCH  43  50
BRANCH  45  55
ATOM     55  O   LIG d   1       9.919   7.008  -5.432  0.00  0.00    -0.491 OA
BRANCH  55  56
ATOM     56  C   LIG d   1       9.205   8.098  -6.018  0.00  0.00     0.079 C 
ATOM     57  H   LIG d   1       9.912   8.809  -6.445  0.00  0.00     0.066 H 
ATOM     58  H   LIG d   1       8.549   7.721  -6.804  0.00  0.00     0.066 H 
ATOM     59  H   LIG d   1       8.608   8.594  -5.254  0.00  0.00     0.066 H 
ENDBRANCH  55  56
ENDBRANCH  45  55
ENDBRANCH  38  41
ENDBRANCH  35  38
ENDBRANCH  32  35
ENDBRANCH  29  32
ENDBRANCH  19  29
BRANCH   1  60
ATOM     60  C   LIG d   1       4.915  -3.179  -4.176  0.00  0.00    -0.060 C 
ATOM     61  H   LIG d   1       4.254  -4.044  -4.170  0.00  0.00     0.023 H 
ATOM     62  H   LIG d   1       5.607  -3.255  -5.015  0.00  0.00     0.023 H 
ATOM     63  H   LIG d   1       5.478  -3.145  -3.243  0.00  0.00     0.023 H 
ENDBRANCH   1  60
BRANCH   6  64
ATOM     64  C   LIG d   1       6.971  -1.501  -3.239  0.00  0.00    -0.057 C 
ATOM     65  H   LIG d   1       6.591  -2.410  -3.704  0.00  0.00     0.024 H 
ATOM     66  H   LIG d   1       7.924  -1.231  -3.693  0.00  0.00     0.024 H 
ATOM     67  H   LIG d   1       7.113  -1.670  -2.171  0.00  0.00     0.024 H 
ENDBRANCH   6  64
TORSDOF 11
ENDMDL
