MODEL 1
REMARK VINA RESULT:      -6.2      0.000      0.000
REMARK  11 active torsions:
REMARK  status: ('A' for Active; 'I' for Inactive)
REMARK    1  A    between atoms: C_1  and  C_2 
REMARK    2  A    between atoms: C_2  and  C_3 
REMARK    3  A    between atoms: C_3  and  C_4 
REMARK    4  A    between atoms: C_4  and  CA_5 
REMARK    5  A    between atoms: CA_5  and  C_7 
REMARK    6  A    between atoms: CA_5  and  N_9 
REMARK       I    between atoms: N_9  and  C_10 
REMARK    7  A    between atoms: C_10  and  C_12 
REMARK    8  A    between atoms: C_12  and  C_13 
REMARK    9  A    between atoms: C_14  and  C_29 
REMARK   10  A    between atoms: C_18  and  C_25 
REMARK   11  A    between atoms: C_23  and  C_24 
ROOT
ATOM      1  C   LIG d   1       7.444  -0.078  -5.235  0.00  0.00     0.049 A 
ATOM      2  C   LIG d   1       8.016   0.752  -6.148  0.00  0.00    -0.026 A 
ATOM      3  C   LIG d   1       8.527   2.041  -5.685  0.00  0.00     0.064 A 
ATOM      4  C   LIG d   1       8.412   2.375  -4.326  0.00  0.00     0.143 A 
ATOM      5  C   LIG d   1       8.895   3.599  -3.868  0.00  0.00    -0.015 A 
ATOM      6  C   LIG d   1       9.481   4.480  -4.730  0.00  0.00    -0.036 A 
ATOM      7  C   LIG d   1       9.606   4.167  -6.087  0.00  0.00     0.027 A 
ATOM      8  C   LIG d   1       9.130   2.945  -6.579  0.00  0.00     0.146 A 
ATOM      9  O   LIG d   1       9.380   2.917  -7.901  0.00  0.00    -0.462 OA
ATOM     10  C   LIG d   1       9.990   4.047  -8.297  0.00  0.00     0.096 A 
ATOM     11  C   LIG d   1      10.165   4.866  -7.251  0.00  0.00    -0.005 A 
ATOM     12  O   LIG d   1       7.833   1.505  -3.470  0.00  0.00    -0.422 OA
ATOM     13  C   LIG d   1       7.356   0.323  -3.887  0.00  0.00     0.341 A 
ATOM     14  O   LIG d   1       6.837  -0.426  -3.078  0.00  0.00    -0.245 OA
ATOM     15  H   LIG d   1       8.806   3.852  -2.822  0.00  0.00     0.066 H 
ATOM     16  H   LIG d   1      10.295   4.263  -9.311  0.00  0.00     0.103 H 
ENDROOT
BRANCH   1  17
ATOM     17  C   LIG d   1       6.901  -1.417  -5.665  0.00  0.00     0.056 C 
ATOM     18  H   LIG d   1       7.200  -2.177  -4.943  0.00  0.00     0.041 H 
ATOM     19  H   LIG d   1       7.298  -1.671  -6.647  0.00  0.00     0.041 H 
BRANCH  17  20
ATOM     20  C   LIG d   1       5.397  -1.350  -5.731  0.00  0.00     0.218 C 
ATOM     21  N   LIG d   1       4.773  -0.157  -5.685  0.00  0.00    -0.307 N 
ATOM     22  H   LIG d   1       5.292   0.659  -5.609  0.00  0.00     0.149 HD
ATOM     23  O   LIG d   1       4.748  -2.371  -5.821  0.00  0.00    -0.275 OA
BRANCH  21  24
ATOM     24  CA  LIG d   1       3.311  -0.091  -5.749  0.00  0.00     0.063 C 
ATOM     25  HA  LIG d   1       2.896  -1.089  -5.610  0.00  0.00     0.056 H 
BRANCH  24  26
ATOM     26  C   LIG d   1       2.793   0.835  -4.647  0.00  0.00    -0.029 C 
ATOM     27  H   LIG d   1       3.132   1.853  -4.838  0.00  0.00     0.029 H 
ATOM     28  H   LIG d   1       1.704   0.810  -4.634  0.00  0.00     0.029 H 
BRANCH  26  29
ATOM     29  C   LIG d   1       3.329   0.366  -3.293  0.00  0.00    -0.051 C 
ATOM     30  H   LIG d   1       4.413   0.259  -3.349  0.00  0.00     0.027 H 
ATOM     31  H   LIG d   1       3.076   1.099  -2.528  0.00  0.00     0.027 H 
BRANCH  29  32
ATOM     32  C   LIG d   1       2.702  -0.983  -2.935  0.00  0.00    -0.056 C 
ATOM     33  H   LIG d   1       1.932  -0.836  -2.176  0.00  0.00     0.026 H 
ATOM     34  H   LIG d   1       2.254  -1.423  -3.826  0.00  0.00     0.026 H 
BRANCH  32  35
ATOM     35  C   LIG d   1       3.782  -1.920  -2.390  0.00  0.00    -0.065 C 
ATOM     36  H   LIG d   1       3.864  -1.790  -1.311  0.00  0.00     0.023 H 
ATOM     37  H   LIG d   1       3.513  -2.952  -2.613  0.00  0.00     0.023 H 
ATOM     38  H   LIG d   1       4.738  -1.683  -2.859  0.00  0.00     0.023 H 
ENDBRANCH  32  35
ENDBRANCH  29  32
ENDBRANCH  26  29
ENDBRANCH  24  26
BRANCH  24  39
ATOM     39  C   LIG d   1       2.891   0.444  -7.094  0.00  0.00     0.062 C 
ATOM     40  O   LIG d   1       2.925   1.632  -7.309  0.00  0.00    -0.548 OA
ATOM     41  OXT LIG d   1       2.478  -0.401  -8.052  0.00  0.00    -0.548 OA
ENDBRANCH  24  39
ENDBRANCH  21  24
ENDBRANCH  17  20
ENDBRANCH   1  17
BRANCH   2  42
ATOM     42  C   LIG d   1       8.118   0.353  -7.598  0.00  0.00    -0.038 C 
ATOM     43  H   LIG d   1       8.857  -0.442  -7.705  0.00  0.00     0.028 H 
ATOM     44  H   LIG d   1       7.148  -0.004  -7.945  0.00  0.00     0.028 H 
ATOM     45  H   LIG d   1       8.422   1.215  -8.191  0.00  0.00     0.028 H 
ENDBRANCH   2  42
BRANCH   6  46
ATOM     46  C   LIG d   1       9.998   5.799  -4.216  0.00  0.00    -0.039 C 
ATOM     47  H   LIG d   1       9.876   6.561  -4.985  0.00  0.00     0.028 H 
ATOM     48  H   LIG d   1       9.437   6.087  -3.326  0.00  0.00     0.028 H 
ATOM     49  H   LIG d   1      11.053   5.702  -3.965  0.00  0.00     0.028 H 
ENDBRANCH   6  46
BRANCH  11  50
ATOM     50  C   LIG d   1      10.808   6.228  -7.266  0.00  0.00    -0.036 C 
ATOM     51  H   LIG d   1      10.299   6.863  -7.991  0.00  0.00     0.028 H 
ATOM     52  H   LIG d   1      10.732   6.677  -6.275  0.00  0.00     0.028 H 
ATOM     53  H   LIG d   1      11.859   6.133  -7.540  0.00  0.00     0.028 H 
ENDBRANCH  11  50
TORSDOF 11
ENDMDL
MODEL 2
REMARK VINA RESULT:      -6.2      3.794      7.449
REMARK  11 active torsions:
REMARK  status: ('A' for Active; 'I' for Inactive)
REMARK    1  A    between atoms: C_1  and  C_2 
REMARK    2  A    between atoms: C_2  and  C_3 
REMARK    3  A    between atoms: C_3  and  C_4 
REMARK    4  A    between atoms: C_4  and  CA_5 
REMARK    5  A    between atoms: CA_5  and  C_7 
REMARK    6  A    between atoms: CA_5  and  N_9 
REMARK       I    between atoms: N_9  and  C_10 
REMARK    7  A    between atoms: C_10  and  C_12 
REMARK    8  A    between atoms: C_12  and  C_13 
REMARK    9  A    between atoms: C_14  and  C_29 
REMARK   10  A    between atoms: C_18  and  C_25 
REMARK   11  A    between atoms: C_23  and  C_24 
ROOT
ATOM      1  C   LIG d   1       4.666   0.117  -8.191  0.00  0.00     0.049 A 
ATOM      2  C   LIG d   1       4.839  -0.304  -9.472  0.00  0.00    -0.026 A 
ATOM      3  C   LIG d   1       3.650  -0.621 -10.263  0.00  0.00     0.064 A 
ATOM      4  C   LIG d   1       2.381  -0.481  -9.677  0.00  0.00     0.143 A 
ATOM      5  C   LIG d   1       1.239  -0.778 -10.415  0.00  0.00    -0.015 A 
ATOM      6  C   LIG d   1       1.340  -1.206 -11.707  0.00  0.00    -0.036 A 
ATOM      7  C   LIG d   1       2.592  -1.352 -12.310  0.00  0.00     0.027 A 
ATOM      8  C   LIG d   1       3.761  -1.062 -11.593  0.00  0.00     0.146 A 
ATOM      9  O   LIG d   1       4.804  -1.291 -12.412  0.00  0.00    -0.462 OA
ATOM     10  C   LIG d   1       4.383  -1.712 -13.618  0.00  0.00     0.096 A 
ATOM     11  C   LIG d   1       3.045  -1.779 -13.640  0.00  0.00    -0.005 A 
ATOM     12  O   LIG d   1       2.278  -0.057  -8.398  0.00  0.00    -0.422 OA
ATOM     13  C   LIG d   1       3.363   0.230  -7.664  0.00  0.00     0.341 A 
ATOM     14  O   LIG d   1       3.219   0.604  -6.513  0.00  0.00    -0.245 OA
ATOM     15  H   LIG d   1       0.264  -0.668  -9.962  0.00  0.00     0.066 H 
ATOM     16  H   LIG d   1       5.030  -1.961 -14.447  0.00  0.00     0.103 H 
ENDROOT
BRANCH   1  17
ATOM     17  C   LIG d   1       5.860   0.455  -7.337  0.00  0.00     0.056 C 
ATOM     18  H   LIG d   1       5.666   1.378  -6.790  0.00  0.00     0.041 H 
ATOM     19  H   LIG d   1       6.735   0.587  -7.973  0.00  0.00     0.041 H 
BRANCH  17  20
ATOM     20  C   LIG d   1       6.112  -0.664  -6.360  0.00  0.00     0.218 C 
ATOM     21  N   LIG d   1       5.550  -0.628  -5.136  0.00  0.00    -0.307 N 
ATOM     22  H   LIG d   1       4.984   0.118  -4.883  0.00  0.00     0.149 HD
ATOM     23  O   LIG d   1       6.824  -1.595  -6.674  0.00  0.00    -0.275 OA
BRANCH  21  24
ATOM     24  CA  LIG d   1       5.794  -1.715  -4.185  0.00  0.00     0.063 C 
ATOM     25  HA  LIG d   1       6.642  -2.311  -4.524  0.00  0.00     0.056 H 
BRANCH  24  26
ATOM     26  C   LIG d   1       6.102  -1.129  -2.806  0.00  0.00    -0.029 C 
ATOM     27  H   LIG d   1       5.475  -1.613  -2.058  0.00  0.00     0.029 H 
ATOM     28  H   LIG d   1       7.152  -1.296  -2.566  0.00  0.00     0.029 H 
BRANCH  26  29
ATOM     29  C   LIG d   1       5.815   0.374  -2.816  0.00  0.00    -0.051 C 
ATOM     30  H   LIG d   1       6.721   0.919  -2.548  0.00  0.00     0.027 H 
ATOM     31  H   LIG d   1       5.491   0.676  -3.812  0.00  0.00     0.027 H 
BRANCH  29  32
ATOM     32  C   LIG d   1       4.712   0.690  -1.804  0.00  0.00    -0.056 C 
ATOM     33  H   LIG d   1       4.378  -0.234  -1.330  0.00  0.00     0.026 H 
ATOM     34  H   LIG d   1       5.101   1.367  -1.043  0.00  0.00     0.026 H 
BRANCH  32  35
ATOM     35  C   LIG d   1       3.533   1.350  -2.521  0.00  0.00    -0.065 C 
ATOM     36  H   LIG d   1       3.845   1.661  -3.519  0.00  0.00     0.023 H 
ATOM     37  H   LIG d   1       2.712   0.639  -2.601  0.00  0.00     0.023 H 
ATOM     38  H   LIG d   1       3.206   2.222  -1.955  0.00  0.00     0.023 H 
ENDBRANCH  32  35
ENDBRANCH  29  32
ENDBRANCH  26  29
ENDBRANCH  24  26
BRANCH  24  39
ATOM     39  C   LIG d   1       4.570  -2.590  -4.098  0.00  0.00     0.062 C 
ATOM     40  O   LIG d   1       4.416  -3.494  -4.883  0.00  0.00    -0.548 OA
ATOM     41  OXT LIG d   1       3.649  -2.361  -3.148  0.00  0.00    -0.548 OA
ENDBRANCH  24  39
ENDBRANCH  21  24
ENDBRANCH  17  20
ENDBRANCH   1  17
BRANCH   2  42
ATOM     42  C   LIG d   1       6.219  -0.441 -10.061  0.00  0.00    -0.038 C 
ATOM     43  H   LIG d   1       6.962  -0.386  -9.264  0.00  0.00     0.028 H 
ATOM     44  H   LIG d   1       6.304  -1.402 -10.569  0.00  0.00     0.028 H 
ATOM     45  H   LIG d   1       6.391   0.364 -10.774  0.00  0.00     0.028 H 
ENDBRANCH   2  42
BRANCH   6  46
ATOM     46  C   LIG d   1       0.091  -1.522 -12.491  0.00  0.00    -0.039 C 
ATOM     47  H   LIG d   1      -0.003  -2.602 -12.602  0.00  0.00     0.028 H 
ATOM     48  H   LIG d   1      -0.779  -1.134 -11.960  0.00  0.00     0.028 H 
ATOM     49  H   LIG d   1       0.154  -1.059 -13.475  0.00  0.00     0.028 H 
ENDBRANCH   6  46
BRANCH  11  50
ATOM     50  C   LIG d   1       2.179  -2.203 -14.797  0.00  0.00    -0.036 C 
ATOM     51  H   LIG d   1       1.268  -2.667 -14.419  0.00  0.00     0.028 H 
ATOM     52  H   LIG d   1       1.919  -1.330 -15.397  0.00  0.00     0.028 H 
ATOM     53  H   LIG d   1       2.722  -2.918 -15.415  0.00  0.00     0.028 H 
ENDBRANCH  11  50
TORSDOF 11
ENDMDL
MODEL 3
REMARK VINA RESULT:      -6.0      1.088      2.596
REMARK  11 active torsions:
REMARK  status: ('A' for Active; 'I' for Inactive)
REMARK    1  A    between atoms: C_1  and  C_2 
REMARK    2  A    between atoms: C_2  and  C_3 
REMARK    3  A    between atoms: C_3  and  C_4 
REMARK    4  A    between atoms: C_4  and  CA_5 
REMARK    5  A    between atoms: CA_5  and  C_7 
REMARK    6  A    between atoms: CA_5  and  N_9 
REMARK       I    between atoms: N_9  and  C_10 
REMARK    7  A    between atoms: C_10  and  C_12 
REMARK    8  A    between atoms: C_12  and  C_13 
REMARK    9  A    between atoms: C_14  and  C_29 
REMARK   10  A    between atoms: C_18  and  C_25 
REMARK   11  A    between atoms: C_23  and  C_24 
ROOT
ATOM      1  C   LIG d   1       7.375  -0.271  -6.191  0.00  0.00     0.049 A 
ATOM      2  C   LIG d   1       7.806   0.634  -5.271  0.00  0.00    -0.026 A 
ATOM      3  C   LIG d   1       8.453   1.853  -5.752  0.00  0.00     0.064 A 
ATOM      4  C   LIG d   1       8.608   2.047  -7.134  0.00  0.00     0.143 A 
ATOM      5  C   LIG d   1       9.222   3.203  -7.609  0.00  0.00    -0.015 A 
ATOM      6  C   LIG d   1       9.678   4.153  -6.742  0.00  0.00    -0.036 A 
ATOM      7  C   LIG d   1       9.534   3.980  -5.362  0.00  0.00     0.027 A 
ATOM      8  C   LIG d   1       8.921   2.828  -4.853  0.00  0.00     0.146 A 
ATOM      9  O   LIG d   1       8.922   2.930  -3.511  0.00  0.00    -0.462 OA
ATOM     10  C   LIG d   1       9.498   4.079  -3.118  0.00  0.00     0.096 A 
ATOM     11  C   LIG d   1       9.901   4.780  -4.186  0.00  0.00    -0.005 A 
ATOM     12  O   LIG d   1       8.158   1.109  -7.996  0.00  0.00    -0.422 OA
ATOM     13  C   LIG d   1       7.567  -0.015  -7.563  0.00  0.00     0.341 A 
ATOM     14  O   LIG d   1       7.183  -0.835  -8.379  0.00  0.00    -0.245 OA
ATOM     15  H   LIG d   1       9.338   3.350  -8.673  0.00  0.00     0.066 H 
ATOM     16  H   LIG d   1       9.619   4.391  -2.090  0.00  0.00     0.103 H 
ENDROOT
BRANCH   1  17
ATOM     17  C   LIG d   1       6.702  -1.543  -5.744  0.00  0.00     0.056 C 
ATOM     18  H   LIG d   1       6.906  -1.709  -4.686  0.00  0.00     0.041 H 
ATOM     19  H   LIG d   1       7.086  -2.380  -6.325  0.00  0.00     0.041 H 
BRANCH  17  20
ATOM     20  C   LIG d   1       5.214  -1.424  -5.956  0.00  0.00     0.218 C 
ATOM     21  N   LIG d   1       4.599  -0.242  -5.756  0.00  0.00    -0.307 N 
ATOM     22  H   LIG d   1       5.112   0.532  -5.477  0.00  0.00     0.149 HD
ATOM     23  O   LIG d   1       4.571  -2.393  -6.300  0.00  0.00    -0.275 OA
BRANCH  21  24
ATOM     24  CA  LIG d   1       3.152  -0.125  -5.961  0.00  0.00     0.063 C 
ATOM     25  HA  LIG d   1       2.697  -1.114  -5.905  0.00  0.00     0.056 H 
BRANCH  24  26
ATOM     26  C   LIG d   1       2.554   0.775  -4.879  0.00  0.00    -0.029 C 
ATOM     27  H   LIG d   1       2.710   1.819  -5.148  0.00  0.00     0.029 H 
ATOM     28  H   LIG d   1       1.487   0.576  -4.790  0.00  0.00     0.029 H 
BRANCH  26  29
ATOM     29  C   LIG d   1       3.239   0.487  -3.541  0.00  0.00    -0.051 C 
ATOM     30  H   LIG d   1       4.313   0.383  -3.697  0.00  0.00     0.027 H 
ATOM     31  H   LIG d   1       3.050   1.309  -2.851  0.00  0.00     0.027 H 
BRANCH  29  32
ATOM     32  C   LIG d   1       2.683  -0.811  -2.952  0.00  0.00    -0.056 C 
ATOM     33  H   LIG d   1       2.002  -0.576  -2.133  0.00  0.00     0.026 H 
ATOM     34  H   LIG d   1       2.144  -1.359  -3.725  0.00  0.00     0.026 H 
BRANCH  32  35
ATOM     35  C   LIG d   1       3.836  -1.669  -2.427  0.00  0.00    -0.065 C 
ATOM     36  H   LIG d   1       4.287  -2.216  -3.256  0.00  0.00     0.023 H 
ATOM     37  H   LIG d   1       4.584  -1.027  -1.964  0.00  0.00     0.023 H 
ATOM     38  H   LIG d   1       3.456  -2.376  -1.689  0.00  0.00     0.023 H 
ENDBRANCH  32  35
ENDBRANCH  29  32
ENDBRANCH  26  29
ENDBRANCH  24  26
BRANCH  24  39
ATOM     39  C   LIG d   1       2.885   0.474  -7.318  0.00  0.00     0.062 C 
ATOM     40  O   LIG d   1       2.449  -0.217  -8.208  0.00  0.00    -0.548 OA
ATOM     41  OXT LIG d   1       3.133   1.775  -7.537  0.00  0.00    -0.548 OA
ENDBRANCH  24  39
ENDBRANCH  21  24
ENDBRANCH  17  20
ENDBRANCH   1  17
BRANCH   2  42
ATOM     42  C   LIG d   1       7.620   0.385  -3.797  0.00  0.00    -0.038 C 
ATOM     43  H   LIG d   1       8.568   0.070  -3.358  0.00  0.00     0.028 H 
ATOM     44  H   LIG d   1       7.284   1.303  -3.313  0.00  0.00     0.028 H 
ATOM     45  H   LIG d   1       6.875  -0.396  -3.651  0.00  0.00     0.028 H 
ENDBRANCH   2  42
BRANCH   6  46
ATOM     46  C   LIG d   1      10.339   5.398  -7.275  0.00  0.00    -0.039 C 
ATOM     47  H   LIG d   1       9.667   5.895  -7.974  0.00  0.00     0.028 H 
ATOM     48  H   LIG d   1      10.566   6.072  -6.447  0.00  0.00     0.028 H 
ATOM     49  H   LIG d   1      11.262   5.128  -7.787  0.00  0.00     0.028 H 
ENDBRANCH   6  46
BRANCH  11  50
ATOM     50  C   LIG d   1      10.591   6.120  -4.183  0.00  0.00    -0.036 C 
ATOM     51  H   LIG d   1      11.507   6.059  -4.772  0.00  0.00     0.028 H 
ATOM     52  H   LIG d   1       9.930   6.870  -4.617  0.00  0.00     0.028 H 
ATOM     53  H   LIG d   1      10.835   6.401  -3.159  0.00  0.00     0.028 H 
ENDBRANCH  11  50
TORSDOF 11
ENDMDL
MODEL 4
REMARK VINA RESULT:      -6.0      2.342      4.555
REMARK  11 active torsions:
REMARK  status: ('A' for Active; 'I' for Inactive)
REMARK    1  A    between atoms: C_1  and  C_2 
REMARK    2  A    between atoms: C_2  and  C_3 
REMARK    3  A    between atoms: C_3  and  C_4 
REMARK    4  A    between atoms: C_4  and  CA_5 
REMARK    5  A    between atoms: CA_5  and  C_7 
REMARK    6  A    between atoms: CA_5  and  N_9 
REMARK       I    between atoms: N_9  and  C_10 
REMARK    7  A    between atoms: C_10  and  C_12 
REMARK    8  A    between atoms: C_12  and  C_13 
REMARK    9  A    between atoms: C_14  and  C_29 
REMARK   10  A    between atoms: C_18  and  C_25 
REMARK   11  A    between atoms: C_23  and  C_24 
ROOT
ATOM      1  C   LIG d   1       9.610   2.828  -5.671  0.00  0.00     0.049 A 
ATOM      2  C   LIG d   1       9.677   3.568  -4.533  0.00  0.00    -0.026 A 
ATOM      3  C   LIG d   1       9.711   5.025  -4.656  0.00  0.00     0.064 A 
ATOM      4  C   LIG d   1       9.674   5.605  -5.935  0.00  0.00     0.143 A 
ATOM      5  C   LIG d   1       9.705   6.990  -6.070  0.00  0.00    -0.015 A 
ATOM      6  C   LIG d   1       9.772   7.793  -4.969  0.00  0.00    -0.036 A 
ATOM      7  C   LIG d   1       9.809   7.237  -3.687  0.00  0.00     0.027 A 
ATOM      8  C   LIG d   1       9.780   5.847  -3.517  0.00  0.00     0.146 A 
ATOM      9  O   LIG d   1       9.828   5.600  -2.195  0.00  0.00    -0.462 OA
ATOM     10  C   LIG d   1       9.887   6.747  -1.495  0.00  0.00     0.096 A 
ATOM     11  C   LIG d   1       9.880   7.795  -2.330  0.00  0.00    -0.005 A 
ATOM     12  O   LIG d   1       9.608   4.812  -7.026  0.00  0.00    -0.422 OA
ATOM     13  C   LIG d   1       9.582   3.475  -6.923  0.00  0.00     0.341 A 
ATOM     14  O   LIG d   1       9.528   2.802  -7.938  0.00  0.00    -0.245 OA
ATOM     15  H   LIG d   1       9.676   7.433  -7.055  0.00  0.00     0.066 H 
ATOM     16  H   LIG d   1       9.932   6.813  -0.418  0.00  0.00     0.103 H 
ENDROOT
BRANCH   1  17
ATOM     17  C   LIG d   1       9.573   1.323  -5.595  0.00  0.00     0.056 C 
ATOM     18  H   LIG d   1      10.182   0.988  -4.755  0.00  0.00     0.041 H 
ATOM     19  H   LIG d   1       9.966   0.904  -6.520  0.00  0.00     0.041 H 
BRANCH  17  20
ATOM     20  C   LIG d   1       8.150   0.866  -5.400  0.00  0.00     0.218 C 
ATOM     21  N   LIG d   1       7.802   0.215  -4.273  0.00  0.00    -0.307 N 
ATOM     22  H   LIG d   1       8.466   0.040  -3.588  0.00  0.00     0.149 HD
ATOM     23  O   LIG d   1       7.321   1.079  -6.258  0.00  0.00    -0.275 OA
BRANCH  21  24
ATOM     24  CA  LIG d   1       6.419  -0.232  -4.082  0.00  0.00     0.063 C 
ATOM     25  HA  LIG d   1       5.978  -0.471  -5.049  0.00  0.00     0.056 H 
BRANCH  24  26
ATOM     26  C   LIG d   1       6.402  -1.475  -3.192  0.00  0.00    -0.029 C 
ATOM     27  H   LIG d   1       7.423  -1.735  -2.911  0.00  0.00     0.029 H 
ATOM     28  H   LIG d   1       5.819  -1.272  -2.294  0.00  0.00     0.029 H 
BRANCH  26  29
ATOM     29  C   LIG d   1       5.772  -2.641  -3.956  0.00  0.00    -0.051 C 
ATOM     30  H   LIG d   1       6.027  -2.562  -5.014  0.00  0.00     0.027 H 
ATOM     31  H   LIG d   1       6.152  -3.583  -3.561  0.00  0.00     0.027 H 
BRANCH  29  32
ATOM     32  C   LIG d   1       4.252  -2.595  -3.793  0.00  0.00    -0.056 C 
ATOM     33  H   LIG d   1       3.834  -1.862  -4.484  0.00  0.00     0.026 H 
ATOM     34  H   LIG d   1       3.833  -3.579  -4.012  0.00  0.00     0.026 H 
BRANCH  32  35
ATOM     35  C   LIG d   1       3.903  -2.199  -2.357  0.00  0.00    -0.065 C 
ATOM     36  H   LIG d   1       3.162  -2.894  -1.959  0.00  0.00     0.023 H 
ATOM     37  H   LIG d   1       4.802  -2.235  -1.743  0.00  0.00     0.023 H 
ATOM     38  H   LIG d   1       3.496  -1.188  -2.348  0.00  0.00     0.023 H 
ENDBRANCH  32  35
ENDBRANCH  29  32
ENDBRANCH  26  29
ENDBRANCH  24  26
BRANCH  24  39
ATOM     39  C   LIG d   1       5.624   0.868  -3.426  0.00  0.00     0.062 C 
ATOM     40  O   LIG d   1       6.145   1.581  -2.602  0.00  0.00    -0.548 OA
ATOM     41  OXT LIG d   1       4.336   1.052  -3.756  0.00  0.00    -0.548 OA
ENDBRANCH  24  39
ENDBRANCH  21  24
ENDBRANCH  17  20
ENDBRANCH   1  17
BRANCH   2  42
ATOM     42  C   LIG d   1       9.715   2.904  -3.181  0.00  0.00    -0.038 C 
ATOM     43  H   LIG d   1      10.560   3.289  -2.609  0.00  0.00     0.028 H 
ATOM     44  H   LIG d   1       8.789   3.117  -2.645  0.00  0.00     0.028 H 
ATOM     45  H   LIG d   1       9.822   1.828  -3.307  0.00  0.00     0.028 H 
ENDBRANCH   2  42
BRANCH   6  46
ATOM     46  C   LIG d   1       9.804   9.291  -5.135  0.00  0.00    -0.039 C 
ATOM     47  H   LIG d   1      10.831   9.644  -5.047  0.00  0.00     0.028 H 
ATOM     48  H   LIG d   1       9.412   9.556  -6.118  0.00  0.00     0.028 H 
ATOM     49  H   LIG d   1       9.192   9.755  -4.363  0.00  0.00     0.028 H 
ENDBRANCH   6  46
BRANCH  11  50
ATOM     50  C   LIG d   1       9.934   9.253  -1.953  0.00  0.00    -0.036 C 
ATOM     51  H   LIG d   1       9.564   9.857  -2.782  0.00  0.00     0.028 H 
ATOM     52  H   LIG d   1       9.312   9.425  -1.074  0.00  0.00     0.028 H 
ATOM     53  H   LIG d   1      10.963   9.534  -1.729  0.00  0.00     0.028 H 
ENDBRANCH  11  50
TORSDOF 11
ENDMDL
MODEL 5
REMARK VINA RESULT:      -5.9      4.542      8.331
REMARK  11 active torsions:
REMARK  status: ('A' for Active; 'I' for Inactive)
REMARK    1  A    between atoms: C_1  and  C_2 
REMARK    2  A    between atoms: C_2  and  C_3 
REMARK    3  A    between atoms: C_3  and  C_4 
REMARK    4  A    between atoms: C_4  and  CA_5 
REMARK    5  A    between atoms: CA_5  and  C_7 
REMARK    6  A    between atoms: CA_5  and  N_9 
REMARK       I    between atoms: N_9  and  C_10 
REMARK    7  A    between atoms: C_10  and  C_12 
REMARK    8  A    between atoms: C_12  and  C_13 
REMARK    9  A    between atoms: C_14  and  C_29 
REMARK   10  A    between atoms: C_18  and  C_25 
REMARK   11  A    between atoms: C_23  and  C_24 
ROOT
ATOM      1  C   LIG d   1       3.590   0.605  -9.371  0.00  0.00     0.049 A 
ATOM      2  C   LIG d   1       2.755  -0.278  -9.982  0.00  0.00    -0.026 A 
ATOM      3  C   LIG d   1       3.011  -0.618 -11.380  0.00  0.00     0.064 A 
ATOM      4  C   LIG d   1       4.101  -0.027 -12.040  0.00  0.00     0.143 A 
ATOM      5  C   LIG d   1       4.359  -0.340 -13.372  0.00  0.00    -0.015 A 
ATOM      6  C   LIG d   1       3.561  -1.219 -14.045  0.00  0.00    -0.036 A 
ATOM      7  C   LIG d   1       2.471  -1.819 -13.408  0.00  0.00     0.027 A 
ATOM      8  C   LIG d   1       2.185  -1.524 -12.069  0.00  0.00     0.146 A 
ATOM      9  O   LIG d   1       1.095  -2.235 -11.723  0.00  0.00    -0.462 OA
ATOM     10  C   LIG d   1       0.658  -2.974 -12.757  0.00  0.00     0.096 A 
ATOM     11  C   LIG d   1       1.441  -2.778 -13.826  0.00  0.00    -0.005 A 
ATOM     12  O   LIG d   1       4.893   0.843 -11.376  0.00  0.00    -0.422 OA
ATOM     13  C   LIG d   1       4.662   1.166 -10.095  0.00  0.00     0.341 A 
ATOM     14  O   LIG d   1       5.401   1.960  -9.540  0.00  0.00    -0.245 OA
ATOM     15  H   LIG d   1       5.199   0.115 -13.877  0.00  0.00     0.066 H 
ATOM     16  H   LIG d   1      -0.200  -3.630 -12.730  0.00  0.00     0.103 H 
ENDROOT
BRANCH   1  17
ATOM     17  C   LIG d   1       3.367   0.987  -7.931  0.00  0.00     0.056 C 
ATOM     18  H   LIG d   1       2.319   0.829  -7.672  0.00  0.00     0.041 H 
ATOM     19  H   LIG d   1       3.622   2.037  -7.790  0.00  0.00     0.041 H 
BRANCH  17  20
ATOM     20  C   LIG d   1       4.238   0.134  -7.045  0.00  0.00     0.218 C 
ATOM     21  N   LIG d   1       3.697  -0.888  -6.353  0.00  0.00    -0.307 N 
ATOM     22  H   LIG d   1       2.748  -1.075  -6.424  0.00  0.00     0.149 HD
ATOM     23  O   LIG d   1       5.424   0.371  -6.950  0.00  0.00    -0.275 OA
BRANCH  21  24
ATOM     24  CA  LIG d   1       4.543  -1.718  -5.490  0.00  0.00     0.063 C 
ATOM     25  HA  LIG d   1       5.555  -1.313  -5.477  0.00  0.00     0.056 H 
BRANCH  24  26
ATOM     26  C   LIG d   1       3.975  -1.722  -4.070  0.00  0.00    -0.029 C 
ATOM     27  H   LIG d   1       3.098  -1.077  -4.028  0.00  0.00     0.029 H 
ATOM     28  H   LIG d   1       3.694  -2.738  -3.794  0.00  0.00     0.029 H 
BRANCH  26  29
ATOM     29  C   LIG d   1       5.035  -1.204  -3.096  0.00  0.00    -0.051 C 
ATOM     30  H   LIG d   1       5.709  -2.018  -2.825  0.00  0.00     0.027 H 
ATOM     31  H   LIG d   1       5.605  -0.405  -3.569  0.00  0.00     0.027 H 
BRANCH  29  32
ATOM     32  C   LIG d   1       4.353  -0.668  -1.836  0.00  0.00    -0.056 C 
ATOM     33  H   LIG d   1       3.291  -0.913  -1.866  0.00  0.00     0.026 H 
ATOM     34  H   LIG d   1       4.806  -1.124  -0.955  0.00  0.00     0.026 H 
BRANCH  32  35
ATOM     35  C   LIG d   1       4.524   0.851  -1.770  0.00  0.00    -0.065 C 
ATOM     36  H   LIG d   1       5.183   1.106  -0.939  0.00  0.00     0.023 H 
ATOM     37  H   LIG d   1       4.960   1.208  -2.702  0.00  0.00     0.023 H 
ATOM     38  H   LIG d   1       3.552   1.320  -1.620  0.00  0.00     0.023 H 
ENDBRANCH  32  35
ENDBRANCH  29  32
ENDBRANCH  26  29
ENDBRANCH  24  26
BRANCH  24  39
ATOM     39  C   LIG d   1       4.573  -3.127  -6.024  0.00  0.00     0.062 C 
ATOM     40  O   LIG d   1       4.323  -4.055  -5.293  0.00  0.00    -0.548 OA
ATOM     41  OXT LIG d   1       4.882  -3.350  -7.311  0.00  0.00    -0.548 OA
ENDBRANCH  24  39
ENDBRANCH  21  24
ENDBRANCH  17  20
ENDBRANCH   1  17
BRANCH   2  42
ATOM     42  C   LIG d   1       1.597  -0.888  -9.235  0.00  0.00    -0.038 C 
ATOM     43  H   LIG d   1       1.930  -1.214  -8.249  0.00  0.00     0.028 H 
ATOM     44  H   LIG d   1       0.805  -0.146  -9.123  0.00  0.00     0.028 H 
ATOM     45  H   LIG d   1       1.217  -1.744  -9.791  0.00  0.00     0.028 H 
ENDBRANCH   2  42
BRANCH   6  46
ATOM     46  C   LIG d   1       3.857  -1.546 -15.487  0.00  0.00    -0.039 C 
ATOM     47  H   LIG d   1       4.217  -0.651 -15.995  0.00  0.00     0.028 H 
ATOM     48  H   LIG d   1       4.622  -2.322 -15.534  0.00  0.00     0.028 H 
ATOM     49  H   LIG d   1       2.949  -1.900 -15.973  0.00  0.00     0.028 H 
ENDBRANCH   6  46
BRANCH  11  50
ATOM     50  C   LIG d   1       1.296  -3.415 -15.184  0.00  0.00    -0.036 C 
ATOM     51  H   LIG d   1       1.762  -4.401 -15.176  0.00  0.00     0.028 H 
ATOM     52  H   LIG d   1       0.238  -3.516 -15.427  0.00  0.00     0.028 H 
ATOM     53  H   LIG d   1       1.782  -2.790 -15.933  0.00  0.00     0.028 H 
ENDBRANCH  11  50
TORSDOF 11
ENDMDL
MODEL 6
REMARK VINA RESULT:      -5.9      4.617      7.592
REMARK  11 active torsions:
REMARK  status: ('A' for Active; 'I' for Inactive)
REMARK    1  A    between atoms: C_1  and  C_2 
REMARK    2  A    between atoms: C_2  and  C_3 
REMARK    3  A    between atoms: C_3  and  C_4 
REMARK    4  A    between atoms: C_4  and  CA_5 
REMARK    5  A    between atoms: CA_5  and  C_7 
REMARK    6  A    between atoms: CA_5  and  N_9 
REMARK       I    between atoms: N_9  and  C_10 
REMARK    7  A    between atoms: C_10  and  C_12 
REMARK    8  A    between atoms: C_12  and  C_13 
REMARK    9  A    between atoms: C_14  and  C_29 
REMARK   10  A    between atoms: C_18  and  C_25 
REMARK   11  A    between atoms: C_23  and  C_24 
ROOT
ATOM      1  C   LIG d   1       3.194  -0.002  -8.329  0.00  0.00     0.049 A 
ATOM      2  C   LIG d   1       3.362  -1.150  -9.040  0.00  0.00    -0.026 A 
ATOM      3  C   LIG d   1       3.686  -1.041 -10.461  0.00  0.00     0.064 A 
ATOM      4  C   LIG d   1       3.813   0.232 -11.039  0.00  0.00     0.143 A 
ATOM      5  C   LIG d   1       4.122   0.354 -12.392  0.00  0.00    -0.015 A 
ATOM      6  C   LIG d   1       4.305  -0.757 -13.164  0.00  0.00    -0.036 A 
ATOM      7  C   LIG d   1       4.183  -2.034 -12.609  0.00  0.00     0.027 A 
ATOM      8  C   LIG d   1       3.872  -2.189 -11.251  0.00  0.00     0.146 A 
ATOM      9  O   LIG d   1       3.820  -3.510 -10.998  0.00  0.00    -0.462 OA
ATOM     10  C   LIG d   1       4.078  -4.222 -12.109  0.00  0.00     0.096 A 
ATOM     11  C   LIG d   1       4.310  -3.398 -13.139  0.00  0.00    -0.005 A 
ATOM     12  O   LIG d   1       3.633   1.333 -10.278  0.00  0.00    -0.422 OA
ATOM     13  C   LIG d   1       3.330   1.243  -8.974  0.00  0.00     0.341 A 
ATOM     14  O   LIG d   1       3.172   2.266  -8.330  0.00  0.00    -0.245 OA
ATOM     15  H   LIG d   1       4.220   1.335 -12.833  0.00  0.00     0.066 H 
ATOM     16  H   LIG d   1       4.096  -5.301 -12.163  0.00  0.00     0.103 H 
ENDROOT
BRANCH   1  17
ATOM     17  C   LIG d   1       2.858  -0.063  -6.862  0.00  0.00     0.056 C 
ATOM     18  H   LIG d   1       2.078  -0.807  -6.698  0.00  0.00     0.041 H 
ATOM     19  H   LIG d   1       2.505   0.913  -6.530  0.00  0.00     0.041 H 
BRANCH  17  20
ATOM     20  C   LIG d   1       4.089  -0.445  -6.081  0.00  0.00     0.218 C 
ATOM     21  N   LIG d   1       4.016  -1.404  -5.136  0.00  0.00    -0.307 N 
ATOM     22  H   LIG d   1       3.172  -1.847  -4.959  0.00  0.00     0.149 HD
ATOM     23  O   LIG d   1       5.143   0.113  -6.298  0.00  0.00    -0.275 OA
BRANCH  21  24
ATOM     24  CA  LIG d   1       5.212  -1.776  -4.375  0.00  0.00     0.063 C 
ATOM     25  HA  LIG d   1       6.063  -1.197  -4.732  0.00  0.00     0.056 H 
BRANCH  24  26
ATOM     26  C   LIG d   1       4.983  -1.487  -2.891  0.00  0.00    -0.029 C 
ATOM     27  H   LIG d   1       5.255  -2.364  -2.304  0.00  0.00     0.029 H 
ATOM     28  H   LIG d   1       5.598  -0.640  -2.587  0.00  0.00     0.029 H 
BRANCH  26  29
ATOM     29  C   LIG d   1       3.508  -1.155  -2.657  0.00  0.00    -0.051 C 
ATOM     30  H   LIG d   1       2.926  -1.453  -3.531  0.00  0.00     0.027 H 
ATOM     31  H   LIG d   1       3.148  -1.694  -1.781  0.00  0.00     0.027 H 
BRANCH  29  32
ATOM     32  C   LIG d   1       3.352   0.350  -2.430  0.00  0.00    -0.056 C 
ATOM     33  H   LIG d   1       3.255   0.854  -3.392  0.00  0.00     0.026 H 
ATOM     34  H   LIG d   1       2.460   0.536  -1.830  0.00  0.00     0.026 H 
BRANCH  32  35
ATOM     35  C   LIG d   1       4.583   0.885  -1.695  0.00  0.00    -0.065 C 
ATOM     36  H   LIG d   1       5.477   0.665  -2.278  0.00  0.00     0.023 H 
ATOM     37  H   LIG d   1       4.488   1.963  -1.566  0.00  0.00     0.023 H 
ATOM     38  H   LIG d   1       4.659   0.407  -0.718  0.00  0.00     0.023 H 
ENDBRANCH  32  35
ENDBRANCH  29  32
ENDBRANCH  26  29
ENDBRANCH  24  26
BRANCH  24  39
ATOM     39  C   LIG d   1       5.489  -3.245  -4.565  0.00  0.00     0.062 C 
ATOM     40  O   LIG d   1       6.628  -3.642  -4.625  0.00  0.00    -0.548 OA
ATOM     41  OXT LIG d   1       4.470  -4.112  -4.670  0.00  0.00    -0.548 OA
ENDBRANCH  24  39
ENDBRANCH  21  24
ENDBRANCH  17  20
ENDBRANCH   1  17
BRANCH   2  42
ATOM     42  C   LIG d   1       3.216  -2.496  -8.379  0.00  0.00    -0.038 C 
ATOM     43  H   LIG d   1       4.079  -3.117  -8.623  0.00  0.00     0.028 H 
ATOM     44  H   LIG d   1       3.159  -2.365  -7.297  0.00  0.00     0.028 H 
ATOM     45  H   LIG d   1       2.308  -2.979  -8.735  0.00  0.00     0.028 H 
ENDBRANCH   2  42
BRANCH   6  46
ATOM     46  C   LIG d   1       4.640  -0.605 -14.626  0.00  0.00    -0.039 C 
ATOM     47  H   LIG d   1       4.248  -1.460 -15.178  0.00  0.00     0.028 H 
ATOM     48  H   LIG d   1       4.190   0.312 -15.008  0.00  0.00     0.028 H 
ATOM     49  H   LIG d   1       5.721  -0.559 -14.747  0.00  0.00     0.028 H 
ENDBRANCH   6  46
BRANCH  11  50
ATOM     50  C   LIG d   1       4.638  -3.790 -14.557  0.00  0.00    -0.036 C 
ATOM     51  H   LIG d   1       4.689  -4.876 -14.631  0.00  0.00     0.028 H 
ATOM     52  H   LIG d   1       3.861  -3.416 -15.226  0.00  0.00     0.028 H 
ATOM     53  H   LIG d   1       5.598  -3.360 -14.841  0.00  0.00     0.028 H 
ENDBRANCH  11  50
TORSDOF 11
ENDMDL
MODEL 7
REMARK VINA RESULT:      -5.8      2.138      3.833
REMARK  11 active torsions:
REMARK  status: ('A' for Active; 'I' for Inactive)
REMARK    1  A    between atoms: C_1  and  C_2 
REMARK    2  A    between atoms: C_2  and  C_3 
REMARK    3  A    between atoms: C_3  and  C_4 
REMARK    4  A    between atoms: C_4  and  CA_5 
REMARK    5  A    between atoms: CA_5  and  C_7 
REMARK    6  A    between atoms: CA_5  and  N_9 
REMARK       I    between atoms: N_9  and  C_10 
REMARK    7  A    between atoms: C_10  and  C_12 
REMARK    8  A    between atoms: C_12  and  C_13 
REMARK    9  A    between atoms: C_14  and  C_29 
REMARK   10  A    between atoms: C_18  and  C_25 
REMARK   11  A    between atoms: C_23  and  C_24 
ROOT
ATOM      1  C   LIG d   1       8.871   1.514  -5.723  0.00  0.00     0.049 A 
ATOM      2  C   LIG d   1       9.046   2.671  -5.030  0.00  0.00    -0.026 A 
ATOM      3  C   LIG d   1       9.347   3.888  -5.781  0.00  0.00     0.064 A 
ATOM      4  C   LIG d   1       9.445   3.822  -7.181  0.00  0.00     0.143 A 
ATOM      5  C   LIG d   1       9.731   4.972  -7.913  0.00  0.00    -0.015 A 
ATOM      6  C   LIG d   1       9.918   6.167  -7.281  0.00  0.00    -0.036 A 
ATOM      7  C   LIG d   1       9.825   6.255  -5.889  0.00  0.00     0.027 A 
ATOM      8  C   LIG d   1       9.540   5.116  -5.125  0.00  0.00     0.146 A 
ATOM      9  O   LIG d   1       9.513   5.493  -3.833  0.00  0.00    -0.462 OA
ATOM     10  C   LIG d   1       9.764   6.809  -3.712  0.00  0.00     0.096 A 
ATOM     11  C   LIG d   1       9.967   7.350  -4.921  0.00  0.00    -0.005 A 
ATOM     12  O   LIG d   1       9.260   2.640  -7.809  0.00  0.00    -0.422 OA
ATOM     13  C   LIG d   1       8.989   1.518  -7.127  0.00  0.00     0.341 A 
ATOM     14  O   LIG d   1       8.836   0.475  -7.738  0.00  0.00    -0.245 OA
ATOM     15  H   LIG d   1       9.804   4.918  -8.989  0.00  0.00     0.066 H 
ATOM     16  H   LIG d   1       9.797   7.349  -2.778  0.00  0.00     0.103 H 
ENDROOT
BRANCH   1  17
ATOM     17  C   LIG d   1       8.559   0.233  -4.992  0.00  0.00     0.056 C 
ATOM     18  H   LIG d   1       9.089   0.221  -4.039  0.00  0.00     0.041 H 
ATOM     19  H   LIG d   1       8.877  -0.616  -5.596  0.00  0.00     0.041 H 
BRANCH  17  20
ATOM     20  C   LIG d   1       7.075   0.147  -4.743  0.00  0.00     0.218 C 
ATOM     21  N   LIG d   1       6.613  -0.043  -3.492  0.00  0.00    -0.307 N 
ATOM     22  H   LIG d   1       7.235  -0.124  -2.751  0.00  0.00     0.149 HD
ATOM     23  O   LIG d   1       6.298   0.242  -5.669  0.00  0.00    -0.275 OA
BRANCH  21  24
ATOM     24  CA  LIG d   1       5.171  -0.129  -3.248  0.00  0.00     0.063 C 
ATOM     25  HA  LIG d   1       4.646  -0.212  -4.200  0.00  0.00     0.056 H 
BRANCH  24  26
ATOM     26  C   LIG d   1       4.870  -1.359  -2.390  0.00  0.00    -0.029 C 
ATOM     27  H   LIG d   1       5.805  -1.805  -2.054  0.00  0.00     0.029 H 
ATOM     28  H   LIG d   1       4.276  -1.062  -1.526  0.00  0.00     0.029 H 
BRANCH  26  29
ATOM     29  C   LIG d   1       4.088  -2.380  -3.219  0.00  0.00    -0.051 C 
ATOM     30  H   LIG d   1       3.589  -3.084  -2.552  0.00  0.00     0.027 H 
ATOM     31  H   LIG d   1       3.342  -1.863  -3.823  0.00  0.00     0.027 H 
BRANCH  29  32
ATOM     32  C   LIG d   1       5.050  -3.139  -4.134  0.00  0.00    -0.056 C 
ATOM     33  H   LIG d   1       6.067  -2.786  -3.965  0.00  0.00     0.026 H 
ATOM     34  H   LIG d   1       4.995  -4.206  -3.913  0.00  0.00     0.026 H 
BRANCH  32  35
ATOM     35  C   LIG d   1       4.662  -2.900  -5.595  0.00  0.00    -0.065 C 
ATOM     36  H   LIG d   1       4.343  -1.864  -5.720  0.00  0.00     0.023 H 
ATOM     37  H   LIG d   1       5.522  -3.095  -6.235  0.00  0.00     0.023 H 
ATOM     38  H   LIG d   1       3.845  -3.568  -5.868  0.00  0.00     0.023 H 
ENDBRANCH  32  35
ENDBRANCH  29  32
ENDBRANCH  26  29
ENDBRANCH  24  26
BRANCH  24  39
ATOM     39  C   LIG d   1       4.709   1.112  -2.528  0.00  0.00     0.062 C 
ATOM     40  O   LIG d   1       4.854   1.206  -1.333  0.00  0.00    -0.548 OA
ATOM     41  OXT LIG d   1       4.136   2.112  -3.216  0.00  0.00    -0.548 OA
ENDBRANCH  24  39
ENDBRANCH  21  24
ENDBRANCH  17  20
ENDBRANCH   1  17
BRANCH   2  42
ATOM     42  C   LIG d   1       8.933   2.696  -3.527  0.00  0.00    -0.038 C 
ATOM     43  H   LIG d   1       9.623   3.437  -3.123  0.00  0.00     0.028 H 
ATOM     44  H   LIG d   1       7.913   2.959  -3.245  0.00  0.00     0.028 H 
ATOM     45  H   LIG d   1       9.179   1.713  -3.128  0.00  0.00     0.028 H 
ENDBRANCH   2  42
BRANCH   6  46
ATOM     46  C   LIG d   1      10.226   7.401  -8.090  0.00  0.00    -0.039 C 
ATOM     47  H   LIG d   1      10.240   8.271  -7.433  0.00  0.00     0.028 H 
ATOM     48  H   LIG d   1      11.200   7.289  -8.566  0.00  0.00     0.028 H 
ATOM     49  H   LIG d   1       9.461   7.535  -8.853  0.00  0.00     0.028 H 
ENDBRANCH   6  46
BRANCH  11  50
ATOM     50  C   LIG d   1      10.277   8.793  -5.226  0.00  0.00    -0.036 C 
ATOM     51  H   LIG d   1      10.597   8.885  -6.264  0.00  0.00     0.028 H 
ATOM     52  H   LIG d   1       9.383   9.398  -5.067  0.00  0.00     0.028 H 
ATOM     53  H   LIG d   1      11.072   9.142  -4.567  0.00  0.00     0.028 H 
ENDBRANCH  11  50
TORSDOF 11
ENDMDL
MODEL 8
REMARK VINA RESULT:      -5.8      2.102      3.269
REMARK  11 active torsions:
REMARK  status: ('A' for Active; 'I' for Inactive)
REMARK    1  A    between atoms: C_1  and  C_2 
REMARK    2  A    between atoms: C_2  and  C_3 
REMARK    3  A    between atoms: C_3  and  C_4 
REMARK    4  A    between atoms: C_4  and  CA_5 
REMARK    5  A    between atoms: CA_5  and  C_7 
REMARK    6  A    between atoms: CA_5  and  N_9 
REMARK       I    between atoms: N_9  and  C_10 
REMARK    7  A    between atoms: C_10  and  C_12 
REMARK    8  A    between atoms: C_12  and  C_13 
REMARK    9  A    between atoms: C_14  and  C_29 
REMARK   10  A    between atoms: C_18  and  C_25 
REMARK   11  A    between atoms: C_23  and  C_24 
ROOT
ATOM      1  C   LIG d   1       8.884   1.918  -5.358  0.00  0.00     0.049 A 
ATOM      2  C   LIG d   1       9.041   2.378  -6.628  0.00  0.00    -0.026 A 
ATOM      3  C   LIG d   1       9.342   3.796  -6.817  0.00  0.00     0.064 A 
ATOM      4  C   LIG d   1       9.458   4.627  -5.691  0.00  0.00     0.143 A 
ATOM      5  C   LIG d   1       9.745   5.980  -5.853  0.00  0.00    -0.015 A 
ATOM      6  C   LIG d   1       9.916   6.508  -7.100  0.00  0.00    -0.036 A 
ATOM      7  C   LIG d   1       9.805   5.699  -8.234  0.00  0.00     0.027 A 
ATOM      8  C   LIG d   1       9.516   4.334  -8.105  0.00  0.00     0.146 A 
ATOM      9  O   LIG d   1       9.469   3.812  -9.344  0.00  0.00    -0.462 OA
ATOM     10  C   LIG d   1       9.710   4.755 -10.271  0.00  0.00     0.096 A 
ATOM     11  C   LIG d   1       9.925   5.938  -9.678  0.00  0.00    -0.005 A 
ATOM     12  O   LIG d   1       9.290   4.107  -4.456  0.00  0.00    -0.422 OA
ATOM     13  C   LIG d   1       9.008   2.809  -4.273  0.00  0.00     0.341 A 
ATOM     14  O   LIG d   1       8.860   2.388  -3.139  0.00  0.00    -0.245 OA
ATOM     15  H   LIG d   1       9.835   6.617  -4.985  0.00  0.00     0.066 H 
ATOM     16  H   LIG d   1       9.728   4.585 -11.338  0.00  0.00     0.103 H 
ENDROOT
BRANCH   1  17
ATOM     17  C   LIG d   1       8.572   0.464  -5.112  0.00  0.00     0.056 C 
ATOM     18  H   LIG d   1       9.133   0.114  -4.245  0.00  0.00     0.041 H 
ATOM     19  H   LIG d   1       8.853  -0.120  -5.988  0.00  0.00     0.041 H 
BRANCH  17  20
ATOM     20  C   LIG d   1       7.095   0.304  -4.854  0.00  0.00     0.218 C 
ATOM     21  N   LIG d   1       6.648   0.125  -3.595  0.00  0.00    -0.307 N 
ATOM     22  H   LIG d   1       7.276   0.098  -2.856  0.00  0.00     0.149 HD
ATOM     23  O   LIG d   1       6.311   0.332  -5.778  0.00  0.00    -0.275 OA
BRANCH  21  24
ATOM     24  CA  LIG d   1       5.214  -0.032  -3.343  0.00  0.00     0.063 C 
ATOM     25  HA  LIG d   1       4.687  -0.132  -4.292  0.00  0.00     0.056 H 
BRANCH  24  26
ATOM     26  C   LIG d   1       4.978  -1.281  -2.492  0.00  0.00    -0.029 C 
ATOM     27  H   LIG d   1       5.937  -1.708  -2.201  0.00  0.00     0.029 H 
ATOM     28  H   LIG d   1       4.413  -1.012  -1.600  0.00  0.00     0.029 H 
BRANCH  26  29
ATOM     29  C   LIG d   1       4.188  -2.309  -3.304  0.00  0.00    -0.051 C 
ATOM     30  H   LIG d   1       3.700  -3.010  -2.626  0.00  0.00     0.027 H 
ATOM     31  H   LIG d   1       3.434  -1.798  -3.902  0.00  0.00     0.027 H 
BRANCH  29  32
ATOM     32  C   LIG d   1       5.141  -3.072  -4.227  0.00  0.00    -0.056 C 
ATOM     33  H   LIG d   1       6.159  -2.712  -4.075  0.00  0.00     0.026 H 
ATOM     34  H   LIG d   1       5.094  -4.137  -3.997  0.00  0.00     0.026 H 
BRANCH  32  35
ATOM     35  C   LIG d   1       4.731  -2.845  -5.684  0.00  0.00    -0.065 C 
ATOM     36  H   LIG d   1       4.424  -3.793  -6.126  0.00  0.00     0.023 H 
ATOM     37  H   LIG d   1       3.902  -2.139  -5.722  0.00  0.00     0.023 H 
ATOM     38  H   LIG d   1       5.578  -2.442  -6.240  0.00  0.00     0.023 H 
ENDBRANCH  32  35
ENDBRANCH  29  32
ENDBRANCH  26  29
ENDBRANCH  24  26
BRANCH  24  39
ATOM     39  C   LIG d   1       4.699   1.181  -2.610  0.00  0.00     0.062 C 
ATOM     40  O   LIG d   1       4.194   2.089  -3.225  0.00  0.00    -0.548 OA
ATOM     41  OXT LIG d   1       4.803   1.251  -1.273  0.00  0.00    -0.548 OA
ENDBRANCH  24  39
ENDBRANCH  21  24
ENDBRANCH  17  20
ENDBRANCH   1  17
BRANCH   2  42
ATOM     42  C   LIG d   1       8.908   1.450  -7.808  0.00  0.00    -0.038 C 
ATOM     43  H   LIG d   1       8.324   1.937  -8.590  0.00  0.00     0.028 H 
ATOM     44  H   LIG d   1       9.899   1.208  -8.193  0.00  0.00     0.028 H 
ATOM     45  H   LIG d   1       8.405   0.535  -7.496  0.00  0.00     0.028 H 
ENDBRANCH   2  42
BRANCH   6  46
ATOM     46  C   LIG d   1      10.227   7.975  -7.255  0.00  0.00    -0.039 C 
ATOM     47  H   LIG d   1      10.986   8.264  -6.529  0.00  0.00     0.028 H 
ATOM     48  H   LIG d   1      10.598   8.163  -8.264  0.00  0.00     0.028 H 
ATOM     49  H   LIG d   1       9.322   8.558  -7.086  0.00  0.00     0.028 H 
ENDBRANCH   6  46
BRANCH  11  50
ATOM     50  C   LIG d   1      10.229   7.249 -10.356  0.00  0.00    -0.036 C 
ATOM     51  H   LIG d   1       9.724   7.285 -11.322  0.00  0.00     0.028 H 
ATOM     52  H   LIG d   1       9.877   8.071  -9.732  0.00  0.00     0.028 H 
ATOM     53  H   LIG d   1      11.304   7.341 -10.505  0.00  0.00     0.028 H 
ENDBRANCH  11  50
TORSDOF 11
ENDMDL
MODEL 9
REMARK VINA RESULT:      -5.5      2.392      4.751
REMARK  11 active torsions:
REMARK  status: ('A' for Active; 'I' for Inactive)
REMARK    1  A    between atoms: C_1  and  C_2 
REMARK    2  A    between atoms: C_2  and  C_3 
REMARK    3  A    between atoms: C_3  and  C_4 
REMARK    4  A    between atoms: C_4  and  CA_5 
REMARK    5  A    between atoms: CA_5  and  C_7 
REMARK    6  A    between atoms: CA_5  and  N_9 
REMARK       I    between atoms: N_9  and  C_10 
REMARK    7  A    between atoms: C_10  and  C_12 
REMARK    8  A    between atoms: C_12  and  C_13 
REMARK    9  A    between atoms: C_14  and  C_29 
REMARK   10  A    between atoms: C_18  and  C_25 
REMARK   11  A    between atoms: C_23  and  C_24 
ROOT
ATOM      1  C   LIG d   1       9.753   3.282  -5.230  0.00  0.00     0.049 A 
ATOM      2  C   LIG d   1       9.848   4.119  -4.162  0.00  0.00    -0.026 A 
ATOM      3  C   LIG d   1       9.847   5.560  -4.412  0.00  0.00     0.064 A 
ATOM      4  C   LIG d   1       9.748   6.026  -5.733  0.00  0.00     0.143 A 
ATOM      5  C   LIG d   1       9.745   7.395  -5.988  0.00  0.00    -0.015 A 
ATOM      6  C   LIG d   1       9.837   8.291  -4.964  0.00  0.00    -0.036 A 
ATOM      7  C   LIG d   1       9.937   7.849  -3.641  0.00  0.00     0.027 A 
ATOM      8  C   LIG d   1       9.944   6.479  -3.352  0.00  0.00     0.146 A 
ATOM      9  O   LIG d   1      10.049   6.349  -2.016  0.00  0.00    -0.462 OA
ATOM     10  C   LIG d   1      10.111   7.553  -1.421  0.00  0.00     0.096 A 
ATOM     11  C   LIG d   1      10.050   8.524  -2.342  0.00  0.00    -0.005 A 
ATOM     12  O   LIG d   1       9.656   5.141  -6.749  0.00  0.00    -0.422 OA
ATOM     13  C   LIG d   1       9.662   3.817  -6.530  0.00  0.00     0.341 A 
ATOM     14  O   LIG d   1       9.582   3.058  -7.480  0.00  0.00    -0.245 OA
ATOM     15  H   LIG d   1       9.667   7.750  -7.005  0.00  0.00     0.066 H 
ATOM     16  H   LIG d   1      10.198   7.713  -0.356  0.00  0.00     0.103 H 
ENDROOT
BRANCH   1  17
ATOM     17  C   LIG d   1       9.750   1.789  -5.023  0.00  0.00     0.056 C 
ATOM     18  H   LIG d   1      10.397   1.538  -4.182  0.00  0.00     0.041 H 
ATOM     19  H   LIG d   1      10.117   1.298  -5.923  0.00  0.00     0.041 H 
BRANCH  17  20
ATOM     20  C   LIG d   1       8.346   1.325  -4.733  0.00  0.00     0.218 C 
ATOM     21  N   LIG d   1       8.127   0.395  -3.783  0.00  0.00    -0.307 N 
ATOM     22  H   LIG d   1       8.873   0.024  -3.286  0.00  0.00     0.149 HD
ATOM     23  O   LIG d   1       7.414   1.785  -5.358  0.00  0.00    -0.275 OA
BRANCH  21  24
ATOM     24  CA  LIG d   1       6.763  -0.058  -3.501  0.00  0.00     0.063 C 
ATOM     25  HA  LIG d   1       6.782  -0.786  -2.689  0.00  0.00     0.056 H 
BRANCH  24  26
ATOM     26  C   LIG d   1       5.901   1.138  -3.094  0.00  0.00    -0.029 C 
ATOM     27  H   LIG d   1       6.543   1.944  -2.739  0.00  0.00     0.029 H 
ATOM     28  H   LIG d   1       5.327   1.482  -3.954  0.00  0.00     0.029 H 
BRANCH  26  29
ATOM     29  C   LIG d   1       4.944   0.721  -1.976  0.00  0.00    -0.051 C 
ATOM     30  H   LIG d   1       5.111  -0.328  -1.728  0.00  0.00     0.027 H 
ATOM     31  H   LIG d   1       5.125   1.335  -1.094  0.00  0.00     0.027 H 
BRANCH  29  32
ATOM     32  C   LIG d   1       3.500   0.910  -2.442  0.00  0.00    -0.056 C 
ATOM     33  H   LIG d   1       2.916   1.366  -1.642  0.00  0.00     0.026 H 
ATOM     34  H   LIG d   1       3.483   1.560  -3.318  0.00  0.00     0.026 H 
BRANCH  32  35
ATOM     35  C   LIG d   1       2.897  -0.449  -2.804  0.00  0.00    -0.065 C 
ATOM     36  H   LIG d   1       3.573  -0.977  -3.478  0.00  0.00     0.023 H 
ATOM     37  H   LIG d   1       2.756  -1.036  -1.897  0.00  0.00     0.023 H 
ATOM     38  H   LIG d   1       1.936  -0.300  -3.295  0.00  0.00     0.023 H 
ENDBRANCH  32  35
ENDBRANCH  29  32
ENDBRANCH  26  29
ENDBRANCH  24  26
BRANCH  24  39
ATOM     39  C   LIG d   1       6.182  -0.699  -4.735  0.00  0.00     0.062 C 
ATOM     40  O   LIG d   1       6.666  -1.716  -5.172  0.00  0.00    -0.548 OA
ATOM     41  OXT LIG d   1       5.128  -0.139  -5.350  0.00  0.00    -0.548 OA
ENDBRANCH  24  39
ENDBRANCH  21  24
ENDBRANCH  17  20
ENDBRANCH   1  17
BRANCH   2  42
ATOM     42  C   LIG d   1       9.954   3.576  -2.761  0.00  0.00    -0.038 C 
ATOM     43  H   LIG d   1      10.622   4.207  -2.175  0.00  0.00     0.028 H 
ATOM     44  H   LIG d   1       8.965   3.568  -2.299  0.00  0.00     0.028 H 
ATOM     45  H   LIG d   1      10.348   2.561  -2.793  0.00  0.00     0.028 H 
ENDBRANCH   2  42
BRANCH   6  46
ATOM     46  C   LIG d   1       9.832   9.770  -5.260  0.00  0.00    -0.039 C 
ATOM     47  H   LIG d   1       8.839  10.068  -5.598  0.00  0.00     0.028 H 
ATOM     48  H   LIG d   1      10.089  10.322  -4.355  0.00  0.00     0.028 H 
ATOM     49  H   LIG d   1      10.561   9.987  -6.039  0.00  0.00     0.028 H 
ENDBRANCH   6  46
BRANCH  11  50
ATOM     50  C   LIG d   1      10.088  10.010  -2.094  0.00  0.00    -0.036 C 
ATOM     51  H   LIG d   1      10.457  10.202  -1.087  0.00  0.00     0.028 H 
ATOM     52  H   LIG d   1      10.751  10.483  -2.820  0.00  0.00     0.028 H 
ATOM     53  H   LIG d   1       9.084  10.422  -2.198  0.00  0.00     0.028 H 
ENDBRANCH  11  50
TORSDOF 11
ENDMDL
