MODEL 1
REMARK VINA RESULT:      -5.3      0.000      0.000
REMARK  16 active torsions:
REMARK  status: ('A' for Active; 'I' for Inactive)
REMARK    1  A    between atoms: C_1  and  C_2 
REMARK    2  A    between atoms: C_2  and  O_4 
REMARK    3  A    between atoms: O_4  and  C_5 
REMARK    4  A    between atoms: C_5  and  C_6 
REMARK    5  A    between atoms: C_8  and  O_29 
REMARK    6  A    between atoms: C_10  and  O_25 
REMARK    7  A    between atoms: C_12  and  O_21 
REMARK    8  A    between atoms: C_14  and  S_17 
REMARK    9  A    between atoms: S_17  and  C_18 
REMARK   10  A    between atoms: C_18  and  C_20 
REMARK   11  A    between atoms: O_21  and  C_22 
REMARK   12  A    between atoms: C_22  and  C_24 
REMARK   13  A    between atoms: O_25  and  C_26 
REMARK   14  A    between atoms: C_26  and  C_28 
REMARK   15  A    between atoms: O_29  and  C_30 
REMARK   16  A    between atoms: C_30  and  C_32 
ROOT
ATOM      1  C   LIG d   1       4.651  -1.318  -8.330  0.00  0.00     0.135 C 
ATOM      2  H   LIG d   1       5.138  -1.004  -9.253  0.00  0.00     0.067 H 
ATOM      3  C   LIG d   1       4.634  -0.152  -7.338  0.00  0.00     0.172 C 
ATOM      4  H   LIG d   1       5.654   0.184  -7.153  0.00  0.00     0.080 H 
ATOM      5  C   LIG d   1       4.002  -0.619  -6.024  0.00  0.00     0.182 C 
ATOM      6  H   LIG d   1       2.966  -0.908  -6.200  0.00  0.00     0.081 H 
ATOM      7  C   LIG d   1       4.787  -1.823  -5.493  0.00  0.00     0.179 C 
ATOM      8  H   LIG d   1       4.311  -2.196  -4.585  0.00  0.00     0.081 H 
ATOM      9  C   LIG d   1       4.798  -2.926  -6.554  0.00  0.00     0.152 C 
ATOM     10  H   LIG d   1       3.776  -3.255  -6.747  0.00  0.00     0.076 H 
ATOM     11  O   LIG d   1       5.369  -2.415  -7.762  0.00  0.00    -0.351 OA
ENDROOT
BRANCH   1  12
ATOM     12  C   LIG d   1       3.215  -1.751  -8.634  0.00  0.00     0.122 C 
ATOM     13  H   LIG d   1       3.143  -2.837  -8.576  0.00  0.00     0.072 H 
ATOM     14  H   LIG d   1       2.540  -1.302  -7.907  0.00  0.00     0.072 H 
BRANCH  12  15
ATOM     15  O   LIG d   1       2.849  -1.312  -9.969  0.00  0.00    -0.462 OA
BRANCH  15  16
ATOM     16  C   LIG d   1       1.748  -1.856 -10.509  0.00  0.00     0.304 C 
ATOM     17  O   LIG d   1       1.289  -2.875 -10.048  0.00  0.00    -0.251 OA
BRANCH  16  18
ATOM     18  C   LIG d   1       1.083  -1.197 -11.689  0.00  0.00     0.033 C 
ATOM     19  H   LIG d   1       0.175  -1.743 -11.947  0.00  0.00     0.034 H 
ATOM     20  H   LIG d   1       0.828  -0.168 -11.436  0.00  0.00     0.034 H 
ATOM     21  H   LIG d   1       1.764  -1.204 -12.540  0.00  0.00     0.034 H 
ENDBRANCH  16  18
ENDBRANCH  15  16
ENDBRANCH  12  15
ENDBRANCH   1  12
BRANCH   3  22
ATOM     22  O   LIG d   1       3.855   0.943  -7.889  0.00  0.00    -0.455 OA
BRANCH  22  23
ATOM     23  C   LIG d   1       4.451   1.708  -8.816  0.00  0.00     0.304 C 
ATOM     24  O   LIG d   1       5.600   2.052  -8.669  0.00  0.00    -0.251 OA
BRANCH  23  25
ATOM     25  C   LIG d   1       3.687   2.141 -10.042  0.00  0.00     0.033 C 
ATOM     26  H   LIG d   1       2.948   1.381 -10.295  0.00  0.00     0.034 H 
ATOM     27  H   LIG d   1       3.182   3.086  -9.841  0.00  0.00     0.034 H 
ATOM     28  H   LIG d   1       4.378   2.266 -10.876  0.00  0.00     0.034 H 
ENDBRANCH  23  25
ENDBRANCH  22  23
ENDBRANCH   3  22
BRANCH   9  29
ATOM     29  S   LIG d   1       5.781  -4.324  -5.962  0.00  0.00    -0.053 SA
BRANCH  29  30
ATOM     30  C   LIG d   1       4.570  -5.533  -5.897  0.00  0.00     0.189 C 
ATOM     31  O   LIG d   1       3.418  -5.252  -6.151  0.00  0.00    -0.285 OA
BRANCH  30  32
ATOM     32  C   LIG d   1       4.936  -6.946  -5.526  0.00  0.00     0.004 C 
ATOM     33  H   LIG d   1       4.726  -7.104  -4.561  0.00  0.00     0.032 H 
ATOM     34  H   LIG d   1       4.365  -7.643  -6.140  0.00  0.00     0.032 H 
ATOM     35  H   LIG d   1       6.002  -7.102  -5.696  0.00  0.00     0.032 H 
ENDBRANCH  30  32
ENDBRANCH  29  30
ENDBRANCH   9  29
BRANCH   5  36
ATOM     36  O   LIG d   1       4.047   0.458  -5.051  0.00  0.00    -0.454 OA
BRANCH  36  37
ATOM     37  C   LIG d   1       3.155   0.413  -4.050  0.00  0.00     0.304 C 
ATOM     38  O   LIG d   1       2.043  -0.016  -4.250  0.00  0.00    -0.251 OA
BRANCH  37  39
ATOM     39  C   LIG d   1       3.539   0.898  -2.675  0.00  0.00     0.033 C 
ATOM     40  H   LIG d   1       3.484   1.987  -2.646  0.00  0.00     0.034 H 
ATOM     41  H   LIG d   1       2.856   0.478  -1.937  0.00  0.00     0.034 H 
ATOM     42  H   LIG d   1       4.558   0.581  -2.450  0.00  0.00     0.034 H 
ENDBRANCH  37  39
ENDBRANCH  36  37
ENDBRANCH   5  36
BRANCH   7  43
ATOM     43  O   LIG d   1       6.150  -1.421  -5.195  0.00  0.00    -0.454 OA
BRANCH  43  44
ATOM     44  C   LIG d   1       6.441  -1.156  -3.912  0.00  0.00     0.304 C 
ATOM     45  O   LIG d   1       6.138  -1.945  -3.049  0.00  0.00    -0.251 OA
BRANCH  44  46
ATOM     46  C   LIG d   1       7.147   0.125  -3.549  0.00  0.00     0.033 C 
ATOM     47  H   LIG d   1       7.905  -0.080  -2.792  0.00  0.00     0.034 H 
ATOM     48  H   LIG d   1       7.622   0.542  -4.437  0.00  0.00     0.034 H 
ATOM     49  H   LIG d   1       6.423   0.838  -3.155  0.00  0.00     0.034 H 
ENDBRANCH  44  46
ENDBRANCH  43  44
ENDBRANCH   7  43
TORSDOF 16
ENDMDL
MODEL 2
REMARK VINA RESULT:      -5.1      2.286      6.491
REMARK  16 active torsions:
REMARK  status: ('A' for Active; 'I' for Inactive)
REMARK    1  A    between atoms: C_1  and  C_2 
REMARK    2  A    between atoms: C_2  and  O_4 
REMARK    3  A    between atoms: O_4  and  C_5 
REMARK    4  A    between atoms: C_5  and  C_6 
REMARK    5  A    between atoms: C_8  and  O_29 
REMARK    6  A    between atoms: C_10  and  O_25 
REMARK    7  A    between atoms: C_12  and  O_21 
REMARK    8  A    between atoms: C_14  and  S_17 
REMARK    9  A    between atoms: S_17  and  C_18 
REMARK   10  A    between atoms: C_18  and  C_20 
REMARK   11  A    between atoms: O_21  and  C_22 
REMARK   12  A    between atoms: C_22  and  C_24 
REMARK   13  A    between atoms: O_25  and  C_26 
REMARK   14  A    between atoms: C_26  and  C_28 
REMARK   15  A    between atoms: O_29  and  C_30 
REMARK   16  A    between atoms: C_30  and  C_32 
ROOT
ATOM      1  C   LIG d   1       5.233  -0.431  -5.847  0.00  0.00     0.135 C 
ATOM      2  H   LIG d   1       5.935   0.090  -5.196  0.00  0.00     0.067 H 
ATOM      3  C   LIG d   1       5.580  -1.922  -5.885  0.00  0.00     0.172 C 
ATOM      4  H   LIG d   1       6.607  -2.049  -6.228  0.00  0.00     0.080 H 
ATOM      5  C   LIG d   1       4.627  -2.637  -6.847  0.00  0.00     0.182 C 
ATOM      6  H   LIG d   1       3.605  -2.552  -6.477  0.00  0.00     0.081 H 
ATOM      7  C   LIG d   1       4.728  -1.981  -8.228  0.00  0.00     0.179 C 
ATOM      8  H   LIG d   1       4.012  -2.448  -8.906  0.00  0.00     0.081 H 
ATOM      9  C   LIG d   1       4.413  -0.488  -8.102  0.00  0.00     0.152 C 
ATOM     10  H   LIG d   1       3.389  -0.362  -7.749  0.00  0.00     0.076 H 
ATOM     11  O   LIG d   1       5.315   0.109  -7.167  0.00  0.00    -0.351 OA
ENDROOT
BRANCH   1  12
ATOM     12  C   LIG d   1       3.811  -0.252  -5.310  0.00  0.00     0.122 C 
ATOM     13  H   LIG d   1       3.152   0.054  -6.123  0.00  0.00     0.072 H 
ATOM     14  H   LIG d   1       3.460  -1.194  -4.892  0.00  0.00     0.072 H 
BRANCH  12  15
ATOM     15  O   LIG d   1       3.810   0.767  -4.275  0.00  0.00    -0.462 OA
BRANCH  15  16
ATOM     16  C   LIG d   1       3.359   0.404  -3.064  0.00  0.00     0.304 C 
ATOM     17  O   LIG d   1       3.453   1.166  -2.131  0.00  0.00    -0.251 OA
BRANCH  16  18
ATOM     18  C   LIG d   1       2.736  -0.954  -2.868  0.00  0.00     0.033 C 
ATOM     19  H   LIG d   1       1.787  -0.999  -3.402  0.00  0.00     0.034 H 
ATOM     20  H   LIG d   1       3.407  -1.722  -3.253  0.00  0.00     0.034 H 
ATOM     21  H   LIG d   1       2.563  -1.124  -1.805  0.00  0.00     0.034 H 
ENDBRANCH  16  18
ENDBRANCH  15  16
ENDBRANCH  12  15
ENDBRANCH   1  12
BRANCH   3  22
ATOM     22  O   LIG d   1       5.440  -2.487  -4.554  0.00  0.00    -0.455 OA
BRANCH  22  23
ATOM     23  C   LIG d   1       6.445  -2.272  -3.692  0.00  0.00     0.304 C 
ATOM     24  O   LIG d   1       6.273  -1.566  -2.726  0.00  0.00    -0.251 OA
BRANCH  23  25
ATOM     25  C   LIG d   1       7.791  -2.909  -3.927  0.00  0.00     0.033 C 
ATOM     26  H   LIG d   1       7.744  -3.536  -4.818  0.00  0.00     0.034 H 
ATOM     27  H   LIG d   1       8.541  -2.132  -4.069  0.00  0.00     0.034 H 
ATOM     28  H   LIG d   1       8.059  -3.522  -3.066  0.00  0.00     0.034 H 
ENDBRANCH  23  25
ENDBRANCH  22  23
ENDBRANCH   3  22
BRANCH   9  29
ATOM     29  S   LIG d   1       4.597   0.306  -9.717  0.00  0.00    -0.053 SA
BRANCH  29  30
ATOM     30  C   LIG d   1       4.442   1.949  -9.260  0.00  0.00     0.189 C 
ATOM     31  O   LIG d   1       5.398   2.692  -9.333  0.00  0.00    -0.285 OA
BRANCH  30  32
ATOM     32  C   LIG d   1       3.118   2.472  -8.767  0.00  0.00     0.004 C 
ATOM     33  H   LIG d   1       2.497   1.706  -8.601  0.00  0.00     0.032 H 
ATOM     34  H   LIG d   1       3.269   3.025  -7.839  0.00  0.00     0.032 H 
ATOM     35  H   LIG d   1       2.687   3.134  -9.518  0.00  0.00     0.032 H 
ENDBRANCH  30  32
ENDBRANCH  29  30
ENDBRANCH   9  29
BRANCH   5  36
ATOM     36  O   LIG d   1       4.994  -4.038  -6.946  0.00  0.00    -0.454 OA
BRANCH  36  37
ATOM     37  C   LIG d   1       3.992  -4.923  -7.061  0.00  0.00     0.304 C 
ATOM     38  O   LIG d   1       3.387  -5.282  -6.079  0.00  0.00    -0.251 OA
BRANCH  37  39
ATOM     39  C   LIG d   1       3.622  -5.471  -8.416  0.00  0.00     0.033 C 
ATOM     40  H   LIG d   1       3.804  -6.546  -8.435  0.00  0.00     0.034 H 
ATOM     41  H   LIG d   1       2.568  -5.276  -8.611  0.00  0.00     0.034 H 
ATOM     42  H   LIG d   1       4.229  -4.988  -9.181  0.00  0.00     0.034 H 
ENDBRANCH  37  39
ENDBRANCH  36  37
ENDBRANCH   5  36
BRANCH   7  43
ATOM     43  O   LIG d   1       6.072  -2.151  -8.749  0.00  0.00    -0.454 OA
BRANCH  43  44
ATOM     44  C   LIG d   1       6.239  -3.067  -9.716  0.00  0.00     0.304 C 
ATOM     45  O   LIG d   1       5.408  -3.188 -10.584  0.00  0.00    -0.251 OA
BRANCH  44  46
ATOM     46  C   LIG d   1       7.466  -3.943  -9.719  0.00  0.00     0.033 C 
ATOM     47  H   LIG d   1       7.179  -4.971  -9.495  0.00  0.00     0.034 H 
ATOM     48  H   LIG d   1       7.938  -3.903 -10.701  0.00  0.00     0.034 H 
ATOM     49  H   LIG d   1       8.167  -3.588  -8.964  0.00  0.00     0.034 H 
ENDBRANCH  44  46
ENDBRANCH  43  44
ENDBRANCH   7  43
TORSDOF 16
ENDMDL
MODEL 3
REMARK VINA RESULT:      -5.1      2.193      3.300
REMARK  16 active torsions:
REMARK  status: ('A' for Active; 'I' for Inactive)
REMARK    1  A    between atoms: C_1  and  C_2 
REMARK    2  A    between atoms: C_2  and  O_4 
REMARK    3  A    between atoms: O_4  and  C_5 
REMARK    4  A    between atoms: C_5  and  C_6 
REMARK    5  A    between atoms: C_8  and  O_29 
REMARK    6  A    between atoms: C_10  and  O_25 
REMARK    7  A    between atoms: C_12  and  O_21 
REMARK    8  A    between atoms: C_14  and  S_17 
REMARK    9  A    between atoms: S_17  and  C_18 
REMARK   10  A    between atoms: C_18  and  C_20 
REMARK   11  A    between atoms: O_21  and  C_22 
REMARK   12  A    between atoms: C_22  and  C_24 
REMARK   13  A    between atoms: O_25  and  C_26 
REMARK   14  A    between atoms: C_26  and  C_28 
REMARK   15  A    between atoms: O_29  and  C_30 
REMARK   16  A    between atoms: C_30  and  C_32 
ROOT
ATOM      1  C   LIG d   1       5.276  -1.718  -7.070  0.00  0.00     0.135 C 
ATOM      2  H   LIG d   1       5.249  -1.691  -8.159  0.00  0.00     0.067 H 
ATOM      3  C   LIG d   1       4.593  -0.468  -6.510  0.00  0.00     0.172 C 
ATOM      4  H   LIG d   1       5.089   0.423  -6.895  0.00  0.00     0.080 H 
ATOM      5  C   LIG d   1       4.688  -0.485  -4.981  0.00  0.00     0.182 C 
ATOM      6  H   LIG d   1       4.150  -1.349  -4.592  0.00  0.00     0.081 H 
ATOM      7  C   LIG d   1       6.162  -0.574  -4.574  0.00  0.00     0.179 C 
ATOM      8  H   LIG d   1       6.237  -0.642  -3.487  0.00  0.00     0.081 H 
ATOM      9  C   LIG d   1       6.786  -1.821  -5.207  0.00  0.00     0.152 C 
ATOM     10  H   LIG d   1       6.283  -2.711  -4.829  0.00  0.00     0.076 H 
ATOM     11  O   LIG d   1       6.634  -1.756  -6.628  0.00  0.00    -0.351 OA
ENDROOT
BRANCH   1  12
ATOM     12  C   LIG d   1       4.543  -2.966  -6.573  0.00  0.00     0.122 C 
ATOM     13  H   LIG d   1       5.205  -3.544  -5.928  0.00  0.00     0.072 H 
ATOM     14  H   LIG d   1       3.658  -2.668  -6.013  0.00  0.00     0.072 H 
BRANCH  12  15
ATOM     15  O   LIG d   1       4.145  -3.778  -7.710  0.00  0.00    -0.462 OA
BRANCH  15  16
ATOM     16  C   LIG d   1       3.756  -5.037  -7.453  0.00  0.00     0.304 C 
ATOM     17  O   LIG d   1       3.375  -5.337  -6.346  0.00  0.00    -0.251 OA
BRANCH  16  18
ATOM     18  C   LIG d   1       3.793  -6.075  -8.545  0.00  0.00     0.033 C 
ATOM     19  H   LIG d   1       2.980  -6.786  -8.398  0.00  0.00     0.034 H 
ATOM     20  H   LIG d   1       3.681  -5.589  -9.513  0.00  0.00     0.034 H 
ATOM     21  H   LIG d   1       4.747  -6.602  -8.511  0.00  0.00     0.034 H 
ENDBRANCH  16  18
ENDBRANCH  15  16
ENDBRANCH  12  15
ENDBRANCH   1  12
BRANCH   3  22
ATOM     22  O   LIG d   1       3.197  -0.457  -6.909  0.00  0.00    -0.455 OA
BRANCH  22  23
ATOM     23  C   LIG d   1       2.843   0.416  -7.863  0.00  0.00     0.304 C 
ATOM     24  O   LIG d   1       3.015   1.601  -7.694  0.00  0.00    -0.251 OA
BRANCH  23  25
ATOM     25  C   LIG d   1       2.229  -0.078  -9.148  0.00  0.00     0.033 C 
ATOM     26  H   LIG d   1       3.020  -0.318  -9.859  0.00  0.00     0.034 H 
ATOM     27  H   LIG d   1       1.637  -0.972  -8.948  0.00  0.00     0.034 H 
ATOM     28  H   LIG d   1       1.588   0.697  -9.567  0.00  0.00     0.034 H 
ENDBRANCH  23  25
ENDBRANCH  22  23
ENDBRANCH   3  22
BRANCH   9  29
ATOM     29  S   LIG d   1       8.545  -1.896  -4.787  0.00  0.00    -0.053 SA
BRANCH  29  30
ATOM     30  C   LIG d   1       8.675  -3.545  -4.346  0.00  0.00     0.189 C 
ATOM     31  O   LIG d   1       8.256  -4.407  -5.089  0.00  0.00    -0.285 OA
BRANCH  30  32
ATOM     32  C   LIG d   1       9.309  -3.925  -3.033  0.00  0.00     0.004 C 
ATOM     33  H   LIG d   1       9.991  -3.239  -2.781  0.00  0.00     0.032 H 
ATOM     34  H   LIG d   1       8.541  -3.976  -2.260  0.00  0.00     0.032 H 
ATOM     35  H   LIG d   1       9.790  -4.898  -3.131  0.00  0.00     0.032 H 
ENDBRANCH  30  32
ENDBRANCH  29  30
ENDBRANCH   9  29
BRANCH   5  36
ATOM     36  O   LIG d   1       4.108   0.732  -4.442  0.00  0.00    -0.454 OA
BRANCH  36  37
ATOM     37  C   LIG d   1       3.445   0.628  -3.280  0.00  0.00     0.304 C 
ATOM     38  O   LIG d   1       3.495   1.526  -2.474  0.00  0.00    -0.251 OA
BRANCH  37  39
ATOM     39  C   LIG d   1       2.638  -0.609  -2.981  0.00  0.00     0.033 C 
ATOM     40  H   LIG d   1       1.835  -0.360  -2.287  0.00  0.00     0.034 H 
ATOM     41  H   LIG d   1       2.212  -0.998  -3.907  0.00  0.00     0.034 H 
ATOM     42  H   LIG d   1       3.284  -1.364  -2.533  0.00  0.00     0.034 H 
ENDBRANCH  37  39
ENDBRANCH  36  37
ENDBRANCH   5  36
BRANCH   7  43
ATOM     43  O   LIG d   1       6.866   0.609  -5.035  0.00  0.00    -0.454 OA
BRANCH  43  44
ATOM     44  C   LIG d   1       7.358   1.431  -4.095  0.00  0.00     0.304 C 
ATOM     45  O   LIG d   1       6.849   1.470  -3.000  0.00  0.00    -0.251 OA
BRANCH  44  46
ATOM     46  C   LIG d   1       8.546   2.305  -4.406  0.00  0.00     0.033 C 
ATOM     47  H   LIG d   1       9.137   1.846  -5.198  0.00  0.00     0.034 H 
ATOM     48  H   LIG d   1       8.199   3.286  -4.730  0.00  0.00     0.034 H 
ATOM     49  H   LIG d   1       9.159   2.414  -3.511  0.00  0.00     0.034 H 
ENDBRANCH  44  46
ENDBRANCH  43  44
ENDBRANCH   7  43
TORSDOF 16
ENDMDL
MODEL 4
REMARK VINA RESULT:      -5.0      2.138      5.426
REMARK  16 active torsions:
REMARK  status: ('A' for Active; 'I' for Inactive)
REMARK    1  A    between atoms: C_1  and  C_2 
REMARK    2  A    between atoms: C_2  and  O_4 
REMARK    3  A    between atoms: O_4  and  C_5 
REMARK    4  A    between atoms: C_5  and  C_6 
REMARK    5  A    between atoms: C_8  and  O_29 
REMARK    6  A    between atoms: C_10  and  O_25 
REMARK    7  A    between atoms: C_12  and  O_21 
REMARK    8  A    between atoms: C_14  and  S_17 
REMARK    9  A    between atoms: S_17  and  C_18 
REMARK   10  A    between atoms: C_18  and  C_20 
REMARK   11  A    between atoms: O_21  and  C_22 
REMARK   12  A    between atoms: C_22  and  C_24 
REMARK   13  A    between atoms: O_25  and  C_26 
REMARK   14  A    between atoms: C_26  and  C_28 
REMARK   15  A    between atoms: O_29  and  C_30 
REMARK   16  A    between atoms: C_30  and  C_32 
ROOT
ATOM      1  C   LIG d   1       4.405  -1.444  -5.458  0.00  0.00     0.135 C 
ATOM      2  H   LIG d   1       3.621  -1.480  -4.702  0.00  0.00     0.067 H 
ATOM      3  C   LIG d   1       5.268  -0.199  -5.241  0.00  0.00     0.172 C 
ATOM      4  H   LIG d   1       4.641   0.692  -5.278  0.00  0.00     0.080 H 
ATOM      5  C   LIG d   1       6.330  -0.124  -6.342  0.00  0.00     0.182 C 
ATOM      6  H   LIG d   1       6.988  -0.990  -6.273  0.00  0.00     0.081 H 
ATOM      7  C   LIG d   1       5.633  -0.118  -7.707  0.00  0.00     0.179 C 
ATOM      8  H   LIG d   1       6.384  -0.120  -8.499  0.00  0.00     0.081 H 
ATOM      9  C   LIG d   1       4.756  -1.366  -7.831  0.00  0.00     0.152 C 
ATOM     10  H   LIG d   1       5.383  -2.257  -7.783  0.00  0.00     0.076 H 
ATOM     11  O   LIG d   1       3.812  -1.390  -6.757  0.00  0.00    -0.351 OA
ENDROOT
BRANCH   1  12
ATOM     12  C   LIG d   1       5.278  -2.696  -5.347  0.00  0.00     0.122 C 
ATOM     13  H   LIG d   1       5.694  -2.936  -6.325  0.00  0.00     0.072 H 
ATOM     14  H   LIG d   1       6.088  -2.512  -4.642  0.00  0.00     0.072 H 
BRANCH  12  15
ATOM     15  O   LIG d   1       4.471  -3.809  -4.877  0.00  0.00    -0.462 OA
BRANCH  15  16
ATOM     16  C   LIG d   1       4.540  -4.950  -5.580  0.00  0.00     0.304 C 
ATOM     17  O   LIG d   1       3.528  -5.482  -5.969  0.00  0.00    -0.251 OA
BRANCH  16  18
ATOM     18  C   LIG d   1       5.880  -5.569  -5.882  0.00  0.00     0.033 C 
ATOM     19  H   LIG d   1       6.122  -6.305  -5.116  0.00  0.00     0.034 H 
ATOM     20  H   LIG d   1       5.846  -6.055  -6.856  0.00  0.00     0.034 H 
ATOM     21  H   LIG d   1       6.645  -4.791  -5.891  0.00  0.00     0.034 H 
ENDBRANCH  16  18
ENDBRANCH  15  16
ENDBRANCH  12  15
ENDBRANCH   1  12
BRANCH   3  22
ATOM     22  O   LIG d   1       5.919  -0.279  -3.945  0.00  0.00    -0.455 OA
BRANCH  22  23
ATOM     23  C   LIG d   1       5.621   0.678  -3.053  0.00  0.00     0.304 C 
ATOM     24  O   LIG d   1       6.165   1.756  -3.118  0.00  0.00    -0.251 OA
BRANCH  23  25
ATOM     25  C   LIG d   1       4.608   0.412  -1.970  0.00  0.00     0.033 C 
ATOM     26  H   LIG d   1       3.615   0.681  -2.328  0.00  0.00     0.034 H 
ATOM     27  H   LIG d   1       4.625  -0.646  -1.708  0.00  0.00     0.034 H 
ATOM     28  H   LIG d   1       4.850   1.008  -1.090  0.00  0.00     0.034 H 
ENDBRANCH  23  25
ENDBRANCH  22  23
ENDBRANCH   3  22
BRANCH   9  29
ATOM     29  S   LIG d   1       3.877  -1.332  -9.412  0.00  0.00    -0.053 SA
BRANCH  29  30
ATOM     30  C   LIG d   1       3.217  -2.912  -9.420  0.00  0.00     0.189 C 
ATOM     31  O   LIG d   1       3.808  -3.819  -8.874  0.00  0.00    -0.285 OA
BRANCH  30  32
ATOM     32  C   LIG d   1       1.902  -3.175 -10.106  0.00  0.00     0.004 C 
ATOM     33  H   LIG d   1       1.251  -2.452  -9.870  0.00  0.00     0.032 H 
ATOM     34  H   LIG d   1       2.052  -3.190 -11.186  0.00  0.00     0.032 H 
ATOM     35  H   LIG d   1       1.508  -4.138  -9.780  0.00  0.00     0.032 H 
ENDBRANCH  30  32
ENDBRANCH  29  30
ENDBRANCH   9  29
BRANCH   5  36
ATOM     36  O   LIG d   1       7.108   1.092  -6.188  0.00  0.00    -0.454 OA
BRANCH  36  37
ATOM     37  C   LIG d   1       8.444   0.964  -6.181  0.00  0.00     0.304 C 
ATOM     38  O   LIG d   1       8.979   0.260  -5.359  0.00  0.00    -0.251 OA
BRANCH  37  39
ATOM     39  C   LIG d   1       9.276   1.700  -7.200  0.00  0.00     0.033 C 
ATOM     40  H   LIG d   1      10.269   1.251  -7.251  0.00  0.00     0.034 H 
ATOM     41  H   LIG d   1       8.796   1.636  -8.176  0.00  0.00     0.034 H 
ATOM     42  H   LIG d   1       9.367   2.746  -6.907  0.00  0.00     0.034 H 
ENDBRANCH  37  39
ENDBRANCH  36  37
ENDBRANCH   5  36
BRANCH   7  43
ATOM     43  O   LIG d   1       4.807   1.070  -7.825  0.00  0.00    -0.454 OA
BRANCH  43  44
ATOM     44  C   LIG d   1       5.029   1.864  -8.884  0.00  0.00     0.304 C 
ATOM     45  O   LIG d   1       6.150   2.001  -9.312  0.00  0.00    -0.251 OA
BRANCH  44  46
ATOM     46  C   LIG d   1       3.879   2.586  -9.538  0.00  0.00     0.033 C 
ATOM     47  H   LIG d   1       4.226   3.541  -9.932  0.00  0.00     0.034 H 
ATOM     48  H   LIG d   1       3.485   1.977 -10.353  0.00  0.00     0.034 H 
ATOM     49  H   LIG d   1       3.094   2.759  -8.802  0.00  0.00     0.034 H 
ENDBRANCH  44  46
ENDBRANCH  43  44
ENDBRANCH   7  43
TORSDOF 16
ENDMDL
MODEL 5
REMARK VINA RESULT:      -4.9      3.044      5.970
REMARK  16 active torsions:
REMARK  status: ('A' for Active; 'I' for Inactive)
REMARK    1  A    between atoms: C_1  and  C_2 
REMARK    2  A    between atoms: C_2  and  O_4 
REMARK    3  A    between atoms: O_4  and  C_5 
REMARK    4  A    between atoms: C_5  and  C_6 
REMARK    5  A    between atoms: C_8  and  O_29 
REMARK    6  A    between atoms: C_10  and  O_25 
REMARK    7  A    between atoms: C_12  and  O_21 
REMARK    8  A    between atoms: C_14  and  S_17 
REMARK    9  A    between atoms: S_17  and  C_18 
REMARK   10  A    between atoms: C_18  and  C_20 
REMARK   11  A    between atoms: O_21  and  C_22 
REMARK   12  A    between atoms: C_22  and  C_24 
REMARK   13  A    between atoms: O_25  and  C_26 
REMARK   14  A    between atoms: C_26  and  C_28 
REMARK   15  A    between atoms: O_29  and  C_30 
REMARK   16  A    between atoms: C_30  and  C_32 
ROOT
ATOM      1  C   LIG d   1       5.696  -3.584  -4.659  0.00  0.00     0.135 C 
ATOM      2  H   LIG d   1       5.750  -4.545  -4.147  0.00  0.00     0.067 H 
ATOM      3  C   LIG d   1       6.964  -2.777  -4.369  0.00  0.00     0.172 C 
ATOM      4  H   LIG d   1       7.076  -2.647  -3.293  0.00  0.00     0.080 H 
ATOM      5  C   LIG d   1       6.854  -1.407  -5.043  0.00  0.00     0.182 C 
ATOM      6  H   LIG d   1       6.793  -1.536  -6.123  0.00  0.00     0.081 H 
ATOM      7  C   LIG d   1       5.590  -0.704  -4.539  0.00  0.00     0.179 C 
ATOM      8  H   LIG d   1       5.473   0.251  -5.055  0.00  0.00     0.081 H 
ATOM      9  C   LIG d   1       4.373  -1.589  -4.823  0.00  0.00     0.152 C 
ATOM     10  H   LIG d   1       4.269  -1.728  -5.899  0.00  0.00     0.076 H 
ATOM     11  O   LIG d   1       4.556  -2.860  -4.194  0.00  0.00    -0.351 OA
ENDROOT
BRANCH   1  12
ATOM     12  C   LIG d   1       5.573  -3.817  -6.167  0.00  0.00     0.122 C 
ATOM     13  H   LIG d   1       4.610  -3.443  -6.514  0.00  0.00     0.072 H 
ATOM     14  H   LIG d   1       6.375  -3.290  -6.682  0.00  0.00     0.072 H 
BRANCH  12  15
ATOM     15  O   LIG d   1       5.670  -5.239  -6.446  0.00  0.00    -0.462 OA
BRANCH  15  16
ATOM     16  C   LIG d   1       4.646  -6.009  -6.046  0.00  0.00     0.304 C 
ATOM     17  O   LIG d   1       3.511  -5.611  -6.157  0.00  0.00    -0.251 OA
BRANCH  16  18
ATOM     18  C   LIG d   1       4.913  -7.371  -5.459  0.00  0.00     0.033 C 
ATOM     19  H   LIG d   1       5.501  -7.961  -6.162  0.00  0.00     0.034 H 
ATOM     20  H   LIG d   1       5.464  -7.263  -4.525  0.00  0.00     0.034 H 
ATOM     21  H   LIG d   1       3.966  -7.875  -5.266  0.00  0.00     0.034 H 
ENDBRANCH  16  18
ENDBRANCH  15  16
ENDBRANCH  12  15
ENDBRANCH   1  12
BRANCH   3  22
ATOM     22  O   LIG d   1       8.120  -3.484  -4.893  0.00  0.00    -0.455 OA
BRANCH  22  23
ATOM     23  C   LIG d   1       8.668  -4.423  -4.107  0.00  0.00     0.304 C 
ATOM     24  O   LIG d   1       9.150  -4.115  -3.042  0.00  0.00    -0.251 OA
BRANCH  23  25
ATOM     25  C   LIG d   1       8.684  -5.863  -4.551  0.00  0.00     0.033 C 
ATOM     26  H   LIG d   1       7.685  -6.286  -4.446  0.00  0.00     0.034 H 
ATOM     27  H   LIG d   1       8.994  -5.918  -5.595  0.00  0.00     0.034 H 
ATOM     28  H   LIG d   1       9.384  -6.427  -3.933  0.00  0.00     0.034 H 
ENDBRANCH  23  25
ENDBRANCH  22  23
ENDBRANCH   3  22
BRANCH   9  29
ATOM     29  S   LIG d   1       2.884  -0.796  -4.169  0.00  0.00    -0.053 SA
BRANCH  29  30
ATOM     30  C   LIG d   1       2.745   0.519  -5.257  0.00  0.00     0.189 C 
ATOM     31  O   LIG d   1       2.627   1.648  -4.831  0.00  0.00    -0.285 OA
BRANCH  30  32
ATOM     32  C   LIG d   1       2.770   0.273  -6.743  0.00  0.00     0.004 C 
ATOM     33  H   LIG d   1       1.878  -0.067  -7.040  0.00  0.00     0.032 H 
ATOM     34  H   LIG d   1       2.995   1.206  -7.262  0.00  0.00     0.032 H 
ATOM     35  H   LIG d   1       3.537  -0.465  -6.975  0.00  0.00     0.032 H 
ENDBRANCH  30  32
ENDBRANCH  29  30
ENDBRANCH   9  29
BRANCH   5  36
ATOM     36  O   LIG d   1       8.020  -0.606  -4.713  0.00  0.00    -0.454 OA
BRANCH  36  37
ATOM     37  C   LIG d   1       8.570   0.106  -5.709  0.00  0.00     0.304 C 
ATOM     38  O   LIG d   1       8.998  -0.456  -6.689  0.00  0.00    -0.251 OA
BRANCH  37  39
ATOM     39  C   LIG d   1       8.656   1.607  -5.603  0.00  0.00     0.033 C 
ATOM     40  H   LIG d   1       7.897   2.060  -6.242  0.00  0.00     0.034 H 
ATOM     41  H   LIG d   1       8.490   1.909  -4.569  0.00  0.00     0.034 H 
ATOM     42  H   LIG d   1       9.644   1.938  -5.924  0.00  0.00     0.034 H 
ENDBRANCH  37  39
ENDBRANCH  36  37
ENDBRANCH   5  36
BRANCH   7  43
ATOM     43  O   LIG d   1       5.699  -0.472  -3.110  0.00  0.00    -0.454 OA
BRANCH  43  44
ATOM     44  C   LIG d   1       5.530   0.788  -2.682  0.00  0.00     0.304 C 
ATOM     45  O   LIG d   1       6.167   1.686  -3.179  0.00  0.00    -0.251 OA
BRANCH  44  46
ATOM     46  C   LIG d   1       4.546   1.083  -1.579  0.00  0.00     0.033 C 
ATOM     47  H   LIG d   1       5.049   1.013  -0.614  0.00  0.00     0.034 H 
ATOM     48  H   LIG d   1       4.146   2.089  -1.709  0.00  0.00     0.034 H 
ATOM     49  H   LIG d   1       3.731   0.361  -1.617  0.00  0.00     0.034 H 
ENDBRANCH  44  46
ENDBRANCH  43  44
ENDBRANCH   7  43
TORSDOF 16
ENDMDL
MODEL 6
REMARK VINA RESULT:      -4.7      2.321      5.279
REMARK  16 active torsions:
REMARK  status: ('A' for Active; 'I' for Inactive)
REMARK    1  A    between atoms: C_1  and  C_2 
REMARK    2  A    between atoms: C_2  and  O_4 
REMARK    3  A    between atoms: O_4  and  C_5 
REMARK    4  A    between atoms: C_5  and  C_6 
REMARK    5  A    between atoms: C_8  and  O_29 
REMARK    6  A    between atoms: C_10  and  O_25 
REMARK    7  A    between atoms: C_12  and  O_21 
REMARK    8  A    between atoms: C_14  and  S_17 
REMARK    9  A    between atoms: S_17  and  C_18 
REMARK   10  A    between atoms: C_18  and  C_20 
REMARK   11  A    between atoms: O_21  and  C_22 
REMARK   12  A    between atoms: C_22  and  C_24 
REMARK   13  A    between atoms: O_25  and  C_26 
REMARK   14  A    between atoms: C_26  and  C_28 
REMARK   15  A    between atoms: O_29  and  C_30 
REMARK   16  A    between atoms: C_30  and  C_32 
ROOT
ATOM      1  C   LIG d   1       4.786  -0.551  -5.652  0.00  0.00     0.135 C 
ATOM      2  H   LIG d   1       4.737   0.293  -4.964  0.00  0.00     0.067 H 
ATOM      3  C   LIG d   1       4.768  -1.860  -4.857  0.00  0.00     0.172 C 
ATOM      4  H   LIG d   1       5.601  -1.872  -4.155  0.00  0.00     0.080 H 
ATOM      5  C   LIG d   1       4.897  -3.039  -5.826  0.00  0.00     0.182 C 
ATOM      6  H   LIG d   1       4.038  -3.056  -6.496  0.00  0.00     0.081 H 
ATOM      7  C   LIG d   1       6.181  -2.874  -6.644  0.00  0.00     0.179 C 
ATOM      8  H   LIG d   1       6.254  -3.680  -7.375  0.00  0.00     0.081 H 
ATOM      9  C   LIG d   1       6.146  -1.527  -7.372  0.00  0.00     0.152 C 
ATOM     10  H   LIG d   1       5.306  -1.511  -8.066  0.00  0.00     0.076 H 
ATOM     11  O   LIG d   1       5.992  -0.476  -6.414  0.00  0.00    -0.351 OA
ENDROOT
BRANCH   1  12
ATOM     12  C   LIG d   1       3.582  -0.511  -6.595  0.00  0.00     0.122 C 
ATOM     13  H   LIG d   1       3.826  -1.038  -7.517  0.00  0.00     0.072 H 
ATOM     14  H   LIG d   1       2.729  -0.991  -6.117  0.00  0.00     0.072 H 
BRANCH  12  15
ATOM     15  O   LIG d   1       3.252   0.870  -6.900  0.00  0.00    -0.462 OA
BRANCH  15  16
ATOM     16  C   LIG d   1       3.286   1.234  -8.191  0.00  0.00     0.304 C 
ATOM     17  O   LIG d   1       4.010   2.133  -8.547  0.00  0.00    -0.251 OA
BRANCH  16  18
ATOM     18  C   LIG d   1       2.420   0.520  -9.198  0.00  0.00     0.033 C 
ATOM     19  H   LIG d   1       1.725   1.230  -9.647  0.00  0.00     0.034 H 
ATOM     20  H   LIG d   1       3.048   0.085  -9.975  0.00  0.00     0.034 H 
ATOM     21  H   LIG d   1       1.859  -0.270  -8.698  0.00  0.00     0.034 H 
ENDBRANCH  16  18
ENDBRANCH  15  16
ENDBRANCH  12  15
ENDBRANCH   1  12
BRANCH   3  22
ATOM     22  O   LIG d   1       3.517  -1.967  -4.127  0.00  0.00    -0.455 OA
BRANCH  22  23
ATOM     23  C   LIG d   1       3.406  -1.247  -3.000  0.00  0.00     0.304 C 
ATOM     24  O   LIG d   1       2.496  -0.460  -2.872  0.00  0.00    -0.251 OA
BRANCH  23  25
ATOM     25  C   LIG d   1       4.414  -1.417  -1.893  0.00  0.00     0.033 C 
ATOM     26  H   LIG d   1       3.917  -1.813  -1.008  0.00  0.00     0.034 H 
ATOM     27  H   LIG d   1       5.192  -2.110  -2.213  0.00  0.00     0.034 H 
ATOM     28  H   LIG d   1       4.861  -0.451  -1.656  0.00  0.00     0.034 H 
ENDBRANCH  23  25
ENDBRANCH  22  23
ENDBRANCH   3  22
BRANCH   9  29
ATOM     29  S   LIG d   1       7.690  -1.294  -8.286  0.00  0.00    -0.053 SA
BRANCH  29  30
ATOM     30  C   LIG d   1       7.176  -0.150  -9.452  0.00  0.00     0.189 C 
ATOM     31  O   LIG d   1       7.823   0.858  -9.638  0.00  0.00    -0.285 OA
BRANCH  30  32
ATOM     32  C   LIG d   1       5.920  -0.397 -10.245  0.00  0.00     0.004 C 
ATOM     33  H   LIG d   1       5.581   0.469 -10.613  0.00  0.00     0.032 H 
ATOM     34  H   LIG d   1       6.137  -1.080 -11.067  0.00  0.00     0.032 H 
ATOM     35  H   LIG d   1       5.162  -0.838  -9.598  0.00  0.00     0.032 H 
ENDBRANCH  30  32
ENDBRANCH  29  30
ENDBRANCH   9  29
BRANCH   5  36
ATOM     36  O   LIG d   1       4.955  -4.282  -5.077  0.00  0.00    -0.454 OA
BRANCH  36  37
ATOM     37  C   LIG d   1       4.458  -5.376  -5.674  0.00  0.00     0.304 C 
ATOM     38  O   LIG d   1       3.383  -5.329  -6.225  0.00  0.00    -0.251 OA
BRANCH  37  39
ATOM     39  C   LIG d   1       5.239  -6.665  -5.656  0.00  0.00     0.033 C 
ATOM     40  H   LIG d   1       4.550  -7.506  -5.573  0.00  0.00     0.034 H 
ATOM     41  H   LIG d   1       5.815  -6.754  -6.577  0.00  0.00     0.034 H 
ATOM     42  H   LIG d   1       5.917  -6.666  -4.802  0.00  0.00     0.034 H 
ENDBRANCH  37  39
ENDBRANCH  36  37
ENDBRANCH   5  36
BRANCH   7  43
ATOM     43  O   LIG d   1       7.331  -2.917  -5.758  0.00  0.00    -0.454 OA
BRANCH  43  44
ATOM     44  C   LIG d   1       8.051  -4.050  -5.749  0.00  0.00     0.304 C 
ATOM     45  O   LIG d   1       8.368  -4.573  -6.790  0.00  0.00    -0.251 OA
BRANCH  44  46
ATOM     46  C   LIG d   1       8.463  -4.669  -4.438  0.00  0.00     0.033 C 
ATOM     47  H   LIG d   1       9.027  -3.942  -3.854  0.00  0.00     0.034 H 
ATOM     48  H   LIG d   1       7.574  -4.972  -3.884  0.00  0.00     0.034 H 
ATOM     49  H   LIG d   1       9.086  -5.543  -4.631  0.00  0.00     0.034 H 
ENDBRANCH  44  46
ENDBRANCH  43  44
ENDBRANCH   7  43
TORSDOF 16
ENDMDL
MODEL 7
REMARK VINA RESULT:      -4.5      2.084      5.331
REMARK  16 active torsions:
REMARK  status: ('A' for Active; 'I' for Inactive)
REMARK    1  A    between atoms: C_1  and  C_2 
REMARK    2  A    between atoms: C_2  and  O_4 
REMARK    3  A    between atoms: O_4  and  C_5 
REMARK    4  A    between atoms: C_5  and  C_6 
REMARK    5  A    between atoms: C_8  and  O_29 
REMARK    6  A    between atoms: C_10  and  O_25 
REMARK    7  A    between atoms: C_12  and  O_21 
REMARK    8  A    between atoms: C_14  and  S_17 
REMARK    9  A    between atoms: S_17  and  C_18 
REMARK   10  A    between atoms: C_18  and  C_20 
REMARK   11  A    between atoms: O_21  and  C_22 
REMARK   12  A    between atoms: C_22  and  C_24 
REMARK   13  A    between atoms: O_25  and  C_26 
REMARK   14  A    between atoms: C_26  and  C_28 
REMARK   15  A    between atoms: O_29  and  C_30 
REMARK   16  A    between atoms: C_30  and  C_32 
ROOT
ATOM      1  C   LIG d   1       4.113  -2.680  -8.210  0.00  0.00     0.135 C 
ATOM      2  H   LIG d   1       3.508  -3.484  -8.628  0.00  0.00     0.067 H 
ATOM      3  C   LIG d   1       4.412  -2.977  -6.737  0.00  0.00     0.172 C 
ATOM      4  H   LIG d   1       3.476  -3.093  -6.191  0.00  0.00     0.080 H 
ATOM      5  C   LIG d   1       5.212  -1.815  -6.142  0.00  0.00     0.182 C 
ATOM      6  H   LIG d   1       6.170  -1.731  -6.655  0.00  0.00     0.081 H 
ATOM      7  C   LIG d   1       4.418  -0.517  -6.324  0.00  0.00     0.179 C 
ATOM      8  H   LIG d   1       5.004   0.324  -5.952  0.00  0.00     0.081 H 
ATOM      9  C   LIG d   1       4.119  -0.313  -7.812  0.00  0.00     0.152 C 
ATOM     10  H   LIG d   1       5.056  -0.208  -8.359  0.00  0.00     0.076 H 
ATOM     11  O   LIG d   1       3.402  -1.446  -8.310  0.00  0.00    -0.351 OA
ENDROOT
BRANCH   1  12
ATOM     12  C   LIG d   1       5.428  -2.576  -8.986  0.00  0.00     0.122 C 
ATOM     13  H   LIG d   1       5.977  -1.695  -8.654  0.00  0.00     0.072 H 
ATOM     14  H   LIG d   1       6.028  -3.467  -8.805  0.00  0.00     0.072 H 
BRANCH  12  15
ATOM     15  O   LIG d   1       5.145  -2.463 -10.405  0.00  0.00    -0.462 OA
BRANCH  15  16
ATOM     16  C   LIG d   1       5.587  -1.361 -11.029  0.00  0.00     0.304 C 
ATOM     17  O   LIG d   1       6.749  -1.041 -10.940  0.00  0.00    -0.251 OA
BRANCH  16  18
ATOM     18  C   LIG d   1       4.635  -0.522 -11.842  0.00  0.00     0.033 C 
ATOM     19  H   LIG d   1       4.425   0.407 -11.311  0.00  0.00     0.034 H 
ATOM     20  H   LIG d   1       5.084  -0.294 -12.809  0.00  0.00     0.034 H 
ATOM     21  H   LIG d   1       3.706  -1.071 -11.993  0.00  0.00     0.034 H 
ENDBRANCH  16  18
ENDBRANCH  15  16
ENDBRANCH  12  15
ENDBRANCH   1  12
BRANCH   3  22
ATOM     22  O   LIG d   1       5.187  -4.201  -6.636  0.00  0.00    -0.455 OA
BRANCH  22  23
ATOM     23  C   LIG d   1       4.523  -5.316  -6.296  0.00  0.00     0.304 C 
ATOM     24  O   LIG d   1       3.338  -5.266  -6.059  0.00  0.00    -0.251 OA
BRANCH  23  25
ATOM     25  C   LIG d   1       5.253  -6.632  -6.206  0.00  0.00     0.033 C 
ATOM     26  H   LIG d   1       6.287  -6.495  -6.524  0.00  0.00     0.034 H 
ATOM     27  H   LIG d   1       5.234  -6.989  -5.177  0.00  0.00     0.034 H 
ATOM     28  H   LIG d   1       4.768  -7.362  -6.855  0.00  0.00     0.034 H 
ENDBRANCH  23  25
ENDBRANCH  22  23
ENDBRANCH   3  22
BRANCH   9  29
ATOM     29  S   LIG d   1       3.122   1.181  -8.028  0.00  0.00    -0.053 SA
BRANCH  29  30
ATOM     30  C   LIG d   1       4.075   2.010  -9.185  0.00  0.00     0.189 C 
ATOM     31  O   LIG d   1       3.542   2.594 -10.103  0.00  0.00    -0.285 OA
BRANCH  30  32
ATOM     32  C   LIG d   1       5.577   2.013  -9.059  0.00  0.00     0.004 C 
ATOM     33  H   LIG d   1       5.834   1.810  -8.114  0.00  0.00     0.032 H 
ATOM     34  H   LIG d   1       5.998   1.256  -9.721  0.00  0.00     0.032 H 
ATOM     35  H   LIG d   1       5.962   2.993  -9.338  0.00  0.00     0.032 H 
ENDBRANCH  30  32
ENDBRANCH  29  30
ENDBRANCH   9  29
BRANCH   5  36
ATOM     36  O   LIG d   1       5.437  -2.052  -4.727  0.00  0.00    -0.454 OA
BRANCH  36  37
ATOM     37  C   LIG d   1       6.640  -1.712  -4.237  0.00  0.00     0.304 C 
ATOM     38  O   LIG d   1       7.619  -2.352  -4.541  0.00  0.00    -0.251 OA
BRANCH  37  39
ATOM     39  C   LIG d   1       6.768  -0.534  -3.306  0.00  0.00     0.033 C 
ATOM     40  H   LIG d   1       7.823  -0.335  -3.115  0.00  0.00     0.034 H 
ATOM     41  H   LIG d   1       6.308   0.342  -3.763  0.00  0.00     0.034 H 
ATOM     42  H   LIG d   1       6.267  -0.759  -2.364  0.00  0.00     0.034 H 
ENDBRANCH  37  39
ENDBRANCH  36  37
ENDBRANCH   5  36
BRANCH   7  43
ATOM     43  O   LIG d   1       3.171  -0.604  -5.586  0.00  0.00    -0.454 OA
BRANCH  43  44
ATOM     44  C   LIG d   1       3.103   0.062  -4.423  0.00  0.00     0.304 C 
ATOM     45  O   LIG d   1       3.430   1.224  -4.372  0.00  0.00    -0.251 OA
BRANCH  44  46
ATOM     46  C   LIG d   1       2.620  -0.640  -3.180  0.00  0.00     0.033 C 
ATOM     47  H   LIG d   1       2.769   0.008  -2.315  0.00  0.00     0.034 H 
ATOM     48  H   LIG d   1       1.560  -0.873  -3.283  0.00  0.00     0.034 H 
ATOM     49  H   LIG d   1       3.183  -1.563  -3.043  0.00  0.00     0.034 H 
ENDBRANCH  44  46
ENDBRANCH  43  44
ENDBRANCH   7  43
TORSDOF 16
ENDMDL
MODEL 8
REMARK VINA RESULT:      -4.5      9.344     12.509
REMARK  16 active torsions:
REMARK  status: ('A' for Active; 'I' for Inactive)
REMARK    1  A    between atoms: C_1  and  C_2 
REMARK    2  A    between atoms: C_2  and  O_4 
REMARK    3  A    between atoms: O_4  and  C_5 
REMARK    4  A    between atoms: C_5  and  C_6 
REMARK    5  A    between atoms: C_8  and  O_29 
REMARK    6  A    between atoms: C_10  and  O_25 
REMARK    7  A    between atoms: C_12  and  O_21 
REMARK    8  A    between atoms: C_14  and  S_17 
REMARK    9  A    between atoms: S_17  and  C_18 
REMARK   10  A    between atoms: C_18  and  C_20 
REMARK   11  A    between atoms: O_21  and  C_22 
REMARK   12  A    between atoms: C_22  and  C_24 
REMARK   13  A    between atoms: O_25  and  C_26 
REMARK   14  A    between atoms: C_26  and  C_28 
REMARK   15  A    between atoms: O_29  and  C_30 
REMARK   16  A    between atoms: C_30  and  C_32 
ROOT
ATOM      1  C   LIG d   1       9.638   5.941  -3.334  0.00  0.00     0.135 C 
ATOM      2  H   LIG d   1       8.848   5.290  -3.707  0.00  0.00     0.067 H 
ATOM      3  C   LIG d   1      10.681   5.105  -2.588  0.00  0.00     0.172 C 
ATOM      4  H   LIG d   1      10.199   4.561  -1.775  0.00  0.00     0.080 H 
ATOM      5  C   LIG d   1      11.756   6.033  -2.017  0.00  0.00     0.182 C 
ATOM      6  H   LIG d   1      12.272   6.539  -2.833  0.00  0.00     0.081 H 
ATOM      7  C   LIG d   1      11.088   7.073  -1.111  0.00  0.00     0.179 C 
ATOM      8  H   LIG d   1      11.840   7.772  -0.743  0.00  0.00     0.081 H 
ATOM      9  C   LIG d   1      10.030   7.835  -1.913  0.00  0.00     0.152 C 
ATOM     10  H   LIG d   1      10.511   8.370  -2.733  0.00  0.00     0.076 H 
ATOM     11  O   LIG d   1       9.079   6.908  -2.443  0.00  0.00    -0.351 OA
ENDROOT
BRANCH   1  12
ATOM     12  C   LIG d   1      10.306   6.657  -4.511  0.00  0.00     0.122 C 
ATOM     13  H   LIG d   1      10.810   7.554  -4.151  0.00  0.00     0.072 H 
ATOM     14  H   LIG d   1      11.033   5.992  -4.975  0.00  0.00     0.072 H 
BRANCH  12  15
ATOM     15  O   LIG d   1       9.297   7.028  -5.487  0.00  0.00    -0.462 OA
BRANCH  15  16
ATOM     16  C   LIG d   1       9.324   8.290  -5.942  0.00  0.00     0.304 C 
ATOM     17  O   LIG d   1       9.458   9.208  -5.168  0.00  0.00    -0.251 OA
BRANCH  16  18
ATOM     18  C   LIG d   1       9.186   8.562  -7.417  0.00  0.00     0.033 C 
ATOM     19  H   LIG d   1       9.748   7.815  -7.978  0.00  0.00     0.034 H 
ATOM     20  H   LIG d   1       8.135   8.516  -7.700  0.00  0.00     0.034 H 
ATOM     21  H   LIG d   1       9.579   9.554  -7.641  0.00  0.00     0.034 H 
ENDBRANCH  16  18
ENDBRANCH  15  16
ENDBRANCH  12  15
ENDBRANCH   1  12
BRANCH   3  22
ATOM     22  O   LIG d   1      11.293   4.160  -3.506  0.00  0.00    -0.455 OA
BRANCH  22  23
ATOM     23  C   LIG d   1      11.007   2.862  -3.325  0.00  0.00     0.304 C 
ATOM     24  O   LIG d   1       9.907   2.532  -2.950  0.00  0.00    -0.251 OA
BRANCH  23  25
ATOM     25  C   LIG d   1      12.058   1.814  -3.590  0.00  0.00     0.033 C 
ATOM     26  H   LIG d   1      12.652   1.661  -2.690  0.00  0.00     0.034 H 
ATOM     27  H   LIG d   1      11.574   0.877  -3.869  0.00  0.00     0.034 H 
ATOM     28  H   LIG d   1      12.706   2.145  -4.402  0.00  0.00     0.034 H 
ENDBRANCH  23  25
ENDBRANCH  22  23
ENDBRANCH   3  22
BRANCH   9  29
ATOM     29  S   LIG d   1       9.188   9.017  -0.832  0.00  0.00    -0.053 SA
BRANCH  29  30
ATOM     30  C   LIG d   1      10.414  10.203  -0.678  0.00  0.00     0.189 C 
ATOM     31  O   LIG d   1      11.009  10.591  -1.660  0.00  0.00    -0.285 OA
BRANCH  30  32
ATOM     32  C   LIG d   1      10.751  10.764   0.679  0.00  0.00     0.004 C 
ATOM     33  H   LIG d   1      10.877  10.015   1.329  0.00  0.00     0.032 H 
ATOM     34  H   LIG d   1      11.671  11.346   0.613  0.00  0.00     0.032 H 
ATOM     35  H   LIG d   1       9.939  11.407   1.018  0.00  0.00     0.032 H 
ENDBRANCH  30  32
ENDBRANCH  29  30
ENDBRANCH   9  29
BRANCH   5  36
ATOM     36  O   LIG d   1      12.711   5.258  -1.245  0.00  0.00    -0.454 OA
BRANCH  36  37
ATOM     37  C   LIG d   1      13.970   5.721  -1.190  0.00  0.00     0.304 C 
ATOM     38  O   LIG d   1      14.401   6.178  -0.158  0.00  0.00    -0.251 OA
BRANCH  37  39
ATOM     39  C   LIG d   1      14.844   5.674  -2.417  0.00  0.00     0.033 C 
ATOM     40  H   LIG d   1      14.218   5.689  -3.310  0.00  0.00     0.034 H 
ATOM     41  H   LIG d   1      15.509   6.537  -2.423  0.00  0.00     0.034 H 
ATOM     42  H   LIG d   1      15.436   4.759  -2.405  0.00  0.00     0.034 H 
ENDBRANCH  37  39
ENDBRANCH  36  37
ENDBRANCH   5  36
BRANCH   7  43
ATOM     43  O   LIG d   1      10.457   6.404   0.012  0.00  0.00    -0.454 OA
BRANCH  43  44
ATOM     44  C   LIG d   1      11.044   6.541   1.212  0.00  0.00     0.304 C 
ATOM     45  O   LIG d   1      11.731   7.508   1.441  0.00  0.00    -0.251 OA
BRANCH  44  46
ATOM     46  C   LIG d   1      10.845   5.490   2.273  0.00  0.00     0.033 C 
ATOM     47  H   LIG d   1      11.288   4.551   1.941  0.00  0.00     0.034 H 
ATOM     48  H   LIG d   1      11.323   5.812   3.198  0.00  0.00     0.034 H 
ATOM     49  H   LIG d   1       9.778   5.347   2.446  0.00  0.00     0.034 H 
ENDBRANCH  44  46
ENDBRANCH  43  44
ENDBRANCH   7  43
TORSDOF 16
ENDMDL
MODEL 9
REMARK VINA RESULT:      -4.5      1.642      5.725
REMARK  16 active torsions:
REMARK  status: ('A' for Active; 'I' for Inactive)
REMARK    1  A    between atoms: C_1  and  C_2 
REMARK    2  A    between atoms: C_2  and  O_4 
REMARK    3  A    between atoms: O_4  and  C_5 
REMARK    4  A    between atoms: C_5  and  C_6 
REMARK    5  A    between atoms: C_8  and  O_29 
REMARK    6  A    between atoms: C_10  and  O_25 
REMARK    7  A    between atoms: C_12  and  O_21 
REMARK    8  A    between atoms: C_14  and  S_17 
REMARK    9  A    between atoms: S_17  and  C_18 
REMARK   10  A    between atoms: C_18  and  C_20 
REMARK   11  A    between atoms: O_21  and  C_22 
REMARK   12  A    between atoms: C_22  and  C_24 
REMARK   13  A    between atoms: O_25  and  C_26 
REMARK   14  A    between atoms: C_26  and  C_28 
REMARK   15  A    between atoms: O_29  and  C_30 
REMARK   16  A    between atoms: C_30  and  C_32 
ROOT
ATOM      1  C   LIG d   1       4.803  -1.779  -5.241  0.00  0.00     0.135 C 
ATOM      2  H   LIG d   1       4.325  -2.112  -4.320  0.00  0.00     0.067 H 
ATOM      3  C   LIG d   1       4.018  -0.604  -5.829  0.00  0.00     0.172 C 
ATOM      4  H   LIG d   1       2.986  -0.906  -6.005  0.00  0.00     0.080 H 
ATOM      5  C   LIG d   1       4.661  -0.180  -7.152  0.00  0.00     0.182 C 
ATOM      6  H   LIG d   1       5.677   0.169  -6.969  0.00  0.00     0.081 H 
ATOM      7  C   LIG d   1       4.697  -1.386  -8.097  0.00  0.00     0.179 C 
ATOM      8  H   LIG d   1       5.203  -1.108  -9.023  0.00  0.00     0.081 H 
ATOM      9  C   LIG d   1       5.457  -2.532  -7.424  0.00  0.00     0.152 C 
ATOM     10  H   LIG d   1       6.487  -2.225  -7.238  0.00  0.00     0.076 H 
ATOM     11  O   LIG d   1       4.825  -2.854  -6.183  0.00  0.00    -0.351 OA
ENDROOT
BRANCH   1  12
ATOM     12  C   LIG d   1       6.237  -1.336  -4.940  0.00  0.00     0.122 C 
ATOM     13  H   LIG d   1       6.802  -1.279  -5.870  0.00  0.00     0.072 H 
ATOM     14  H   LIG d   1       6.221  -0.356  -4.464  0.00  0.00     0.072 H 
BRANCH  12  15
ATOM     15  O   LIG d   1       6.864  -2.297  -4.050  0.00  0.00    -0.462 OA
BRANCH  15  16
ATOM     16  C   LIG d   1       8.024  -2.835  -4.455  0.00  0.00     0.304 C 
ATOM     17  O   LIG d   1       8.435  -2.617  -5.570  0.00  0.00    -0.251 OA
BRANCH  16  18
ATOM     18  C   LIG d   1       8.815  -3.713  -3.520  0.00  0.00     0.033 C 
ATOM     19  H   LIG d   1       8.366  -3.683  -2.527  0.00  0.00     0.034 H 
ATOM     20  H   LIG d   1       8.809  -4.738  -3.890  0.00  0.00     0.034 H 
ATOM     21  H   LIG d   1       9.842  -3.352  -3.465  0.00  0.00     0.034 H 
ENDBRANCH  16  18
ENDBRANCH  15  16
ENDBRANCH  12  15
ENDBRANCH   1  12
BRANCH   3  22
ATOM     22  O   LIG d   1       4.044   0.511  -4.898  0.00  0.00    -0.455 OA
BRANCH  22  23
ATOM     23  C   LIG d   1       3.235   0.433  -3.831  0.00  0.00     0.304 C 
ATOM     24  O   LIG d   1       2.184  -0.158  -3.911  0.00  0.00    -0.251 OA
BRANCH  23  25
ATOM     25  C   LIG d   1       3.636   1.083  -2.531  0.00  0.00     0.033 C 
ATOM     26  H   LIG d   1       3.809   2.146  -2.696  0.00  0.00     0.034 H 
ATOM     27  H   LIG d   1       2.838   0.954  -1.800  0.00  0.00     0.034 H 
ATOM     28  H   LIG d   1       4.550   0.620  -2.159  0.00  0.00     0.034 H 
ENDBRANCH  23  25
ENDBRANCH  22  23
ENDBRANCH   3  22
BRANCH   9  29
ATOM     29  S   LIG d   1       5.445  -3.982  -8.506  0.00  0.00    -0.053 SA
BRANCH  29  30
ATOM     30  C   LIG d   1       6.848  -4.785  -7.943  0.00  0.00     0.189 C 
ATOM     31  O   LIG d   1       7.916  -4.593  -8.485  0.00  0.00    -0.285 OA
BRANCH  30  32
ATOM     32  C   LIG d   1       6.756  -5.731  -6.774  0.00  0.00     0.004 C 
ATOM     33  H   LIG d   1       5.931  -5.531  -6.246  0.00  0.00     0.032 H 
ATOM     34  H   LIG d   1       6.714  -6.757  -7.139  0.00  0.00     0.032 H 
ATOM     35  H   LIG d   1       7.633  -5.608  -6.138  0.00  0.00     0.032 H 
ENDBRANCH  30  32
ENDBRANCH  29  30
ENDBRANCH   9  29
BRANCH   5  36
ATOM     36  O   LIG d   1       3.881   0.886  -7.755  0.00  0.00    -0.454 OA
BRANCH  36  37
ATOM     37  C   LIG d   1       4.493   1.639  -8.682  0.00  0.00     0.304 C 
ATOM     38  O   LIG d   1       5.660   1.925  -8.554  0.00  0.00    -0.251 OA
BRANCH  37  39
ATOM     39  C   LIG d   1       3.724   2.130  -9.882  0.00  0.00     0.033 C 
ATOM     40  H   LIG d   1       3.829   3.212  -9.963  0.00  0.00     0.034 H 
ATOM     41  H   LIG d   1       4.115   1.657 -10.782  0.00  0.00     0.034 H 
ATOM     42  H   LIG d   1       2.670   1.876  -9.766  0.00  0.00     0.034 H 
ENDBRANCH  37  39
ENDBRANCH  36  37
ENDBRANCH   5  36
BRANCH   7  43
ATOM     43  O   LIG d   1       3.341  -1.810  -8.395  0.00  0.00    -0.454 OA
BRANCH  43  44
ATOM     44  C   LIG d   1       2.864  -1.516  -9.614  0.00  0.00     0.304 C 
ATOM     45  O   LIG d   1       3.527  -1.751 -10.596  0.00  0.00    -0.251 OA
BRANCH  44  46
ATOM     46  C   LIG d   1       1.499  -0.892  -9.758  0.00  0.00     0.033 C 
ATOM     47  H   LIG d   1       1.520  -0.155 -10.561  0.00  0.00     0.034 H 
ATOM     48  H   LIG d   1       0.769  -1.667  -9.993  0.00  0.00     0.034 H 
ATOM     49  H   LIG d   1       1.224  -0.404  -8.824  0.00  0.00     0.034 H 
ENDBRANCH  44  46
ENDBRANCH  43  44
ENDBRANCH   7  43
TORSDOF 16
ENDMDL
MODEL 10
REMARK VINA RESULT:      -4.5      2.643      5.451
REMARK  16 active torsions:
REMARK  status: ('A' for Active; 'I' for Inactive)
REMARK    1  A    between atoms: C_1  and  C_2 
REMARK    2  A    between atoms: C_2  and  O_4 
REMARK    3  A    between atoms: O_4  and  C_5 
REMARK    4  A    between atoms: C_5  and  C_6 
REMARK    5  A    between atoms: C_8  and  O_29 
REMARK    6  A    between atoms: C_10  and  O_25 
REMARK    7  A    between atoms: C_12  and  O_21 
REMARK    8  A    between atoms: C_14  and  S_17 
REMARK    9  A    between atoms: S_17  and  C_18 
REMARK   10  A    between atoms: C_18  and  C_20 
REMARK   11  A    between atoms: O_21  and  C_22 
REMARK   12  A    between atoms: C_22  and  C_24 
REMARK   13  A    between atoms: O_25  and  C_26 
REMARK   14  A    between atoms: C_26  and  C_28 
REMARK   15  A    between atoms: O_29  and  C_30 
REMARK   16  A    between atoms: C_30  and  C_32 
ROOT
ATOM      1  C   LIG d   1       6.294  -2.195  -7.292  0.00  0.00     0.135 C 
ATOM      2  H   LIG d   1       6.386  -3.252  -7.540  0.00  0.00     0.067 H 
ATOM      3  C   LIG d   1       6.463  -2.009  -5.781  0.00  0.00     0.172 C 
ATOM      4  H   LIG d   1       5.719  -2.605  -5.254  0.00  0.00     0.080 H 
ATOM      5  C   LIG d   1       6.274  -0.529  -5.433  0.00  0.00     0.182 C 
ATOM      6  H   LIG d   1       7.048   0.062  -5.920  0.00  0.00     0.081 H 
ATOM      7  C   LIG d   1       4.896  -0.074  -5.925  0.00  0.00     0.179 C 
ATOM      8  H   LIG d   1       4.774   0.993  -5.730  0.00  0.00     0.081 H 
ATOM      9  C   LIG d   1       4.786  -0.333  -7.429  0.00  0.00     0.152 C 
ATOM     10  H   LIG d   1       5.538   0.256  -7.955  0.00  0.00     0.076 H 
ATOM     11  O   LIG d   1       5.005  -1.723  -7.687  0.00  0.00    -0.351 OA
ENDROOT
BRANCH   1  12
ATOM     12  C   LIG d   1       7.377  -1.403  -8.028  0.00  0.00     0.122 C 
ATOM     13  H   LIG d   1       7.209  -0.336  -7.879  0.00  0.00     0.072 H 
ATOM     14  H   LIG d   1       8.355  -1.675  -7.636  0.00  0.00     0.072 H 
BRANCH  12  15
ATOM     15  O   LIG d   1       7.320  -1.709  -9.446  0.00  0.00    -0.462 OA
BRANCH  15  16
ATOM     16  C   LIG d   1       7.126  -0.679 -10.284  0.00  0.00     0.304 C 
ATOM     17  O   LIG d   1       7.335   0.451  -9.912  0.00  0.00    -0.251 OA
BRANCH  16  18
ATOM     18  C   LIG d   1       6.646  -0.933 -11.690  0.00  0.00     0.033 C 
ATOM     19  H   LIG d   1       7.260  -0.367 -12.391  0.00  0.00     0.034 H 
ATOM     20  H   LIG d   1       6.723  -1.996 -11.915  0.00  0.00     0.034 H 
ATOM     21  H   LIG d   1       5.607  -0.616 -11.782  0.00  0.00     0.034 H 
ENDBRANCH  16  18
ENDBRANCH  15  16
ENDBRANCH  12  15
ENDBRANCH   1  12
BRANCH   3  22
ATOM     22  O   LIG d   1       7.794  -2.433  -5.386  0.00  0.00    -0.455 OA
BRANCH  22  23
ATOM     23  C   LIG d   1       7.885  -3.560  -4.663  0.00  0.00     0.304 C 
ATOM     24  O   LIG d   1       7.181  -4.507  -4.928  0.00  0.00    -0.251 OA
BRANCH  23  25
ATOM     25  C   LIG d   1       8.863  -3.647  -3.519  0.00  0.00     0.033 C 
ATOM     26  H   LIG d   1       8.501  -4.368  -2.787  0.00  0.00     0.034 H 
ATOM     27  H   LIG d   1       9.834  -3.967  -3.896  0.00  0.00     0.034 H 
ATOM     28  H   LIG d   1       8.959  -2.669  -3.048  0.00  0.00     0.034 H 
ENDBRANCH  23  25
ENDBRANCH  22  23
ENDBRANCH   3  22
BRANCH   9  29
ATOM     29  S   LIG d   1       3.137   0.139  -8.005  0.00  0.00    -0.053 SA
BRANCH  29  30
ATOM     30  C   LIG d   1       3.533   1.508  -8.953  0.00  0.00     0.189 C 
ATOM     31  O   LIG d   1       3.527   2.613  -8.454  0.00  0.00    -0.285 OA
BRANCH  30  32
ATOM     32  C   LIG d   1       3.890   1.340 -10.407  0.00  0.00     0.004 C 
ATOM     33  H   LIG d   1       3.371   0.576 -10.792  0.00  0.00     0.032 H 
ATOM     34  H   LIG d   1       3.647   2.254 -10.949  0.00  0.00     0.032 H 
ATOM     35  H   LIG d   1       4.957   1.137 -10.498  0.00  0.00     0.032 H 
ENDBRANCH  30  32
ENDBRANCH  29  30
ENDBRANCH   9  29
BRANCH   5  36
ATOM     36  O   LIG d   1       6.359  -0.352  -3.994  0.00  0.00    -0.454 OA
BRANCH  36  37
ATOM     37  C   LIG d   1       6.641   0.882  -3.548  0.00  0.00     0.304 C 
ATOM     38  O   LIG d   1       5.901   1.424  -2.762  0.00  0.00    -0.251 OA
BRANCH  37  39
ATOM     39  C   LIG d   1       7.880   1.593  -4.030  0.00  0.00     0.033 C 
ATOM     40  H   LIG d   1       8.297   2.187  -3.217  0.00  0.00     0.034 H 
ATOM     41  H   LIG d   1       8.615   0.858  -4.359  0.00  0.00     0.034 H 
ATOM     42  H   LIG d   1       7.622   2.247  -4.862  0.00  0.00     0.034 H 
ENDBRANCH  37  39
ENDBRANCH  36  37
ENDBRANCH   5  36
BRANCH   7  43
ATOM     43  O   LIG d   1       3.862  -0.815  -5.227  0.00  0.00    -0.454 OA
BRANCH  43  44
ATOM     44  C   LIG d   1       3.149  -0.149  -4.305  0.00  0.00     0.304 C 
ATOM     45  O   LIG d   1       2.883   1.017  -4.475  0.00  0.00    -0.251 OA
BRANCH  44  46
ATOM     46  C   LIG d   1       2.683  -0.855  -3.058  0.00  0.00     0.033 C 
ATOM     47  H   LIG d   1       2.510  -1.908  -3.280  0.00  0.00     0.034 H 
ATOM     48  H   LIG d   1       3.445  -0.766  -2.284  0.00  0.00     0.034 H 
ATOM     49  H   LIG d   1       1.756  -0.400  -2.709  0.00  0.00     0.034 H 
ENDBRANCH  44  46
ENDBRANCH  43  44
ENDBRANCH   7  43
TORSDOF 16
ENDMDL
