MODEL 1
REMARK VINA RESULT:      -6.4      0.000      0.000
REMARK  10 active torsions:
REMARK  status: ('A' for Active; 'I' for Inactive)
REMARK    1  A    between atoms: C_1  and  N_65 
REMARK    2  A    between atoms: C_2  and  N_65 
REMARK    3  A    between atoms: C_3  and  C_4 
REMARK    4  A    between atoms: C_3  and  N_65 
REMARK    5  A    between atoms: C_4  and  C_5 
REMARK    6  A    between atoms: C_5  and  N_6 
REMARK    7  A    between atoms: C_26  and  C_28 
REMARK    8  A    between atoms: C_31  and  C_34 
REMARK    9  A    between atoms: C_34  and  O_36 
REMARK   10  A    between atoms: O_36  and  C_37 
ROOT
ATOM      1  N   LIG d   1      11.724  -0.051  -5.688  0.00  0.00    -0.291 N 
ATOM      2  C   LIG d   1      11.997  -1.371  -5.142  0.00  0.00     0.091 A 
ATOM      3  C   LIG d   1      10.747  -2.161  -4.934  0.00  0.00     0.234 A 
ATOM      4  O   LIG d   1      10.856  -3.289  -4.505  0.00  0.00    -0.274 OA
ATOM      5  N   LIG d   1       9.532  -1.703  -5.180  0.00  0.00    -0.276 N 
ATOM      6  C   LIG d   1       9.243  -0.342  -5.631  0.00  0.00     0.107 A 
ATOM      7  H   LIG d   1       8.649  -0.392  -6.543  0.00  0.00     0.060 H 
ATOM      8  C   LIG d   1      10.499   0.419  -5.913  0.00  0.00     0.237 A 
ATOM      9  O   LIG d   1      10.395   1.534  -6.376  0.00  0.00    -0.274 OA
ATOM     10  C   LIG d   1       8.432   0.385  -4.549  0.00  0.00     0.002 C 
ATOM     11  C   LIG d   1       7.339  -0.531  -4.062  0.00  0.00    -0.015 A 
ATOM     12  C   LIG d   1       6.143  -0.187  -3.319  0.00  0.00     0.003 A 
ATOM     13  C   LIG d   1       5.640   1.028  -2.844  0.00  0.00    -0.052 A 
ATOM     14  C   LIG d   1       4.449   0.981  -2.163  0.00  0.00    -0.061 A 
ATOM     15  C   LIG d   1       3.769  -0.206  -1.948  0.00  0.00    -0.060 A 
ATOM     16  C   LIG d   1       4.244  -1.422  -2.407  0.00  0.00    -0.038 A 
ATOM     17  C   LIG d   1       5.451  -1.406  -3.103  0.00  0.00     0.047 A 
ATOM     18  N   LIG d   1       6.188  -2.399  -3.681  0.00  0.00    -0.356 N 
ATOM     19  H   LIG d   1       5.950  -3.340  -3.687  0.00  0.00     0.166 HD
ATOM     20  C   LIG d   1       7.313  -1.868  -4.253  0.00  0.00     0.046 A 
ATOM     21  C   LIG d   1       8.392  -2.625  -4.994  0.00  0.00     0.092 C 
ATOM     22  H   LIG d   1       8.016  -2.951  -5.964  0.00  0.00     0.062 H 
ATOM     23  H   LIG d   1      12.647  -1.910  -5.830  0.00  0.00     0.056 H 
ATOM     24  H   LIG d   1      12.509  -1.259  -4.187  0.00  0.00     0.056 H 
ATOM     25  H   LIG d   1       7.991   1.288  -4.970  0.00  0.00     0.034 H 
ATOM     26  H   LIG d   1       9.085   0.648  -3.718  0.00  0.00     0.034 H 
ATOM     27  H   LIG d   1       6.162   1.959  -3.006  0.00  0.00     0.062 H 
ATOM     28  H   LIG d   1       4.028   1.901  -1.782  0.00  0.00     0.062 H 
ATOM     29  H   LIG d   1       2.836  -0.182  -1.405  0.00  0.00     0.062 H 
ATOM     30  H   LIG d   1       3.705  -2.341  -2.233  0.00  0.00     0.064 H 
ENDROOT
BRANCH   1  31
ATOM     31  C   LIG d   1      12.863   0.812  -6.008  0.00  0.00     0.020 C 
ATOM     32  H   LIG d   1      13.621   0.233  -6.536  0.00  0.00     0.047 H 
ATOM     33  H   LIG d   1      12.530   1.635  -6.641  0.00  0.00     0.047 H 
BRANCH  31  34
ATOM     34  C   LIG d   1      13.459   1.372  -4.715  0.00  0.00     0.003 C 
ATOM     35  H   LIG d   1      13.081   0.804  -3.865  0.00  0.00     0.033 H 
ATOM     36  H   LIG d   1      14.546   1.292  -4.750  0.00  0.00     0.033 H 
BRANCH  34  37
ATOM     37  C   LIG d   1      13.061   2.841  -4.564  0.00  0.00    -0.031 C 
ATOM     38  H   LIG d   1      13.930   3.474  -4.748  0.00  0.00     0.082 H 
ATOM     39  H   LIG d   1      12.278   3.081  -5.283  0.00  0.00     0.082 H 
BRANCH  37  40
ATOM     40  N   LIG d   1      12.583   3.067  -3.184  0.00  0.00     0.231 N 
ATOM     41  H   LIG d   1      13.138   2.490  -2.540  0.00  0.00     0.203 HD
BRANCH  40  42
ATOM     42  C   LIG d   1      12.748   4.489  -2.817  0.00  0.00    -0.043 C 
ATOM     43  H   LIG d   1      11.818   5.034  -2.973  0.00  0.00     0.078 H 
ATOM     44  H   LIG d   1      13.036   4.554  -1.768  0.00  0.00     0.078 H 
ATOM     45  H   LIG d   1      13.534   4.924  -3.436  0.00  0.00     0.078 H 
ENDBRANCH  40  42
BRANCH  40  46
ATOM     46  C   LIG d   1      11.161   2.678  -3.071  0.00  0.00    -0.043 C 
ATOM     47  H   LIG d   1      10.658   3.372  -2.399  0.00  0.00     0.078 H 
ATOM     48  H   LIG d   1      10.701   2.729  -4.058  0.00  0.00     0.078 H 
ATOM     49  H   LIG d   1      11.072   1.664  -2.680  0.00  0.00     0.078 H 
ENDBRANCH  40  46
ENDBRANCH  37  40
ENDBRANCH  34  37
ENDBRANCH  31  34
ENDBRANCH   1  31
BRANCH  21  50
ATOM     50  C   LIG d   1       8.826  -3.821  -4.186  0.00  0.00    -0.021 A 
ATOM     51  C   LIG d   1       8.893  -5.067  -4.784  0.00  0.00    -0.056 A 
ATOM     52  C   LIG d   1       9.289  -6.167  -4.051  0.00  0.00    -0.047 A 
ATOM     53  H   LIG d   1       8.633  -5.180  -5.826  0.00  0.00     0.062 H 
ATOM     54  C   LIG d   1       9.624  -6.019  -2.702  0.00  0.00     0.059 A 
ATOM     55  H   LIG d   1       9.341  -7.139  -4.517  0.00  0.00     0.063 H 
ATOM     56  C   LIG d   1       9.555  -4.758  -2.107  0.00  0.00    -0.047 A 
ATOM     57  C   LIG d   1       9.160  -3.667  -2.853  0.00  0.00    -0.056 A 
ATOM     58  H   LIG d   1       9.812  -4.637  -1.066  0.00  0.00     0.063 H 
ATOM     59  H   LIG d   1       9.111  -2.690  -2.395  0.00  0.00     0.062 H 
BRANCH  54  60
ATOM     60  C   LIG d   1      10.050  -7.191  -1.911  0.00  0.00     0.339 C 
ATOM     61  O   LIG d   1       9.352  -8.186  -1.876  0.00  0.00    -0.245 OA
BRANCH  60  62
ATOM     62  O   LIG d   1      11.210  -7.158  -1.228  0.00  0.00    -0.465 OA
BRANCH  62  63
ATOM     63  C   LIG d   1      11.272  -7.925   0.003  0.00  0.00     0.082 C 
ATOM     64  H   LIG d   1      11.733  -8.893  -0.195  0.00  0.00     0.066 H 
ATOM     65  H   LIG d   1      11.866  -7.383   0.740  0.00  0.00     0.066 H 
ATOM     66  H   LIG d   1      10.264  -8.075   0.390  0.00  0.00     0.066 H 
ENDBRANCH  62  63
ENDBRANCH  60  62
ENDBRANCH  54  60
ENDBRANCH  21  50
TORSDOF 10
ENDMDL
MODEL 2
REMARK VINA RESULT:      -6.4      0.951      1.548
REMARK  10 active torsions:
REMARK  status: ('A' for Active; 'I' for Inactive)
REMARK    1  A    between atoms: C_1  and  N_65 
REMARK    2  A    between atoms: C_2  and  N_65 
REMARK    3  A    between atoms: C_3  and  C_4 
REMARK    4  A    between atoms: C_3  and  N_65 
REMARK    5  A    between atoms: C_4  and  C_5 
REMARK    6  A    between atoms: C_5  and  N_6 
REMARK    7  A    between atoms: C_26  and  C_28 
REMARK    8  A    between atoms: C_31  and  C_34 
REMARK    9  A    between atoms: C_34  and  O_36 
REMARK   10  A    between atoms: O_36  and  C_37 
ROOT
ATOM      1  N   LIG d   1      11.809  -0.289  -5.802  0.00  0.00    -0.291 N 
ATOM      2  C   LIG d   1      12.065  -1.597  -5.220  0.00  0.00     0.091 A 
ATOM      3  C   LIG d   1      10.802  -2.353  -4.966  0.00  0.00     0.234 A 
ATOM      4  O   LIG d   1      10.896  -3.470  -4.504  0.00  0.00    -0.274 OA
ATOM      5  N   LIG d   1       9.593  -1.878  -5.204  0.00  0.00    -0.276 N 
ATOM      6  C   LIG d   1       9.325  -0.525  -5.693  0.00  0.00     0.107 A 
ATOM      7  H   LIG d   1       8.713  -0.590  -6.592  0.00  0.00     0.060 H 
ATOM      8  C   LIG d   1      10.590   0.200  -6.020  0.00  0.00     0.237 A 
ATOM      9  O   LIG d   1      10.501   1.303  -6.516  0.00  0.00    -0.274 OA
ATOM     10  C   LIG d   1       8.548   0.252  -4.620  0.00  0.00     0.002 C 
ATOM     11  C   LIG d   1       7.446  -0.625  -4.086  0.00  0.00    -0.015 A 
ATOM     12  C   LIG d   1       6.271  -0.233  -3.333  0.00  0.00     0.003 A 
ATOM     13  C   LIG d   1       5.802   1.007  -2.886  0.00  0.00    -0.052 A 
ATOM     14  C   LIG d   1       4.623   1.006  -2.184  0.00  0.00    -0.061 A 
ATOM     15  C   LIG d   1       3.922  -0.159  -1.920  0.00  0.00    -0.060 A 
ATOM     16  C   LIG d   1       4.363  -1.399  -2.349  0.00  0.00    -0.038 A 
ATOM     17  C   LIG d   1       5.558  -1.430  -3.067  0.00  0.00     0.047 A 
ATOM     18  N   LIG d   1       6.263  -2.456  -3.627  0.00  0.00    -0.356 N 
ATOM     19  H   LIG d   1       6.006  -3.391  -3.599  0.00  0.00     0.166 HD
ATOM     20  C   LIG d   1       7.389  -1.966  -4.234  0.00  0.00     0.046 A 
ATOM     21  C   LIG d   1       8.437  -2.769  -4.971  0.00  0.00     0.092 C 
ATOM     22  H   LIG d   1       8.037  -3.116  -5.923  0.00  0.00     0.062 H 
ATOM     23  H   LIG d   1      12.691  -2.171  -5.903  0.00  0.00     0.056 H 
ATOM     24  H   LIG d   1      12.596  -1.467  -4.278  0.00  0.00     0.056 H 
ATOM     25  H   LIG d   1       8.119   1.151  -5.060  0.00  0.00     0.034 H 
ATOM     26  H   LIG d   1       9.222   0.527  -3.808  0.00  0.00     0.034 H 
ATOM     27  H   LIG d   1       6.341   1.921  -3.087  0.00  0.00     0.062 H 
ATOM     28  H   LIG d   1       4.228   1.946  -1.824  0.00  0.00     0.062 H 
ATOM     29  H   LIG d   1       3.001  -0.099  -1.361  0.00  0.00     0.062 H 
ATOM     30  H   LIG d   1       3.808  -2.300  -2.137  0.00  0.00     0.064 H 
ENDROOT
BRANCH   1  31
ATOM     31  C   LIG d   1      12.961   0.539  -6.169  0.00  0.00     0.020 C 
ATOM     32  H   LIG d   1      13.389   0.173  -7.101  0.00  0.00     0.047 H 
ATOM     33  H   LIG d   1      12.639   1.573  -6.298  0.00  0.00     0.047 H 
BRANCH  31  34
ATOM     34  C   LIG d   1      14.014   0.469  -5.061  0.00  0.00     0.003 C 
ATOM     35  H   LIG d   1      14.053  -0.545  -4.662  0.00  0.00     0.033 H 
ATOM     36  H   LIG d   1      14.989   0.737  -5.468  0.00  0.00     0.033 H 
BRANCH  34  37
ATOM     37  C   LIG d   1      13.644   1.443  -3.942  0.00  0.00    -0.031 C 
ATOM     38  H   LIG d   1      13.842   2.464  -4.269  0.00  0.00     0.082 H 
ATOM     39  H   LIG d   1      12.585   1.338  -3.703  0.00  0.00     0.082 H 
BRANCH  37  40
ATOM     40  N   LIG d   1      14.474   1.146  -2.756  0.00  0.00     0.231 N 
ATOM     41  H   LIG d   1      13.932   1.354  -1.909  0.00  0.00     0.203 HD
BRANCH  40  42
ATOM     42  C   LIG d   1      14.850  -0.283  -2.746  0.00  0.00    -0.043 C 
ATOM     43  H   LIG d   1      15.927  -0.394  -2.628  0.00  0.00     0.078 H 
ATOM     44  H   LIG d   1      14.340  -0.779  -1.920  0.00  0.00     0.078 H 
ATOM     45  H   LIG d   1      14.538  -0.737  -3.688  0.00  0.00     0.078 H 
ENDBRANCH  40  42
BRANCH  40  46
ATOM     46  C   LIG d   1      15.690   1.988  -2.766  0.00  0.00    -0.043 C 
ATOM     47  H   LIG d   1      16.558   1.350  -2.929  0.00  0.00     0.078 H 
ATOM     48  H   LIG d   1      15.612   2.711  -3.577  0.00  0.00     0.078 H 
ATOM     49  H   LIG d   1      15.798   2.514  -1.817  0.00  0.00     0.078 H 
ENDBRANCH  40  46
ENDBRANCH  37  40
ENDBRANCH  34  37
ENDBRANCH  31  34
ENDBRANCH   1  31
BRANCH  21  50
ATOM     50  C   LIG d   1       8.861  -3.948  -4.134  0.00  0.00    -0.021 A 
ATOM     51  C   LIG d   1       9.238  -3.757  -2.816  0.00  0.00    -0.056 A 
ATOM     52  C   LIG d   1       9.627  -4.832  -2.044  0.00  0.00    -0.047 A 
ATOM     53  H   LIG d   1       9.228  -2.764  -2.391  0.00  0.00     0.062 H 
ATOM     54  C   LIG d   1       9.639  -6.116  -2.595  0.00  0.00     0.059 A 
ATOM     55  H   LIG d   1       9.921  -4.682  -1.016  0.00  0.00     0.063 H 
ATOM     56  C   LIG d   1       9.257  -6.301  -3.925  0.00  0.00    -0.047 A 
ATOM     57  C   LIG d   1       8.866  -5.217  -4.684  0.00  0.00    -0.056 A 
ATOM     58  H   LIG d   1       9.264  -7.290  -4.357  0.00  0.00     0.063 H 
ATOM     59  H   LIG d   1       8.566  -5.360  -5.712  0.00  0.00     0.062 H 
BRANCH  54  60
ATOM     60  C   LIG d   1      10.054  -7.271  -1.774  0.00  0.00     0.339 C 
ATOM     61  O   LIG d   1       9.398  -8.294  -1.789  0.00  0.00    -0.245 OA
BRANCH  60  62
ATOM     62  O   LIG d   1      11.160  -7.192  -1.010  0.00  0.00    -0.465 OA
BRANCH  62  63
ATOM     63  C   LIG d   1      11.212  -8.043   0.166  0.00  0.00     0.082 C 
ATOM     64  H   LIG d   1      12.239  -8.109   0.522  0.00  0.00     0.066 H 
ATOM     65  H   LIG d   1      10.581  -7.620   0.948  0.00  0.00     0.066 H 
ATOM     66  H   LIG d   1      10.851  -9.039  -0.091  0.00  0.00     0.066 H 
ENDBRANCH  62  63
ENDBRANCH  60  62
ENDBRANCH  54  60
ENDBRANCH  21  50
TORSDOF 10
ENDMDL
MODEL 3
REMARK VINA RESULT:      -5.9      4.262      7.363
REMARK  10 active torsions:
REMARK  status: ('A' for Active; 'I' for Inactive)
REMARK    1  A    between atoms: C_1  and  N_65 
REMARK    2  A    between atoms: C_2  and  N_65 
REMARK    3  A    between atoms: C_3  and  C_4 
REMARK    4  A    between atoms: C_3  and  N_65 
REMARK    5  A    between atoms: C_4  and  C_5 
REMARK    6  A    between atoms: C_5  and  N_6 
REMARK    7  A    between atoms: C_26  and  C_28 
REMARK    8  A    between atoms: C_31  and  C_34 
REMARK    9  A    between atoms: C_34  and  O_36 
REMARK   10  A    between atoms: O_36  and  C_37 
ROOT
ATOM      1  N   LIG d   1       9.143  -5.469  -3.846  0.00  0.00    -0.291 N 
ATOM      2  C   LIG d   1       8.325  -6.063  -4.891  0.00  0.00     0.091 A 
ATOM      3  C   LIG d   1       7.506  -5.041  -5.611  0.00  0.00     0.234 A 
ATOM      4  O   LIG d   1       6.802  -5.421  -6.522  0.00  0.00    -0.274 OA
ATOM      5  N   LIG d   1       7.496  -3.755  -5.310  0.00  0.00    -0.276 N 
ATOM      6  C   LIG d   1       8.238  -3.167  -4.195  0.00  0.00     0.107 A 
ATOM      7  H   LIG d   1       8.859  -2.356  -4.574  0.00  0.00     0.060 H 
ATOM      8  C   LIG d   1       9.115  -4.177  -3.528  0.00  0.00     0.237 A 
ATOM      9  O   LIG d   1       9.848  -3.795  -2.641  0.00  0.00    -0.274 OA
ATOM     10  C   LIG d   1       7.243  -2.595  -3.175  0.00  0.00     0.002 C 
ATOM     11  C   LIG d   1       6.183  -1.818  -3.912  0.00  0.00    -0.015 A 
ATOM     12  C   LIG d   1       5.255  -0.840  -3.381  0.00  0.00     0.003 A 
ATOM     13  C   LIG d   1       5.052  -0.325  -2.097  0.00  0.00    -0.052 A 
ATOM     14  C   LIG d   1       4.059   0.612  -1.955  0.00  0.00    -0.061 A 
ATOM     15  C   LIG d   1       3.285   1.035  -3.024  0.00  0.00    -0.060 A 
ATOM     16  C   LIG d   1       3.464   0.542  -4.305  0.00  0.00    -0.038 A 
ATOM     17  C   LIG d   1       4.466  -0.411  -4.480  0.00  0.00     0.047 A 
ATOM     18  N   LIG d   1       4.903  -1.088  -5.582  0.00  0.00    -0.356 N 
ATOM     19  H   LIG d   1       4.541  -0.990  -6.477  0.00  0.00     0.166 HD
ATOM     20  C   LIG d   1       5.929  -1.926  -5.234  0.00  0.00     0.046 A 
ATOM     21  C   LIG d   1       6.691  -2.850  -6.157  0.00  0.00     0.092 C 
ATOM     22  H   LIG d   1       7.345  -2.269  -6.806  0.00  0.00     0.062 H 
ATOM     23  H   LIG d   1       8.975  -6.565  -5.608  0.00  0.00     0.056 H 
ATOM     24  H   LIG d   1       7.659  -6.800  -4.443  0.00  0.00     0.056 H 
ATOM     25  H   LIG d   1       7.767  -1.934  -2.485  0.00  0.00     0.034 H 
ATOM     26  H   LIG d   1       6.779  -3.411  -2.621  0.00  0.00     0.034 H 
ATOM     27  H   LIG d   1       5.649  -0.648  -1.257  0.00  0.00     0.062 H 
ATOM     28  H   LIG d   1       3.874   1.033  -0.977  0.00  0.00     0.062 H 
ATOM     29  H   LIG d   1       2.517   1.773  -2.852  0.00  0.00     0.062 H 
ATOM     30  H   LIG d   1       2.855   0.879  -5.130  0.00  0.00     0.064 H 
ENDROOT
BRANCH   1  31
ATOM     31  C   LIG d   1      10.052  -6.344  -3.101  0.00  0.00     0.020 C 
ATOM     32  H   LIG d   1      10.963  -6.498  -3.678  0.00  0.00     0.047 H 
ATOM     33  H   LIG d   1      10.300  -5.881  -2.146  0.00  0.00     0.047 H 
BRANCH  31  34
ATOM     34  C   LIG d   1       9.372  -7.692  -2.853  0.00  0.00     0.003 C 
ATOM     35  H   LIG d   1       8.302  -7.539  -2.712  0.00  0.00     0.033 H 
ATOM     36  H   LIG d   1       9.535  -8.345  -3.710  0.00  0.00     0.033 H 
BRANCH  34  37
ATOM     37  C   LIG d   1       9.963  -8.339  -1.599  0.00  0.00    -0.031 C 
ATOM     38  H   LIG d   1      10.754  -9.032  -1.887  0.00  0.00     0.082 H 
ATOM     39  H   LIG d   1      10.377  -7.565  -0.952  0.00  0.00     0.082 H 
BRANCH  37  40
ATOM     40  N   LIG d   1       8.898  -9.085  -0.899  0.00  0.00     0.231 N 
ATOM     41  H   LIG d   1       8.586  -8.539  -0.087  0.00  0.00     0.203 HD
BRANCH  40  42
ATOM     42  C   LIG d   1       7.749  -9.297  -1.804  0.00  0.00    -0.043 C 
ATOM     43  H   LIG d   1       7.752  -8.559  -2.605  0.00  0.00     0.078 H 
ATOM     44  H   LIG d   1       7.813 -10.298  -2.232  0.00  0.00     0.078 H 
ATOM     45  H   LIG d   1       6.826  -9.207  -1.230  0.00  0.00     0.078 H 
ENDBRANCH  40  42
BRANCH  40  46
ATOM     46  C   LIG d   1       9.418 -10.388  -0.430  0.00  0.00    -0.043 C 
ATOM     47  H   LIG d   1       9.947 -10.238   0.510  0.00  0.00     0.078 H 
ATOM     48  H   LIG d   1       8.581 -11.067  -0.272  0.00  0.00     0.078 H 
ATOM     49  H   LIG d   1      10.099 -10.814  -1.167  0.00  0.00     0.078 H 
ENDBRANCH  40  46
ENDBRANCH  37  40
ENDBRANCH  34  37
ENDBRANCH  31  34
ENDBRANCH   1  31
BRANCH  21  50
ATOM     50  C   LIG d   1       5.725  -3.652  -6.990  0.00  0.00    -0.021 A 
ATOM     51  C   LIG d   1       4.612  -4.221  -6.396  0.00  0.00    -0.056 A 
ATOM     52  C   LIG d   1       3.723  -4.957  -7.152  0.00  0.00    -0.047 A 
ATOM     53  H   LIG d   1       4.439  -4.090  -5.338  0.00  0.00     0.062 H 
ATOM     54  C   LIG d   1       3.949  -5.126  -8.521  0.00  0.00     0.059 A 
ATOM     55  H   LIG d   1       2.855  -5.401  -6.688  0.00  0.00     0.063 H 
ATOM     56  C   LIG d   1       5.073  -4.549  -9.113  0.00  0.00    -0.047 A 
ATOM     57  C   LIG d   1       5.952  -3.812  -8.345  0.00  0.00    -0.056 A 
ATOM     58  H   LIG d   1       5.254  -4.676 -10.169  0.00  0.00     0.063 H 
ATOM     59  H   LIG d   1       6.820  -3.361  -8.803  0.00  0.00     0.062 H 
BRANCH  54  60
ATOM     60  C   LIG d   1       3.002  -5.913  -9.337  0.00  0.00     0.339 C 
ATOM     61  O   LIG d   1       2.550  -5.444 -10.363  0.00  0.00    -0.245 OA
BRANCH  60  62
ATOM     62  O   LIG d   1       2.639  -7.149  -8.944  0.00  0.00    -0.465 OA
BRANCH  62  63
ATOM     63  C   LIG d   1       3.657  -8.184  -9.002  0.00  0.00     0.082 C 
ATOM     64  H   LIG d   1       3.686  -8.718  -8.053  0.00  0.00     0.066 H 
ATOM     65  H   LIG d   1       3.420  -8.881  -9.806  0.00  0.00     0.066 H 
ATOM     66  H   LIG d   1       4.628  -7.728  -9.192  0.00  0.00     0.066 H 
ENDBRANCH  62  63
ENDBRANCH  60  62
ENDBRANCH  54  60
ENDBRANCH  21  50
TORSDOF 10
ENDMDL
MODEL 4
REMARK VINA RESULT:      -5.9      3.720      9.554
REMARK  10 active torsions:
REMARK  status: ('A' for Active; 'I' for Inactive)
REMARK    1  A    between atoms: C_1  and  N_65 
REMARK    2  A    between atoms: C_2  and  N_65 
REMARK    3  A    between atoms: C_3  and  C_4 
REMARK    4  A    between atoms: C_3  and  N_65 
REMARK    5  A    between atoms: C_4  and  C_5 
REMARK    6  A    between atoms: C_5  and  N_6 
REMARK    7  A    between atoms: C_26  and  C_28 
REMARK    8  A    between atoms: C_31  and  C_34 
REMARK    9  A    between atoms: C_34  and  O_36 
REMARK   10  A    between atoms: O_36  and  C_37 
ROOT
ATOM      1  N   LIG d   1       8.033   0.200  -4.468  0.00  0.00    -0.291 N 
ATOM      2  C   LIG d   1       7.767   1.444  -3.763  0.00  0.00     0.091 A 
ATOM      3  C   LIG d   1       8.907   2.405  -3.872  0.00  0.00     0.234 A 
ATOM      4  O   LIG d   1       8.785   3.488  -3.342  0.00  0.00    -0.274 OA
ATOM      5  N   LIG d   1      10.038   2.142  -4.500  0.00  0.00    -0.276 N 
ATOM      6  C   LIG d   1      10.353   0.857  -5.123  0.00  0.00     0.107 A 
ATOM      7  H   LIG d   1      10.631   1.027  -6.163  0.00  0.00     0.060 H 
ATOM      8  C   LIG d   1       9.183  -0.073  -5.081  0.00  0.00     0.237 A 
ATOM      9  O   LIG d   1       9.287  -1.143  -5.641  0.00  0.00    -0.274 OA
ATOM     10  C   LIG d   1      11.543   0.221  -4.389  0.00  0.00     0.002 C 
ATOM     11  C   LIG d   1      12.602   1.271  -4.176  0.00  0.00    -0.015 A 
ATOM     12  C   LIG d   1      14.001   1.083  -3.848  0.00  0.00     0.003 A 
ATOM     13  C   LIG d   1      14.780  -0.059  -3.640  0.00  0.00    -0.052 A 
ATOM     14  C   LIG d   1      16.104   0.140  -3.340  0.00  0.00    -0.061 A 
ATOM     15  C   LIG d   1      16.655   1.408  -3.242  0.00  0.00    -0.060 A 
ATOM     16  C   LIG d   1      15.908   2.555  -3.443  0.00  0.00    -0.038 A 
ATOM     17  C   LIG d   1      14.559   2.384  -3.750  0.00  0.00     0.047 A 
ATOM     18  N   LIG d   1      13.557   3.276  -4.006  0.00  0.00    -0.356 N 
ATOM     19  H   LIG d   1      13.657   4.241  -4.007  0.00  0.00     0.166 HD
ATOM     20  C   LIG d   1      12.392   2.603  -4.260  0.00  0.00     0.046 A 
ATOM     21  C   LIG d   1      11.050   3.217  -4.588  0.00  0.00     0.092 C 
ATOM     22  H   LIG d   1      11.068   3.629  -5.596  0.00  0.00     0.062 H 
ATOM     23  H   LIG d   1       6.874   1.905  -4.185  0.00  0.00     0.056 H 
ATOM     24  H   LIG d   1       7.589   1.224  -2.712  0.00  0.00     0.056 H 
ATOM     25  H   LIG d   1      11.951  -0.591  -4.991  0.00  0.00     0.034 H 
ATOM     26  H   LIG d   1      11.213  -0.167  -3.426  0.00  0.00     0.034 H 
ATOM     27  H   LIG d   1      14.360  -1.051  -3.714  0.00  0.00     0.062 H 
ATOM     28  H   LIG d   1      16.738  -0.719  -3.173  0.00  0.00     0.062 H 
ATOM     29  H   LIG d   1      17.703   1.504  -3.001  0.00  0.00     0.062 H 
ATOM     30  H   LIG d   1      16.348   3.538  -3.364  0.00  0.00     0.064 H 
ENDROOT
BRANCH   1  31
ATOM     31  C   LIG d   1       6.974  -0.811  -4.505  0.00  0.00     0.020 C 
ATOM     32  H   LIG d   1       6.196  -0.497  -5.200  0.00  0.00     0.047 H 
ATOM     33  H   LIG d   1       7.392  -1.763  -4.833  0.00  0.00     0.047 H 
BRANCH  31  34
ATOM     34  C   LIG d   1       6.374  -0.972  -3.106  0.00  0.00     0.003 C 
ATOM     35  H   LIG d   1       7.069  -1.524  -2.474  0.00  0.00     0.033 H 
ATOM     36  H   LIG d   1       6.192   0.012  -2.674  0.00  0.00     0.033 H 
BRANCH  34  37
ATOM     37  C   LIG d   1       5.054  -1.739  -3.203  0.00  0.00    -0.031 C 
ATOM     38  H   LIG d   1       4.695  -1.716  -4.233  0.00  0.00     0.082 H 
ATOM     39  H   LIG d   1       5.211  -2.773  -2.896  0.00  0.00     0.082 H 
BRANCH  37  40
ATOM     40  N   LIG d   1       4.057  -1.085  -2.330  0.00  0.00     0.231 N 
ATOM     41  H   LIG d   1       3.860  -1.699  -1.531  0.00  0.00     0.203 HD
BRANCH  40  42
ATOM     42  C   LIG d   1       4.588   0.200  -1.829  0.00  0.00    -0.043 C 
ATOM     43  H   LIG d   1       3.792   0.942  -1.763  0.00  0.00     0.078 H 
ATOM     44  H   LIG d   1       5.023   0.044  -0.842  0.00  0.00     0.078 H 
ATOM     45  H   LIG d   1       5.359   0.554  -2.514  0.00  0.00     0.078 H 
ENDBRANCH  40  42
BRANCH  40  46
ATOM     46  C   LIG d   1       2.803  -0.856  -3.079  0.00  0.00    -0.043 C 
ATOM     47  H   LIG d   1       3.050  -0.541  -4.092  0.00  0.00     0.078 H 
ATOM     48  H   LIG d   1       2.237  -1.786  -3.115  0.00  0.00     0.078 H 
ATOM     49  H   LIG d   1       2.204  -0.084  -2.594  0.00  0.00     0.078 H 
ENDBRANCH  40  46
ENDBRANCH  37  40
ENDBRANCH  34  37
ENDBRANCH  31  34
ENDBRANCH   1  31
BRANCH  21  50
ATOM     50  C   LIG d   1      10.728   4.305  -3.596  0.00  0.00    -0.021 A 
ATOM     51  C   LIG d   1      10.140   5.480  -4.031  0.00  0.00    -0.056 A 
ATOM     52  C   LIG d   1       9.842   6.481  -3.129  0.00  0.00    -0.047 A 
ATOM     53  H   LIG d   1       9.914   5.614  -5.078  0.00  0.00     0.062 H 
ATOM     54  C   LIG d   1      10.135   6.305  -1.775  0.00  0.00     0.059 A 
ATOM     55  H   LIG d   1       9.384   7.397  -3.469  0.00  0.00     0.063 H 
ATOM     56  C   LIG d   1      10.728   5.117  -1.343  0.00  0.00    -0.047 A 
ATOM     57  C   LIG d   1      11.016   4.123  -2.256  0.00  0.00    -0.056 A 
ATOM     58  H   LIG d   1      10.957   4.975  -0.298  0.00  0.00     0.063 H 
ATOM     59  H   LIG d   1      11.471   3.202  -1.923  0.00  0.00     0.062 H 
BRANCH  54  60
ATOM     60  C   LIG d   1       9.820   7.372  -0.803  0.00  0.00     0.339 C 
ATOM     61  O   LIG d   1      10.622   7.661   0.063  0.00  0.00    -0.245 OA
BRANCH  60  62
ATOM     62  O   LIG d   1       8.643   8.024  -0.877  0.00  0.00    -0.465 OA
BRANCH  62  63
ATOM     63  C   LIG d   1       8.683   9.471  -0.759  0.00  0.00     0.082 C 
ATOM     64  H   LIG d   1       7.817   9.900  -1.262  0.00  0.00     0.066 H 
ATOM     65  H   LIG d   1       8.668   9.750   0.295  0.00  0.00     0.066 H 
ATOM     66  H   LIG d   1       9.596   9.848  -1.221  0.00  0.00     0.066 H 
ENDBRANCH  62  63
ENDBRANCH  60  62
ENDBRANCH  54  60
ENDBRANCH  21  50
TORSDOF 10
ENDMDL
MODEL 5
REMARK VINA RESULT:      -5.9      3.409      8.995
REMARK  10 active torsions:
REMARK  status: ('A' for Active; 'I' for Inactive)
REMARK    1  A    between atoms: C_1  and  N_65 
REMARK    2  A    between atoms: C_2  and  N_65 
REMARK    3  A    between atoms: C_3  and  C_4 
REMARK    4  A    between atoms: C_3  and  N_65 
REMARK    5  A    between atoms: C_4  and  C_5 
REMARK    6  A    between atoms: C_5  and  N_6 
REMARK    7  A    between atoms: C_26  and  C_28 
REMARK    8  A    between atoms: C_31  and  C_34 
REMARK    9  A    between atoms: C_34  and  O_36 
REMARK   10  A    between atoms: O_36  and  C_37 
ROOT
ATOM      1  N   LIG d   1       6.872  -0.864  -3.943  0.00  0.00    -0.291 N 
ATOM      2  C   LIG d   1       6.905   0.457  -3.335  0.00  0.00     0.091 A 
ATOM      3  C   LIG d   1       8.004   1.302  -3.892  0.00  0.00     0.234 A 
ATOM      4  O   LIG d   1       8.111   2.436  -3.475  0.00  0.00    -0.274 OA
ATOM      5  N   LIG d   1       8.868   0.888  -4.801  0.00  0.00    -0.276 N 
ATOM      6  C   LIG d   1       8.904  -0.471  -5.341  0.00  0.00     0.107 A 
ATOM      7  H   LIG d   1       8.854  -0.419  -6.429  0.00  0.00     0.060 H 
ATOM      8  C   LIG d   1       7.758  -1.289  -4.842  0.00  0.00     0.237 A 
ATOM      9  O   LIG d   1       7.625  -2.410  -5.283  0.00  0.00    -0.274 OA
ATOM     10  C   LIG d   1      10.228  -1.137  -4.937  0.00  0.00     0.002 C 
ATOM     11  C   LIG d   1      11.355  -0.166  -5.175  0.00  0.00    -0.015 A 
ATOM     12  C   LIG d   1      12.774  -0.443  -5.269  0.00  0.00     0.003 A 
ATOM     13  C   LIG d   1      13.517  -1.624  -5.180  0.00  0.00    -0.052 A 
ATOM     14  C   LIG d   1      14.878  -1.513  -5.321  0.00  0.00    -0.061 A 
ATOM     15  C   LIG d   1      15.499  -0.294  -5.538  0.00  0.00    -0.060 A 
ATOM     16  C   LIG d   1      14.789   0.891  -5.630  0.00  0.00    -0.038 A 
ATOM     17  C   LIG d   1      13.404   0.808  -5.492  0.00  0.00     0.047 A 
ATOM     18  N   LIG d   1      12.422   1.756  -5.529  0.00  0.00    -0.356 N 
ATOM     19  H   LIG d   1      12.567   2.705  -5.669  0.00  0.00     0.166 HD
ATOM     20  C   LIG d   1      11.201   1.166  -5.340  0.00  0.00     0.046 A 
ATOM     21  C   LIG d   1       9.859   1.860  -5.312  0.00  0.00     0.092 C 
ATOM     22  H   LIG d   1       9.584   2.177  -6.318  0.00  0.00     0.062 H 
ATOM     23  H   LIG d   1       5.951   0.953  -3.514  0.00  0.00     0.056 H 
ATOM     24  H   LIG d   1       7.051   0.349  -2.261  0.00  0.00     0.056 H 
ATOM     25  H   LIG d   1      10.384  -2.032  -5.540  0.00  0.00     0.034 H 
ATOM     26  H   LIG d   1      10.194  -1.406  -3.882  0.00  0.00     0.034 H 
ATOM     27  H   LIG d   1      13.042  -2.579  -5.011  0.00  0.00     0.062 H 
ATOM     28  H   LIG d   1      15.485  -2.405  -5.259  0.00  0.00     0.062 H 
ATOM     29  H   LIG d   1      16.573  -0.266  -5.639  0.00  0.00     0.062 H 
ATOM     30  H   LIG d   1      15.284   1.835  -5.799  0.00  0.00     0.064 H 
ENDROOT
BRANCH   1  31
ATOM     31  C   LIG d   1       5.801  -1.780  -3.543  0.00  0.00     0.020 C 
ATOM     32  H   LIG d   1       5.191  -2.027  -4.411  0.00  0.00     0.047 H 
ATOM     33  H   LIG d   1       6.237  -2.691  -3.133  0.00  0.00     0.047 H 
BRANCH  31  34
ATOM     34  C   LIG d   1       4.927  -1.110  -2.480  0.00  0.00     0.003 C 
ATOM     35  H   LIG d   1       5.146  -1.543  -1.504  0.00  0.00     0.033 H 
ATOM     36  H   LIG d   1       5.138  -0.041  -2.458  0.00  0.00     0.033 H 
BRANCH  34  37
ATOM     37  C   LIG d   1       3.453  -1.333  -2.818  0.00  0.00    -0.031 C 
ATOM     38  H   LIG d   1       3.374  -1.930  -3.727  0.00  0.00     0.082 H 
ATOM     39  H   LIG d   1       2.967  -1.858  -1.995  0.00  0.00     0.082 H 
BRANCH  37  40
ATOM     40  N   LIG d   1       2.811  -0.021  -3.045  0.00  0.00     0.231 N 
ATOM     41  H   LIG d   1       1.845  -0.058  -2.700  0.00  0.00     0.203 HD
BRANCH  40  42
ATOM     42  C   LIG d   1       3.543   1.034  -2.312  0.00  0.00    -0.043 C 
ATOM     43  H   LIG d   1       4.265   0.592  -1.626  0.00  0.00     0.078 H 
ATOM     44  H   LIG d   1       4.063   1.669  -3.029  0.00  0.00     0.078 H 
ATOM     45  H   LIG d   1       2.827   1.634  -1.749  0.00  0.00     0.078 H 
ENDBRANCH  40  42
BRANCH  40  46
ATOM     46  C   LIG d   1       2.793   0.289  -4.490  0.00  0.00    -0.043 C 
ATOM     47  H   LIG d   1       3.021  -0.619  -5.048  0.00  0.00     0.078 H 
ATOM     48  H   LIG d   1       1.800   0.645  -4.764  0.00  0.00     0.078 H 
ATOM     49  H   LIG d   1       3.532   1.056  -4.726  0.00  0.00     0.078 H 
ENDBRANCH  40  46
ENDBRANCH  37  40
ENDBRANCH  34  37
ENDBRANCH  31  34
ENDBRANCH   1  31
BRANCH  21  50
ATOM     50  C   LIG d   1       9.920   3.057  -4.398  0.00  0.00    -0.021 A 
ATOM     51  C   LIG d   1       9.380   4.264  -4.807  0.00  0.00    -0.056 A 
ATOM     52  C   LIG d   1       9.433   5.363  -3.977  0.00  0.00    -0.047 A 
ATOM     53  H   LIG d   1       8.919   4.345  -5.780  0.00  0.00     0.062 H 
ATOM     54  C   LIG d   1      10.031   5.256  -2.719  0.00  0.00     0.059 A 
ATOM     55  H   LIG d   1       9.012   6.305  -4.297  0.00  0.00     0.063 H 
ATOM     56  C   LIG d   1      10.572   4.036  -2.312  0.00  0.00    -0.047 A 
ATOM     57  C   LIG d   1      10.509   2.942  -3.152  0.00  0.00    -0.056 A 
ATOM     58  H   LIG d   1      11.036   3.946  -1.341  0.00  0.00     0.063 H 
ATOM     59  H   LIG d   1      10.924   1.997  -2.837  0.00  0.00     0.062 H 
BRANCH  54  60
ATOM     60  C   LIG d   1      10.091   6.430  -1.823  0.00  0.00     0.339 C 
ATOM     61  O   LIG d   1       9.918   6.291  -0.628  0.00  0.00    -0.245 OA
BRANCH  60  62
ATOM     62  O   LIG d   1      10.337   7.653  -2.331  0.00  0.00    -0.465 OA
BRANCH  62  63
ATOM     63  C   LIG d   1      11.722   7.979  -2.622  0.00  0.00     0.082 C 
ATOM     64  H   LIG d   1      12.071   7.371  -3.456  0.00  0.00     0.066 H 
ATOM     65  H   LIG d   1      11.799   9.034  -2.884  0.00  0.00     0.066 H 
ATOM     66  H   LIG d   1      12.335   7.777  -1.744  0.00  0.00     0.066 H 
ENDBRANCH  62  63
ENDBRANCH  60  62
ENDBRANCH  54  60
ENDBRANCH  21  50
TORSDOF 10
ENDMDL
MODEL 6
REMARK VINA RESULT:      -5.9      1.458      2.262
REMARK  10 active torsions:
REMARK  status: ('A' for Active; 'I' for Inactive)
REMARK    1  A    between atoms: C_1  and  N_65 
REMARK    2  A    between atoms: C_2  and  N_65 
REMARK    3  A    between atoms: C_3  and  C_4 
REMARK    4  A    between atoms: C_3  and  N_65 
REMARK    5  A    between atoms: C_4  and  C_5 
REMARK    6  A    between atoms: C_5  and  N_6 
REMARK    7  A    between atoms: C_26  and  C_28 
REMARK    8  A    between atoms: C_31  and  C_34 
REMARK    9  A    between atoms: C_34  and  O_36 
REMARK   10  A    between atoms: O_36  and  C_37 
ROOT
ATOM      1  N   LIG d   1      11.836  -0.306  -5.795  0.00  0.00    -0.291 N 
ATOM      2  C   LIG d   1      12.080  -1.616  -5.214  0.00  0.00     0.091 A 
ATOM      3  C   LIG d   1      10.810  -2.363  -4.963  0.00  0.00     0.234 A 
ATOM      4  O   LIG d   1      10.894  -3.481  -4.501  0.00  0.00    -0.274 OA
ATOM      5  N   LIG d   1       9.606  -1.877  -5.204  0.00  0.00    -0.276 N 
ATOM      6  C   LIG d   1       9.349  -0.523  -5.693  0.00  0.00     0.107 A 
ATOM      7  H   LIG d   1       8.739  -0.582  -6.594  0.00  0.00     0.060 H 
ATOM      8  C   LIG d   1      10.621   0.192  -6.017  0.00  0.00     0.237 A 
ATOM      9  O   LIG d   1      10.542   1.296  -6.512  0.00  0.00    -0.274 OA
ATOM     10  C   LIG d   1       8.576   0.260  -4.622  0.00  0.00     0.002 C 
ATOM     11  C   LIG d   1       7.465  -0.608  -4.091  0.00  0.00    -0.015 A 
ATOM     12  C   LIG d   1       6.292  -0.207  -3.341  0.00  0.00     0.003 A 
ATOM     13  C   LIG d   1       5.831   1.036  -2.895  0.00  0.00    -0.052 A 
ATOM     14  C   LIG d   1       4.650   1.045  -2.196  0.00  0.00    -0.061 A 
ATOM     15  C   LIG d   1       3.940  -0.115  -1.934  0.00  0.00    -0.060 A 
ATOM     16  C   LIG d   1       4.372  -1.358  -2.363  0.00  0.00    -0.038 A 
ATOM     17  C   LIG d   1       5.569  -1.398  -3.077  0.00  0.00     0.047 A 
ATOM     18  N   LIG d   1       6.267  -2.429  -3.636  0.00  0.00    -0.356 N 
ATOM     19  H   LIG d   1       6.002  -3.362  -3.609  0.00  0.00     0.166 HD
ATOM     20  C   LIG d   1       7.398  -1.949  -4.240  0.00  0.00     0.046 A 
ATOM     21  C   LIG d   1       8.442  -2.760  -4.974  0.00  0.00     0.092 C 
ATOM     22  H   LIG d   1       8.041  -3.103  -5.927  0.00  0.00     0.062 H 
ATOM     23  H   LIG d   1      12.703  -2.195  -5.895  0.00  0.00     0.056 H 
ATOM     24  H   LIG d   1      12.610  -1.491  -4.270  0.00  0.00     0.056 H 
ATOM     25  H   LIG d   1       8.155   1.163  -5.063  0.00  0.00     0.034 H 
ATOM     26  H   LIG d   1       9.250   0.529  -3.809  0.00  0.00     0.034 H 
ATOM     27  H   LIG d   1       6.378   1.946  -3.094  0.00  0.00     0.062 H 
ATOM     28  H   LIG d   1       4.263   1.988  -1.836  0.00  0.00     0.062 H 
ATOM     29  H   LIG d   1       3.017  -0.048  -1.378  0.00  0.00     0.062 H 
ATOM     30  H   LIG d   1       3.810  -2.255  -2.152  0.00  0.00     0.064 H 
ENDROOT
BRANCH   1  31
ATOM     31  C   LIG d   1      12.995   0.513  -6.159  0.00  0.00     0.020 C 
ATOM     32  H   LIG d   1      12.661   1.514  -6.431  0.00  0.00     0.047 H 
ATOM     33  H   LIG d   1      13.676   0.575  -5.311  0.00  0.00     0.047 H 
BRANCH  31  34
ATOM     34  C   LIG d   1      13.716  -0.125  -7.349  0.00  0.00     0.003 C 
ATOM     35  H   LIG d   1      14.691  -0.491  -7.028  0.00  0.00     0.033 H 
ATOM     36  H   LIG d   1      13.123  -0.956  -7.731  0.00  0.00     0.033 H 
BRANCH  34  37
ATOM     37  C   LIG d   1      13.902   0.919  -8.452  0.00  0.00    -0.031 C 
ATOM     38  H   LIG d   1      14.608   1.680  -8.117  0.00  0.00     0.082 H 
ATOM     39  H   LIG d   1      14.289   0.435  -9.348  0.00  0.00     0.082 H 
BRANCH  37  40
ATOM     40  N   LIG d   1      12.598   1.557  -8.729  0.00  0.00     0.231 N 
ATOM     41  H   LIG d   1      12.025   1.527  -7.878  0.00  0.00     0.203 HD
BRANCH  40  42
ATOM     42  C   LIG d   1      12.799   2.968  -9.123  0.00  0.00    -0.043 C 
ATOM     43  H   LIG d   1      13.672   3.063  -9.769  0.00  0.00     0.078 H 
ATOM     44  H   LIG d   1      11.914   3.318  -9.654  0.00  0.00     0.078 H 
ATOM     45  H   LIG d   1      12.944   3.568  -8.224  0.00  0.00     0.078 H 
ENDBRANCH  40  42
BRANCH  40  46
ATOM     46  C   LIG d   1      11.897   0.827  -9.807  0.00  0.00    -0.043 C 
ATOM     47  H   LIG d   1      12.564   0.738 -10.663  0.00  0.00     0.078 H 
ATOM     48  H   LIG d   1      11.632  -0.166  -9.446  0.00  0.00     0.078 H 
ATOM     49  H   LIG d   1      10.993   1.360 -10.103  0.00  0.00     0.078 H 
ENDBRANCH  40  46
ENDBRANCH  37  40
ENDBRANCH  34  37
ENDBRANCH  31  34
ENDBRANCH   1  31
BRANCH  21  50
ATOM     50  C   LIG d   1       8.854  -3.943  -4.136  0.00  0.00    -0.021 A 
ATOM     51  C   LIG d   1       9.175  -3.763  -2.802  0.00  0.00    -0.056 A 
ATOM     52  C   LIG d   1       9.553  -4.841  -2.029  0.00  0.00    -0.047 A 
ATOM     53  H   LIG d   1       9.131  -2.776  -2.366  0.00  0.00     0.062 H 
ATOM     54  C   LIG d   1       9.611  -6.116  -2.596  0.00  0.00     0.059 A 
ATOM     55  H   LIG d   1       9.804  -4.700  -0.989  0.00  0.00     0.063 H 
ATOM     56  C   LIG d   1       9.285  -6.290  -3.942  0.00  0.00    -0.047 A 
ATOM     57  C   LIG d   1       8.904  -5.203  -4.703  0.00  0.00    -0.056 A 
ATOM     58  H   LIG d   1       9.327  -7.273  -4.387  0.00  0.00     0.063 H 
ATOM     59  H   LIG d   1       8.647  -5.337  -5.743  0.00  0.00     0.062 H 
BRANCH  54  60
ATOM     60  C   LIG d   1      10.015  -7.276  -1.775  0.00  0.00     0.339 C 
ATOM     61  O   LIG d   1       9.479  -8.354  -1.941  0.00  0.00    -0.245 OA
BRANCH  60  62
ATOM     62  O   LIG d   1      10.977  -7.138  -0.842  0.00  0.00    -0.465 OA
BRANCH  62  63
ATOM     63  C   LIG d   1      12.047  -8.120  -0.849  0.00  0.00     0.082 C 
ATOM     64  H   LIG d   1      13.008  -7.609  -0.878  0.00  0.00     0.066 H 
ATOM     65  H   LIG d   1      11.986  -8.729   0.054  0.00  0.00     0.066 H 
ATOM     66  H   LIG d   1      11.947  -8.760  -1.725  0.00  0.00     0.066 H 
ENDBRANCH  62  63
ENDBRANCH  60  62
ENDBRANCH  54  60
ENDBRANCH  21  50
TORSDOF 10
ENDMDL
MODEL 7
REMARK VINA RESULT:      -5.9      3.801      7.670
REMARK  10 active torsions:
REMARK  status: ('A' for Active; 'I' for Inactive)
REMARK    1  A    between atoms: C_1  and  N_65 
REMARK    2  A    between atoms: C_2  and  N_65 
REMARK    3  A    between atoms: C_3  and  C_4 
REMARK    4  A    between atoms: C_3  and  N_65 
REMARK    5  A    between atoms: C_4  and  C_5 
REMARK    6  A    between atoms: C_5  and  N_6 
REMARK    7  A    between atoms: C_26  and  C_28 
REMARK    8  A    between atoms: C_31  and  C_34 
REMARK    9  A    between atoms: C_34  and  O_36 
REMARK   10  A    between atoms: O_36  and  C_37 
ROOT
ATOM      1  N   LIG d   1       7.320  -5.082  -5.165  0.00  0.00    -0.291 N 
ATOM      2  C   LIG d   1       8.069  -3.908  -4.746  0.00  0.00     0.091 A 
ATOM      3  C   LIG d   1       7.227  -2.673  -4.756  0.00  0.00     0.234 A 
ATOM      4  O   LIG d   1       7.743  -1.635  -4.400  0.00  0.00    -0.274 OA
ATOM      5  N   LIG d   1       5.963  -2.642  -5.137  0.00  0.00    -0.276 N 
ATOM      6  C   LIG d   1       5.233  -3.799  -5.656  0.00  0.00     0.107 A 
ATOM      7  H   LIG d   1       4.324  -3.933  -5.072  0.00  0.00     0.060 H 
ATOM      8  C   LIG d   1       6.052  -5.046  -5.571  0.00  0.00     0.237 A 
ATOM      9  O   LIG d   1       5.529  -6.092  -5.892  0.00  0.00    -0.274 OA
ATOM     10  C   LIG d   1       4.848  -3.534  -7.119  0.00  0.00     0.002 C 
ATOM     11  C   LIG d   1       4.293  -2.138  -7.232  0.00  0.00    -0.015 A 
ATOM     12  C   LIG d   1       3.501  -1.570  -8.305  0.00  0.00     0.003 A 
ATOM     13  C   LIG d   1       3.020  -2.096  -9.508  0.00  0.00    -0.052 A 
ATOM     14  C   LIG d   1       2.285  -1.252 -10.303  0.00  0.00    -0.061 A 
ATOM     15  C   LIG d   1       2.028   0.061  -9.944  0.00  0.00    -0.060 A 
ATOM     16  C   LIG d   1       2.492   0.608  -8.760  0.00  0.00    -0.038 A 
ATOM     17  C   LIG d   1       3.241  -0.226  -7.931  0.00  0.00     0.047 A 
ATOM     18  N   LIG d   1       3.836  -0.019  -6.720  0.00  0.00    -0.356 N 
ATOM     19  H   LIG d   1       3.818   0.815  -6.225  0.00  0.00     0.166 HD
ATOM     20  C   LIG d   1       4.461  -1.166  -6.309  0.00  0.00     0.046 A 
ATOM     21  C   LIG d   1       5.235  -1.360  -5.025  0.00  0.00     0.092 C 
ATOM     22  H   LIG d   1       4.548  -1.395  -4.180  0.00  0.00     0.062 H 
ATOM     23  H   LIG d   1       8.447  -4.071  -3.736  0.00  0.00     0.056 H 
ATOM     24  H   LIG d   1       8.912  -3.767  -5.420  0.00  0.00     0.056 H 
ATOM     25  H   LIG d   1       4.092  -4.254  -7.433  0.00  0.00     0.034 H 
ATOM     26  H   LIG d   1       5.730  -3.629  -7.752  0.00  0.00     0.034 H 
ATOM     27  H   LIG d   1       3.215  -3.118  -9.797  0.00  0.00     0.062 H 
ATOM     28  H   LIG d   1       1.896  -1.623 -11.240  0.00  0.00     0.062 H 
ATOM     29  H   LIG d   1       1.446   0.680 -10.610  0.00  0.00     0.062 H 
ATOM     30  H   LIG d   1       2.285   1.633  -8.491  0.00  0.00     0.064 H 
ENDROOT
BRANCH   1  31
ATOM     31  C   LIG d   1       7.999  -6.379  -5.138  0.00  0.00     0.020 C 
ATOM     32  H   LIG d   1       7.656  -6.951  -4.276  0.00  0.00     0.047 H 
ATOM     33  H   LIG d   1       7.772  -6.927  -6.052  0.00  0.00     0.047 H 
BRANCH  31  34
ATOM     34  C   LIG d   1       9.511  -6.161  -5.035  0.00  0.00     0.003 C 
ATOM     35  H   LIG d   1       9.976  -6.387  -5.995  0.00  0.00     0.033 H 
ATOM     36  H   LIG d   1       9.711  -5.123  -4.770  0.00  0.00     0.033 H 
BRANCH  34  37
ATOM     37  C   LIG d   1      10.087  -7.082  -3.960  0.00  0.00    -0.031 C 
ATOM     38  H   LIG d   1      10.057  -8.114  -4.310  0.00  0.00     0.082 H 
ATOM     39  H   LIG d   1      11.120  -6.799  -3.754  0.00  0.00     0.082 H 
BRANCH  37  40
ATOM     40  N   LIG d   1       9.264  -6.963  -2.738  0.00  0.00     0.231 N 
ATOM     41  H   LIG d   1       8.320  -6.657  -3.001  0.00  0.00     0.203 HD
BRANCH  40  42
ATOM     42  C   LIG d   1       9.173  -8.273  -2.060  0.00  0.00    -0.043 C 
ATOM     43  H   LIG d   1       8.521  -8.947  -2.615  0.00  0.00     0.078 H 
ATOM     44  H   LIG d   1      10.170  -8.708  -1.990  0.00  0.00     0.078 H 
ATOM     45  H   LIG d   1       8.772  -8.124  -1.056  0.00  0.00     0.078 H 
ENDBRANCH  40  42
BRANCH  40  46
ATOM     46  C   LIG d   1       9.857  -5.962  -1.825  0.00  0.00    -0.043 C 
ATOM     47  H   LIG d   1      10.564  -5.351  -2.384  0.00  0.00     0.078 H 
ATOM     48  H   LIG d   1       9.063  -5.331  -1.429  0.00  0.00     0.078 H 
ATOM     49  H   LIG d   1      10.374  -6.456  -1.002  0.00  0.00     0.078 H 
ENDBRANCH  40  46
ENDBRANCH  37  40
ENDBRANCH  34  37
ENDBRANCH  31  34
ENDBRANCH   1  31
BRANCH  21  50
ATOM     50  C   LIG d   1       6.215  -0.230  -4.841  0.00  0.00    -0.021 A 
ATOM     51  C   LIG d   1       7.008   0.172  -5.901  0.00  0.00    -0.056 A 
ATOM     52  C   LIG d   1       7.907   1.206  -5.740  0.00  0.00    -0.047 A 
ATOM     53  H   LIG d   1       6.925  -0.325  -6.856  0.00  0.00     0.062 H 
ATOM     54  C   LIG d   1       8.014   1.849  -4.504  0.00  0.00     0.059 A 
ATOM     55  H   LIG d   1       8.526   1.519  -6.567  0.00  0.00     0.063 H 
ATOM     56  C   LIG d   1       7.209   1.438  -3.440  0.00  0.00    -0.047 A 
ATOM     57  C   LIG d   1       6.311   0.405  -3.616  0.00  0.00    -0.056 A 
ATOM     58  H   LIG d   1       7.286   1.930  -2.482  0.00  0.00     0.063 H 
ATOM     59  H   LIG d   1       5.685   0.090  -2.795  0.00  0.00     0.062 H 
BRANCH  54  60
ATOM     60  C   LIG d   1       8.974   2.957  -4.324  0.00  0.00     0.339 C 
ATOM     61  O   LIG d   1       9.414   3.542  -5.294  0.00  0.00    -0.245 OA
BRANCH  60  62
ATOM     62  O   LIG d   1       9.361   3.318  -3.086  0.00  0.00    -0.465 OA
BRANCH  62  63
ATOM     63  C   LIG d   1      10.747   3.071  -2.731  0.00  0.00     0.082 C 
ATOM     64  H   LIG d   1      11.254   4.021  -2.564  0.00  0.00     0.066 H 
ATOM     65  H   LIG d   1      10.788   2.473  -1.820  0.00  0.00     0.066 H 
ATOM     66  H   LIG d   1      11.240   2.533  -3.541  0.00  0.00     0.066 H 
ENDBRANCH  62  63
ENDBRANCH  60  62
ENDBRANCH  54  60
ENDBRANCH  21  50
TORSDOF 10
ENDMDL
MODEL 8
REMARK VINA RESULT:      -5.6      2.528      3.376
REMARK  10 active torsions:
REMARK  status: ('A' for Active; 'I' for Inactive)
REMARK    1  A    between atoms: C_1  and  N_65 
REMARK    2  A    between atoms: C_2  and  N_65 
REMARK    3  A    between atoms: C_3  and  C_4 
REMARK    4  A    between atoms: C_3  and  N_65 
REMARK    5  A    between atoms: C_4  and  C_5 
REMARK    6  A    between atoms: C_5  and  N_6 
REMARK    7  A    between atoms: C_26  and  C_28 
REMARK    8  A    between atoms: C_31  and  C_34 
REMARK    9  A    between atoms: C_34  and  O_36 
REMARK   10  A    between atoms: O_36  and  C_37 
ROOT
ATOM      1  N   LIG d   1      10.715   2.980  -4.666  0.00  0.00    -0.291 N 
ATOM      2  C   LIG d   1      11.500   1.790  -4.952  0.00  0.00     0.091 A 
ATOM      3  C   LIG d   1      10.642   0.637  -5.361  0.00  0.00     0.234 A 
ATOM      4  O   LIG d   1      11.193  -0.404  -5.649  0.00  0.00    -0.274 OA
ATOM      5  N   LIG d   1       9.323   0.680  -5.420  0.00  0.00    -0.276 N 
ATOM      6  C   LIG d   1       8.522   1.842  -5.035  0.00  0.00     0.107 A 
ATOM      7  H   LIG d   1       7.867   2.109  -5.864  0.00  0.00     0.060 H 
ATOM      8  C   LIG d   1       9.385   3.016  -4.702  0.00  0.00     0.237 A 
ATOM      9  O   LIG d   1       8.839   4.069  -4.450  0.00  0.00    -0.274 OA
ATOM     10  C   LIG d   1       7.658   1.476  -3.819  0.00  0.00     0.002 C 
ATOM     11  C   LIG d   1       7.026   0.129  -4.058  0.00  0.00    -0.015 A 
ATOM     12  C   LIG d   1       5.895  -0.466  -3.376  0.00  0.00     0.003 A 
ATOM     13  C   LIG d   1       5.067  -0.016  -2.343  0.00  0.00    -0.052 A 
ATOM     14  C   LIG d   1       4.068  -0.864  -1.935  0.00  0.00    -0.061 A 
ATOM     15  C   LIG d   1       3.878  -2.110  -2.509  0.00  0.00    -0.060 A 
ATOM     16  C   LIG d   1       4.683  -2.581  -3.532  0.00  0.00    -0.038 A 
ATOM     17  C   LIG d   1       5.706  -1.741  -3.968  0.00  0.00     0.047 A 
ATOM     18  N   LIG d   1       6.660  -1.885  -4.935  0.00  0.00    -0.356 N 
ATOM     19  H   LIG d   1       6.765  -2.665  -5.503  0.00  0.00     0.166 HD
ATOM     20  C   LIG d   1       7.443  -0.764  -4.982  0.00  0.00     0.046 A 
ATOM     21  C   LIG d   1       8.610  -0.518  -5.912  0.00  0.00     0.092 C 
ATOM     22  H   LIG d   1       8.247  -0.344  -6.924  0.00  0.00     0.062 H 
ATOM     23  H   LIG d   1      12.201   2.013  -5.757  0.00  0.00     0.056 H 
ATOM     24  H   LIG d   1      12.062   1.514  -4.061  0.00  0.00     0.056 H 
ATOM     25  H   LIG d   1       6.878   2.226  -3.687  0.00  0.00     0.034 H 
ATOM     26  H   LIG d   1       8.282   1.434  -2.927  0.00  0.00     0.034 H 
ATOM     27  H   LIG d   1       5.207   0.954  -1.889  0.00  0.00     0.062 H 
ATOM     28  H   LIG d   1       3.407  -0.549  -1.139  0.00  0.00     0.062 H 
ATOM     29  H   LIG d   1       3.077  -2.735  -2.146  0.00  0.00     0.062 H 
ATOM     30  H   LIG d   1       4.525  -3.555  -3.972  0.00  0.00     0.064 H 
ENDROOT
BRANCH   1  31
ATOM     31  C   LIG d   1      11.430   4.210  -4.318  0.00  0.00     0.020 C 
ATOM     32  H   LIG d   1      12.236   4.376  -5.032  0.00  0.00     0.047 H 
ATOM     33  H   LIG d   1      10.739   5.053  -4.348  0.00  0.00     0.047 H 
BRANCH  31  34
ATOM     34  C   LIG d   1      12.014   4.080  -2.910  0.00  0.00     0.003 C 
ATOM     35  H   LIG d   1      12.116   3.025  -2.655  0.00  0.00     0.033 H 
ATOM     36  H   LIG d   1      12.993   4.558  -2.877  0.00  0.00     0.033 H 
BRANCH  34  37
ATOM     37  C   LIG d   1      11.081   4.758  -1.906  0.00  0.00    -0.031 C 
ATOM     38  H   LIG d   1      10.804   5.746  -2.276  0.00  0.00     0.082 H 
ATOM     39  H   LIG d   1      10.182   4.154  -1.779  0.00  0.00     0.082 H 
BRANCH  37  40
ATOM     40  N   LIG d   1      11.791   4.907  -0.618  0.00  0.00     0.231 N 
ATOM     41  H   LIG d   1      11.917   3.978  -0.198  0.00  0.00     0.203 HD
BRANCH  40  42
ATOM     42  C   LIG d   1      13.119   5.517  -0.840  0.00  0.00    -0.043 C 
ATOM     43  H   LIG d   1      13.612   5.058  -1.697  0.00  0.00     0.078 H 
ATOM     44  H   LIG d   1      12.994   6.584  -1.022  0.00  0.00     0.078 H 
ATOM     45  H   LIG d   1      13.728   5.370   0.052  0.00  0.00     0.078 H 
ENDBRANCH  40  42
BRANCH  40  46
ATOM     46  C   LIG d   1      10.997   5.748   0.303  0.00  0.00    -0.043 C 
ATOM     47  H   LIG d   1      10.214   6.249  -0.264  0.00  0.00     0.078 H 
ATOM     48  H   LIG d   1      10.545   5.111   1.063  0.00  0.00     0.078 H 
ATOM     49  H   LIG d   1      11.632   6.493   0.783  0.00  0.00     0.078 H 
ENDBRANCH  40  46
ENDBRANCH  37  40
ENDBRANCH  34  37
ENDBRANCH  31  34
ENDBRANCH   1  31
BRANCH  21  50
ATOM     50  C   LIG d   1       9.536  -1.707  -5.897  0.00  0.00    -0.021 A 
ATOM     51  C   LIG d   1       9.860  -2.312  -4.696  0.00  0.00    -0.056 A 
ATOM     52  C   LIG d   1      10.707  -3.400  -4.674  0.00  0.00    -0.047 A 
ATOM     53  H   LIG d   1       9.451  -1.930  -3.772  0.00  0.00     0.062 H 
ATOM     54  C   LIG d   1      11.236  -3.893  -5.870  0.00  0.00     0.059 A 
ATOM     55  H   LIG d   1      10.960  -3.872  -3.737  0.00  0.00     0.063 H 
ATOM     56  C   LIG d   1      10.904  -3.278  -7.078  0.00  0.00    -0.047 A 
ATOM     57  C   LIG d   1      10.053  -2.192  -7.085  0.00  0.00    -0.056 A 
ATOM     58  H   LIG d   1      11.310  -3.653  -8.006  0.00  0.00     0.063 H 
ATOM     59  H   LIG d   1       9.791  -1.718  -8.020  0.00  0.00     0.062 H 
BRANCH  54  60
ATOM     60  C   LIG d   1      12.144  -5.058  -5.856  0.00  0.00     0.339 C 
ATOM     61  O   LIG d   1      13.172  -5.019  -5.209  0.00  0.00    -0.245 OA
BRANCH  60  62
ATOM     62  O   LIG d   1      11.832  -6.164  -6.559  0.00  0.00    -0.465 OA
BRANCH  62  63
ATOM     63  C   LIG d   1      10.778  -7.009  -6.025  0.00  0.00     0.082 C 
ATOM     64  H   LIG d   1      11.188  -7.987  -5.777  0.00  0.00     0.066 H 
ATOM     65  H   LIG d   1      10.364  -6.549  -5.127  0.00  0.00     0.066 H 
ATOM     66  H   LIG d   1       9.991  -7.122  -6.770  0.00  0.00     0.066 H 
ENDBRANCH  62  63
ENDBRANCH  60  62
ENDBRANCH  54  60
ENDBRANCH  21  50
TORSDOF 10
ENDMDL
MODEL 9
REMARK VINA RESULT:      -5.6      6.715     11.547
REMARK  10 active torsions:
REMARK  status: ('A' for Active; 'I' for Inactive)
REMARK    1  A    between atoms: C_1  and  N_65 
REMARK    2  A    between atoms: C_2  and  N_65 
REMARK    3  A    between atoms: C_3  and  C_4 
REMARK    4  A    between atoms: C_3  and  N_65 
REMARK    5  A    between atoms: C_4  and  C_5 
REMARK    6  A    between atoms: C_5  and  N_6 
REMARK    7  A    between atoms: C_26  and  C_28 
REMARK    8  A    between atoms: C_31  and  C_34 
REMARK    9  A    between atoms: C_34  and  O_36 
REMARK   10  A    between atoms: O_36  and  C_37 
ROOT
ATOM      1  N   LIG d   1      10.531   8.586  -1.253  0.00  0.00    -0.291 N 
ATOM      2  C   LIG d   1      10.772   9.307  -2.493  0.00  0.00     0.091 A 
ATOM      3  C   LIG d   1      10.305   8.539  -3.687  0.00  0.00     0.234 A 
ATOM      4  O   LIG d   1      10.433   9.057  -4.776  0.00  0.00    -0.274 OA
ATOM      5  N   LIG d   1       9.773   7.332  -3.629  0.00  0.00    -0.276 N 
ATOM      6  C   LIG d   1       9.622   6.559  -2.396  0.00  0.00     0.107 A 
ATOM      7  H   LIG d   1       8.579   6.259  -2.293  0.00  0.00     0.060 H 
ATOM      8  C   LIG d   1      10.016   7.360  -1.197  0.00  0.00     0.237 A 
ATOM      9  O   LIG d   1       9.856   6.861  -0.103  0.00  0.00    -0.274 OA
ATOM     10  C   LIG d   1      10.494   5.298  -2.484  0.00  0.00     0.002 C 
ATOM     11  C   LIG d   1      10.301   4.666  -3.838  0.00  0.00    -0.015 A 
ATOM     12  C   LIG d   1      10.632   3.318  -4.254  0.00  0.00     0.003 A 
ATOM     13  C   LIG d   1      11.198   2.230  -3.582  0.00  0.00    -0.052 A 
ATOM     14  C   LIG d   1      11.372   1.077  -4.306  0.00  0.00    -0.061 A 
ATOM     15  C   LIG d   1      11.011   0.982  -5.640  0.00  0.00    -0.060 A 
ATOM     16  C   LIG d   1      10.450   2.043  -6.330  0.00  0.00    -0.038 A 
ATOM     17  C   LIG d   1      10.260   3.227  -5.620  0.00  0.00     0.047 A 
ATOM     18  N   LIG d   1       9.743   4.438  -5.981  0.00  0.00    -0.356 N 
ATOM     19  H   LIG d   1       9.406   4.660  -6.864  0.00  0.00     0.166 HD
ATOM     20  C   LIG d   1       9.771   5.291  -4.911  0.00  0.00     0.046 A 
ATOM     21  C   LIG d   1       9.291   6.725  -4.888  0.00  0.00     0.092 C 
ATOM     22  H   LIG d   1       8.202   6.752  -4.920  0.00  0.00     0.062 H 
ATOM     23  H   LIG d   1      10.244  10.260  -2.455  0.00  0.00     0.056 H 
ATOM     24  H   LIG d   1      11.840   9.498  -2.589  0.00  0.00     0.056 H 
ATOM     25  H   LIG d   1      10.197   4.595  -1.706  0.00  0.00     0.034 H 
ATOM     26  H   LIG d   1      11.542   5.569  -2.353  0.00  0.00     0.034 H 
ATOM     27  H   LIG d   1      11.483   2.294  -2.543  0.00  0.00     0.062 H 
ATOM     28  H   LIG d   1      11.806   0.215  -3.820  0.00  0.00     0.062 H 
ATOM     29  H   LIG d   1      11.173   0.050  -6.160  0.00  0.00     0.062 H 
ATOM     30  H   LIG d   1      10.173   1.957  -7.370  0.00  0.00     0.064 H 
ENDROOT
BRANCH   1  31
ATOM     31  C   LIG d   1      10.876   9.248   0.007  0.00  0.00     0.020 C 
ATOM     32  H   LIG d   1      10.815   8.529   0.824  0.00  0.00     0.047 H 
ATOM     33  H   LIG d   1      11.890   9.642  -0.055  0.00  0.00     0.047 H 
BRANCH  31  34
ATOM     34  C   LIG d   1       9.897  10.396   0.265  0.00  0.00     0.003 C 
ATOM     35  H   LIG d   1       9.269  10.541  -0.613  0.00  0.00     0.033 H 
ATOM     36  H   LIG d   1       9.271  10.154   1.124  0.00  0.00     0.033 H 
BRANCH  34  37
ATOM     37  C   LIG d   1      10.680  11.679   0.549  0.00  0.00    -0.031 C 
ATOM     38  H   LIG d   1      10.707  11.858   1.624  0.00  0.00     0.082 H 
ATOM     39  H   LIG d   1      11.697  11.575   0.172  0.00  0.00     0.082 H 
BRANCH  37  40
ATOM     40  N   LIG d   1       9.996  12.811  -0.112  0.00  0.00     0.231 N 
ATOM     41  H   LIG d   1       8.997  12.592  -0.199  0.00  0.00     0.203 HD
BRANCH  40  42
ATOM     42  C   LIG d   1      10.150  14.037   0.699  0.00  0.00    -0.043 C 
ATOM     43  H   LIG d   1      11.125  14.490   0.525  0.00  0.00     0.078 H 
ATOM     44  H   LIG d   1       9.366  14.744   0.425  0.00  0.00     0.078 H 
ATOM     45  H   LIG d   1      10.052  13.778   1.754  0.00  0.00     0.078 H 
ENDBRANCH  40  42
BRANCH  40  46
ATOM     46  C   LIG d   1      10.560  13.024  -1.462  0.00  0.00    -0.043 C 
ATOM     47  H   LIG d   1      11.424  13.684  -1.383  0.00  0.00     0.078 H 
ATOM     48  H   LIG d   1      10.873  12.064  -1.870  0.00  0.00     0.078 H 
ATOM     49  H   LIG d   1       9.817  13.475  -2.119  0.00  0.00     0.078 H 
ENDBRANCH  40  46
ENDBRANCH  37  40
ENDBRANCH  34  37
ENDBRANCH  31  34
ENDBRANCH   1  31
BRANCH  21  50
ATOM     50  C   LIG d   1       9.856   7.473  -6.067  0.00  0.00    -0.021 A 
ATOM     51  C   LIG d   1       9.047   8.336  -6.786  0.00  0.00    -0.056 A 
ATOM     52  C   LIG d   1       9.558   9.025  -7.867  0.00  0.00    -0.047 A 
ATOM     53  H   LIG d   1       8.014   8.469  -6.501  0.00  0.00     0.062 H 
ATOM     54  C   LIG d   1      10.894   8.850  -8.234  0.00  0.00     0.059 A 
ATOM     55  H   LIG d   1       8.926   9.697  -8.427  0.00  0.00     0.063 H 
ATOM     56  C   LIG d   1      11.704   7.979  -7.503  0.00  0.00    -0.047 A 
ATOM     57  C   LIG d   1      11.181   7.299  -6.422  0.00  0.00    -0.056 A 
ATOM     58  H   LIG d   1      12.738   7.839  -7.782  0.00  0.00     0.063 H 
ATOM     59  H   LIG d   1      11.808   6.629  -5.853  0.00  0.00     0.062 H 
BRANCH  54  60
ATOM     60  C   LIG d   1      11.448   9.584  -9.390  0.00  0.00     0.339 C 
ATOM     61  O   LIG d   1      12.448  10.262  -9.257  0.00  0.00    -0.245 OA
BRANCH  60  62
ATOM     62  O   LIG d   1      10.845   9.502 -10.592  0.00  0.00    -0.465 OA
BRANCH  62  63
ATOM     63  C   LIG d   1      10.913   8.224 -11.277  0.00  0.00     0.082 C 
ATOM     64  H   LIG d   1      11.508   8.329 -12.184  0.00  0.00     0.066 H 
ATOM     65  H   LIG d   1      11.375   7.484 -10.622  0.00  0.00     0.066 H 
ATOM     66  H   LIG d   1       9.906   7.898 -11.539  0.00  0.00     0.066 H 
ENDBRANCH  62  63
ENDBRANCH  60  62
ENDBRANCH  54  60
ENDBRANCH  21  50
TORSDOF 10
ENDMDL
