MODEL 1
REMARK VINA RESULT:      -6.6      0.000      0.000
REMARK  9 active torsions:
REMARK  status: ('A' for Active; 'I' for Inactive)
REMARK    1  A    between atoms: C_1  and  C_2 
REMARK    2  A    between atoms: C_2  and  C_3 
REMARK    3  A    between atoms: C_2  and  C_4 
REMARK    4  A    between atoms: C_2  and  C_5 
REMARK    5  A    between atoms: C_8  and  C_11 
REMARK       I    between atoms: C_11  and  N_13 
REMARK    6  A    between atoms: N_13  and  C_14 
REMARK    7  A    between atoms: C_17  and  C_21 
REMARK    8  A    between atoms: C_20  and  N_57 
REMARK    9  A    between atoms: C_23  and  C_26 
ROOT
ATOM      1  C   LIG d   1       9.818   4.075  -3.965  0.00  0.00     0.069 C 
ATOM      2  H   LIG d   1      10.697   3.499  -4.254  0.00  0.00     0.055 H 
ATOM      3  C   LIG d   1       9.542   5.207  -4.989  0.00  0.00     0.023 C 
ATOM      4  C   LIG d   1      10.515   6.314  -4.495  0.00  0.00     0.061 C 
ATOM      5  H   LIG d   1      11.522   6.128  -4.868  0.00  0.00     0.095 H 
ATOM      6  C   LIG d   1      10.077   4.844  -2.652  0.00  0.00    -0.012 C 
ATOM      7  H   LIG d   1       9.791   4.887  -6.001  0.00  0.00     0.035 H 
ATOM      8  H   LIG d   1       8.507   5.543  -4.932  0.00  0.00     0.035 H 
ATOM      9  H   LIG d   1       9.165   4.878  -2.056  0.00  0.00     0.083 H 
ATOM     10  H   LIG d   1      10.872   4.358  -2.088  0.00  0.00     0.083 H 
ATOM     11  N   LIG d   1      10.468   6.215  -3.024  0.00  0.00     0.243 N 
ATOM     12  H   LIG d   1       9.772   6.877  -2.663  0.00  0.00     0.204 HD
ENDROOT
BRANCH   1  13
ATOM     13  N   LIG d   1       8.649   3.202  -3.832  0.00  0.00    -0.303 N 
ATOM     14  C   LIG d   1       8.787   1.867  -3.966  0.00  0.00     0.244 C 
ATOM     15  O   LIG d   1       9.880   1.389  -4.197  0.00  0.00    -0.270 OA
ATOM     16  H   LIG d   1       7.777   3.583  -3.648  0.00  0.00     0.149 HD
BRANCH  14  17
ATOM     17  C   LIG d   1       7.607   0.985  -3.832  0.00  0.00     0.037 A 
ATOM     18  C   LIG d   1       6.434   1.469  -3.252  0.00  0.00    -0.049 A 
ATOM     19  C   LIG d   1       5.336   0.641  -3.130  0.00  0.00    -0.057 A 
ATOM     20  H   LIG d   1       6.384   2.488  -2.898  0.00  0.00     0.062 H 
ATOM     21  C   LIG d   1       5.397  -0.665  -3.582  0.00  0.00    -0.042 A 
ATOM     22  H   LIG d   1       4.427   1.014  -2.682  0.00  0.00     0.062 H 
ATOM     23  C   LIG d   1       6.559  -1.151  -4.158  0.00  0.00    -0.057 A 
ATOM     24  C   LIG d   1       7.661  -0.332  -4.291  0.00  0.00    -0.049 A 
ATOM     25  H   LIG d   1       6.600  -2.171  -4.508  0.00  0.00     0.062 H 
ATOM     26  H   LIG d   1       8.566  -0.710  -4.744  0.00  0.00     0.062 H 
BRANCH  21  27
ATOM     27  C   LIG d   1       4.196  -1.563  -3.445  0.00  0.00    -0.013 C 
BRANCH  27  28
ATOM     28  C   LIG d   1       4.048  -1.997  -1.985  0.00  0.00    -0.056 C 
ATOM     29  H   LIG d   1       3.169  -2.633  -1.881  0.00  0.00     0.024 H 
ATOM     30  H   LIG d   1       4.936  -2.551  -1.679  0.00  0.00     0.024 H 
ATOM     31  H   LIG d   1       3.936  -1.115  -1.354  0.00  0.00     0.024 H 
ENDBRANCH  27  28
BRANCH  27  32
ATOM     32  C   LIG d   1       2.940  -0.806  -3.882  0.00  0.00    -0.056 C 
ATOM     33  H   LIG d   1       2.161  -1.520  -4.149  0.00  0.00     0.024 H 
ATOM     34  H   LIG d   1       2.591  -0.177  -3.062  0.00  0.00     0.024 H 
ATOM     35  H   LIG d   1       3.173  -0.182  -4.744  0.00  0.00     0.024 H 
ENDBRANCH  27  32
BRANCH  27  36
ATOM     36  C   LIG d   1       4.380  -2.799  -4.328  0.00  0.00    -0.056 C 
ATOM     37  H   LIG d   1       5.415  -3.135  -4.271  0.00  0.00     0.024 H 
ATOM     38  H   LIG d   1       3.720  -3.595  -3.981  0.00  0.00     0.024 H 
ATOM     39  H   LIG d   1       4.135  -2.548  -5.360  0.00  0.00     0.024 H 
ENDBRANCH  27  36
ENDBRANCH  21  27
ENDBRANCH  14  17
ENDBRANCH   1  13
BRANCH  11  40
ATOM     40  C   LIG d   1      11.797   6.541  -2.444  0.00  0.00    -0.042 C 
ATOM     41  H   LIG d   1      11.780   7.545  -2.023  0.00  0.00     0.078 H 
ATOM     42  H   LIG d   1      12.032   5.822  -1.659  0.00  0.00     0.078 H 
ATOM     43  H   LIG d   1      12.556   6.486  -3.225  0.00  0.00     0.078 H 
ENDBRANCH  11  40
BRANCH   4  44
ATOM     44  C   LIG d   1      10.035   7.673  -4.936  0.00  0.00     0.276 A 
ATOM     45  O   LIG d   1       9.486   7.975  -6.116  0.00  0.00    -0.332 OA
ATOM     46  N   LIG d   1       9.209   9.156  -6.155  0.00  0.00    -0.056 NA
ATOM     47  C   LIG d   1       9.543   9.733  -5.031  0.00  0.00     0.204 A 
ATOM     48  N   LIG d   1      10.074   8.777  -4.234  0.00  0.00    -0.186 NA
BRANCH  47  49
ATOM     49  C   LIG d   1       9.367  11.166  -4.689  0.00  0.00     0.041 A 
ATOM     50  C   LIG d   1       8.710  11.539  -3.518  0.00  0.00     0.038 A 
ATOM     51  N   LIG d   1       8.557  12.811  -3.212  0.00  0.00    -0.263 NA
ATOM     52  H   LIG d   1       8.325  10.779  -2.855  0.00  0.00     0.084 H 
ATOM     53  C   LIG d   1       9.005  13.774  -3.994  0.00  0.00     0.028 A 
ATOM     54  C   LIG d   1       9.664  13.485  -5.175  0.00  0.00    -0.043 A 
ATOM     55  H   LIG d   1       8.854  14.805  -3.707  0.00  0.00     0.083 H 
ATOM     56  C   LIG d   1       9.854  12.163  -5.539  0.00  0.00    -0.048 A 
ATOM     57  H   LIG d   1      10.026  14.282  -5.808  0.00  0.00     0.063 H 
ATOM     58  H   LIG d   1      10.365  11.909  -6.456  0.00  0.00     0.063 H 
ENDBRANCH  47  49
ENDBRANCH   4  44
TORSDOF 9
ENDMDL
MODEL 2
REMARK VINA RESULT:      -6.6      3.884      5.098
REMARK  9 active torsions:
REMARK  status: ('A' for Active; 'I' for Inactive)
REMARK    1  A    between atoms: C_1  and  C_2 
REMARK    2  A    between atoms: C_2  and  C_3 
REMARK    3  A    between atoms: C_2  and  C_4 
REMARK    4  A    between atoms: C_2  and  C_5 
REMARK    5  A    between atoms: C_8  and  C_11 
REMARK       I    between atoms: C_11  and  N_13 
REMARK    6  A    between atoms: N_13  and  C_14 
REMARK    7  A    between atoms: C_17  and  C_21 
REMARK    8  A    between atoms: C_20  and  N_57 
REMARK    9  A    between atoms: C_23  and  C_26 
ROOT
ATOM      1  C   LIG d   1      10.152   3.644  -3.553  0.00  0.00     0.069 C 
ATOM      2  H   LIG d   1      10.260   3.852  -4.618  0.00  0.00     0.055 H 
ATOM      3  C   LIG d   1       9.890   4.953  -2.763  0.00  0.00     0.023 C 
ATOM      4  C   LIG d   1      11.334   5.499  -2.582  0.00  0.00     0.061 C 
ATOM      5  H   LIG d   1      11.656   6.025  -3.480  0.00  0.00     0.095 H 
ATOM      6  C   LIG d   1      11.483   3.135  -2.959  0.00  0.00    -0.012 C 
ATOM      7  H   LIG d   1       9.278   5.644  -3.344  0.00  0.00     0.035 H 
ATOM      8  H   LIG d   1       9.428   4.742  -1.799  0.00  0.00     0.035 H 
ATOM      9  H   LIG d   1      11.285   2.388  -2.191  0.00  0.00     0.083 H 
ATOM     10  H   LIG d   1      12.100   2.706  -3.747  0.00  0.00     0.083 H 
ATOM     11  N   LIG d   1      12.155   4.296  -2.348  0.00  0.00     0.243 N 
ATOM     12  H   LIG d   1      12.248   4.142  -1.338  0.00  0.00     0.204 HD
ENDROOT
BRANCH   1  13
ATOM     13  N   LIG d   1       9.078   2.676  -3.321  0.00  0.00    -0.303 N 
ATOM     14  C   LIG d   1       8.378   2.184  -4.364  0.00  0.00     0.244 C 
ATOM     15  O   LIG d   1       8.638   2.545  -5.495  0.00  0.00    -0.270 OA
ATOM     16  H   LIG d   1       8.870   2.388  -2.419  0.00  0.00     0.149 HD
BRANCH  14  17
ATOM     17  C   LIG d   1       7.293   1.207  -4.130  0.00  0.00     0.037 A 
ATOM     18  C   LIG d   1       7.208   0.055  -4.913  0.00  0.00    -0.049 A 
ATOM     19  C   LIG d   1       6.193  -0.854  -4.690  0.00  0.00    -0.057 A 
ATOM     20  H   LIG d   1       7.933  -0.125  -5.692  0.00  0.00     0.062 H 
ATOM     21  C   LIG d   1       5.263  -0.625  -3.692  0.00  0.00    -0.042 A 
ATOM     22  H   LIG d   1       6.126  -1.746  -5.294  0.00  0.00     0.062 H 
ATOM     23  C   LIG d   1       5.342   0.516  -2.912  0.00  0.00    -0.057 A 
ATOM     24  C   LIG d   1       6.354   1.430  -3.121  0.00  0.00    -0.049 A 
ATOM     25  H   LIG d   1       4.612   0.688  -2.135  0.00  0.00     0.062 H 
ATOM     26  H   LIG d   1       6.418   2.317  -2.509  0.00  0.00     0.062 H 
BRANCH  21  27
ATOM     27  C   LIG d   1       4.158  -1.621  -3.454  0.00  0.00    -0.013 C 
BRANCH  27  28
ATOM     28  C   LIG d   1       4.132  -2.008  -1.973  0.00  0.00    -0.056 C 
ATOM     29  H   LIG d   1       3.325  -1.475  -1.471  0.00  0.00     0.024 H 
ATOM     30  H   LIG d   1       3.969  -3.082  -1.882  0.00  0.00     0.024 H 
ATOM     31  H   LIG d   1       5.084  -1.746  -1.513  0.00  0.00     0.024 H 
ENDBRANCH  27  28
BRANCH  27  32
ATOM     32  C   LIG d   1       2.815  -0.996  -3.840  0.00  0.00    -0.056 C 
ATOM     33  H   LIG d   1       2.216  -0.839  -2.942  0.00  0.00     0.024 H 
ATOM     34  H   LIG d   1       2.988  -0.039  -4.334  0.00  0.00     0.024 H 
ATOM     35  H   LIG d   1       2.285  -1.665  -4.517  0.00  0.00     0.024 H 
ENDBRANCH  27  32
BRANCH  27  36
ATOM     36  C   LIG d   1       4.403  -2.869  -4.303  0.00  0.00    -0.056 C 
ATOM     37  H   LIG d   1       5.232  -2.686  -4.987  0.00  0.00     0.024 H 
ATOM     38  H   LIG d   1       4.648  -3.709  -3.653  0.00  0.00     0.024 H 
ATOM     39  H   LIG d   1       3.504  -3.102  -4.875  0.00  0.00     0.024 H 
ENDBRANCH  27  36
ENDBRANCH  21  27
ENDBRANCH  14  17
ENDBRANCH   1  13
BRANCH  11  40
ATOM     40  C   LIG d   1      13.506   4.473  -2.940  0.00  0.00    -0.042 C 
ATOM     41  H   LIG d   1      13.416   4.733  -3.995  0.00  0.00     0.078 H 
ATOM     42  H   LIG d   1      14.027   5.272  -2.413  0.00  0.00     0.078 H 
ATOM     43  H   LIG d   1      14.069   3.545  -2.841  0.00  0.00     0.078 H 
ENDBRANCH  11  40
BRANCH   4  44
ATOM     44  C   LIG d   1      11.405   6.413  -1.385  0.00  0.00     0.276 A 
ATOM     45  O   LIG d   1      11.537   7.742  -1.410  0.00  0.00    -0.332 OA
ATOM     46  N   LIG d   1      11.562   8.178  -0.277  0.00  0.00    -0.056 NA
ATOM     47  C   LIG d   1      11.451   7.199   0.583  0.00  0.00     0.204 A 
ATOM     48  N   LIG d   1      11.344   6.054  -0.127  0.00  0.00    -0.186 NA
BRANCH  47  49
ATOM     49  C   LIG d   1      11.439   7.323   2.061  0.00  0.00     0.041 A 
ATOM     50  C   LIG d   1      11.887   8.490   2.678  0.00  0.00     0.038 A 
ATOM     51  N   LIG d   1      11.872   8.603   3.990  0.00  0.00    -0.263 NA
ATOM     52  H   LIG d   1      12.246   9.310   2.074  0.00  0.00     0.084 H 
ATOM     53  C   LIG d   1      11.446   7.627   4.768  0.00  0.00     0.028 A 
ATOM     54  C   LIG d   1      10.990   6.436   4.233  0.00  0.00    -0.043 A 
ATOM     55  H   LIG d   1      11.456   7.759   5.840  0.00  0.00     0.083 H 
ATOM     56  C   LIG d   1      10.982   6.270   2.859  0.00  0.00    -0.048 A 
ATOM     57  H   LIG d   1      10.644   5.643   4.880  0.00  0.00     0.063 H 
ATOM     58  H   LIG d   1      10.630   5.351   2.413  0.00  0.00     0.063 H 
ENDBRANCH  47  49
ENDBRANCH   4  44
TORSDOF 9
ENDMDL
MODEL 3
REMARK VINA RESULT:      -6.5      3.289      4.119
REMARK  9 active torsions:
REMARK  status: ('A' for Active; 'I' for Inactive)
REMARK    1  A    between atoms: C_1  and  C_2 
REMARK    2  A    between atoms: C_2  and  C_3 
REMARK    3  A    between atoms: C_2  and  C_4 
REMARK    4  A    between atoms: C_2  and  C_5 
REMARK    5  A    between atoms: C_8  and  C_11 
REMARK       I    between atoms: C_11  and  N_13 
REMARK    6  A    between atoms: N_13  and  C_14 
REMARK    7  A    between atoms: C_17  and  C_21 
REMARK    8  A    between atoms: C_20  and  N_57 
REMARK    9  A    between atoms: C_23  and  C_26 
ROOT
ATOM      1  C   LIG d   1      10.241   3.503  -3.558  0.00  0.00     0.069 C 
ATOM      2  H   LIG d   1      10.301   3.764  -4.615  0.00  0.00     0.055 H 
ATOM      3  C   LIG d   1      10.059   4.775  -2.689  0.00  0.00     0.023 C 
ATOM      4  C   LIG d   1      11.526   5.270  -2.555  0.00  0.00     0.061 C 
ATOM      5  H   LIG d   1      11.818   5.834  -3.440  0.00  0.00     0.095 H 
ATOM      6  C   LIG d   1      11.584   2.927  -3.061  0.00  0.00    -0.012 C 
ATOM      7  H   LIG d   1       9.439   5.513  -3.201  0.00  0.00     0.035 H 
ATOM      8  H   LIG d   1       9.640   4.526  -1.714  0.00  0.00     0.035 H 
ATOM      9  H   LIG d   1      11.402   2.145  -2.324  0.00  0.00     0.083 H 
ATOM     10  H   LIG d   1      12.147   2.523  -3.901  0.00  0.00     0.083 H 
ATOM     11  N   LIG d   1      12.321   4.034  -2.426  0.00  0.00     0.243 N 
ATOM     12  H   LIG d   1      12.460   3.824  -1.432  0.00  0.00     0.204 HD
ENDROOT
BRANCH   1  13
ATOM     13  N   LIG d   1       9.151   2.554  -3.321  0.00  0.00    -0.303 N 
ATOM     14  C   LIG d   1       8.362   2.166  -4.344  0.00  0.00     0.244 C 
ATOM     15  O   LIG d   1       8.555   2.603  -5.461  0.00  0.00    -0.270 OA
ATOM     16  H   LIG d   1       8.996   2.205  -2.430  0.00  0.00     0.149 HD
BRANCH  14  17
ATOM     17  C   LIG d   1       7.261   1.207  -4.105  0.00  0.00     0.037 A 
ATOM     18  C   LIG d   1       6.360   1.423  -3.062  0.00  0.00    -0.049 A 
ATOM     19  C   LIG d   1       5.334   0.525  -2.844  0.00  0.00    -0.057 A 
ATOM     20  H   LIG d   1       6.463   2.289  -2.426  0.00  0.00     0.062 H 
ATOM     21  C   LIG d   1       5.199  -0.586  -3.658  0.00  0.00    -0.042 A 
ATOM     22  H   LIG d   1       4.635   0.691  -2.038  0.00  0.00     0.062 H 
ATOM     23  C   LIG d   1       6.090  -0.805  -4.694  0.00  0.00    -0.057 A 
ATOM     24  C   LIG d   1       7.116   0.088  -4.926  0.00  0.00    -0.049 A 
ATOM     25  H   LIG d   1       5.979  -1.674  -5.325  0.00  0.00     0.062 H 
ATOM     26  H   LIG d   1       7.809  -0.082  -5.737  0.00  0.00     0.062 H 
BRANCH  21  27
ATOM     27  C   LIG d   1       4.078  -1.562  -3.415  0.00  0.00    -0.013 C 
BRANCH  27  28
ATOM     28  C   LIG d   1       4.293  -2.809  -4.275  0.00  0.00    -0.056 C 
ATOM     29  H   LIG d   1       5.354  -3.057  -4.299  0.00  0.00     0.024 H 
ATOM     30  H   LIG d   1       3.735  -3.644  -3.850  0.00  0.00     0.024 H 
ATOM     31  H   LIG d   1       3.941  -2.616  -5.289  0.00  0.00     0.024 H 
ENDBRANCH  27  28
BRANCH  27  32
ATOM     32  C   LIG d   1       4.058  -1.960  -1.937  0.00  0.00    -0.056 C 
ATOM     33  H   LIG d   1       5.043  -1.790  -1.502  0.00  0.00     0.024 H 
ATOM     34  H   LIG d   1       3.319  -1.357  -1.408  0.00  0.00     0.024 H 
ATOM     35  H   LIG d   1       3.798  -3.014  -1.849  0.00  0.00     0.024 H 
ENDBRANCH  27  32
BRANCH  27  36
ATOM     36  C   LIG d   1       2.744  -0.911  -3.786  0.00  0.00    -0.056 C 
ATOM     37  H   LIG d   1       1.925  -1.565  -3.488  0.00  0.00     0.024 H 
ATOM     38  H   LIG d   1       2.650   0.046  -3.271  0.00  0.00     0.024 H 
ATOM     39  H   LIG d   1       2.707  -0.749  -4.864  0.00  0.00     0.024 H 
ENDBRANCH  27  36
ENDBRANCH  21  27
ENDBRANCH  14  17
ENDBRANCH   1  13
BRANCH  11  40
ATOM     40  C   LIG d   1      13.645   4.205  -3.078  0.00  0.00    -0.042 C 
ATOM     41  H   LIG d   1      14.005   3.243  -3.442  0.00  0.00     0.078 H 
ATOM     42  H   LIG d   1      13.546   4.895  -3.916  0.00  0.00     0.078 H 
ATOM     43  H   LIG d   1      14.354   4.610  -2.356  0.00  0.00     0.078 H 
ENDBRANCH  11  40
BRANCH   4  44
ATOM     44  C   LIG d   1      11.685   6.117  -1.318  0.00  0.00     0.276 A 
ATOM     45  O   LIG d   1      11.928   5.675  -0.081  0.00  0.00    -0.332 OA
ATOM     46  N   LIG d   1      12.001   6.612   0.688  0.00  0.00    -0.056 NA
ATOM     47  C   LIG d   1      11.817   7.735   0.045  0.00  0.00     0.204 A 
ATOM     48  N   LIG d   1      11.617   7.423  -1.255  0.00  0.00    -0.186 NA
BRANCH  47  49
ATOM     49  C   LIG d   1      11.830   9.098   0.632  0.00  0.00     0.041 A 
ATOM     50  C   LIG d   1      11.509  10.207  -0.148  0.00  0.00     0.038 A 
ATOM     51  N   LIG d   1      11.516  11.417   0.373  0.00  0.00    -0.263 NA
ATOM     52  H   LIG d   1      11.249  10.074  -1.187  0.00  0.00     0.084 H 
ATOM     53  C   LIG d   1      11.833  11.630   1.636  0.00  0.00     0.028 A 
ATOM     54  C   LIG d   1      12.168  10.582   2.473  0.00  0.00    -0.043 A 
ATOM     55  H   LIG d   1      11.831  12.639   2.022  0.00  0.00     0.083 H 
ATOM     56  C   LIG d   1      12.170   9.290   1.974  0.00  0.00    -0.048 A 
ATOM     57  H   LIG d   1      12.426  10.767   3.505  0.00  0.00     0.063 H 
ATOM     58  H   LIG d   1      12.428   8.452   2.605  0.00  0.00     0.063 H 
ENDBRANCH  47  49
ENDBRANCH   4  44
TORSDOF 9
ENDMDL
MODEL 4
REMARK VINA RESULT:      -6.5      7.995     11.873
REMARK  9 active torsions:
REMARK  status: ('A' for Active; 'I' for Inactive)
REMARK    1  A    between atoms: C_1  and  C_2 
REMARK    2  A    between atoms: C_2  and  C_3 
REMARK    3  A    between atoms: C_2  and  C_4 
REMARK    4  A    between atoms: C_2  and  C_5 
REMARK    5  A    between atoms: C_8  and  C_11 
REMARK       I    between atoms: C_11  and  N_13 
REMARK    6  A    between atoms: N_13  and  C_14 
REMARK    7  A    between atoms: C_17  and  C_21 
REMARK    8  A    between atoms: C_20  and  N_57 
REMARK    9  A    between atoms: C_23  and  C_26 
ROOT
ATOM      1  C   LIG d   1      10.715  -5.525  -3.258  0.00  0.00     0.069 C 
ATOM      2  H   LIG d   1      11.184  -6.025  -4.106  0.00  0.00     0.055 H 
ATOM      3  C   LIG d   1       9.191  -5.359  -3.493  0.00  0.00     0.023 C 
ATOM      4  C   LIG d   1       9.152  -4.071  -4.361  0.00  0.00     0.061 C 
ATOM      5  H   LIG d   1       9.355  -4.310  -5.404  0.00  0.00     0.095 H 
ATOM      6  C   LIG d   1      11.214  -4.070  -3.138  0.00  0.00    -0.012 C 
ATOM      7  H   LIG d   1       8.784  -6.213  -4.035  0.00  0.00     0.035 H 
ATOM      8  H   LIG d   1       8.664  -5.212  -2.550  0.00  0.00     0.035 H 
ATOM      9  H   LIG d   1      11.293  -3.790  -2.087  0.00  0.00     0.083 H 
ATOM     10  H   LIG d   1      12.183  -3.969  -3.624  0.00  0.00     0.083 H 
ATOM     11  N   LIG d   1      10.211  -3.214  -3.797  0.00  0.00     0.243 N 
ATOM     12  H   LIG d   1       9.799  -2.579  -3.104  0.00  0.00     0.204 HD
ENDROOT
BRANCH   1  13
ATOM     13  N   LIG d   1      10.971  -6.265  -2.019  0.00  0.00    -0.303 N 
ATOM     14  C   LIG d   1      11.209  -7.591  -2.063  0.00  0.00     0.244 C 
ATOM     15  O   LIG d   1      11.211  -8.173  -3.129  0.00  0.00    -0.270 OA
ATOM     16  H   LIG d   1      10.968  -5.800  -1.168  0.00  0.00     0.149 HD
BRANCH  14  17
ATOM     17  C   LIG d   1      11.466  -8.337  -0.812  0.00  0.00     0.037 A 
ATOM     18  C   LIG d   1      12.678  -8.179  -0.140  0.00  0.00    -0.049 A 
ATOM     19  C   LIG d   1      12.913  -8.878   1.027  0.00  0.00    -0.057 A 
ATOM     20  H   LIG d   1      13.432  -7.512  -0.531  0.00  0.00     0.062 H 
ATOM     21  C   LIG d   1      11.949  -9.733   1.531  0.00  0.00    -0.042 A 
ATOM     22  H   LIG d   1      13.850  -8.755   1.550  0.00  0.00     0.062 H 
ATOM     23  C   LIG d   1      10.744  -9.894   0.868  0.00  0.00    -0.057 A 
ATOM     24  C   LIG d   1      10.495  -9.197  -0.297  0.00  0.00    -0.049 A 
ATOM     25  H   LIG d   1       9.997 -10.564   1.266  0.00  0.00     0.062 H 
ATOM     26  H   LIG d   1       9.553  -9.321  -0.811  0.00  0.00     0.062 H 
BRANCH  21  27
ATOM     27  C   LIG d   1      12.211 -10.493   2.804  0.00  0.00    -0.013 C 
BRANCH  27  28
ATOM     28  C   LIG d   1      13.222 -11.610   2.532  0.00  0.00    -0.056 C 
ATOM     29  H   LIG d   1      12.721 -12.576   2.594  0.00  0.00     0.024 H 
ATOM     30  H   LIG d   1      13.643 -11.483   1.534  0.00  0.00     0.024 H 
ATOM     31  H   LIG d   1      14.021 -11.565   3.271  0.00  0.00     0.024 H 
ENDBRANCH  27  28
BRANCH  27  32
ATOM     32  C   LIG d   1      12.777  -9.541   3.860  0.00  0.00    -0.056 C 
ATOM     33  H   LIG d   1      13.842  -9.390   3.680  0.00  0.00     0.024 H 
ATOM     34  H   LIG d   1      12.260  -8.583   3.801  0.00  0.00     0.024 H 
ATOM     35  H   LIG d   1      12.633  -9.971   4.851  0.00  0.00     0.024 H 
ENDBRANCH  27  32
BRANCH  27  36
ATOM     36  C   LIG d   1      10.903 -11.102   3.314  0.00  0.00    -0.056 C 
ATOM     37  H   LIG d   1      11.056 -11.502   4.316  0.00  0.00     0.024 H 
ATOM     38  H   LIG d   1      10.131 -10.333   3.344  0.00  0.00     0.024 H 
ATOM     39  H   LIG d   1      10.591 -11.904   2.645  0.00  0.00     0.024 H 
ENDBRANCH  27  36
ENDBRANCH  21  27
ENDBRANCH  14  17
ENDBRANCH   1  13
BRANCH  11  40
ATOM     40  C   LIG d   1      10.852  -2.414  -4.872  0.00  0.00    -0.042 C 
ATOM     41  H   LIG d   1      11.855  -2.119  -4.565  0.00  0.00     0.078 H 
ATOM     42  H   LIG d   1      10.911  -3.014  -5.779  0.00  0.00     0.078 H 
ATOM     43  H   LIG d   1      10.253  -1.523  -5.065  0.00  0.00     0.078 H 
ENDBRANCH  11  40
BRANCH   4  44
ATOM     44  C   LIG d   1       7.813  -3.389  -4.231  0.00  0.00     0.276 A 
ATOM     45  O   LIG d   1       6.660  -3.798  -4.768  0.00  0.00    -0.332 OA
ATOM     46  N   LIG d   1       5.770  -3.027  -4.475  0.00  0.00    -0.056 NA
ATOM     47  C   LIG d   1       6.240  -2.058  -3.734  0.00  0.00     0.204 A 
ATOM     48  N   LIG d   1       7.562  -2.289  -3.567  0.00  0.00    -0.186 NA
BRANCH  47  49
ATOM     49  C   LIG d   1       5.467  -0.922  -3.174  0.00  0.00     0.041 A 
ATOM     50  C   LIG d   1       6.069   0.320  -2.987  0.00  0.00     0.038 A 
ATOM     51  N   LIG d   1       5.382   1.330  -2.495  0.00  0.00    -0.263 NA
ATOM     52  H   LIG d   1       7.107   0.456  -3.250  0.00  0.00     0.084 H 
ATOM     53  C   LIG d   1       4.114   1.210  -2.155  0.00  0.00     0.028 A 
ATOM     54  C   LIG d   1       3.446   0.009  -2.306  0.00  0.00    -0.043 A 
ATOM     55  H   LIG d   1       3.589   2.063  -1.750  0.00  0.00     0.083 H 
ATOM     56  C   LIG d   1       4.123  -1.082  -2.823  0.00  0.00    -0.048 A 
ATOM     57  H   LIG d   1       2.407  -0.078  -2.023  0.00  0.00     0.063 H 
ATOM     58  H   LIG d   1       3.626  -2.032  -2.953  0.00  0.00     0.063 H 
ENDBRANCH  47  49
ENDBRANCH   4  44
TORSDOF 9
ENDMDL
MODEL 5
REMARK VINA RESULT:      -6.5      1.645      1.941
REMARK  9 active torsions:
REMARK  status: ('A' for Active; 'I' for Inactive)
REMARK    1  A    between atoms: C_1  and  C_2 
REMARK    2  A    between atoms: C_2  and  C_3 
REMARK    3  A    between atoms: C_2  and  C_4 
REMARK    4  A    between atoms: C_2  and  C_5 
REMARK    5  A    between atoms: C_8  and  C_11 
REMARK       I    between atoms: C_11  and  N_13 
REMARK    6  A    between atoms: N_13  and  C_14 
REMARK    7  A    between atoms: C_17  and  C_21 
REMARK    8  A    between atoms: C_20  and  N_57 
REMARK    9  A    between atoms: C_23  and  C_26 
ROOT
ATOM      1  C   LIG d   1       9.945   4.050  -3.593  0.00  0.00     0.069 C 
ATOM      2  H   LIG d   1      10.497   3.824  -4.505  0.00  0.00     0.055 H 
ATOM      3  C   LIG d   1       9.463   5.524  -3.594  0.00  0.00     0.023 C 
ATOM      4  C   LIG d   1      10.734   6.264  -3.090  0.00  0.00     0.061 C 
ATOM      5  H   LIG d   1      11.433   6.420  -3.911  0.00  0.00     0.095 H 
ATOM      6  C   LIG d   1      10.873   3.983  -2.362  0.00  0.00    -0.012 C 
ATOM      7  H   LIG d   1       9.194   5.846  -4.600  0.00  0.00     0.035 H 
ATOM      8  H   LIG d   1       8.631   5.664  -2.906  0.00  0.00     0.035 H 
ATOM      9  H   LIG d   1      10.326   3.588  -1.506  0.00  0.00     0.083 H 
ATOM     10  H   LIG d   1      11.733   3.350  -2.580  0.00  0.00     0.083 H 
ATOM     11  N   LIG d   1      11.305   5.362  -2.072  0.00  0.00     0.243 N 
ATOM     12  H   LIG d   1      10.960   5.638  -1.145  0.00  0.00     0.204 HD
ENDROOT
BRANCH   1  13
ATOM     13  N   LIG d   1       8.811   3.135  -3.437  0.00  0.00    -0.303 N 
ATOM     14  C   LIG d   1       8.832   1.928  -4.036  0.00  0.00     0.244 C 
ATOM     15  O   LIG d   1       9.791   1.598  -4.706  0.00  0.00    -0.270 OA
ATOM     16  H   LIG d   1       8.045   3.399  -2.903  0.00  0.00     0.149 HD
BRANCH  14  17
ATOM     17  C   LIG d   1       7.687   1.004  -3.879  0.00  0.00     0.037 A 
ATOM     18  C   LIG d   1       6.540   1.421  -3.203  0.00  0.00    -0.049 A 
ATOM     19  C   LIG d   1       5.475   0.555  -3.059  0.00  0.00    -0.057 A 
ATOM     20  H   LIG d   1       6.484   2.419  -2.793  0.00  0.00     0.062 H 
ATOM     21  C   LIG d   1       5.543  -0.723  -3.584  0.00  0.00    -0.042 A 
ATOM     22  H   LIG d   1       4.586   0.877  -2.538  0.00  0.00     0.062 H 
ATOM     23  C   LIG d   1       6.679  -1.143  -4.255  0.00  0.00    -0.057 A 
ATOM     24  C   LIG d   1       7.749  -0.285  -4.410  0.00  0.00    -0.049 A 
ATOM     25  H   LIG d   1       6.726  -2.142  -4.661  0.00  0.00     0.062 H 
ATOM     26  H   LIG d   1       8.633  -0.611  -4.937  0.00  0.00     0.062 H 
BRANCH  21  27
ATOM     27  C   LIG d   1       4.378  -1.663  -3.424  0.00  0.00    -0.013 C 
BRANCH  27  28
ATOM     28  C   LIG d   1       4.164  -1.960  -1.937  0.00  0.00    -0.056 C 
ATOM     29  H   LIG d   1       4.590  -1.155  -1.340  0.00  0.00     0.024 H 
ATOM     30  H   LIG d   1       3.095  -2.037  -1.733  0.00  0.00     0.024 H 
ATOM     31  H   LIG d   1       4.650  -2.901  -1.681  0.00  0.00     0.024 H 
ENDBRANCH  27  28
BRANCH  27  32
ATOM     32  C   LIG d   1       3.116  -1.017  -4.001  0.00  0.00    -0.056 C 
ATOM     33  H   LIG d   1       3.382  -0.083  -4.497  0.00  0.00     0.024 H 
ATOM     34  H   LIG d   1       2.658  -1.694  -4.721  0.00  0.00     0.024 H 
ATOM     35  H   LIG d   1       2.412  -0.812  -3.195  0.00  0.00     0.024 H 
ENDBRANCH  27  32
BRANCH  27  36
ATOM     36  C   LIG d   1       4.668  -2.969  -4.167  0.00  0.00    -0.056 C 
ATOM     37  H   LIG d   1       3.786  -3.269  -4.731  0.00  0.00     0.024 H 
ATOM     38  H   LIG d   1       5.503  -2.819  -4.852  0.00  0.00     0.024 H 
ATOM     39  H   LIG d   1       4.923  -3.747  -3.448  0.00  0.00     0.024 H 
ENDBRANCH  27  36
ENDBRANCH  21  27
ENDBRANCH  14  17
ENDBRANCH   1  13
BRANCH  11  40
ATOM     40  C   LIG d   1      12.788   5.445  -2.085  0.00  0.00    -0.042 C 
ATOM     41  H   LIG d   1      13.106   6.430  -1.743  0.00  0.00     0.078 H 
ATOM     42  H   LIG d   1      13.196   4.682  -1.422  0.00  0.00     0.078 H 
ATOM     43  H   LIG d   1      13.151   5.277  -3.099  0.00  0.00     0.078 H 
ENDBRANCH  11  40
BRANCH   4  44
ATOM     44  C   LIG d   1      10.361   7.582  -2.461  0.00  0.00     0.276 A 
ATOM     45  O   LIG d   1      10.050   7.789  -1.178  0.00  0.00    -0.332 OA
ATOM     46  N   LIG d   1       9.800   8.962  -0.996  0.00  0.00    -0.056 NA
ATOM     47  C   LIG d   1       9.918   9.626  -2.116  0.00  0.00     0.204 A 
ATOM     48  N   LIG d   1      10.287   8.740  -3.068  0.00  0.00    -0.186 NA
BRANCH  47  49
ATOM     49  C   LIG d   1       9.696  11.081  -2.305  0.00  0.00     0.041 A 
ATOM     50  C   LIG d   1       8.620  11.540  -3.062  0.00  0.00     0.038 A 
ATOM     51  N   LIG d   1       8.420  12.832  -3.226  0.00  0.00    -0.263 NA
ATOM     52  H   LIG d   1       7.943  10.832  -3.514  0.00  0.00     0.084 H 
ATOM     53  C   LIG d   1       9.222  13.734  -2.698  0.00  0.00     0.028 A 
ATOM     54  C   LIG d   1      10.314  13.359  -1.937  0.00  0.00    -0.043 A 
ATOM     55  H   LIG d   1       9.024  14.783  -2.861  0.00  0.00     0.083 H 
ATOM     56  C   LIG d   1      10.566  12.013  -1.731  0.00  0.00    -0.048 A 
ATOM     57  H   LIG d   1      10.966  14.106  -1.509  0.00  0.00     0.063 H 
ATOM     58  H   LIG d   1      11.411  11.691  -1.141  0.00  0.00     0.063 H 
ENDBRANCH  47  49
ENDBRANCH   4  44
TORSDOF 9
ENDMDL
MODEL 6
REMARK VINA RESULT:      -6.5      8.730     13.758
REMARK  9 active torsions:
REMARK  status: ('A' for Active; 'I' for Inactive)
REMARK    1  A    between atoms: C_1  and  C_2 
REMARK    2  A    between atoms: C_2  and  C_3 
REMARK    3  A    between atoms: C_2  and  C_4 
REMARK    4  A    between atoms: C_2  and  C_5 
REMARK    5  A    between atoms: C_8  and  C_11 
REMARK       I    between atoms: C_11  and  N_13 
REMARK    6  A    between atoms: N_13  and  C_14 
REMARK    7  A    between atoms: C_17  and  C_21 
REMARK    8  A    between atoms: C_20  and  N_57 
REMARK    9  A    between atoms: C_23  and  C_26 
ROOT
ATOM      1  C   LIG d   1       9.241  -5.361  -4.252  0.00  0.00     0.069 C 
ATOM      2  H   LIG d   1       9.951  -4.880  -4.925  0.00  0.00     0.055 H 
ATOM      3  C   LIG d   1       9.897  -5.649  -2.877  0.00  0.00     0.023 C 
ATOM      4  C   LIG d   1      10.638  -6.985  -3.162  0.00  0.00     0.061 C 
ATOM      5  H   LIG d   1      11.591  -6.793  -3.653  0.00  0.00     0.095 H 
ATOM      6  C   LIG d   1       8.869  -6.768  -4.766  0.00  0.00    -0.012 C 
ATOM      7  H   LIG d   1      10.599  -4.859  -2.606  0.00  0.00     0.035 H 
ATOM      8  H   LIG d   1       9.142  -5.778  -2.103  0.00  0.00     0.035 H 
ATOM      9  H   LIG d   1       7.823  -6.980  -4.544  0.00  0.00     0.083 H 
ATOM     10  H   LIG d   1       9.042  -6.828  -5.840  0.00  0.00     0.083 H 
ATOM     11  N   LIG d   1       9.725  -7.730  -4.048  0.00  0.00     0.243 N 
ATOM     12  H   LIG d   1       9.136  -8.352  -3.482  0.00  0.00     0.204 HD
ENDROOT
BRANCH   1  13
ATOM     13  N   LIG d   1       8.042  -4.535  -4.091  0.00  0.00    -0.303 N 
ATOM     14  C   LIG d   1       8.128  -3.194  -4.200  0.00  0.00     0.244 C 
ATOM     15  O   LIG d   1       9.200  -2.671  -4.433  0.00  0.00    -0.270 OA
ATOM     16  H   LIG d   1       7.186  -4.952  -3.905  0.00  0.00     0.149 HD
BRANCH  14  17
ATOM     17  C   LIG d   1       6.917  -2.360  -4.038  0.00  0.00     0.037 A 
ATOM     18  C   LIG d   1       5.659  -2.890  -4.321  0.00  0.00    -0.049 A 
ATOM     19  C   LIG d   1       4.533  -2.107  -4.167  0.00  0.00    -0.057 A 
ATOM     20  H   LIG d   1       5.565  -3.911  -4.660  0.00  0.00     0.062 H 
ATOM     21  C   LIG d   1       4.650  -0.799  -3.732  0.00  0.00    -0.042 A 
ATOM     22  H   LIG d   1       3.558  -2.517  -4.385  0.00  0.00     0.062 H 
ATOM     23  C   LIG d   1       5.897  -0.267  -3.450  0.00  0.00    -0.057 A 
ATOM     24  C   LIG d   1       7.030  -1.041  -3.594  0.00  0.00    -0.049 A 
ATOM     25  H   LIG d   1       5.982   0.755  -3.111  0.00  0.00     0.062 H 
ATOM     26  H   LIG d   1       8.001  -0.626  -3.370  0.00  0.00     0.062 H 
BRANCH  21  27
ATOM     27  C   LIG d   1       3.418   0.050  -3.566  0.00  0.00    -0.013 C 
BRANCH  27  28
ATOM     28  C   LIG d   1       3.763   1.294  -2.742  0.00  0.00    -0.056 C 
ATOM     29  H   LIG d   1       3.496   2.188  -3.304  0.00  0.00     0.024 H 
ATOM     30  H   LIG d   1       3.207   1.274  -1.805  0.00  0.00     0.024 H 
ATOM     31  H   LIG d   1       4.832   1.303  -2.530  0.00  0.00     0.024 H 
ENDBRANCH  27  28
BRANCH  27  32
ATOM     32  C   LIG d   1       2.903   0.478  -4.942  0.00  0.00    -0.056 C 
ATOM     33  H   LIG d   1       3.273   1.477  -5.173  0.00  0.00     0.024 H 
ATOM     34  H   LIG d   1       3.257  -0.224  -5.697  0.00  0.00     0.024 H 
ATOM     35  H   LIG d   1       1.813   0.486  -4.936  0.00  0.00     0.024 H 
ENDBRANCH  27  32
BRANCH  27  36
ATOM     36  C   LIG d   1       2.336  -0.755  -2.844  0.00  0.00    -0.056 C 
ATOM     37  H   LIG d   1       1.800  -0.105  -2.153  0.00  0.00     0.024 H 
ATOM     38  H   LIG d   1       1.637  -1.163  -3.574  0.00  0.00     0.024 H 
ATOM     39  H   LIG d   1       2.800  -1.571  -2.290  0.00  0.00     0.024 H 
ENDBRANCH  27  36
ENDBRANCH  21  27
ENDBRANCH  14  17
ENDBRANCH   1  13
BRANCH  11  40
ATOM     40  C   LIG d   1      10.501  -8.544  -5.019  0.00  0.00    -0.042 C 
ATOM     41  H   LIG d   1      11.239  -9.146  -4.490  0.00  0.00     0.078 H 
ATOM     42  H   LIG d   1       9.821  -9.199  -5.563  0.00  0.00     0.078 H 
ATOM     43  H   LIG d   1      11.008  -7.883  -5.722  0.00  0.00     0.078 H 
ENDBRANCH  11  40
BRANCH   4  44
ATOM     44  C   LIG d   1      10.853  -7.751  -1.882  0.00  0.00     0.276 A 
ATOM     45  O   LIG d   1      10.481  -9.011  -1.639  0.00  0.00    -0.332 OA
ATOM     46  N   LIG d   1      10.802  -9.330  -0.513  0.00  0.00    -0.056 NA
ATOM     47  C   LIG d   1      11.403  -8.333   0.081  0.00  0.00     0.204 A 
ATOM     48  N   LIG d   1      11.445  -7.309  -0.801  0.00  0.00    -0.186 NA
BRANCH  47  49
ATOM     49  C   LIG d   1      11.945  -8.329   1.463  0.00  0.00     0.041 A 
ATOM     50  C   LIG d   1      11.086  -8.296   2.560  0.00  0.00     0.038 A 
ATOM     51  N   LIG d   1      11.566  -8.297   3.786  0.00  0.00    -0.263 NA
ATOM     52  H   LIG d   1      10.019  -8.274   2.402  0.00  0.00     0.084 H 
ATOM     53  C   LIG d   1      12.862  -8.319   4.027  0.00  0.00     0.028 A 
ATOM     54  C   LIG d   1      13.779  -8.347   2.993  0.00  0.00    -0.043 A 
ATOM     55  H   LIG d   1      13.214  -8.314   5.049  0.00  0.00     0.083 H 
ATOM     56  C   LIG d   1      13.325  -8.352   1.684  0.00  0.00    -0.048 A 
ATOM     57  H   LIG d   1      14.839  -8.365   3.201  0.00  0.00     0.063 H 
ATOM     58  H   LIG d   1      14.018  -8.374   0.857  0.00  0.00     0.063 H 
ENDBRANCH  47  49
ENDBRANCH   4  44
TORSDOF 9
ENDMDL
MODEL 7
REMARK VINA RESULT:      -6.5      1.294      2.070
REMARK  9 active torsions:
REMARK  status: ('A' for Active; 'I' for Inactive)
REMARK    1  A    between atoms: C_1  and  C_2 
REMARK    2  A    between atoms: C_2  and  C_3 
REMARK    3  A    between atoms: C_2  and  C_4 
REMARK    4  A    between atoms: C_2  and  C_5 
REMARK    5  A    between atoms: C_8  and  C_11 
REMARK       I    between atoms: C_11  and  N_13 
REMARK    6  A    between atoms: N_13  and  C_14 
REMARK    7  A    between atoms: C_17  and  C_21 
REMARK    8  A    between atoms: C_20  and  N_57 
REMARK    9  A    between atoms: C_23  and  C_26 
ROOT
ATOM      1  C   LIG d   1      10.300   3.638  -3.662  0.00  0.00     0.069 C 
ATOM      2  H   LIG d   1      11.063   3.074  -4.198  0.00  0.00     0.055 H 
ATOM      3  C   LIG d   1       9.946   4.942  -4.424  0.00  0.00     0.023 C 
ATOM      4  C   LIG d   1      11.080   5.893  -3.950  0.00  0.00     0.061 C 
ATOM      5  H   LIG d   1      11.986   5.720  -4.529  0.00  0.00     0.095 H 
ATOM      6  C   LIG d   1      10.848   4.154  -2.315  0.00  0.00    -0.012 C 
ATOM      7  H   LIG d   1       9.986   4.788  -5.503  0.00  0.00     0.035 H 
ATOM      8  H   LIG d   1       8.969   5.318  -4.122  0.00  0.00     0.035 H 
ATOM      9  H   LIG d   1      10.060   4.135  -1.562  0.00  0.00     0.083 H 
ATOM     10  H   LIG d   1      11.686   3.537  -1.995  0.00  0.00     0.083 H 
ATOM     11  N   LIG d   1      11.282   5.547  -2.531  0.00  0.00     0.243 N 
ATOM     12  H   LIG d   1      10.718   6.173  -1.946  0.00  0.00     0.204 HD
ENDROOT
BRANCH   1  13
ATOM     13  N   LIG d   1       9.103   2.819  -3.455  0.00  0.00    -0.303 N 
ATOM     14  C   LIG d   1       8.942   1.674  -4.149  0.00  0.00     0.244 C 
ATOM     15  O   LIG d   1       9.789   1.322  -4.946  0.00  0.00    -0.270 OA
ATOM     16  H   LIG d   1       8.427   3.100  -2.819  0.00  0.00     0.149 HD
BRANCH  14  17
ATOM     17  C   LIG d   1       7.734   0.847  -3.939  0.00  0.00     0.037 A 
ATOM     18  C   LIG d   1       7.746  -0.507  -4.275  0.00  0.00    -0.049 A 
ATOM     19  C   LIG d   1       6.615  -1.274  -4.077  0.00  0.00    -0.057 A 
ATOM     20  H   LIG d   1       8.637  -0.955  -4.689  0.00  0.00     0.062 H 
ATOM     21  C   LIG d   1       5.472  -0.702  -3.546  0.00  0.00    -0.042 A 
ATOM     22  H   LIG d   1       6.623  -2.322  -4.335  0.00  0.00     0.062 H 
ATOM     23  C   LIG d   1       5.454   0.641  -3.212  0.00  0.00    -0.057 A 
ATOM     24  C   LIG d   1       6.580   1.417  -3.399  0.00  0.00    -0.049 A 
ATOM     25  H   LIG d   1       4.559   1.080  -2.799  0.00  0.00     0.062 H 
ATOM     26  H   LIG d   1       6.566   2.464  -3.134  0.00  0.00     0.062 H 
BRANCH  21  27
ATOM     27  C   LIG d   1       4.242  -1.544  -3.333  0.00  0.00    -0.013 C 
BRANCH  27  28
ATOM     28  C   LIG d   1       3.003  -0.752  -3.758  0.00  0.00    -0.056 C 
ATOM     29  H   LIG d   1       3.128  -0.402  -4.782  0.00  0.00     0.024 H 
ATOM     30  H   LIG d   1       2.124  -1.394  -3.699  0.00  0.00     0.024 H 
ATOM     31  H   LIG d   1       2.873   0.102  -3.094  0.00  0.00     0.024 H 
ENDBRANCH  27  28
BRANCH  27  32
ATOM     32  C   LIG d   1       4.343  -2.820  -4.173  0.00  0.00    -0.056 C 
ATOM     33  H   LIG d   1       5.159  -2.719  -4.889  0.00  0.00     0.024 H 
ATOM     34  H   LIG d   1       4.536  -3.671  -3.520  0.00  0.00     0.024 H 
ATOM     35  H   LIG d   1       3.408  -2.977  -4.709  0.00  0.00     0.024 H 
ENDBRANCH  27  32
BRANCH  27  36
ATOM     36  C   LIG d   1       4.127  -1.915  -1.853  0.00  0.00    -0.056 C 
ATOM     37  H   LIG d   1       3.678  -1.087  -1.306  0.00  0.00     0.024 H 
ATOM     38  H   LIG d   1       3.501  -2.802  -1.748  0.00  0.00     0.024 H 
ATOM     39  H   LIG d   1       5.120  -2.121  -1.453  0.00  0.00     0.024 H 
ENDBRANCH  27  36
ENDBRANCH  21  27
ENDBRANCH  14  17
ENDBRANCH   1  13
BRANCH  11  40
ATOM     40  C   LIG d   1      12.714   5.696  -2.164  0.00  0.00    -0.042 C 
ATOM     41  H   LIG d   1      13.101   4.748  -1.791  0.00  0.00     0.078 H 
ATOM     42  H   LIG d   1      13.281   5.998  -3.045  0.00  0.00     0.078 H 
ATOM     43  H   LIG d   1      12.812   6.459  -1.392  0.00  0.00     0.078 H 
ENDBRANCH  11  40
BRANCH   4  44
ATOM     44  C   LIG d   1      10.646   7.332  -4.072  0.00  0.00     0.276 A 
ATOM     45  O   LIG d   1      10.179   8.106  -3.089  0.00  0.00    -0.332 OA
ATOM     46  N   LIG d   1       9.921   9.211  -3.517  0.00  0.00    -0.056 NA
ATOM     47  C   LIG d   1      10.186   9.271  -4.796  0.00  0.00     0.204 A 
ATOM     48  N   LIG d   1      10.662   8.059  -5.161  0.00  0.00    -0.186 NA
BRANCH  47  49
ATOM     49  C   LIG d   1      10.007  10.449  -5.679  0.00  0.00     0.041 A 
ATOM     50  C   LIG d   1      10.132  10.324  -7.061  0.00  0.00     0.038 A 
ATOM     51  N   LIG d   1       9.967  11.369  -7.846  0.00  0.00    -0.263 NA
ATOM     52  H   LIG d   1      10.362   9.362  -7.492  0.00  0.00     0.084 H 
ATOM     53  C   LIG d   1       9.690  12.565  -7.365  0.00  0.00     0.028 A 
ATOM     54  C   LIG d   1       9.555  12.772  -6.005  0.00  0.00    -0.043 A 
ATOM     55  H   LIG d   1       9.568  13.396  -8.044  0.00  0.00     0.083 H 
ATOM     56  C   LIG d   1       9.713  11.704  -5.137  0.00  0.00    -0.048 A 
ATOM     57  H   LIG d   1       9.327  13.756  -5.621  0.00  0.00     0.063 H 
ATOM     58  H   LIG d   1       9.612  11.837  -4.070  0.00  0.00     0.063 H 
ENDBRANCH  47  49
ENDBRANCH   4  44
TORSDOF 9
ENDMDL
MODEL 8
REMARK VINA RESULT:      -6.4      3.708     10.579
REMARK  9 active torsions:
REMARK  status: ('A' for Active; 'I' for Inactive)
REMARK    1  A    between atoms: C_1  and  C_2 
REMARK    2  A    between atoms: C_2  and  C_3 
REMARK    3  A    between atoms: C_2  and  C_4 
REMARK    4  A    between atoms: C_2  and  C_5 
REMARK    5  A    between atoms: C_8  and  C_11 
REMARK       I    between atoms: C_11  and  N_13 
REMARK    6  A    between atoms: N_13  and  C_14 
REMARK    7  A    between atoms: C_17  and  C_21 
REMARK    8  A    between atoms: C_20  and  N_57 
REMARK    9  A    between atoms: C_23  and  C_26 
ROOT
ATOM      1  C   LIG d   1       9.084   2.034  -3.966  0.00  0.00     0.069 C 
ATOM      2  H   LIG d   1       9.799   1.411  -3.428  0.00  0.00     0.055 H 
ATOM      3  C   LIG d   1       7.652   1.451  -3.850  0.00  0.00     0.023 C 
ATOM      4  C   LIG d   1       7.664   0.375  -4.971  0.00  0.00     0.061 C 
ATOM      5  H   LIG d   1       8.138  -0.539  -4.615  0.00  0.00     0.095 H 
ATOM      6  C   LIG d   1       9.359   1.992  -5.484  0.00  0.00    -0.012 C 
ATOM      7  H   LIG d   1       7.493   0.998  -2.871  0.00  0.00     0.035 H 
ATOM      8  H   LIG d   1       6.901   2.215  -4.050  0.00  0.00     0.035 H 
ATOM      9  H   LIG d   1       9.151   2.966  -5.926  0.00  0.00     0.083 H 
ATOM     10  H   LIG d   1      10.397   1.714  -5.666  0.00  0.00     0.083 H 
ATOM     11  N   LIG d   1       8.446   0.988  -6.061  0.00  0.00     0.243 N 
ATOM     12  H   LIG d   1       7.807   1.449  -6.718  0.00  0.00     0.204 HD
ENDROOT
BRANCH   1  13
ATOM     13  N   LIG d   1       9.125   3.412  -3.471  0.00  0.00    -0.303 N 
ATOM     14  C   LIG d   1      10.165   3.828  -2.721  0.00  0.00     0.244 C 
ATOM     15  O   LIG d   1      11.069   3.060  -2.456  0.00  0.00    -0.270 OA
ATOM     16  H   LIG d   1       8.403   4.024  -3.681  0.00  0.00     0.149 HD
BRANCH  14  17
ATOM     17  C   LIG d   1      10.206   5.219  -2.220  0.00  0.00     0.037 A 
ATOM     18  C   LIG d   1      10.642   5.483  -0.922  0.00  0.00    -0.049 A 
ATOM     19  C   LIG d   1      10.678   6.783  -0.460  0.00  0.00    -0.057 A 
ATOM     20  H   LIG d   1      10.951   4.673  -0.278  0.00  0.00     0.062 H 
ATOM     21  C   LIG d   1      10.283   7.824  -1.283  0.00  0.00    -0.042 A 
ATOM     22  H   LIG d   1      11.017   6.990   0.544  0.00  0.00     0.062 H 
ATOM     23  C   LIG d   1       9.848   7.567  -2.572  0.00  0.00    -0.057 A 
ATOM     24  C   LIG d   1       9.813   6.273  -3.047  0.00  0.00    -0.049 A 
ATOM     25  H   LIG d   1       9.541   8.384  -3.208  0.00  0.00     0.062 H 
ATOM     26  H   LIG d   1       9.478   6.074  -4.054  0.00  0.00     0.062 H 
BRANCH  21  27
ATOM     27  C   LIG d   1      10.324   9.240  -0.773  0.00  0.00    -0.013 C 
BRANCH  27  28
ATOM     28  C   LIG d   1       8.896   9.776  -0.642  0.00  0.00    -0.056 C 
ATOM     29  H   LIG d   1       8.711  10.069   0.391  0.00  0.00     0.024 H 
ATOM     30  H   LIG d   1       8.772  10.642  -1.292  0.00  0.00     0.024 H 
ATOM     31  H   LIG d   1       8.189   8.999  -0.933  0.00  0.00     0.024 H 
ENDBRANCH  27  28
BRANCH  27  32
ATOM     32  C   LIG d   1      11.008   9.271   0.595  0.00  0.00    -0.056 C 
ATOM     33  H   LIG d   1      12.089   9.229   0.462  0.00  0.00     0.024 H 
ATOM     34  H   LIG d   1      10.742  10.193   1.114  0.00  0.00     0.024 H 
ATOM     35  H   LIG d   1      10.681   8.415   1.184  0.00  0.00     0.024 H 
ENDBRANCH  27  32
BRANCH  27  36
ATOM     36  C   LIG d   1      11.107  10.114  -1.755  0.00  0.00    -0.056 C 
ATOM     37  H   LIG d   1      10.608  10.108  -2.724  0.00  0.00     0.024 H 
ATOM     38  H   LIG d   1      11.153  11.135  -1.377  0.00  0.00     0.024 H 
ATOM     39  H   LIG d   1      12.118   9.720  -1.864  0.00  0.00     0.024 H 
ENDBRANCH  27  36
ENDBRANCH  21  27
ENDBRANCH  14  17
ENDBRANCH   1  13
BRANCH  11  40
ATOM     40  C   LIG d   1       9.223  -0.051  -6.784  0.00  0.00    -0.042 C 
ATOM     41  H   LIG d   1       9.220   0.162  -7.853  0.00  0.00     0.078 H 
ATOM     42  H   LIG d   1      10.249  -0.053  -6.417  0.00  0.00     0.078 H 
ATOM     43  H   LIG d   1       8.773  -1.028  -6.606  0.00  0.00     0.078 H 
ENDBRANCH  11  40
BRANCH   4  44
ATOM     44  C   LIG d   1       6.261   0.088  -5.441  0.00  0.00     0.276 A 
ATOM     45  O   LIG d   1       5.139   0.256  -4.736  0.00  0.00    -0.332 OA
ATOM     46  N   LIG d   1       4.177  -0.067  -5.403  0.00  0.00    -0.056 NA
ATOM     47  C   LIG d   1       4.565  -0.470  -6.585  0.00  0.00     0.204 A 
ATOM     48  N   LIG d   1       5.913  -0.367  -6.619  0.00  0.00    -0.186 NA
BRANCH  47  49
ATOM     49  C   LIG d   1       3.690  -0.944  -7.685  0.00  0.00     0.041 A 
ATOM     50  C   LIG d   1       3.811  -2.243  -8.176  0.00  0.00     0.038 A 
ATOM     51  N   LIG d   1       3.031  -2.666  -9.149  0.00  0.00    -0.263 NA
ATOM     52  H   LIG d   1       4.547  -2.908  -7.752  0.00  0.00     0.084 H 
ATOM     53  C   LIG d   1       2.121  -1.888  -9.701  0.00  0.00     0.028 A 
ATOM     54  C   LIG d   1       1.942  -0.585  -9.273  0.00  0.00    -0.043 A 
ATOM     55  H   LIG d   1       1.505  -2.274 -10.500  0.00  0.00     0.083 H 
ATOM     56  C   LIG d   1       2.734  -0.094  -8.249  0.00  0.00    -0.048 A 
ATOM     57  H   LIG d   1       1.194   0.044  -9.732  0.00  0.00     0.063 H 
ATOM     58  H   LIG d   1       2.617   0.919  -7.895  0.00  0.00     0.063 H 
ENDBRANCH  47  49
ENDBRANCH   4  44
TORSDOF 9
ENDMDL
MODEL 9
REMARK VINA RESULT:      -6.1      3.529     10.514
REMARK  9 active torsions:
REMARK  status: ('A' for Active; 'I' for Inactive)
REMARK    1  A    between atoms: C_1  and  C_2 
REMARK    2  A    between atoms: C_2  and  C_3 
REMARK    3  A    between atoms: C_2  and  C_4 
REMARK    4  A    between atoms: C_2  and  C_5 
REMARK    5  A    between atoms: C_8  and  C_11 
REMARK       I    between atoms: C_11  and  N_13 
REMARK    6  A    between atoms: N_13  and  C_14 
REMARK    7  A    between atoms: C_17  and  C_21 
REMARK    8  A    between atoms: C_20  and  N_57 
REMARK    9  A    between atoms: C_23  and  C_26 
ROOT
ATOM      1  C   LIG d   1       8.910   1.984  -3.831  0.00  0.00     0.069 C 
ATOM      2  H   LIG d   1       9.483   1.534  -3.020  0.00  0.00     0.055 H 
ATOM      3  C   LIG d   1       7.427   1.532  -3.772  0.00  0.00     0.023 C 
ATOM      4  C   LIG d   1       7.496   0.157  -4.492  0.00  0.00     0.061 C 
ATOM      5  H   LIG d   1       7.830  -0.617  -3.801  0.00  0.00     0.095 H 
ATOM      6  C   LIG d   1       9.387   1.450  -5.198  0.00  0.00    -0.012 C 
ATOM      7  H   LIG d   1       7.094   1.421  -2.740  0.00  0.00     0.035 H 
ATOM      8  H   LIG d   1       6.786   2.225  -4.314  0.00  0.00     0.035 H 
ATOM      9  H   LIG d   1       9.332   2.242  -5.945  0.00  0.00     0.083 H 
ATOM     10  H   LIG d   1      10.410   1.085  -5.117  0.00  0.00     0.083 H 
ATOM     11  N   LIG d   1       8.474   0.357  -5.577  0.00  0.00     0.243 N 
ATOM     12  H   LIG d   1       7.976   0.613  -6.438  0.00  0.00     0.204 HD
ENDROOT
BRANCH   1  13
ATOM     13  N   LIG d   1       9.008   3.445  -3.782  0.00  0.00    -0.303 N 
ATOM     14  C   LIG d   1       9.867   4.034  -2.926  0.00  0.00     0.244 C 
ATOM     15  O   LIG d   1      10.560   3.354  -2.195  0.00  0.00    -0.270 OA
ATOM     16  H   LIG d   1       8.455   3.988  -4.365  0.00  0.00     0.149 HD
BRANCH  14  17
ATOM     17  C   LIG d   1       9.966   5.509  -2.877  0.00  0.00     0.037 A 
ATOM     18  C   LIG d   1       9.952   6.251  -4.058  0.00  0.00    -0.049 A 
ATOM     19  C   LIG d   1      10.045   7.628  -4.006  0.00  0.00    -0.057 A 
ATOM     20  H   LIG d   1       9.870   5.751  -5.012  0.00  0.00     0.062 H 
ATOM     21  C   LIG d   1      10.150   8.271  -2.786  0.00  0.00    -0.042 A 
ATOM     22  H   LIG d   1      10.033   8.204  -4.920  0.00  0.00     0.062 H 
ATOM     23  C   LIG d   1      10.165   7.540  -1.610  0.00  0.00    -0.057 A 
ATOM     24  C   LIG d   1      10.068   6.164  -1.648  0.00  0.00    -0.049 A 
ATOM     25  H   LIG d   1      10.248   8.048  -0.662  0.00  0.00     0.062 H 
ATOM     26  H   LIG d   1      10.075   5.595  -0.731  0.00  0.00     0.062 H 
BRANCH  21  27
ATOM     27  C   LIG d   1      10.251   9.773  -2.736  0.00  0.00    -0.013 C 
BRANCH  27  28
ATOM     28  C   LIG d   1      11.711  10.178  -2.520  0.00  0.00    -0.056 C 
ATOM     29  H   LIG d   1      12.359   9.325  -2.720  0.00  0.00     0.024 H 
ATOM     30  H   LIG d   1      11.965  10.994  -3.197  0.00  0.00     0.024 H 
ATOM     31  H   LIG d   1      11.848  10.506  -1.489  0.00  0.00     0.024 H 
ENDBRANCH  27  28
BRANCH  27  32
ATOM     32  C   LIG d   1       9.748  10.363  -4.055  0.00  0.00    -0.056 C 
ATOM     33  H   LIG d   1      10.539  10.961  -4.510  0.00  0.00     0.024 H 
ATOM     34  H   LIG d   1       9.468   9.555  -4.732  0.00  0.00     0.024 H 
ATOM     35  H   LIG d   1       8.881  10.995  -3.864  0.00  0.00     0.024 H 
ENDBRANCH  27  32
BRANCH  27  36
ATOM     36  C   LIG d   1       9.398  10.304  -1.582  0.00  0.00    -0.056 C 
ATOM     37  H   LIG d   1       8.352  10.062  -1.763  0.00  0.00     0.024 H 
ATOM     38  H   LIG d   1       9.721   9.842  -0.648  0.00  0.00     0.024 H 
ATOM     39  H   LIG d   1       9.516  11.386  -1.511  0.00  0.00     0.024 H 
ENDBRANCH  27  36
ENDBRANCH  21  27
ENDBRANCH  14  17
ENDBRANCH   1  13
BRANCH  11  40
ATOM     40  C   LIG d   1       9.244  -0.891  -5.813  0.00  0.00    -0.042 C 
ATOM     41  H   LIG d   1       8.582  -1.668  -6.193  0.00  0.00     0.078 H 
ATOM     42  H   LIG d   1      10.030  -0.696  -6.541  0.00  0.00     0.078 H 
ATOM     43  H   LIG d   1       9.693  -1.222  -4.875  0.00  0.00     0.078 H 
ENDBRANCH  11  40
BRANCH   4  44
ATOM     44  C   LIG d   1       6.151  -0.203  -5.069  0.00  0.00     0.276 A 
ATOM     45  O   LIG d   1       5.104  -0.689  -4.397  0.00  0.00    -0.332 OA
ATOM     46  N   LIG d   1       4.172  -0.872  -5.154  0.00  0.00    -0.056 NA
ATOM     47  C   LIG d   1       4.509  -0.531  -6.371  0.00  0.00     0.204 A 
ATOM     48  N   LIG d   1       5.788  -0.092  -6.323  0.00  0.00    -0.186 NA
BRANCH  47  49
ATOM     49  C   LIG d   1       3.649  -0.606  -7.577  0.00  0.00     0.041 A 
ATOM     50  C   LIG d   1       3.574  -1.782  -8.321  0.00  0.00     0.038 A 
ATOM     51  N   LIG d   1       2.807  -1.851  -9.389  0.00  0.00    -0.263 NA
ATOM     52  H   LIG d   1       4.148  -2.644  -8.018  0.00  0.00     0.084 H 
ATOM     53  C   LIG d   1       2.092  -0.822  -9.801  0.00  0.00     0.028 A 
ATOM     54  C   LIG d   1       2.115   0.381  -9.119  0.00  0.00    -0.043 A 
ATOM     55  H   LIG d   1       1.479  -0.920 -10.685  0.00  0.00     0.083 H 
ATOM     56  C   LIG d   1       2.903   0.503  -7.987  0.00  0.00    -0.048 A 
ATOM     57  H   LIG d   1       1.526   1.217  -9.465  0.00  0.00     0.063 H 
ATOM     58  H   LIG d   1       2.940   1.430  -7.435  0.00  0.00     0.063 H 
ENDBRANCH  47  49
ENDBRANCH   4  44
TORSDOF 9
ENDMDL
