MODEL 1
REMARK VINA RESULT:      -5.6      0.000      0.000
REMARK  9 active torsions:
REMARK  status: ('A' for Active; 'I' for Inactive)
REMARK    1  A    between atoms: C_1  and  C_2 
REMARK    2  A    between atoms: C_2  and  O_3 
REMARK    3  A    between atoms: O_3  and  C_4 
REMARK    4  A    between atoms: C_4  and  C_6 
REMARK    5  A    between atoms: C_7  and  C_26 
REMARK    6  A    between atoms: C_11  and  N_15 
REMARK       I    between atoms: N_15  and  C_16 
REMARK    7  A    between atoms: C_16  and  C_18 
REMARK    8  A    between atoms: C_21  and  O_24 
REMARK    9  A    between atoms: O_24  and  C_25 
ROOT
ATOM      1  C   LIG d   1       4.101  -1.136  -5.407  0.00  0.00     0.215 A 
ATOM      2  C   LIG d   1       3.290  -0.096  -5.731  0.00  0.00     0.010 A 
ATOM      3  C   LIG d   1       3.320   0.025  -7.144  0.00  0.00     0.024 A 
ATOM      4  C   LIG d   1       2.703   0.892  -8.053  0.00  0.00    -0.049 A 
ATOM      5  C   LIG d   1       2.941   0.757  -9.389  0.00  0.00    -0.040 A 
ATOM      6  C   LIG d   1       3.789  -0.247  -9.858  0.00  0.00     0.037 A 
ATOM      7  C   LIG d   1       4.409  -1.114  -8.972  0.00  0.00     0.003 A 
ATOM      8  C   LIG d   1       4.181  -0.986  -7.609  0.00  0.00     0.138 A 
ATOM      9  O   LIG d   1       4.630  -1.664  -6.532  0.00  0.00    -0.448 OA
ATOM     10  H   LIG d   1       2.042   1.669  -7.698  0.00  0.00     0.062 H 
ATOM     11  H   LIG d   1       2.466   1.428 -10.089  0.00  0.00     0.064 H 
ATOM     12  H   LIG d   1       5.068  -1.886  -9.341  0.00  0.00     0.067 H 
ENDROOT
BRANCH   6  13
ATOM     13  N   LIG d   1       4.019  -0.377 -11.228  0.00  0.00    -0.281 N 
ATOM     14  C   LIG d   1       3.211  -1.153 -11.978  0.00  0.00     0.248 C 
ATOM     15  O   LIG d   1       2.334  -1.807 -11.447  0.00  0.00    -0.270 OA
ATOM     16  H   LIG d   1       4.760   0.093 -11.642  0.00  0.00     0.155 HD
BRANCH  14  17
ATOM     17  C   LIG d   1       3.392  -1.210 -13.441  0.00  0.00     0.037 A 
ATOM     18  C   LIG d   1       4.432  -0.498 -14.045  0.00  0.00    -0.046 A 
ATOM     19  C   LIG d   1       4.598  -0.554 -15.411  0.00  0.00    -0.019 A 
ATOM     20  H   LIG d   1       5.104   0.095 -13.442  0.00  0.00     0.063 H 
ATOM     21  C   LIG d   1       3.736  -1.316 -16.188  0.00  0.00     0.120 A 
ATOM     22  H   LIG d   1       5.402  -0.004 -15.879  0.00  0.00     0.065 H 
ATOM     23  C   LIG d   1       2.700  -2.026 -15.590  0.00  0.00    -0.019 A 
ATOM     24  C   LIG d   1       2.530  -1.981 -14.225  0.00  0.00    -0.046 A 
ATOM     25  H   LIG d   1       2.031  -2.617 -16.198  0.00  0.00     0.065 H 
ATOM     26  H   LIG d   1       1.729  -2.536 -13.761  0.00  0.00     0.063 H 
BRANCH  21  27
ATOM     27  O   LIG d   1       3.903  -1.369 -17.534  0.00  0.00    -0.495 OA
BRANCH  27  28
ATOM     28  C   LIG d   1       2.745  -1.150 -18.341  0.00  0.00     0.079 C 
ATOM     29  H   LIG d   1       2.496  -2.068 -18.875  0.00  0.00     0.066 H 
ATOM     30  H   LIG d   1       1.907  -0.862 -17.705  0.00  0.00     0.066 H 
ATOM     31  H   LIG d   1       2.946  -0.356 -19.059  0.00  0.00     0.066 H 
ENDBRANCH  27  28
ENDBRANCH  21  27
ENDBRANCH  14  17
ENDBRANCH   6  13
BRANCH   2  32
ATOM     32  C   LIG d   1       2.507   0.765  -4.774  0.00  0.00    -0.035 C 
ATOM     33  H   LIG d   1       1.883   1.460  -5.336  0.00  0.00     0.028 H 
ATOM     34  H   LIG d   1       1.875   0.133  -4.151  0.00  0.00     0.028 H 
ATOM     35  H   LIG d   1       3.196   1.326  -4.142  0.00  0.00     0.028 H 
ENDBRANCH   2  32
BRANCH   1  36
ATOM     36  C   LIG d   1       4.362  -1.613  -4.044  0.00  0.00     0.375 C 
ATOM     37  O   LIG d   1       3.924  -2.688  -3.683  0.00  0.00    -0.241 OA
BRANCH  36  38
ATOM     38  O   LIG d   1       5.088  -0.859  -3.194  0.00  0.00    -0.459 OA
BRANCH  38  39
ATOM     39  C   LIG d   1       4.491  -0.558  -1.905  0.00  0.00     0.090 C 
ATOM     40  H   LIG d   1       3.459  -0.908  -1.892  0.00  0.00     0.070 H 
ATOM     41  H   LIG d   1       5.055  -1.060  -1.117  0.00  0.00     0.070 H 
BRANCH  39  42
ATOM     42  C   LIG d   1       4.521   0.953  -1.669  0.00  0.00    -0.031 C 
ATOM     43  H   LIG d   1       4.068   1.179  -0.704  0.00  0.00     0.026 H 
ATOM     44  H   LIG d   1       5.553   1.302  -1.677  0.00  0.00     0.026 H 
ATOM     45  H   LIG d   1       3.962   1.456  -2.458  0.00  0.00     0.026 H 
ENDBRANCH  39  42
ENDBRANCH  38  39
ENDBRANCH  36  38
ENDBRANCH   1  36
TORSDOF 9
ENDMDL
MODEL 2
REMARK VINA RESULT:      -5.6      8.609     14.140
REMARK  9 active torsions:
REMARK  status: ('A' for Active; 'I' for Inactive)
REMARK    1  A    between atoms: C_1  and  C_2 
REMARK    2  A    between atoms: C_2  and  O_3 
REMARK    3  A    between atoms: O_3  and  C_4 
REMARK    4  A    between atoms: C_4  and  C_6 
REMARK    5  A    between atoms: C_7  and  C_26 
REMARK    6  A    between atoms: C_11  and  N_15 
REMARK       I    between atoms: N_15  and  C_16 
REMARK    7  A    between atoms: C_16  and  C_18 
REMARK    8  A    between atoms: C_21  and  O_24 
REMARK    9  A    between atoms: O_24  and  C_25 
ROOT
ATOM      1  C   LIG d   1       8.728   1.796  -4.398  0.00  0.00     0.215 A 
ATOM      2  C   LIG d   1       8.864   2.735  -5.370  0.00  0.00     0.010 A 
ATOM      3  C   LIG d   1       9.366   3.905  -4.747  0.00  0.00     0.024 A 
ATOM      4  C   LIG d   1       9.706   5.180  -5.215  0.00  0.00    -0.049 A 
ATOM      5  C   LIG d   1      10.171   6.121  -4.345  0.00  0.00    -0.040 A 
ATOM      6  C   LIG d   1      10.321   5.819  -2.990  0.00  0.00     0.037 A 
ATOM      7  C   LIG d   1       9.990   4.562  -2.510  0.00  0.00     0.003 A 
ATOM      8  C   LIG d   1       9.510   3.594  -3.382  0.00  0.00     0.138 A 
ATOM      9  O   LIG d   1       9.116   2.316  -3.212  0.00  0.00    -0.448 OA
ATOM     10  H   LIG d   1       9.596   5.419  -6.262  0.00  0.00     0.062 H 
ATOM     11  H   LIG d   1      10.429   7.105  -4.706  0.00  0.00     0.064 H 
ATOM     12  H   LIG d   1      10.104   4.336  -1.460  0.00  0.00     0.067 H 
ENDROOT
BRANCH   6  13
ATOM     13  N   LIG d   1      10.802   6.791  -2.112  0.00  0.00    -0.281 N 
ATOM     14  C   LIG d   1       9.948   7.463  -1.315  0.00  0.00     0.248 C 
ATOM     15  O   LIG d   1       8.750   7.284  -1.420  0.00  0.00    -0.270 OA
ATOM     16  H   LIG d   1      11.752   6.982  -2.075  0.00  0.00     0.155 HD
BRANCH  14  17
ATOM     17  C   LIG d   1      10.467   8.417  -0.316  0.00  0.00     0.037 A 
ATOM     18  C   LIG d   1      11.334   7.977   0.687  0.00  0.00    -0.046 A 
ATOM     19  C   LIG d   1      11.817   8.870   1.617  0.00  0.00    -0.019 A 
ATOM     20  H   LIG d   1      11.626   6.938   0.733  0.00  0.00     0.063 H 
ATOM     21  C   LIG d   1      11.443  10.207   1.559  0.00  0.00     0.120 A 
ATOM     22  H   LIG d   1      12.488   8.531   2.393  0.00  0.00     0.065 H 
ATOM     23  C   LIG d   1      10.580  10.649   0.563  0.00  0.00    -0.019 A 
ATOM     24  C   LIG d   1      10.097   9.764  -0.375  0.00  0.00    -0.046 A 
ATOM     25  H   LIG d   1      10.291  11.688   0.522  0.00  0.00     0.065 H 
ATOM     26  H   LIG d   1       9.431  10.107  -1.151  0.00  0.00     0.063 H 
BRANCH  21  27
ATOM     27  O   LIG d   1      11.920  11.085   2.478  0.00  0.00    -0.495 OA
BRANCH  27  28
ATOM     28  C   LIG d   1      12.612  10.538   3.601  0.00  0.00     0.079 C 
ATOM     29  H   LIG d   1      12.077   9.660   3.966  0.00  0.00     0.066 H 
ATOM     30  H   LIG d   1      13.621  10.250   3.303  0.00  0.00     0.066 H 
ATOM     31  H   LIG d   1      12.667  11.284   4.394  0.00  0.00     0.066 H 
ENDBRANCH  27  28
ENDBRANCH  21  27
ENDBRANCH  14  17
ENDBRANCH   6  13
BRANCH   2  32
ATOM     32  C   LIG d   1       8.543   2.565  -6.832  0.00  0.00    -0.035 C 
ATOM     33  H   LIG d   1       9.460   2.359  -7.384  0.00  0.00     0.028 H 
ATOM     34  H   LIG d   1       7.849   1.734  -6.958  0.00  0.00     0.028 H 
ATOM     35  H   LIG d   1       8.088   3.479  -7.214  0.00  0.00     0.028 H 
ENDBRANCH   2  32
BRANCH   1  36
ATOM     36  C   LIG d   1       8.237   0.429  -4.602  0.00  0.00     0.375 C 
ATOM     37  O   LIG d   1       9.018  -0.463  -4.872  0.00  0.00    -0.241 OA
BRANCH  36  38
ATOM     38  O   LIG d   1       6.920   0.162  -4.491  0.00  0.00    -0.459 OA
BRANCH  38  39
ATOM     39  C   LIG d   1       6.400  -0.048  -3.152  0.00  0.00     0.090 C 
ATOM     40  H   LIG d   1       5.848  -0.986  -3.119  0.00  0.00     0.070 H 
ATOM     41  H   LIG d   1       7.228  -0.088  -2.443  0.00  0.00     0.070 H 
BRANCH  39  42
ATOM     42  C   LIG d   1       5.467   1.106  -2.780  0.00  0.00    -0.031 C 
ATOM     43  H   LIG d   1       4.547   1.032  -3.362  0.00  0.00     0.026 H 
ATOM     44  H   LIG d   1       5.229   1.052  -1.717  0.00  0.00     0.026 H 
ATOM     45  H   LIG d   1       5.957   2.055  -2.994  0.00  0.00     0.026 H 
ENDBRANCH  39  42
ENDBRANCH  38  39
ENDBRANCH  36  38
ENDBRANCH   1  36
TORSDOF 9
ENDMDL
MODEL 3
REMARK VINA RESULT:      -5.5      7.333     10.407
REMARK  9 active torsions:
REMARK  status: ('A' for Active; 'I' for Inactive)
REMARK    1  A    between atoms: C_1  and  C_2 
REMARK    2  A    between atoms: C_2  and  O_3 
REMARK    3  A    between atoms: O_3  and  C_4 
REMARK    4  A    between atoms: C_4  and  C_6 
REMARK    5  A    between atoms: C_7  and  C_26 
REMARK    6  A    between atoms: C_11  and  N_15 
REMARK       I    between atoms: N_15  and  C_16 
REMARK    7  A    between atoms: C_16  and  C_18 
REMARK    8  A    between atoms: C_21  and  O_24 
REMARK    9  A    between atoms: O_24  and  C_25 
ROOT
ATOM      1  C   LIG d   1      11.448   5.599  -2.523  0.00  0.00     0.215 A 
ATOM      2  C   LIG d   1      10.918   5.816  -3.755  0.00  0.00     0.010 A 
ATOM      3  C   LIG d   1      10.181   4.654  -4.096  0.00  0.00     0.024 A 
ATOM      4  C   LIG d   1       9.425   4.283  -5.215  0.00  0.00    -0.049 A 
ATOM      5  C   LIG d   1       8.822   3.061  -5.252  0.00  0.00    -0.040 A 
ATOM      6  C   LIG d   1       8.943   2.180  -4.177  0.00  0.00     0.037 A 
ATOM      7  C   LIG d   1       9.687   2.530  -3.061  0.00  0.00     0.003 A 
ATOM      8  C   LIG d   1      10.312   3.769  -3.010  0.00  0.00     0.138 A 
ATOM      9  O   LIG d   1      11.082   4.375  -2.083  0.00  0.00    -0.448 OA
ATOM     10  H   LIG d   1       9.323   4.962  -6.049  0.00  0.00     0.062 H 
ATOM     11  H   LIG d   1       8.242   2.774  -6.117  0.00  0.00     0.064 H 
ATOM     12  H   LIG d   1       9.781   1.842  -2.234  0.00  0.00     0.067 H 
ENDROOT
BRANCH   6  13
ATOM     13  N   LIG d   1       8.316   0.934  -4.226  0.00  0.00    -0.281 N 
ATOM     14  C   LIG d   1       7.060   0.792  -3.756  0.00  0.00     0.248 C 
ATOM     15  O   LIG d   1       6.506   1.727  -3.211  0.00  0.00    -0.270 OA
ATOM     16  H   LIG d   1       8.783   0.171  -4.601  0.00  0.00     0.155 HD
BRANCH  14  17
ATOM     17  C   LIG d   1       6.361  -0.499  -3.900  0.00  0.00     0.037 A 
ATOM     18  C   LIG d   1       6.733  -1.386  -4.914  0.00  0.00    -0.046 A 
ATOM     19  C   LIG d   1       6.077  -2.591  -5.046  0.00  0.00    -0.019 A 
ATOM     20  H   LIG d   1       7.532  -1.128  -5.593  0.00  0.00     0.063 H 
ATOM     21  C   LIG d   1       5.049  -2.924  -4.173  0.00  0.00     0.120 A 
ATOM     22  H   LIG d   1       6.364  -3.278  -5.829  0.00  0.00     0.065 H 
ATOM     23  C   LIG d   1       4.677  -2.044  -3.163  0.00  0.00    -0.019 A 
ATOM     24  C   LIG d   1       5.330  -0.841  -3.021  0.00  0.00    -0.046 A 
ATOM     25  H   LIG d   1       3.876  -2.307  -2.488  0.00  0.00     0.065 H 
ATOM     26  H   LIG d   1       5.044  -0.159  -2.234  0.00  0.00     0.063 H 
BRANCH  21  27
ATOM     27  O   LIG d   1       4.406  -4.112  -4.306  0.00  0.00    -0.495 OA
BRANCH  27  28
ATOM     28  C   LIG d   1       4.817  -4.957  -5.381  0.00  0.00     0.079 C 
ATOM     29  H   LIG d   1       5.213  -5.891  -4.978  0.00  0.00     0.066 H 
ATOM     30  H   LIG d   1       3.962  -5.172  -6.023  0.00  0.00     0.066 H 
ATOM     31  H   LIG d   1       5.591  -4.456  -5.962  0.00  0.00     0.066 H 
ENDBRANCH  27  28
ENDBRANCH  21  27
ENDBRANCH  14  17
ENDBRANCH   6  13
BRANCH   2  32
ATOM     32  C   LIG d   1      11.083   7.054  -4.597  0.00  0.00    -0.035 C 
ATOM     33  H   LIG d   1      11.975   7.594  -4.279  0.00  0.00     0.028 H 
ATOM     34  H   LIG d   1      11.185   6.770  -5.645  0.00  0.00     0.028 H 
ATOM     35  H   LIG d   1      10.209   7.695  -4.477  0.00  0.00     0.028 H 
ENDBRANCH   2  32
BRANCH   1  36
ATOM     36  C   LIG d   1      12.288   6.548  -1.783  0.00  0.00     0.375 C 
ATOM     37  O   LIG d   1      13.499   6.475  -1.861  0.00  0.00    -0.241 OA
BRANCH  36  38
ATOM     38  O   LIG d   1      11.717   7.500  -1.018  0.00  0.00    -0.459 OA
BRANCH  38  39
ATOM     39  C   LIG d   1      10.595   7.096  -0.190  0.00  0.00     0.090 C 
ATOM     40  H   LIG d   1      10.051   7.979   0.142  0.00  0.00     0.070 H 
ATOM     41  H   LIG d   1       9.929   6.454  -0.768  0.00  0.00     0.070 H 
BRANCH  39  42
ATOM     42  C   LIG d   1      11.111   6.328   1.029  0.00  0.00    -0.031 C 
ATOM     43  H   LIG d   1      11.811   5.557   0.704  0.00  0.00     0.026 H 
ATOM     44  H   LIG d   1      11.619   7.017   1.704  0.00  0.00     0.026 H 
ATOM     45  H   LIG d   1      10.274   5.862   1.547  0.00  0.00     0.026 H 
ENDBRANCH  39  42
ENDBRANCH  38  39
ENDBRANCH  36  38
ENDBRANCH   1  36
TORSDOF 9
ENDMDL
MODEL 4
REMARK VINA RESULT:      -5.5      5.457      9.993
REMARK  9 active torsions:
REMARK  status: ('A' for Active; 'I' for Inactive)
REMARK    1  A    between atoms: C_1  and  C_2 
REMARK    2  A    between atoms: C_2  and  O_3 
REMARK    3  A    between atoms: O_3  and  C_4 
REMARK    4  A    between atoms: C_4  and  C_6 
REMARK    5  A    between atoms: C_7  and  C_26 
REMARK    6  A    between atoms: C_11  and  N_15 
REMARK       I    between atoms: N_15  and  C_16 
REMARK    7  A    between atoms: C_16  and  C_18 
REMARK    8  A    between atoms: C_21  and  O_24 
REMARK    9  A    between atoms: O_24  and  C_25 
ROOT
ATOM      1  C   LIG d   1       3.882  -0.063  -6.573  0.00  0.00     0.215 A 
ATOM      2  C   LIG d   1       3.594  -0.190  -5.252  0.00  0.00     0.010 A 
ATOM      3  C   LIG d   1       4.738  -0.754  -4.633  0.00  0.00     0.024 A 
ATOM      4  C   LIG d   1       5.046  -1.115  -3.316  0.00  0.00    -0.049 A 
ATOM      5  C   LIG d   1       6.264  -1.656  -3.026  0.00  0.00    -0.040 A 
ATOM      6  C   LIG d   1       7.212  -1.842  -4.033  0.00  0.00     0.037 A 
ATOM      7  C   LIG d   1       6.925  -1.490  -5.342  0.00  0.00     0.003 A 
ATOM      8  C   LIG d   1       5.687  -0.944  -5.655  0.00  0.00     0.138 A 
ATOM      9  O   LIG d   1       5.134  -0.515  -6.808  0.00  0.00    -0.448 OA
ATOM     10  H   LIG d   1       4.318  -0.970  -2.530  0.00  0.00     0.062 H 
ATOM     11  H   LIG d   1       6.498  -1.937  -2.010  0.00  0.00     0.064 H 
ATOM     12  H   LIG d   1       7.661  -1.641  -6.118  0.00  0.00     0.067 H 
ENDROOT
BRANCH   6  13
ATOM     13  N   LIG d   1       8.456  -2.391  -3.721  0.00  0.00    -0.281 N 
ATOM     14  C   LIG d   1       8.714  -3.683  -4.007  0.00  0.00     0.248 C 
ATOM     15  O   LIG d   1       7.836  -4.392  -4.458  0.00  0.00    -0.270 OA
ATOM     16  H   LIG d   1       9.136  -1.842  -3.300  0.00  0.00     0.155 HD
BRANCH  14  17
ATOM     17  C   LIG d   1      10.062  -4.235  -3.770  0.00  0.00     0.037 A 
ATOM     18  C   LIG d   1      10.211  -5.566  -3.368  0.00  0.00    -0.046 A 
ATOM     19  C   LIG d   1      11.470  -6.078  -3.147  0.00  0.00    -0.019 A 
ATOM     20  H   LIG d   1       9.341  -6.191  -3.230  0.00  0.00     0.063 H 
ATOM     21  C   LIG d   1      12.590  -5.275  -3.325  0.00  0.00     0.120 A 
ATOM     22  H   LIG d   1      11.588  -7.106  -2.837  0.00  0.00     0.065 H 
ATOM     23  C   LIG d   1      12.445  -3.951  -3.724  0.00  0.00    -0.019 A 
ATOM     24  C   LIG d   1      11.191  -3.433  -3.952  0.00  0.00    -0.046 A 
ATOM     25  H   LIG d   1      13.319  -3.331  -3.860  0.00  0.00     0.065 H 
ATOM     26  H   LIG d   1      11.078  -2.406  -4.267  0.00  0.00     0.063 H 
BRANCH  21  27
ATOM     27  O   LIG d   1      13.830  -5.783  -3.107  0.00  0.00    -0.495 OA
BRANCH  27  28
ATOM     28  C   LIG d   1      14.919  -4.860  -3.102  0.00  0.00     0.079 C 
ATOM     29  H   LIG d   1      15.584  -5.086  -2.267  0.00  0.00     0.066 H 
ATOM     30  H   LIG d   1      15.472  -4.944  -4.039  0.00  0.00     0.066 H 
ATOM     31  H   LIG d   1      14.536  -3.845  -2.997  0.00  0.00     0.066 H 
ENDBRANCH  27  28
ENDBRANCH  21  27
ENDBRANCH  14  17
ENDBRANCH   6  13
BRANCH   2  32
ATOM     32  C   LIG d   1       2.306   0.196  -4.573  0.00  0.00    -0.035 C 
ATOM     33  H   LIG d   1       1.830  -0.694  -4.163  0.00  0.00     0.028 H 
ATOM     34  H   LIG d   1       2.515   0.899  -3.767  0.00  0.00     0.028 H 
ATOM     35  H   LIG d   1       1.638   0.663  -5.298  0.00  0.00     0.028 H 
ENDBRANCH   2  32
BRANCH   1  36
ATOM     36  C   LIG d   1       2.975   0.481  -7.589  0.00  0.00     0.375 C 
ATOM     37  O   LIG d   1       2.268  -0.269  -8.236  0.00  0.00    -0.241 OA
BRANCH  36  38
ATOM     38  O   LIG d   1       2.923   1.811  -7.806  0.00  0.00    -0.459 OA
BRANCH  38  39
ATOM     39  C   LIG d   1       3.288   2.278  -9.130  0.00  0.00     0.090 C 
ATOM     40  H   LIG d   1       2.890   1.595  -9.880  0.00  0.00     0.070 H 
ATOM     41  H   LIG d   1       2.874   3.274  -9.291  0.00  0.00     0.070 H 
BRANCH  39  42
ATOM     42  C   LIG d   1       4.812   2.334  -9.250  0.00  0.00    -0.031 C 
ATOM     43  H   LIG d   1       5.217   1.321  -9.227  0.00  0.00     0.026 H 
ATOM     44  H   LIG d   1       5.085   2.812 -10.191  0.00  0.00     0.026 H 
ATOM     45  H   LIG d   1       5.222   2.907  -8.420  0.00  0.00     0.026 H 
ENDBRANCH  39  42
ENDBRANCH  38  39
ENDBRANCH  36  38
ENDBRANCH   1  36
TORSDOF 9
ENDMDL
MODEL 5
REMARK VINA RESULT:      -5.3      7.016      9.145
REMARK  9 active torsions:
REMARK  status: ('A' for Active; 'I' for Inactive)
REMARK    1  A    between atoms: C_1  and  C_2 
REMARK    2  A    between atoms: C_2  and  O_3 
REMARK    3  A    between atoms: O_3  and  C_4 
REMARK    4  A    between atoms: C_4  and  C_6 
REMARK    5  A    between atoms: C_7  and  C_26 
REMARK    6  A    between atoms: C_11  and  N_15 
REMARK       I    between atoms: N_15  and  C_16 
REMARK    7  A    between atoms: C_16  and  C_18 
REMARK    8  A    between atoms: C_21  and  O_24 
REMARK    9  A    between atoms: O_24  and  C_25 
ROOT
ATOM      1  C   LIG d   1       4.900  -2.370  -4.643  0.00  0.00     0.215 A 
ATOM      2  C   LIG d   1       6.187  -2.777  -4.497  0.00  0.00     0.010 A 
ATOM      3  C   LIG d   1       6.253  -4.114  -4.966  0.00  0.00     0.024 A 
ATOM      4  C   LIG d   1       7.286  -5.052  -5.070  0.00  0.00    -0.049 A 
ATOM      5  C   LIG d   1       7.028  -6.294  -5.572  0.00  0.00    -0.040 A 
ATOM      6  C   LIG d   1       5.741  -6.633  -5.993  0.00  0.00     0.037 A 
ATOM      7  C   LIG d   1       4.706  -5.716  -5.897  0.00  0.00     0.003 A 
ATOM      8  C   LIG d   1       4.951  -4.450  -5.383  0.00  0.00     0.138 A 
ATOM      9  O   LIG d   1       4.166  -3.373  -5.173  0.00  0.00    -0.448 OA
ATOM     10  H   LIG d   1       8.285  -4.796  -4.750  0.00  0.00     0.062 H 
ATOM     11  H   LIG d   1       7.825  -7.018  -5.649  0.00  0.00     0.064 H 
ATOM     12  H   LIG d   1       3.712  -5.986  -6.221  0.00  0.00     0.067 H 
ENDROOT
BRANCH   6  13
ATOM     13  N   LIG d   1       5.493  -7.905  -6.510  0.00  0.00    -0.281 N 
ATOM     14  C   LIG d   1       4.835  -8.818  -5.767  0.00  0.00     0.248 C 
ATOM     15  O   LIG d   1       4.532  -8.562  -4.618  0.00  0.00    -0.270 OA
ATOM     16  H   LIG d   1       5.793  -8.132  -7.403  0.00  0.00     0.155 HD
BRANCH  14  17
ATOM     17  C   LIG d   1       4.484 -10.127  -6.350  0.00  0.00     0.037 A 
ATOM     18  C   LIG d   1       4.106 -11.185  -5.517  0.00  0.00    -0.046 A 
ATOM     19  C   LIG d   1       3.780 -12.405  -6.065  0.00  0.00    -0.019 A 
ATOM     20  H   LIG d   1       4.071 -11.045  -4.447  0.00  0.00     0.063 H 
ATOM     21  C   LIG d   1       3.825 -12.587  -7.441  0.00  0.00     0.120 A 
ATOM     22  H   LIG d   1       3.487 -13.223  -5.422  0.00  0.00     0.065 H 
ATOM     23  C   LIG d   1       4.200 -11.537  -8.272  0.00  0.00    -0.019 A 
ATOM     24  C   LIG d   1       4.523 -10.312  -7.734  0.00  0.00    -0.046 A 
ATOM     25  H   LIG d   1       4.235 -11.683  -9.342  0.00  0.00     0.065 H 
ATOM     26  H   LIG d   1       4.810  -9.496  -8.380  0.00  0.00     0.063 H 
BRANCH  21  27
ATOM     27  O   LIG d   1       3.502 -13.791  -7.977  0.00  0.00    -0.495 OA
BRANCH  27  28
ATOM     28  C   LIG d   1       2.199 -14.302  -7.691  0.00  0.00     0.079 C 
ATOM     29  H   LIG d   1       2.127 -15.332  -8.044  0.00  0.00     0.066 H 
ATOM     30  H   LIG d   1       2.025 -14.273  -6.615  0.00  0.00     0.066 H 
ATOM     31  H   LIG d   1       1.451 -13.692  -8.196  0.00  0.00     0.066 H 
ENDBRANCH  27  28
ENDBRANCH  21  27
ENDBRANCH  14  17
ENDBRANCH   6  13
BRANCH   2  32
ATOM     32  C   LIG d   1       7.328  -1.965  -3.943  0.00  0.00    -0.035 C 
ATOM     33  H   LIG d   1       7.086  -0.904  -4.011  0.00  0.00     0.028 H 
ATOM     34  H   LIG d   1       7.493  -2.233  -2.900  0.00  0.00     0.028 H 
ATOM     35  H   LIG d   1       8.232  -2.167  -4.517  0.00  0.00     0.028 H 
ENDBRANCH   2  32
BRANCH   1  36
ATOM     36  C   LIG d   1       4.384  -1.045  -4.280  0.00  0.00     0.375 C 
ATOM     37  O   LIG d   1       4.608  -0.090  -4.999  0.00  0.00    -0.241 OA
BRANCH  36  38
ATOM     38  O   LIG d   1       3.663  -0.887  -3.153  0.00  0.00    -0.459 OA
BRANCH  38  39
ATOM     39  C   LIG d   1       4.401  -0.664  -1.923  0.00  0.00     0.090 C 
ATOM     40  H   LIG d   1       3.881  -1.143  -1.094  0.00  0.00     0.070 H 
ATOM     41  H   LIG d   1       5.402  -1.088  -2.018  0.00  0.00     0.070 H 
BRANCH  39  42
ATOM     42  C   LIG d   1       4.507   0.839  -1.657  0.00  0.00    -0.031 C 
ATOM     43  H   LIG d   1       5.045   1.316  -2.476  0.00  0.00     0.026 H 
ATOM     44  H   LIG d   1       3.507   1.266  -1.582  0.00  0.00     0.026 H 
ATOM     45  H   LIG d   1       5.044   1.006  -0.724  0.00  0.00     0.026 H 
ENDBRANCH  39  42
ENDBRANCH  38  39
ENDBRANCH  36  38
ENDBRANCH   1  36
TORSDOF 9
ENDMDL
MODEL 6
REMARK VINA RESULT:      -5.3      6.559     12.060
REMARK  9 active torsions:
REMARK  status: ('A' for Active; 'I' for Inactive)
REMARK    1  A    between atoms: C_1  and  C_2 
REMARK    2  A    between atoms: C_2  and  O_3 
REMARK    3  A    between atoms: O_3  and  C_4 
REMARK    4  A    between atoms: C_4  and  C_6 
REMARK    5  A    between atoms: C_7  and  C_26 
REMARK    6  A    between atoms: C_11  and  N_15 
REMARK       I    between atoms: N_15  and  C_16 
REMARK    7  A    between atoms: C_16  and  C_18 
REMARK    8  A    between atoms: C_21  and  O_24 
REMARK    9  A    between atoms: O_24  and  C_25 
ROOT
ATOM      1  C   LIG d   1       6.086  -0.221  -5.517  0.00  0.00     0.215 A 
ATOM      2  C   LIG d   1       7.283  -0.312  -6.152  0.00  0.00     0.010 A 
ATOM      3  C   LIG d   1       8.196   0.496  -5.428  0.00  0.00     0.024 A 
ATOM      4  C   LIG d   1       9.553   0.801  -5.586  0.00  0.00    -0.049 A 
ATOM      5  C   LIG d   1      10.168   1.640  -4.704  0.00  0.00    -0.040 A 
ATOM      6  C   LIG d   1       9.456   2.189  -3.636  0.00  0.00     0.037 A 
ATOM      7  C   LIG d   1       8.112   1.898  -3.464  0.00  0.00     0.003 A 
ATOM      8  C   LIG d   1       7.470   1.051  -4.357  0.00  0.00     0.138 A 
ATOM      9  O   LIG d   1       6.204   0.594  -4.445  0.00  0.00    -0.448 OA
ATOM     10  H   LIG d   1      10.112   0.377  -6.407  0.00  0.00     0.062 H 
ATOM     11  H   LIG d   1      11.214   1.877  -4.829  0.00  0.00     0.064 H 
ATOM     12  H   LIG d   1       7.566   2.330  -2.639  0.00  0.00     0.067 H 
ENDROOT
BRANCH   6  13
ATOM     13  N   LIG d   1      10.100   3.041  -2.739  0.00  0.00    -0.281 N 
ATOM     14  C   LIG d   1      10.014   4.378  -2.896  0.00  0.00     0.248 C 
ATOM     15  O   LIG d   1       9.447   4.839  -3.868  0.00  0.00    -0.270 OA
ATOM     16  H   LIG d   1      10.609   2.672  -2.000  0.00  0.00     0.155 HD
BRANCH  14  17
ATOM     17  C   LIG d   1      10.609   5.279  -1.891  0.00  0.00     0.037 A 
ATOM     18  C   LIG d   1       9.923   6.428  -1.489  0.00  0.00    -0.046 A 
ATOM     19  C   LIG d   1      10.482   7.267  -0.550  0.00  0.00    -0.019 A 
ATOM     20  H   LIG d   1       8.957   6.658  -1.913  0.00  0.00     0.063 H 
ATOM     21  C   LIG d   1      11.725   6.972  -0.004  0.00  0.00     0.120 A 
ATOM     22  H   LIG d   1       9.953   8.155  -0.238  0.00  0.00     0.065 H 
ATOM     23  C   LIG d   1      12.410   5.829  -0.402  0.00  0.00    -0.019 A 
ATOM     24  C   LIG d   1      11.856   4.983  -1.335  0.00  0.00    -0.046 A 
ATOM     25  H   LIG d   1      13.376   5.604   0.025  0.00  0.00     0.065 H 
ATOM     26  H   LIG d   1      12.386   4.093  -1.640  0.00  0.00     0.063 H 
BRANCH  21  27
ATOM     27  O   LIG d   1      12.273   7.801   0.921  0.00  0.00    -0.495 OA
BRANCH  27  28
ATOM     28  C   LIG d   1      11.508   8.946   1.301  0.00  0.00     0.079 C 
ATOM     29  H   LIG d   1      10.542   8.922   0.795  0.00  0.00     0.066 H 
ATOM     30  H   LIG d   1      11.354   8.939   2.380  0.00  0.00     0.066 H 
ATOM     31  H   LIG d   1      12.044   9.852   1.016  0.00  0.00     0.066 H 
ENDBRANCH  27  28
ENDBRANCH  21  27
ENDBRANCH  14  17
ENDBRANCH   6  13
BRANCH   2  32
ATOM     32  C   LIG d   1       7.584  -1.118  -7.388  0.00  0.00    -0.035 C 
ATOM     33  H   LIG d   1       7.387  -2.171  -7.193  0.00  0.00     0.028 H 
ATOM     34  H   LIG d   1       6.953  -0.776  -8.208  0.00  0.00     0.028 H 
ATOM     35  H   LIG d   1       8.633  -0.990  -7.660  0.00  0.00     0.028 H 
ENDBRANCH   2  32
BRANCH   1  36
ATOM     36  C   LIG d   1       4.855  -0.902  -5.930  0.00  0.00     0.375 C 
ATOM     37  O   LIG d   1       4.057  -0.332  -6.650  0.00  0.00    -0.241 OA
BRANCH  36  38
ATOM     38  O   LIG d   1       4.607  -2.160  -5.513  0.00  0.00    -0.459 OA
BRANCH  38  39
ATOM     39  C   LIG d   1       5.106  -2.530  -4.201  0.00  0.00     0.090 C 
ATOM     40  H   LIG d   1       5.339  -3.594  -4.187  0.00  0.00     0.070 H 
ATOM     41  H   LIG d   1       6.007  -1.958  -3.980  0.00  0.00     0.070 H 
BRANCH  39  42
ATOM     42  C   LIG d   1       4.040  -2.229  -3.146  0.00  0.00    -0.031 C 
ATOM     43  H   LIG d   1       3.175  -2.874  -3.307  0.00  0.00     0.026 H 
ATOM     44  H   LIG d   1       4.449  -2.413  -2.153  0.00  0.00     0.026 H 
ATOM     45  H   LIG d   1       3.734  -1.186  -3.225  0.00  0.00     0.026 H 
ENDBRANCH  39  42
ENDBRANCH  38  39
ENDBRANCH  36  38
ENDBRANCH   1  36
TORSDOF 9
ENDMDL
MODEL 7
REMARK VINA RESULT:      -5.3     11.181     13.839
REMARK  9 active torsions:
REMARK  status: ('A' for Active; 'I' for Inactive)
REMARK    1  A    between atoms: C_1  and  C_2 
REMARK    2  A    between atoms: C_2  and  O_3 
REMARK    3  A    between atoms: O_3  and  C_4 
REMARK    4  A    between atoms: C_4  and  C_6 
REMARK    5  A    between atoms: C_7  and  C_26 
REMARK    6  A    between atoms: C_11  and  N_15 
REMARK       I    between atoms: N_15  and  C_16 
REMARK    7  A    between atoms: C_16  and  C_18 
REMARK    8  A    between atoms: C_21  and  O_24 
REMARK    9  A    between atoms: O_24  and  C_25 
ROOT
ATOM      1  C   LIG d   1       1.176  10.591 -16.441  0.00  0.00     0.215 A 
ATOM      2  C   LIG d   1      -0.033  11.211 -16.447  0.00  0.00     0.010 A 
ATOM      3  C   LIG d   1      -0.968  10.298 -15.897  0.00  0.00     0.024 A 
ATOM      4  C   LIG d   1      -2.343  10.356 -15.646  0.00  0.00    -0.049 A 
ATOM      5  C   LIG d   1      -2.980   9.283 -15.097  0.00  0.00    -0.040 A 
ATOM      6  C   LIG d   1      -2.267   8.128 -14.773  0.00  0.00     0.037 A 
ATOM      7  C   LIG d   1      -0.904   8.052 -15.014  0.00  0.00     0.003 A 
ATOM      8  C   LIG d   1      -0.243   9.135 -15.578  0.00  0.00     0.138 A 
ATOM      9  O   LIG d   1       1.044   9.351 -15.920  0.00  0.00    -0.448 OA
ATOM     10  H   LIG d   1      -2.901  11.249 -15.890  0.00  0.00     0.062 H 
ATOM     11  H   LIG d   1      -4.042   9.328 -14.907  0.00  0.00     0.064 H 
ATOM     12  H   LIG d   1      -0.359   7.154 -14.765  0.00  0.00     0.067 H 
ENDROOT
BRANCH   6  13
ATOM     13  N   LIG d   1      -2.931   7.039 -14.207  0.00  0.00    -0.281 N 
ATOM     14  C   LIG d   1      -3.483   6.098 -15.000  0.00  0.00     0.248 C 
ATOM     15  O   LIG d   1      -3.477   6.242 -16.207  0.00  0.00    -0.270 OA
ATOM     16  H   LIG d   1      -2.993   6.957 -13.243  0.00  0.00     0.155 HD
BRANCH  14  17
ATOM     17  C   LIG d   1      -4.096   4.897 -14.402  0.00  0.00     0.037 A 
ATOM     18  C   LIG d   1      -3.354   3.718 -14.284  0.00  0.00    -0.046 A 
ATOM     19  C   LIG d   1      -3.930   2.599 -13.726  0.00  0.00    -0.019 A 
ATOM     20  H   LIG d   1      -2.332   3.686 -14.630  0.00  0.00     0.063 H 
ATOM     21  C   LIG d   1      -5.245   2.640 -13.279  0.00  0.00     0.120 A 
ATOM     22  H   LIG d   1      -3.357   1.687 -13.633  0.00  0.00     0.065 H 
ATOM     23  C   LIG d   1      -5.986   3.810 -13.396  0.00  0.00    -0.019 A 
ATOM     24  C   LIG d   1      -5.417   4.936 -13.947  0.00  0.00    -0.046 A 
ATOM     25  H   LIG d   1      -7.008   3.837 -13.049  0.00  0.00     0.065 H 
ATOM     26  H   LIG d   1      -5.991   5.846 -14.033  0.00  0.00     0.063 H 
BRANCH  21  27
ATOM     27  O   LIG d   1      -5.808   1.535 -12.730  0.00  0.00    -0.495 OA
BRANCH  27  28
ATOM     28  C   LIG d   1      -6.578   0.699 -13.595  0.00  0.00     0.079 C 
ATOM     29  H   LIG d   1      -6.408  -0.347 -13.336  0.00  0.00     0.066 H 
ATOM     30  H   LIG d   1      -7.637   0.934 -13.480  0.00  0.00     0.066 H 
ATOM     31  H   LIG d   1      -6.278   0.870 -14.628  0.00  0.00     0.066 H 
ENDBRANCH  27  28
ENDBRANCH  21  27
ENDBRANCH  14  17
ENDBRANCH   6  13
BRANCH   2  32
ATOM     32  C   LIG d   1      -0.325  12.603 -16.944  0.00  0.00    -0.035 C 
ATOM     33  H   LIG d   1       0.250  13.324 -16.364  0.00  0.00     0.028 H 
ATOM     34  H   LIG d   1      -0.048  12.680 -17.995  0.00  0.00     0.028 H 
ATOM     35  H   LIG d   1      -1.389  12.814 -16.833  0.00  0.00     0.028 H 
ENDBRANCH   2  32
BRANCH   1  36
ATOM     36  C   LIG d   1       2.430  11.177 -16.924  0.00  0.00     0.375 C 
ATOM     37  O   LIG d   1       2.744  11.061 -18.094  0.00  0.00    -0.241 OA
BRANCH  36  38
ATOM     38  O   LIG d   1       3.235  11.845 -16.073  0.00  0.00    -0.459 OA
BRANCH  38  39
ATOM     39  C   LIG d   1       4.286  12.657 -16.659  0.00  0.00     0.090 C 
ATOM     40  H   LIG d   1       4.746  12.116 -17.486  0.00  0.00     0.070 H 
ATOM     41  H   LIG d   1       3.860  13.591 -17.028  0.00  0.00     0.070 H 
BRANCH  39  42
ATOM     42  C   LIG d   1       5.346  12.964 -15.599  0.00  0.00    -0.031 C 
ATOM     43  H   LIG d   1       6.255  13.317 -16.085  0.00  0.00     0.026 H 
ATOM     44  H   LIG d   1       4.972  13.735 -14.925  0.00  0.00     0.026 H 
ATOM     45  H   LIG d   1       5.565  12.061 -15.031  0.00  0.00     0.026 H 
ENDBRANCH  39  42
ENDBRANCH  38  39
ENDBRANCH  36  38
ENDBRANCH   1  36
TORSDOF 9
ENDMDL
MODEL 8
REMARK VINA RESULT:      -5.2      7.249     10.583
REMARK  9 active torsions:
REMARK  status: ('A' for Active; 'I' for Inactive)
REMARK    1  A    between atoms: C_1  and  C_2 
REMARK    2  A    between atoms: C_2  and  O_3 
REMARK    3  A    between atoms: O_3  and  C_4 
REMARK    4  A    between atoms: C_4  and  C_6 
REMARK    5  A    between atoms: C_7  and  C_26 
REMARK    6  A    between atoms: C_11  and  N_15 
REMARK       I    between atoms: N_15  and  C_16 
REMARK    7  A    between atoms: C_16  and  C_18 
REMARK    8  A    between atoms: C_21  and  O_24 
REMARK    9  A    between atoms: O_24  and  C_25 
ROOT
ATOM      1  C   LIG d   1      10.167   6.521  -5.194  0.00  0.00     0.215 A 
ATOM      2  C   LIG d   1      10.764   6.051  -4.067  0.00  0.00     0.010 A 
ATOM      3  C   LIG d   1      10.289   4.731  -3.869  0.00  0.00     0.024 A 
ATOM      4  C   LIG d   1      10.533   3.751  -2.900  0.00  0.00    -0.049 A 
ATOM      5  C   LIG d   1       9.902   2.544  -2.979  0.00  0.00    -0.040 A 
ATOM      6  C   LIG d   1       9.022   2.275  -4.027  0.00  0.00     0.037 A 
ATOM      7  C   LIG d   1       8.768   3.233  -4.996  0.00  0.00     0.003 A 
ATOM      8  C   LIG d   1       9.398   4.468  -4.926  0.00  0.00     0.138 A 
ATOM      9  O   LIG d   1       9.352   5.570  -5.702  0.00  0.00    -0.448 OA
ATOM     10  H   LIG d   1      11.216   3.951  -2.087  0.00  0.00     0.062 H 
ATOM     11  H   LIG d   1      10.089   1.791  -2.228  0.00  0.00     0.064 H 
ATOM     12  H   LIG d   1       8.082   3.020  -5.803  0.00  0.00     0.067 H 
ENDROOT
BRANCH   6  13
ATOM     13  N   LIG d   1       8.387   1.034  -4.099  0.00  0.00    -0.281 N 
ATOM     14  C   LIG d   1       7.099   0.912  -3.721  0.00  0.00     0.248 C 
ATOM     15  O   LIG d   1       6.514   1.863  -3.240  0.00  0.00    -0.270 OA
ATOM     16  H   LIG d   1       8.873   0.259  -4.422  0.00  0.00     0.155 HD
BRANCH  14  17
ATOM     17  C   LIG d   1       6.399  -0.376  -3.892  0.00  0.00     0.037 A 
ATOM     18  C   LIG d   1       6.648  -1.163  -5.019  0.00  0.00    -0.046 A 
ATOM     19  C   LIG d   1       5.994  -2.365  -5.175  0.00  0.00    -0.019 A 
ATOM     20  H   LIG d   1       7.353  -0.831  -5.767  0.00  0.00     0.063 H 
ATOM     21  C   LIG d   1       5.087  -2.795  -4.213  0.00  0.00     0.120 A 
ATOM     22  H   LIG d   1       6.186  -2.975  -6.045  0.00  0.00     0.065 H 
ATOM     23  C   LIG d   1       4.837  -2.014  -3.091  0.00  0.00    -0.019 A 
ATOM     24  C   LIG d   1       5.491  -0.814  -2.924  0.00  0.00    -0.046 A 
ATOM     25  H   LIG d   1       4.131  -2.351  -2.347  0.00  0.00     0.065 H 
ATOM     26  H   LIG d   1       5.300  -0.210  -2.050  0.00  0.00     0.063 H 
BRANCH  21  27
ATOM     27  O   LIG d   1       4.444  -3.979  -4.370  0.00  0.00    -0.495 OA
BRANCH  27  28
ATOM     28  C   LIG d   1       4.922  -4.847  -5.399  0.00  0.00     0.079 C 
ATOM     29  H   LIG d   1       5.983  -4.661  -5.567  0.00  0.00     0.066 H 
ATOM     30  H   LIG d   1       4.778  -5.885  -5.095  0.00  0.00     0.066 H 
ATOM     31  H   LIG d   1       4.370  -4.659  -6.319  0.00  0.00     0.066 H 
ENDBRANCH  27  28
ENDBRANCH  21  27
ENDBRANCH  14  17
ENDBRANCH   6  13
BRANCH   2  32
ATOM     32  C   LIG d   1      11.744   6.792  -3.196  0.00  0.00    -0.035 C 
ATOM     33  H   LIG d   1      11.885   6.247  -2.262  0.00  0.00     0.028 H 
ATOM     34  H   LIG d   1      12.699   6.878  -3.714  0.00  0.00     0.028 H 
ATOM     35  H   LIG d   1      11.357   7.789  -2.979  0.00  0.00     0.028 H 
ENDBRANCH   2  32
BRANCH   1  36
ATOM     36  C   LIG d   1      10.375   7.854  -5.769  0.00  0.00     0.375 C 
ATOM     37  O   LIG d   1      11.415   8.112  -6.344  0.00  0.00    -0.241 OA
BRANCH  36  38
ATOM     38  O   LIG d   1       9.412   8.793  -5.662  0.00  0.00    -0.459 OA
BRANCH  38  39
ATOM     39  C   LIG d   1       9.821  10.105  -5.194  0.00  0.00     0.090 C 
ATOM     40  H   LIG d   1      10.747  10.395  -5.688  0.00  0.00     0.070 H 
ATOM     41  H   LIG d   1       9.041  10.832  -5.426  0.00  0.00     0.070 H 
BRANCH  39  42
ATOM     42  C   LIG d   1      10.041  10.061  -3.680  0.00  0.00    -0.031 C 
ATOM     43  H   LIG d   1      11.095  10.236  -3.461  0.00  0.00     0.026 H 
ATOM     44  H   LIG d   1       9.439  10.834  -3.203  0.00  0.00     0.026 H 
ATOM     45  H   LIG d   1       9.748   9.084  -3.298  0.00  0.00     0.026 H 
ENDBRANCH  39  42
ENDBRANCH  38  39
ENDBRANCH  36  38
ENDBRANCH   1  36
TORSDOF 9
ENDMDL
MODEL 9
REMARK VINA RESULT:      -5.0     11.370     13.367
REMARK  9 active torsions:
REMARK  status: ('A' for Active; 'I' for Inactive)
REMARK    1  A    between atoms: C_1  and  C_2 
REMARK    2  A    between atoms: C_2  and  O_3 
REMARK    3  A    between atoms: O_3  and  C_4 
REMARK    4  A    between atoms: C_4  and  C_6 
REMARK    5  A    between atoms: C_7  and  C_26 
REMARK    6  A    between atoms: C_11  and  N_15 
REMARK       I    between atoms: N_15  and  C_16 
REMARK    7  A    between atoms: C_16  and  C_18 
REMARK    8  A    between atoms: C_21  and  O_24 
REMARK    9  A    between atoms: O_24  and  C_25 
ROOT
ATOM      1  C   LIG d   1      -4.979   4.895 -14.904  0.00  0.00     0.215 A 
ATOM      2  C   LIG d   1      -5.431   6.038 -14.326  0.00  0.00     0.010 A 
ATOM      3  C   LIG d   1      -4.538   7.072 -14.705  0.00  0.00     0.024 A 
ATOM      4  C   LIG d   1      -4.474   8.444 -14.432  0.00  0.00    -0.049 A 
ATOM      5  C   LIG d   1      -3.462   9.194 -14.952  0.00  0.00    -0.040 A 
ATOM      6  C   LIG d   1      -2.492   8.606 -15.766  0.00  0.00     0.037 A 
ATOM      7  C   LIG d   1      -2.539   7.250 -16.047  0.00  0.00     0.003 A 
ATOM      8  C   LIG d   1      -3.560   6.471 -15.521  0.00  0.00     0.138 A 
ATOM      9  O   LIG d   1      -3.861   5.160 -15.616  0.00  0.00    -0.448 OA
ATOM     10  H   LIG d   1      -5.224   8.907 -13.807  0.00  0.00     0.062 H 
ATOM     11  H   LIG d   1      -3.412  10.252 -14.738  0.00  0.00     0.064 H 
ATOM     12  H   LIG d   1      -1.783   6.800 -16.674  0.00  0.00     0.067 H 
ENDROOT
BRANCH   6  13
ATOM     13  N   LIG d   1      -1.465   9.388 -16.296  0.00  0.00    -0.281 N 
ATOM     14  C   LIG d   1      -0.192   9.192 -15.896  0.00  0.00     0.248 C 
ATOM     15  O   LIG d   1       0.050   8.393 -15.012  0.00  0.00    -0.270 OA
ATOM     16  H   LIG d   1      -1.666  10.071 -16.954  0.00  0.00     0.155 HD
BRANCH  14  17
ATOM     17  C   LIG d   1       0.905   9.948 -16.529  0.00  0.00     0.037 A 
ATOM     18  C   LIG d   1       1.124   9.841 -17.905  0.00  0.00    -0.046 A 
ATOM     19  C   LIG d   1       2.149  10.548 -18.493  0.00  0.00    -0.019 A 
ATOM     20  H   LIG d   1       0.491   9.205 -18.507  0.00  0.00     0.063 H 
ATOM     21  C   LIG d   1       2.964  11.367 -17.721  0.00  0.00     0.120 A 
ATOM     22  H   LIG d   1       2.319  10.467 -19.557  0.00  0.00     0.065 H 
ATOM     23  C   LIG d   1       2.749  11.475 -16.352  0.00  0.00    -0.019 A 
ATOM     24  C   LIG d   1       1.723  10.776 -15.757  0.00  0.00    -0.046 A 
ATOM     25  H   LIG d   1       3.386  12.111 -15.755  0.00  0.00     0.065 H 
ATOM     26  H   LIG d   1       1.553  10.864 -14.694  0.00  0.00     0.063 H 
BRANCH  21  27
ATOM     27  O   LIG d   1       3.973  12.062 -18.304  0.00  0.00    -0.495 OA
BRANCH  27  28
ATOM     28  C   LIG d   1       4.975  12.601 -17.439  0.00  0.00     0.079 C 
ATOM     29  H   LIG d   1       5.954  12.224 -17.738  0.00  0.00     0.066 H 
ATOM     30  H   LIG d   1       4.968  13.689 -17.509  0.00  0.00     0.066 H 
ATOM     31  H   LIG d   1       4.769  12.302 -16.412  0.00  0.00     0.066 H 
ENDBRANCH  27  28
ENDBRANCH  21  27
ENDBRANCH  14  17
ENDBRANCH   6  13
BRANCH   2  32
ATOM     32  C   LIG d   1      -6.648   6.181 -13.450  0.00  0.00    -0.035 C 
ATOM     33  H   LIG d   1      -6.653   5.388 -12.703  0.00  0.00     0.028 H 
ATOM     34  H   LIG d   1      -6.625   7.150 -12.951  0.00  0.00     0.028 H 
ATOM     35  H   LIG d   1      -7.547   6.109 -14.063  0.00  0.00     0.028 H 
ENDBRANCH   2  32
BRANCH   1  36
ATOM     36  C   LIG d   1      -5.607   3.576 -14.774  0.00  0.00     0.375 C 
ATOM     37  O   LIG d   1      -6.596   3.307 -15.428  0.00  0.00    -0.241 OA
BRANCH  36  38
ATOM     38  O   LIG d   1      -5.086   2.661 -13.931  0.00  0.00    -0.459 OA
BRANCH  38  39
ATOM     39  C   LIG d   1      -5.858   2.345 -12.743  0.00  0.00     0.090 C 
ATOM     40  H   LIG d   1      -6.915   2.522 -12.938  0.00  0.00     0.070 H 
ATOM     41  H   LIG d   1      -5.708   1.297 -12.480  0.00  0.00     0.070 H 
BRANCH  39  42
ATOM     42  C   LIG d   1      -5.397   3.232 -11.584  0.00  0.00    -0.031 C 
ATOM     43  H   LIG d   1      -6.266   3.578 -11.024  0.00  0.00     0.026 H 
ATOM     44  H   LIG d   1      -4.745   2.659 -10.925  0.00  0.00     0.026 H 
ATOM     45  H   LIG d   1      -4.853   4.090 -11.977  0.00  0.00     0.026 H 
ENDBRANCH  39  42
ENDBRANCH  38  39
ENDBRANCH  36  38
ENDBRANCH   1  36
TORSDOF 9
ENDMDL
