MODEL 1
REMARK VINA RESULT:      -6.4      0.000      0.000
REMARK  4 active torsions:
REMARK  status: ('A' for Active; 'I' for Inactive)
REMARK    1  A    between atoms: C_1  and  C_2 
REMARK    2  A    between atoms: N_25  and  C_28 
REMARK    3  A    between atoms: C_31  and  O_34 
REMARK    4  A    between atoms: O_34  and  C_35 
ROOT
ATOM      1  C   LIG d   1       9.507   7.420  -5.930  0.00  0.00    -0.049 A 
ATOM      2  C   LIG d   1       9.775   8.667  -5.393  0.00  0.00    -0.051 A 
ATOM      3  C   LIG d   1      10.086   9.723  -6.221  0.00  0.00     0.005 A 
ATOM      4  C   LIG d   1      10.134   9.552  -7.601  0.00  0.00     0.057 A 
ATOM      5  C   LIG d   1       9.864   8.293  -8.135  0.00  0.00     0.063 A 
ATOM      6  C   LIG d   1       9.558   7.236  -7.300  0.00  0.00    -0.039 A 
ATOM      7 CL   LIG d   1       9.918   8.051  -9.853  0.00  0.00    -0.082 Cl
ATOM      8  N   LIG d   1      10.466  10.756  -8.225  0.00  0.00    -0.282 N 
ATOM      9  C   LIG d   1      10.650  11.754  -7.340  0.00  0.00     0.243 A 
ATOM     10  O   LIG d   1      10.943  12.903  -7.593  0.00  0.00    -0.273 OA
ATOM     11  C   LIG d   1      10.420  11.167  -5.973  0.00  0.00     0.138 A 
ATOM     12  C   LIG d   1      11.663  11.309  -5.087  0.00  0.00     0.080 A 
ATOM     13  H   LIG d   1      12.580  11.409  -5.667  0.00  0.00     0.043 H 
ATOM     14  C   LIG d   1      11.375  12.550  -4.199  0.00  0.00     0.066 A 
ATOM     15  H   LIG d   1      12.144  13.317  -4.286  0.00  0.00     0.042 H 
ATOM     16  C   LIG d   1       9.989  13.052  -4.645  0.00  0.00     0.024 C 
ATOM     17  H   LIG d   1      10.063  13.900  -5.325  0.00  0.00     0.047 H 
ATOM     18  N   LIG d   1       9.327  11.858  -5.268  0.00  0.00    -0.281 N 
ATOM     19  C   LIG d   1       8.863  11.031  -4.129  0.00  0.00     0.001 C 
ATOM     20  C   LIG d   1       8.388  12.039  -3.062  0.00  0.00    -0.039 C 
ATOM     21  C   LIG d   1       9.143  13.384  -3.401  0.00  0.00    -0.035 C 
ATOM     22  C   LIG d   1      11.290  11.969  -2.805  0.00  0.00     0.232 A 
ATOM     23  O   LIG d   1      11.071  12.602  -1.795  0.00  0.00    -0.274 OA
ATOM     24  N   LIG d   1      11.491  10.648  -2.861  0.00  0.00    -0.210 N 
ATOM     25  C   LIG d   1      11.721  10.162  -4.103  0.00  0.00     0.233 A 
ATOM     26  O   LIG d   1      11.936   9.004  -4.388  0.00  0.00    -0.274 OA
ATOM     27  H   LIG d   1       9.740   8.813  -4.323  0.00  0.00     0.062 H 
ATOM     28  H   LIG d   1       9.353   6.262  -7.719  0.00  0.00     0.064 H 
ATOM     29  H   LIG d   1      10.555  10.862  -9.185  0.00  0.00     0.155 HD
ATOM     30  H   LIG d   1       8.036  10.392  -4.438  0.00  0.00     0.043 H 
ATOM     31  H   LIG d   1       9.683  10.429  -3.739  0.00  0.00     0.043 H 
ATOM     32  H   LIG d   1       7.311  12.191  -3.138  0.00  0.00     0.028 H 
ATOM     33  H   LIG d   1       8.652  11.688  -2.065  0.00  0.00     0.028 H 
ATOM     34  H   LIG d   1       9.790  13.667  -2.570  0.00  0.00     0.028 H 
ATOM     35  H   LIG d   1       8.442  14.187  -3.625  0.00  0.00     0.028 H 
ENDROOT
BRANCH   1  36
ATOM     36  C   LIG d   1       9.168   6.265  -5.025  0.00  0.00    -0.040 C 
ATOM     37  H   LIG d   1       8.905   6.641  -4.037  0.00  0.00     0.028 H 
ATOM     38  H   LIG d   1       8.324   5.714  -5.441  0.00  0.00     0.028 H 
ATOM     39  H   LIG d   1      10.030   5.601  -4.944  0.00  0.00     0.028 H 
ENDBRANCH   1  36
BRANCH  24  40
ATOM     40  C   LIG d   1      11.473   9.829  -1.722  0.00  0.00     0.044 A 
ATOM     41  C   LIG d   1      12.623   9.672  -0.961  0.00  0.00    -0.036 A 
ATOM     42  C   LIG d   1      12.603   8.870   0.163  0.00  0.00    -0.018 A 
ATOM     43  H   LIG d   1      13.532  10.182  -1.244  0.00  0.00     0.064 H 
ATOM     44  C   LIG d   1      11.436   8.211   0.524  0.00  0.00     0.120 A 
ATOM     45  H   LIG d   1      13.496   8.752   0.759  0.00  0.00     0.066 H 
ATOM     46  C   LIG d   1      10.288   8.363  -0.240  0.00  0.00    -0.018 A 
ATOM     47  C   LIG d   1      10.306   9.169  -1.360  0.00  0.00    -0.036 A 
ATOM     48  H   LIG d   1       9.381   7.850   0.042  0.00  0.00     0.066 H 
ATOM     49  H   LIG d   1       9.412   9.287  -1.956  0.00  0.00     0.064 H 
BRANCH  44  50
ATOM     50  O   LIG d   1      11.418   7.416   1.628  0.00  0.00    -0.495 OA
BRANCH  50  51
ATOM     51  C   LIG d   1      11.043   6.051   1.438  0.00  0.00     0.079 C 
ATOM     52  H   LIG d   1       9.997   5.918   1.715  0.00  0.00     0.066 H 
ATOM     53  H   LIG d   1      11.179   5.778   0.391  0.00  0.00     0.066 H 
ATOM     54  H   LIG d   1      11.668   5.412   2.064  0.00  0.00     0.066 H 
ENDBRANCH  50  51
ENDBRANCH  44  50
ENDBRANCH  24  40
TORSDOF 4
ENDMDL
MODEL 2
REMARK VINA RESULT:      -6.2      2.761      6.431
REMARK  4 active torsions:
REMARK  status: ('A' for Active; 'I' for Inactive)
REMARK    1  A    between atoms: C_1  and  C_2 
REMARK    2  A    between atoms: N_25  and  C_28 
REMARK    3  A    between atoms: C_31  and  O_34 
REMARK    4  A    between atoms: O_34  and  C_35 
ROOT
ATOM      1  C   LIG d   1      11.210   6.145  -4.364  0.00  0.00    -0.049 A 
ATOM      2  C   LIG d   1      11.347   6.972  -3.263  0.00  0.00    -0.051 A 
ATOM      3  C   LIG d   1      11.342   6.437  -1.994  0.00  0.00     0.005 A 
ATOM      4  C   LIG d   1      11.200   5.067  -1.802  0.00  0.00     0.057 A 
ATOM      5  C   LIG d   1      11.060   4.240  -2.916  0.00  0.00     0.063 A 
ATOM      6  C   LIG d   1      11.062   4.782  -4.186  0.00  0.00    -0.039 A 
ATOM      7 CL   LIG d   1      10.881   2.527  -2.705  0.00  0.00    -0.082 Cl
ATOM      8  N   LIG d   1      11.225   4.765  -0.438  0.00  0.00    -0.282 N 
ATOM      9  C   LIG d   1      11.379   5.865   0.323  0.00  0.00     0.243 A 
ATOM     10  O   LIG d   1      11.437   5.906   1.533  0.00  0.00    -0.273 OA
ATOM     11  C   LIG d   1      11.466   7.034  -0.620  0.00  0.00     0.138 A 
ATOM     12  C   LIG d   1      10.352   8.053  -0.351  0.00  0.00     0.080 A 
ATOM     13  H   LIG d   1       9.490   7.608   0.144  0.00  0.00     0.043 H 
ATOM     14  C   LIG d   1      11.029   9.161   0.501  0.00  0.00     0.066 A 
ATOM     15  H   LIG d   1      10.524   9.328   1.452  0.00  0.00     0.042 H 
ATOM     16  C   LIG d   1      12.487   8.698   0.680  0.00  0.00     0.024 C 
ATOM     17  H   LIG d   1      12.650   8.236   1.653  0.00  0.00     0.047 H 
ATOM     18  N   LIG d   1      12.738   7.760  -0.462  0.00  0.00    -0.281 N 
ATOM     19  C   LIG d   1      12.969   8.631  -1.639  0.00  0.00     0.001 C 
ATOM     20  C   LIG d   1      13.759   9.841  -1.099  0.00  0.00    -0.039 C 
ATOM     21  C   LIG d   1      13.433   9.890   0.445  0.00  0.00    -0.035 C 
ATOM     22  C   LIG d   1      10.981  10.374  -0.402  0.00  0.00     0.232 A 
ATOM     23  O   LIG d   1      11.412  11.472  -0.123  0.00  0.00    -0.274 OA
ATOM     24  N   LIG d   1      10.389  10.046  -1.556  0.00  0.00    -0.210 N 
ATOM     25  C   LIG d   1       9.984   8.758  -1.638  0.00  0.00     0.233 A 
ATOM     26  O   LIG d   1       9.421   8.244  -2.581  0.00  0.00    -0.274 OA
ATOM     27  H   LIG d   1      11.458   8.038  -3.399  0.00  0.00     0.062 H 
ATOM     28  H   LIG d   1      10.950   4.137  -5.045  0.00  0.00     0.064 H 
ATOM     29  H   LIG d   1      11.142   3.867  -0.081  0.00  0.00     0.155 HD
ATOM     30  H   LIG d   1      13.554   8.103  -2.391  0.00  0.00     0.043 H 
ATOM     31  H   LIG d   1      12.018   8.959  -2.059  0.00  0.00     0.043 H 
ATOM     32  H   LIG d   1      14.829   9.690  -1.246  0.00  0.00     0.028 H 
ATOM     33  H   LIG d   1      13.434  10.756  -1.593  0.00  0.00     0.028 H 
ATOM     34  H   LIG d   1      12.928  10.826   0.689  0.00  0.00     0.028 H 
ATOM     35  H   LIG d   1      14.336   9.780   1.045  0.00  0.00     0.028 H 
ENDROOT
BRANCH   1  36
ATOM     36  C   LIG d   1      11.214   6.729  -5.752  0.00  0.00    -0.040 C 
ATOM     37  H   LIG d   1      10.711   7.696  -5.742  0.00  0.00     0.028 H 
ATOM     38  H   LIG d   1      12.243   6.859  -6.088  0.00  0.00     0.028 H 
ATOM     39  H   LIG d   1      10.693   6.055  -6.433  0.00  0.00     0.028 H 
ENDBRANCH   1  36
BRANCH  24  40
ATOM     40  C   LIG d   1      10.197  10.965  -2.598  0.00  0.00     0.044 A 
ATOM     41  C   LIG d   1       9.035  11.722  -2.651  0.00  0.00    -0.036 A 
ATOM     42  C   LIG d   1       8.848  12.629  -3.675  0.00  0.00    -0.018 A 
ATOM     43  H   LIG d   1       8.278  11.604  -1.889  0.00  0.00     0.064 H 
ATOM     44  C   LIG d   1       9.818  12.777  -4.657  0.00  0.00     0.120 A 
ATOM     45  H   LIG d   1       7.946  13.222  -3.714  0.00  0.00     0.066 H 
ATOM     46  C   LIG d   1      10.977  12.017  -4.607  0.00  0.00    -0.018 A 
ATOM     47  C   LIG d   1      11.166  11.113  -3.581  0.00  0.00    -0.036 A 
ATOM     48  H   LIG d   1      11.731  12.132  -5.371  0.00  0.00     0.066 H 
ATOM     49  H   LIG d   1      12.069  10.520  -3.542  0.00  0.00     0.064 H 
BRANCH  44  50
ATOM     50  O   LIG d   1       9.632  13.668  -5.668  0.00  0.00    -0.495 OA
BRANCH  50  51
ATOM     51  C   LIG d   1       9.590  13.142  -6.996  0.00  0.00     0.079 C 
ATOM     52  H   LIG d   1      10.009  12.135  -7.002  0.00  0.00     0.066 H 
ATOM     53  H   LIG d   1       8.557  13.108  -7.342  0.00  0.00     0.066 H 
ATOM     54  H   LIG d   1      10.173  13.782  -7.659  0.00  0.00     0.066 H 
ENDBRANCH  50  51
ENDBRANCH  44  50
ENDBRANCH  24  40
TORSDOF 4
ENDMDL
MODEL 3
REMARK VINA RESULT:      -6.2      3.423      6.030
REMARK  4 active torsions:
REMARK  status: ('A' for Active; 'I' for Inactive)
REMARK    1  A    between atoms: C_1  and  C_2 
REMARK    2  A    between atoms: N_25  and  C_28 
REMARK    3  A    between atoms: C_31  and  O_34 
REMARK    4  A    between atoms: O_34  and  C_35 
ROOT
ATOM      1  C   LIG d   1      10.249   7.945  -7.540  0.00  0.00    -0.049 A 
ATOM      2  C   LIG d   1      10.406   6.946  -6.595  0.00  0.00    -0.051 A 
ATOM      3  C   LIG d   1      10.060   5.648  -6.900  0.00  0.00     0.005 A 
ATOM      4  C   LIG d   1       9.550   5.325  -8.153  0.00  0.00     0.057 A 
ATOM      5  C   LIG d   1       9.394   6.336  -9.099  0.00  0.00     0.063 A 
ATOM      6  C   LIG d   1       9.738   7.637  -8.788  0.00  0.00    -0.039 A 
ATOM      7 CL   LIG d   1       8.761   5.961 -10.671  0.00  0.00    -0.082 Cl
ATOM      8  N   LIG d   1       9.276   3.957  -8.225  0.00  0.00    -0.282 N 
ATOM      9  C   LIG d   1       9.573   3.319  -7.077  0.00  0.00     0.243 A 
ATOM     10  O   LIG d   1       9.440   2.134  -6.852  0.00  0.00    -0.273 OA
ATOM     11  C   LIG d   1      10.102   4.359  -6.128  0.00  0.00     0.138 A 
ATOM     12  C   LIG d   1       9.249   4.441  -4.856  0.00  0.00     0.080 A 
ATOM     13  H   LIG d   1       8.234   4.077  -5.010  0.00  0.00     0.043 H 
ATOM     14  C   LIG d   1      10.032   3.611  -3.802  0.00  0.00     0.066 A 
ATOM     15  H   LIG d   1       9.436   2.806  -3.374  0.00  0.00     0.042 H 
ATOM     16  C   LIG d   1      11.278   3.092  -4.543  0.00  0.00     0.024 C 
ATOM     17  H   LIG d   1      11.159   2.057  -4.864  0.00  0.00     0.047 H 
ATOM     18  N   LIG d   1      11.471   4.040  -5.689  0.00  0.00    -0.281 N 
ATOM     19  C   LIG d   1      12.102   5.244  -5.096  0.00  0.00     0.001 C 
ATOM     20  C   LIG d   1      13.070   4.708  -4.021  0.00  0.00    -0.039 C 
ATOM     21  C   LIG d   1      12.518   3.277  -3.647  0.00  0.00    -0.035 C 
ATOM     22  C   LIG d   1      10.437   4.645  -2.775  0.00  0.00     0.232 A 
ATOM     23  O   LIG d   1      11.077   4.421  -1.770  0.00  0.00    -0.274 OA
ATOM     24  N   LIG d   1       9.979   5.845  -3.148  0.00  0.00    -0.210 N 
ATOM     25  C   LIG d   1       9.285   5.850  -4.309  0.00  0.00     0.233 A 
ATOM     26  O   LIG d   1       8.774   6.818  -4.832  0.00  0.00    -0.274 OA
ATOM     27  H   LIG d   1      10.801   7.184  -5.618  0.00  0.00     0.062 H 
ATOM     28  H   LIG d   1       9.612   8.417  -9.524  0.00  0.00     0.064 H 
ATOM     29  H   LIG d   1       8.914   3.518  -9.010  0.00  0.00     0.155 HD
ATOM     30  H   LIG d   1      12.652   5.796  -5.858  0.00  0.00     0.043 H 
ATOM     31  H   LIG d   1      11.345   5.881  -4.639  0.00  0.00     0.043 H 
ATOM     32  H   LIG d   1      14.077   4.620  -4.429  0.00  0.00     0.028 H 
ATOM     33  H   LIG d   1      13.068   5.363  -3.151  0.00  0.00     0.028 H 
ATOM     34  H   LIG d   1      12.230   3.252  -2.596  0.00  0.00     0.028 H 
ATOM     35  H   LIG d   1      13.254   2.501  -3.856  0.00  0.00     0.028 H 
ENDROOT
BRANCH   1  36
ATOM     36  C   LIG d   1      10.627   9.365  -7.208  0.00  0.00    -0.040 C 
ATOM     37  H   LIG d   1      10.153  10.043  -7.918  0.00  0.00     0.028 H 
ATOM     38  H   LIG d   1      10.291   9.603  -6.199  0.00  0.00     0.028 H 
ATOM     39  H   LIG d   1      11.710   9.476  -7.267  0.00  0.00     0.028 H 
ENDBRANCH   1  36
BRANCH  24  40
ATOM     40  C   LIG d   1      10.196   7.008  -2.393  0.00  0.00     0.044 A 
ATOM     41  C   LIG d   1       9.261   7.406  -1.448  0.00  0.00    -0.036 A 
ATOM     42  C   LIG d   1       9.477   8.548  -0.702  0.00  0.00    -0.018 A 
ATOM     43  H   LIG d   1       8.366   6.821  -1.292  0.00  0.00     0.064 H 
ATOM     44  C   LIG d   1      10.623   9.303  -0.906  0.00  0.00     0.120 A 
ATOM     45  H   LIG d   1       8.752   8.856   0.037  0.00  0.00     0.066 H 
ATOM     46  C   LIG d   1      11.555   8.908  -1.854  0.00  0.00    -0.018 A 
ATOM     47  C   LIG d   1      11.342   7.764  -2.597  0.00  0.00    -0.036 A 
ATOM     48  H   LIG d   1      12.447   9.496  -2.012  0.00  0.00     0.066 H 
ATOM     49  H   LIG d   1      12.068   7.456  -3.336  0.00  0.00     0.064 H 
BRANCH  44  50
ATOM     50  O   LIG d   1      10.834  10.431  -0.175  0.00  0.00    -0.495 OA
BRANCH  50  51
ATOM     51  C   LIG d   1      11.471  10.271   1.094  0.00  0.00     0.079 C 
ATOM     52  H   LIG d   1      11.581   9.209   1.316  0.00  0.00     0.066 H 
ATOM     53  H   LIG d   1      12.454  10.741   1.070  0.00  0.00     0.066 H 
ATOM     54  H   LIG d   1      10.863  10.742   1.868  0.00  0.00     0.066 H 
ENDBRANCH  50  51
ENDBRANCH  44  50
ENDBRANCH  24  40
TORSDOF 4
ENDMDL
MODEL 4
REMARK VINA RESULT:      -6.1     11.731     13.567
REMARK  4 active torsions:
REMARK  status: ('A' for Active; 'I' for Inactive)
REMARK    1  A    between atoms: C_1  and  C_2 
REMARK    2  A    between atoms: N_25  and  C_28 
REMARK    3  A    between atoms: C_31  and  O_34 
REMARK    4  A    between atoms: O_34  and  C_35 
ROOT
ATOM      1  C   LIG d   1       4.701  -4.533  -7.991  0.00  0.00    -0.049 A 
ATOM      2  C   LIG d   1       4.928  -3.529  -7.066  0.00  0.00    -0.051 A 
ATOM      3  C   LIG d   1       4.284  -2.318  -7.192  0.00  0.00     0.005 A 
ATOM      4  C   LIG d   1       3.402  -2.088  -8.243  0.00  0.00     0.057 A 
ATOM      5  C   LIG d   1       3.179  -3.104  -9.171  0.00  0.00     0.063 A 
ATOM      6  C   LIG d   1       3.831  -4.315  -9.043  0.00  0.00    -0.039 A 
ATOM      7 CL   LIG d   1       2.084  -2.845 -10.492  0.00  0.00    -0.082 Cl
ATOM      8  N   LIG d   1       2.875  -0.797  -8.158  0.00  0.00    -0.282 N 
ATOM      9  C   LIG d   1       3.353  -0.122  -7.096  0.00  0.00     0.243 A 
ATOM     10  O   LIG d   1       3.072   1.012  -6.772  0.00  0.00    -0.273 OA
ATOM     11  C   LIG d   1       4.302  -1.049  -6.386  0.00  0.00     0.138 A 
ATOM     12  C   LIG d   1       5.714  -0.455  -6.312  0.00  0.00     0.080 A 
ATOM     13  H   LIG d   1       5.898   0.282  -7.094  0.00  0.00     0.043 H 
ATOM     14  C   LIG d   1       5.814   0.147  -4.884  0.00  0.00     0.066 A 
ATOM     15  H   LIG d   1       6.067   1.207  -4.890  0.00  0.00     0.042 H 
ATOM     16  C   LIG d   1       4.445  -0.127  -4.234  0.00  0.00     0.024 C 
ATOM     17  H   LIG d   1       3.799   0.751  -4.259  0.00  0.00     0.047 H 
ATOM     18  N   LIG d   1       3.881  -1.290  -4.995  0.00  0.00    -0.281 N 
ATOM     19  C   LIG d   1       4.578  -2.482  -4.458  0.00  0.00     0.001 C 
ATOM     20  C   LIG d   1       4.738  -2.213  -2.948  0.00  0.00    -0.039 C 
ATOM     21  C   LIG d   1       4.656  -0.644  -2.798  0.00  0.00    -0.035 C 
ATOM     22  C   LIG d   1       6.878  -0.700  -4.222  0.00  0.00     0.232 A 
ATOM     23  O   LIG d   1       7.269  -0.569  -3.082  0.00  0.00    -0.274 OA
ATOM     24  N   LIG d   1       7.319  -1.617  -5.090  0.00  0.00    -0.210 N 
ATOM     25  C   LIG d   1       6.737  -1.568  -6.310  0.00  0.00     0.233 A 
ATOM     26  O   LIG d   1       6.985  -2.293  -7.250  0.00  0.00    -0.274 OA
ATOM     27  H   LIG d   1       5.611  -3.694  -6.246  0.00  0.00     0.062 H 
ATOM     28  H   LIG d   1       3.657  -5.098  -9.767  0.00  0.00     0.064 H 
ATOM     29  H   LIG d   1       2.239  -0.430  -8.792  0.00  0.00     0.155 HD
ATOM     30  H   LIG d   1       3.976  -3.377  -4.621  0.00  0.00     0.043 H 
ATOM     31  H   LIG d   1       5.555  -2.592  -4.927  0.00  0.00     0.043 H 
ATOM     32  H   LIG d   1       3.925  -2.680  -2.392  0.00  0.00     0.028 H 
ATOM     33  H   LIG d   1       5.700  -2.586  -2.597  0.00  0.00     0.028 H 
ATOM     34  H   LIG d   1       5.593  -0.259  -2.394  0.00  0.00     0.028 H 
ATOM     35  H   LIG d   1       3.821  -0.349  -2.164  0.00  0.00     0.028 H 
ENDROOT
BRANCH   1  36
ATOM     36  C   LIG d   1       5.406  -5.857  -7.855  0.00  0.00    -0.040 C 
ATOM     37  H   LIG d   1       6.209  -5.769  -7.124  0.00  0.00     0.028 H 
ATOM     38  H   LIG d   1       4.695  -6.615  -7.524  0.00  0.00     0.028 H 
ATOM     39  H   LIG d   1       5.822  -6.148  -8.821  0.00  0.00     0.028 H 
ENDBRANCH   1  36
BRANCH  24  40
ATOM     40  C   LIG d   1       8.313  -2.553  -4.766  0.00  0.00     0.044 A 
ATOM     41  C   LIG d   1       7.960  -3.784  -4.231  0.00  0.00    -0.036 A 
ATOM     42  C   LIG d   1       8.938  -4.706  -3.916  0.00  0.00    -0.018 A 
ATOM     43  H   LIG d   1       6.919  -4.023  -4.066  0.00  0.00     0.064 H 
ATOM     44  C   LIG d   1      10.274  -4.397  -4.123  0.00  0.00     0.120 A 
ATOM     45  H   LIG d   1       8.663  -5.666  -3.505  0.00  0.00     0.066 H 
ATOM     46  C   LIG d   1      10.628  -3.165  -4.652  0.00  0.00    -0.018 A 
ATOM     47  C   LIG d   1       9.651  -2.245  -4.972  0.00  0.00    -0.036 A 
ATOM     48  H   LIG d   1      11.669  -2.926  -4.813  0.00  0.00     0.066 H 
ATOM     49  H   LIG d   1       9.927  -1.284  -5.384  0.00  0.00     0.064 H 
BRANCH  44  50
ATOM     50  O   LIG d   1      11.238  -5.304  -3.808  0.00  0.00    -0.495 OA
BRANCH  50  51
ATOM     51  C   LIG d   1      10.943  -6.226  -2.757  0.00  0.00     0.079 C 
ATOM     52  H   LIG d   1      10.902  -5.694  -1.806  0.00  0.00     0.066 H 
ATOM     53  H   LIG d   1       9.980  -6.702  -2.949  0.00  0.00     0.066 H 
ATOM     54  H   LIG d   1      11.721  -6.989  -2.713  0.00  0.00     0.066 H 
ENDBRANCH  50  51
ENDBRANCH  44  50
ENDBRANCH  24  40
TORSDOF 4
ENDMDL
MODEL 5
REMARK VINA RESULT:      -5.9      2.891      5.545
REMARK  4 active torsions:
REMARK  status: ('A' for Active; 'I' for Inactive)
REMARK    1  A    between atoms: C_1  and  C_2 
REMARK    2  A    between atoms: N_25  and  C_28 
REMARK    3  A    between atoms: C_31  and  O_34 
REMARK    4  A    between atoms: O_34  and  C_35 
ROOT
ATOM      1  C   LIG d   1      11.242   9.026  -5.464  0.00  0.00    -0.049 A 
ATOM      2  C   LIG d   1      11.263   8.370  -4.246  0.00  0.00    -0.051 A 
ATOM      3  C   LIG d   1      10.738   7.102  -4.137  0.00  0.00     0.005 A 
ATOM      4  C   LIG d   1      10.182   6.466  -5.242  0.00  0.00     0.057 A 
ATOM      5  C   LIG d   1      10.162   7.134  -6.466  0.00  0.00     0.063 A 
ATOM      6  C   LIG d   1      10.686   8.408  -6.569  0.00  0.00    -0.039 A 
ATOM      7 CL   LIG d   1       9.474   6.365  -7.861  0.00  0.00    -0.082 Cl
ATOM      8  N   LIG d   1       9.719   5.197  -4.888  0.00  0.00    -0.282 N 
ATOM      9  C   LIG d   1       9.930   4.924  -3.586  0.00  0.00     0.243 A 
ATOM     10  O   LIG d   1       9.636   3.903  -3.003  0.00  0.00    -0.273 OA
ATOM     11  C   LIG d   1      10.605   6.132  -2.995  0.00  0.00     0.138 A 
ATOM     12  C   LIG d   1       9.779   6.729  -1.850  0.00  0.00     0.080 A 
ATOM     13  H   LIG d   1       8.722   6.474  -1.920  0.00  0.00     0.043 H 
ATOM     14  C   LIG d   1      10.444   6.182  -0.557  0.00  0.00     0.066 A 
ATOM     15  H   LIG d   1       9.744   5.643   0.081  0.00  0.00     0.042 H 
ATOM     16  C   LIG d   1      11.602   5.292  -1.046  0.00  0.00     0.024 C 
ATOM     17  H   LIG d   1      11.338   4.235  -1.027  0.00  0.00     0.047 H 
ATOM     18  N   LIG d   1      11.919   5.790  -2.425  0.00  0.00    -0.281 N 
ATOM     19  C   LIG d   1      12.714   7.024  -2.220  0.00  0.00     0.001 C 
ATOM     20  C   LIG d   1      13.604   6.735  -0.993  0.00  0.00    -0.039 C 
ATOM     21  C   LIG d   1      12.860   5.585  -0.207  0.00  0.00    -0.035 C 
ATOM     22  C   LIG d   1      10.994   7.426   0.105  0.00  0.00     0.232 A 
ATOM     23  O   LIG d   1      11.603   7.450   1.153  0.00  0.00    -0.274 OA
ATOM     24  N   LIG d   1      10.706   8.494  -0.647  0.00  0.00    -0.210 N 
ATOM     25  C   LIG d   1      10.013   8.221  -1.776  0.00  0.00     0.233 A 
ATOM     26  O   LIG d   1       9.639   9.031  -2.598  0.00  0.00    -0.274 OA
ATOM     27  H   LIG d   1      11.693   8.852  -3.380  0.00  0.00     0.062 H 
ATOM     28  H   LIG d   1      10.665   8.922  -7.518  0.00  0.00     0.064 H 
ATOM     29  H   LIG d   1       9.295   4.583  -5.507  0.00  0.00     0.155 HD
ATOM     30  H   LIG d   1      13.331   7.226  -3.095  0.00  0.00     0.043 H 
ATOM     31  H   LIG d   1      12.056   7.869  -2.017  0.00  0.00     0.043 H 
ATOM     32  H   LIG d   1      14.586   6.388  -1.313  0.00  0.00     0.028 H 
ATOM     33  H   LIG d   1      13.698   7.628  -0.376  0.00  0.00     0.028 H 
ATOM     34  H   LIG d   1      12.577   5.936   0.786  0.00  0.00     0.028 H 
ATOM     35  H   LIG d   1      13.480   4.692  -0.131  0.00  0.00     0.028 H 
ENDROOT
BRANCH   1  36
ATOM     36  C   LIG d   1      11.815  10.414  -5.584  0.00  0.00    -0.040 C 
ATOM     37  H   LIG d   1      11.636  10.796  -6.589  0.00  0.00     0.028 H 
ATOM     38  H   LIG d   1      11.337  11.069  -4.855  0.00  0.00     0.028 H 
ATOM     39  H   LIG d   1      12.889  10.382  -5.393  0.00  0.00     0.028 H 
ENDBRANCH   1  36
BRANCH  24  40
ATOM     40  C   LIG d   1      11.087   9.797  -0.291  0.00  0.00     0.044 A 
ATOM     41  C   LIG d   1      10.217  10.602   0.430  0.00  0.00    -0.036 A 
ATOM     42  C   LIG d   1      10.594  11.883   0.783  0.00  0.00    -0.018 A 
ATOM     43  H   LIG d   1       9.246  10.226   0.718  0.00  0.00     0.064 H 
ATOM     44  C   LIG d   1      11.838  12.368   0.408  0.00  0.00     0.120 A 
ATOM     45  H   LIG d   1       9.919  12.508   1.349  0.00  0.00     0.066 H 
ATOM     46  C   LIG d   1      12.706  11.565  -0.317  0.00  0.00    -0.018 A 
ATOM     47  C   LIG d   1      12.332  10.283  -0.666  0.00  0.00    -0.036 A 
ATOM     48  H   LIG d   1      13.675  11.943  -0.608  0.00  0.00     0.066 H 
ATOM     49  H   LIG d   1      13.008   9.658  -1.232  0.00  0.00     0.064 H 
BRANCH  44  50
ATOM     50  O   LIG d   1      12.208  13.631   0.752  0.00  0.00    -0.495 OA
BRANCH  50  51
ATOM     51  C   LIG d   1      11.172  14.513   1.188  0.00  0.00     0.079 C 
ATOM     52  H   LIG d   1      10.207  14.015   1.097  0.00  0.00     0.066 H 
ATOM     53  H   LIG d   1      11.342  14.788   2.230  0.00  0.00     0.066 H 
ATOM     54  H   LIG d   1      11.177  15.412   0.571  0.00  0.00     0.066 H 
ENDBRANCH  50  51
ENDBRANCH  44  50
ENDBRANCH  24  40
TORSDOF 4
ENDMDL
MODEL 6
REMARK VINA RESULT:      -5.9     10.577     13.444
REMARK  4 active torsions:
REMARK  status: ('A' for Active; 'I' for Inactive)
REMARK    1  A    between atoms: C_1  and  C_2 
REMARK    2  A    between atoms: N_25  and  C_28 
REMARK    3  A    between atoms: C_31  and  O_34 
REMARK    4  A    between atoms: O_34  and  C_35 
ROOT
ATOM      1  C   LIG d   1       4.304  -3.956  -7.186  0.00  0.00    -0.049 A 
ATOM      2  C   LIG d   1       4.319  -2.740  -7.846  0.00  0.00    -0.051 A 
ATOM      3  C   LIG d   1       3.770  -2.631  -9.104  0.00  0.00     0.005 A 
ATOM      4  C   LIG d   1       3.196  -3.735  -9.726  0.00  0.00     0.057 A 
ATOM      5  C   LIG d   1       3.186  -4.958  -9.056  0.00  0.00     0.063 A 
ATOM      6  C   LIG d   1       3.742  -5.063  -7.796  0.00  0.00    -0.039 A 
ATOM      7 CL   LIG d   1       2.477  -6.352  -9.809  0.00  0.00    -0.082 Cl
ATOM      8  N   LIG d   1       2.710  -3.381 -10.986  0.00  0.00    -0.282 N 
ATOM      9  C   LIG d   1       2.920  -2.080 -11.265  0.00  0.00     0.243 A 
ATOM     10  O   LIG d   1       2.604  -1.496 -12.280  0.00  0.00    -0.273 OA
ATOM     11  C   LIG d   1       3.623  -1.491 -10.072  0.00  0.00     0.138 A 
ATOM     12  C   LIG d   1       4.987  -0.907 -10.459  0.00  0.00     0.080 A 
ATOM     13  H   LIG d   1       5.391  -1.356 -11.366  0.00  0.00     0.043 H 
ATOM     14  C   LIG d   1       4.736   0.619 -10.603  0.00  0.00     0.066 A 
ATOM     15  H   LIG d   1       5.019   1.001 -11.584  0.00  0.00     0.042 H 
ATOM     16  C   LIG d   1       3.238   0.811 -10.305  0.00  0.00     0.024 C 
ATOM     17  H   LIG d   1       2.651   0.909 -11.218  0.00  0.00     0.047 H 
ATOM     18  N   LIG d   1       2.850  -0.383  -9.485  0.00  0.00    -0.281 N 
ATOM     19  C   LIG d   1       3.345  -0.095  -8.118  0.00  0.00     0.001 C 
ATOM     20  C   LIG d   1       3.120   1.418  -7.915  0.00  0.00    -0.039 C 
ATOM     21  C   LIG d   1       3.055   2.023  -9.372  0.00  0.00    -0.035 C 
ATOM     22  C   LIG d   1       5.565   1.216  -9.487  0.00  0.00     0.232 A 
ATOM     23  O   LIG d   1       5.653   2.398  -9.236  0.00  0.00    -0.274 OA
ATOM     24  N   LIG d   1       6.184   0.235  -8.820  0.00  0.00    -0.210 N 
ATOM     25  C   LIG d   1       5.937  -1.010  -9.287  0.00  0.00     0.233 A 
ATOM     26  O   LIG d   1       6.394  -2.043  -8.845  0.00  0.00    -0.274 OA
ATOM     27  H   LIG d   1       4.761  -1.875  -7.373  0.00  0.00     0.062 H 
ATOM     28  H   LIG d   1       3.734  -6.013  -7.283  0.00  0.00     0.064 H 
ATOM     29  H   LIG d   1       2.271  -3.999 -11.591  0.00  0.00     0.155 HD
ATOM     30  H   LIG d   1       2.776  -0.663  -7.382  0.00  0.00     0.043 H 
ATOM     31  H   LIG d   1       4.406  -0.332  -8.042  0.00  0.00     0.043 H 
ATOM     32  H   LIG d   1       2.175   1.594  -7.400  0.00  0.00     0.028 H 
ATOM     33  H   LIG d   1       3.946   1.851  -7.353  0.00  0.00     0.028 H 
ATOM     34  H   LIG d   1       3.868   2.735  -9.516  0.00  0.00     0.028 H 
ATOM     35  H   LIG d   1       2.095   2.503  -9.560  0.00  0.00     0.028 H 
ENDROOT
BRANCH   1  36
ATOM     36  C   LIG d   1       4.905  -4.077  -5.810  0.00  0.00    -0.040 C 
ATOM     37  H   LIG d   1       5.984  -4.204  -5.894  0.00  0.00     0.028 H 
ATOM     38  H   LIG d   1       4.689  -3.174  -5.239  0.00  0.00     0.028 H 
ATOM     39  H   LIG d   1       4.475  -4.940  -5.300  0.00  0.00     0.028 H 
ENDBRANCH   1  36
BRANCH  24  40
ATOM     40  C   LIG d   1       7.029   0.477  -7.727  0.00  0.00     0.044 A 
ATOM     41  C   LIG d   1       8.310   0.968  -7.934  0.00  0.00    -0.036 A 
ATOM     42  C   LIG d   1       9.139   1.210  -6.857  0.00  0.00    -0.018 A 
ATOM     43  H   LIG d   1       8.658   1.165  -8.938  0.00  0.00     0.064 H 
ATOM     44  C   LIG d   1       8.695   0.953  -5.568  0.00  0.00     0.120 A 
ATOM     45  H   LIG d   1      10.135   1.597  -7.018  0.00  0.00     0.066 H 
ATOM     46  C   LIG d   1       7.416   0.457  -5.361  0.00  0.00    -0.018 A 
ATOM     47  C   LIG d   1       6.585   0.219  -6.437  0.00  0.00    -0.036 A 
ATOM     48  H   LIG d   1       7.072   0.257  -4.357  0.00  0.00     0.066 H 
ATOM     49  H   LIG d   1       5.589  -0.167  -6.275  0.00  0.00     0.064 H 
BRANCH  44  50
ATOM     50  O   LIG d   1       9.514   1.187  -4.508  0.00  0.00    -0.495 OA
BRANCH  50  51
ATOM     51  C   LIG d   1       9.162   2.270  -3.644  0.00  0.00     0.079 C 
ATOM     52  H   LIG d   1       9.623   2.121  -2.667  0.00  0.00     0.066 H 
ATOM     53  H   LIG d   1       9.515   3.208  -4.074  0.00  0.00     0.066 H 
ATOM     54  H   LIG d   1       8.078   2.308  -3.531  0.00  0.00     0.066 H 
ENDBRANCH  50  51
ENDBRANCH  44  50
ENDBRANCH  24  40
TORSDOF 4
ENDMDL
MODEL 7
REMARK VINA RESULT:      -5.8     11.316     14.295
REMARK  4 active torsions:
REMARK  status: ('A' for Active; 'I' for Inactive)
REMARK    1  A    between atoms: C_1  and  C_2 
REMARK    2  A    between atoms: N_25  and  C_28 
REMARK    3  A    between atoms: C_31  and  O_34 
REMARK    4  A    between atoms: O_34  and  C_35 
ROOT
ATOM      1  C   LIG d   1       3.363  -2.085  -9.095  0.00  0.00    -0.049 A 
ATOM      2  C   LIG d   1       4.233  -2.004  -8.022  0.00  0.00    -0.051 A 
ATOM      3  C   LIG d   1       5.004  -0.877  -7.843  0.00  0.00     0.005 A 
ATOM      4  C   LIG d   1       4.920   0.189  -8.732  0.00  0.00     0.057 A 
ATOM      5  C   LIG d   1       4.043   0.100  -9.812  0.00  0.00     0.063 A 
ATOM      6  C   LIG d   1       3.274  -1.034  -9.989  0.00  0.00    -0.039 A 
ATOM      7 CL   LIG d   1       3.918   1.415 -10.937  0.00  0.00    -0.082 Cl
ATOM      8  N   LIG d   1       5.790   1.210  -8.345  0.00  0.00    -0.282 N 
ATOM      9  C   LIG d   1       6.473   0.900  -7.227  0.00  0.00     0.243 A 
ATOM     10  O   LIG d   1       7.293   1.593  -6.662  0.00  0.00    -0.273 OA
ATOM     11  C   LIG d   1       6.021  -0.474  -6.812  0.00  0.00     0.138 A 
ATOM     12  C   LIG d   1       7.195  -1.460  -6.771  0.00  0.00     0.080 A 
ATOM     13  H   LIG d   1       8.022  -1.151  -7.409  0.00  0.00     0.043 H 
ATOM     14  C   LIG d   1       7.591  -1.539  -5.271  0.00  0.00     0.066 A 
ATOM     15  H   LIG d   1       8.638  -1.287  -5.098  0.00  0.00     0.042 H 
ATOM     16  C   LIG d   1       6.628  -0.579  -4.549  0.00  0.00     0.024 C 
ATOM     17  H   LIG d   1       7.094   0.383  -4.336  0.00  0.00     0.047 H 
ATOM     18  N   LIG d   1       5.441  -0.464  -5.459  0.00  0.00    -0.281 N 
ATOM     19  C   LIG d   1       4.659  -1.704  -5.238  0.00  0.00     0.001 C 
ATOM     20  C   LIG d   1       4.782  -1.999  -3.729  0.00  0.00    -0.039 C 
ATOM     21  C   LIG d   1       6.097  -1.255  -3.270  0.00  0.00    -0.035 C 
ATOM     22  C   LIG d   1       7.268  -2.969  -4.899  0.00  0.00     0.232 A 
ATOM     23  O   LIG d   1       7.425  -3.460  -3.802  0.00  0.00    -0.274 OA
ATOM     24  N   LIG d   1       6.782  -3.607  -5.970  0.00  0.00    -0.210 N 
ATOM     25  C   LIG d   1       6.702  -2.853  -7.090  0.00  0.00     0.233 A 
ATOM     26  O   LIG d   1       6.302  -3.224  -8.174  0.00  0.00    -0.274 OA
ATOM     27  H   LIG d   1       4.307  -2.825  -7.323  0.00  0.00     0.062 H 
ATOM     28  H   LIG d   1       2.599  -1.099 -10.829  0.00  0.00     0.064 H 
ATOM     29  H   LIG d   1       5.891   2.047  -8.826  0.00  0.00     0.155 HD
ATOM     30  H   LIG d   1       3.615  -1.546  -5.508  0.00  0.00     0.043 H 
ATOM     31  H   LIG d   1       5.081  -2.525  -5.818  0.00  0.00     0.043 H 
ATOM     32  H   LIG d   1       3.924  -1.594  -3.194  0.00  0.00     0.028 H 
ATOM     33  H   LIG d   1       4.866  -3.072  -3.559  0.00  0.00     0.028 H 
ATOM     34  H   LIG d   1       6.824  -1.978  -2.898  0.00  0.00     0.028 H 
ATOM     35  H   LIG d   1       5.884  -0.506  -2.508  0.00  0.00     0.028 H 
ENDROOT
BRANCH   1  36
ATOM     36  C   LIG d   1       2.519  -3.317  -9.292  0.00  0.00    -0.040 C 
ATOM     37  H   LIG d   1       1.643  -3.266  -8.647  0.00  0.00     0.028 H 
ATOM     38  H   LIG d   1       2.201  -3.377 -10.333  0.00  0.00     0.028 H 
ATOM     39  H   LIG d   1       3.105  -4.203  -9.040  0.00  0.00     0.028 H 
ENDBRANCH   1  36
BRANCH  24  40
ATOM     40  C   LIG d   1       6.391  -4.954  -5.938  0.00  0.00     0.044 A 
ATOM     41  C   LIG d   1       5.062  -5.286  -5.715  0.00  0.00    -0.036 A 
ATOM     42  C   LIG d   1       4.677  -6.612  -5.687  0.00  0.00    -0.018 A 
ATOM     43  H   LIG d   1       4.328  -4.508  -5.568  0.00  0.00     0.064 H 
ATOM     44  C   LIG d   1       5.621  -7.612  -5.871  0.00  0.00     0.120 A 
ATOM     45  H   LIG d   1       3.642  -6.871  -5.519  0.00  0.00     0.066 H 
ATOM     46  C   LIG d   1       6.950  -7.281  -6.088  0.00  0.00    -0.018 A 
ATOM     47  C   LIG d   1       7.335  -5.955  -6.121  0.00  0.00    -0.036 A 
ATOM     48  H   LIG d   1       7.684  -8.060  -6.231  0.00  0.00     0.066 H 
ATOM     49  H   LIG d   1       8.371  -5.698  -6.290  0.00  0.00     0.064 H 
BRANCH  44  50
ATOM     50  O   LIG d   1       5.242  -8.918  -5.839  0.00  0.00    -0.495 OA
BRANCH  50  51
ATOM     51  C   LIG d   1       6.157  -9.845  -5.249  0.00  0.00     0.079 C 
ATOM     52  H   LIG d   1       7.173  -9.463  -5.345  0.00  0.00     0.066 H 
ATOM     53  H   LIG d   1       5.914  -9.974  -4.194  0.00  0.00     0.066 H 
ATOM     54  H   LIG d   1       6.080 -10.806  -5.759  0.00  0.00     0.066 H 
ENDBRANCH  50  51
ENDBRANCH  44  50
ENDBRANCH  24  40
TORSDOF 4
ENDMDL
MODEL 8
REMARK VINA RESULT:      -5.7      3.898      6.533
REMARK  4 active torsions:
REMARK  status: ('A' for Active; 'I' for Inactive)
REMARK    1  A    between atoms: C_1  and  C_2 
REMARK    2  A    between atoms: N_25  and  C_28 
REMARK    3  A    between atoms: C_31  and  O_34 
REMARK    4  A    between atoms: O_34  and  C_35 
ROOT
ATOM      1  C   LIG d   1      10.930   6.876  -1.274  0.00  0.00    -0.049 A 
ATOM      2  C   LIG d   1      10.872   7.008  -2.650  0.00  0.00    -0.051 A 
ATOM      3  C   LIG d   1      10.386   8.167  -3.212  0.00  0.00     0.005 A 
ATOM      4  C   LIG d   1       9.950   9.217  -2.410  0.00  0.00     0.057 A 
ATOM      5  C   LIG d   1      10.010   9.076  -1.024  0.00  0.00     0.063 A 
ATOM      6  C   LIG d   1      10.494   7.910  -0.465  0.00  0.00    -0.039 A 
ATOM      7 CL   LIG d   1       9.472  10.369   0.001  0.00  0.00    -0.082 Cl
ATOM      8  N   LIG d   1       9.506  10.278  -3.201  0.00  0.00    -0.282 N 
ATOM      9  C   LIG d   1       9.615  10.011  -4.516  0.00  0.00     0.243 A 
ATOM     10  O   LIG d   1       9.310  10.745  -5.432  0.00  0.00    -0.273 OA
ATOM     11  C   LIG d   1      10.192   8.626  -4.630  0.00  0.00     0.138 A 
ATOM     12  C   LIG d   1       9.250   7.690  -5.396  0.00  0.00     0.080 A 
ATOM     13  H   LIG d   1       8.213   8.023  -5.364  0.00  0.00     0.043 H 
ATOM     14  C   LIG d   1       9.823   7.649  -6.839  0.00  0.00     0.066 A 
ATOM     15  H   LIG d   1       9.091   7.945  -7.591  0.00  0.00     0.042 H 
ATOM     16  C   LIG d   1      11.050   8.579  -6.813  0.00  0.00     0.024 C 
ATOM     17  H   LIG d   1      10.824   9.562  -7.226  0.00  0.00     0.047 H 
ATOM     18  N   LIG d   1      11.464   8.632  -5.372  0.00  0.00    -0.281 N 
ATOM     19  C   LIG d   1      12.193   7.365  -5.129  0.00  0.00     0.001 C 
ATOM     20  C   LIG d   1      12.985   7.097  -6.426  0.00  0.00    -0.039 C 
ATOM     21  C   LIG d   1      12.220   7.900  -7.549  0.00  0.00    -0.035 C 
ATOM     22  C   LIG d   1      10.268   6.212  -6.997  0.00  0.00     0.232 A 
ATOM     23  O   LIG d   1      10.784   5.743  -7.989  0.00  0.00    -0.274 OA
ATOM     24  N   LIG d   1      10.006   5.539  -5.871  0.00  0.00    -0.210 N 
ATOM     25  C   LIG d   1       9.422   6.273  -4.896  0.00  0.00     0.233 A 
ATOM     26  O   LIG d   1       9.090   5.871  -3.801  0.00  0.00    -0.274 OA
ATOM     27  H   LIG d   1      11.208   6.200  -3.285  0.00  0.00     0.062 H 
ATOM     28  H   LIG d   1      10.535   7.805   0.609  0.00  0.00     0.064 H 
ATOM     29  H   LIG d   1       9.159  11.111  -2.845  0.00  0.00     0.155 HD
ATOM     30  H   LIG d   1      12.875   7.476  -4.286  0.00  0.00     0.043 H 
ATOM     31  H   LIG d   1      11.489   6.553  -4.943  0.00  0.00     0.043 H 
ATOM     32  H   LIG d   1      14.004   7.474  -6.331  0.00  0.00     0.028 H 
ATOM     33  H   LIG d   1      12.994   6.031  -6.650  0.00  0.00     0.028 H 
ATOM     34  H   LIG d   1      11.841   7.213  -8.306  0.00  0.00     0.028 H 
ATOM     35  H   LIG d   1      12.863   8.651  -8.008  0.00  0.00     0.028 H 
ENDROOT
BRANCH   1  36
ATOM     36  C   LIG d   1      11.460   5.608  -0.658  0.00  0.00    -0.040 C 
ATOM     37  H   LIG d   1      11.424   5.688   0.428  0.00  0.00     0.028 H 
ATOM     38  H   LIG d   1      10.849   4.764  -0.981  0.00  0.00     0.028 H 
ATOM     39  H   LIG d   1      12.491   5.452  -0.977  0.00  0.00     0.028 H 
ENDBRANCH   1  36
BRANCH  24  40
ATOM     40  C   LIG d   1      10.307   4.178  -5.713  0.00  0.00     0.044 A 
ATOM     41  C   LIG d   1      11.528   3.795  -5.174  0.00  0.00    -0.036 A 
ATOM     42  C   LIG d   1      11.822   2.455  -5.015  0.00  0.00    -0.018 A 
ATOM     43  H   LIG d   1      12.246   4.544  -4.876  0.00  0.00     0.064 H 
ATOM     44  C   LIG d   1      10.901   1.492  -5.403  0.00  0.00     0.120 A 
ATOM     45  H   LIG d   1      12.769   2.156  -4.592  0.00  0.00     0.066 H 
ATOM     46  C   LIG d   1       9.683   1.875  -5.946  0.00  0.00    -0.018 A 
ATOM     47  C   LIG d   1       9.387   3.214  -6.101  0.00  0.00    -0.036 A 
ATOM     48  H   LIG d   1       8.968   1.124  -6.248  0.00  0.00     0.066 H 
ATOM     49  H   LIG d   1       8.438   3.512  -6.524  0.00  0.00     0.064 H 
BRANCH  44  50
ATOM     50  O   LIG d   1      11.193   0.172  -5.251  0.00  0.00    -0.495 OA
BRANCH  50  51
ATOM     51  C   LIG d   1      12.300  -0.154  -4.408  0.00  0.00     0.079 C 
ATOM     52  H   LIG d   1      12.854  -0.987  -4.842  0.00  0.00     0.066 H 
ATOM     53  H   LIG d   1      12.956   0.712  -4.317  0.00  0.00     0.066 H 
ATOM     54  H   LIG d   1      11.934  -0.437  -3.420  0.00  0.00     0.066 H 
ENDBRANCH  50  51
ENDBRANCH  44  50
ENDBRANCH  24  40
TORSDOF 4
ENDMDL
MODEL 9
REMARK VINA RESULT:      -5.6      3.247      6.709
REMARK  4 active torsions:
REMARK  status: ('A' for Active; 'I' for Inactive)
REMARK    1  A    between atoms: C_1  and  C_2 
REMARK    2  A    between atoms: N_25  and  C_28 
REMARK    3  A    between atoms: C_31  and  O_34 
REMARK    4  A    between atoms: O_34  and  C_35 
ROOT
ATOM      1  C   LIG d   1      10.721   6.349  -3.106  0.00  0.00    -0.049 A 
ATOM      2  C   LIG d   1      10.769   7.307  -4.103  0.00  0.00    -0.051 A 
ATOM      3  C   LIG d   1      10.665   8.643  -3.781  0.00  0.00     0.005 A 
ATOM      4  C   LIG d   1      10.511   9.045  -2.458  0.00  0.00     0.057 A 
ATOM      5  C   LIG d   1      10.462   8.073  -1.460  0.00  0.00     0.063 A 
ATOM      6  C   LIG d   1      10.562   6.735  -1.787  0.00  0.00    -0.039 A 
ATOM      7 CL   LIG d   1      10.270   8.546   0.199  0.00  0.00    -0.082 Cl
ATOM      8  N   LIG d   1      10.430  10.437  -2.383  0.00  0.00    -0.282 N 
ATOM      9  C   LIG d   1      10.522  11.017  -3.594  0.00  0.00     0.243 A 
ATOM     10  O   LIG d   1      10.484  12.206  -3.832  0.00  0.00    -0.273 OA
ATOM     11  C   LIG d   1      10.680   9.906  -4.596  0.00  0.00     0.138 A 
ATOM     12  C   LIG d   1       9.546   9.918  -5.628  0.00  0.00     0.080 A 
ATOM     13  H   LIG d   1       8.649  10.411  -5.257  0.00  0.00     0.043 H 
ATOM     14  C   LIG d   1      10.152  10.627  -6.870  0.00  0.00     0.066 A 
ATOM     15  H   LIG d   1       9.573  11.497  -7.181  0.00  0.00     0.042 H 
ATOM     16  C   LIG d   1      11.592  10.992  -6.464  0.00  0.00     0.024 C 
ATOM     17  H   LIG d   1      11.679  12.037  -6.169  0.00  0.00     0.047 H 
ATOM     18  N   LIG d   1      11.934  10.041  -5.356  0.00  0.00    -0.281 N 
ATOM     19  C   LIG d   1      12.255   8.759  -6.028  0.00  0.00     0.001 C 
ATOM     20  C   LIG d   1      12.998   9.153  -7.321  0.00  0.00    -0.039 C 
ATOM     21  C   LIG d   1      12.551  10.638  -7.616  0.00  0.00    -0.035 C 
ATOM     22  C   LIG d   1      10.172   9.538  -7.919  0.00  0.00     0.232 A 
ATOM     23  O   LIG d   1      10.577   9.665  -9.054  0.00  0.00    -0.274 OA
ATOM     24  N   LIG d   1       9.673   8.410  -7.398  0.00  0.00    -0.210 N 
ATOM     25  C   LIG d   1       9.279   8.509  -6.108  0.00  0.00     0.233 A 
ATOM     26  O   LIG d   1       8.793   7.622  -5.440  0.00  0.00    -0.274 OA
ATOM     27  H   LIG d   1      10.888   7.009  -5.134  0.00  0.00     0.062 H 
ATOM     28  H   LIG d   1      10.520   5.987  -1.010  0.00  0.00     0.064 H 
ATOM     29  H   LIG d   1      10.321  10.928  -1.554  0.00  0.00     0.155 HD
ATOM     30  H   LIG d   1      12.899   8.151  -5.393  0.00  0.00     0.043 H 
ATOM     31  H   LIG d   1      11.339   8.219  -6.268  0.00  0.00     0.043 H 
ATOM     32  H   LIG d   1      14.076   9.116  -7.164  0.00  0.00     0.028 H 
ATOM     33  H   LIG d   1      12.710   8.493  -8.138  0.00  0.00     0.028 H 
ATOM     34  H   LIG d   1      12.027  10.687  -8.571  0.00  0.00     0.028 H 
ATOM     35  H   LIG d   1      13.404  11.316  -7.618  0.00  0.00     0.028 H 
ENDROOT
BRANCH   1  36
ATOM     36  C   LIG d   1      10.833   4.888  -3.456  0.00  0.00    -0.040 C 
ATOM     37  H   LIG d   1      11.367   4.364  -2.664  0.00  0.00     0.028 H 
ATOM     38  H   LIG d   1       9.835   4.463  -3.565  0.00  0.00     0.028 H 
ATOM     39  H   LIG d   1      11.378   4.780  -4.395  0.00  0.00     0.028 H 
ENDBRANCH   1  36
BRANCH  24  40
ATOM     40  C   LIG d   1       9.562   7.220  -8.132  0.00  0.00     0.044 A 
ATOM     41  C   LIG d   1       8.563   7.084  -9.087  0.00  0.00    -0.036 A 
ATOM     42  C   LIG d   1       8.456   5.914  -9.812  0.00  0.00    -0.018 A 
ATOM     43  H   LIG d   1       7.871   7.895  -9.265  0.00  0.00     0.064 H 
ATOM     44  C   LIG d   1       9.341   4.871  -9.580  0.00  0.00     0.120 A 
ATOM     45  H   LIG d   1       7.682   5.809 -10.558  0.00  0.00     0.066 H 
ATOM     46  C   LIG d   1      10.336   5.005  -8.623  0.00  0.00    -0.018 A 
ATOM     47  C   LIG d   1      10.446   6.176  -7.900  0.00  0.00    -0.036 A 
ATOM     48  H   LIG d   1      11.024   4.192  -8.443  0.00  0.00     0.066 H 
ATOM     49  H   LIG d   1      11.221   6.280  -7.154  0.00  0.00     0.064 H 
BRANCH  44  50
ATOM     50  O   LIG d   1       9.233   3.716 -10.291  0.00  0.00    -0.495 OA
BRANCH  50  51
ATOM     51  C   LIG d   1      10.292   3.414 -11.202  0.00  0.00     0.079 C 
ATOM     52  H   LIG d   1      10.712   4.342 -11.592  0.00  0.00     0.066 H 
ATOM     53  H   LIG d   1      11.069   2.853 -10.683  0.00  0.00     0.066 H 
ATOM     54  H   LIG d   1       9.902   2.817 -12.027  0.00  0.00     0.066 H 
ENDBRANCH  50  51
ENDBRANCH  44  50
ENDBRANCH  24  40
TORSDOF 4
ENDMDL
