MODEL 1
REMARK VINA RESULT:      -7.4      0.000      0.000
REMARK  6 active torsions:
REMARK  status: ('A' for Active; 'I' for Inactive)
REMARK    1  A    between atoms: C_1  and  O_2 
REMARK    2  A    between atoms: O_2  and  C_3 
REMARK    3  A    between atoms: C_8  and  C_9 
REMARK    4  A    between atoms: C_19  and  C_20 
REMARK    5  A    between atoms: N_25  and  C_28 
REMARK    6  A    between atoms: C_28  and  C_29 
ROOT
ATOM      1  C   LIG d   1       4.031  -0.764  -5.703  0.00  0.00     0.080 A 
ATOM      2  C   LIG d   1       3.373   0.054  -6.737  0.00  0.00     0.201 A 
ATOM      3  O   LIG d   1       3.015   1.199  -6.521  0.00  0.00    -0.286 OA
ATOM      4  C   LIG d   1       3.170  -0.591  -8.048  0.00  0.00     0.065 A 
ATOM      5  C   LIG d   1       2.556   0.091  -9.099  0.00  0.00    -0.044 A 
ATOM      6  C   LIG d   1       2.387  -0.530 -10.302  0.00  0.00    -0.019 A 
ATOM      7  C   LIG d   1       2.820  -1.845 -10.486  0.00  0.00     0.130 A 
ATOM      8  C   LIG d   1       3.425  -2.534  -9.452  0.00  0.00     0.051 A 
ATOM      9  C   LIG d   1       3.604  -1.915  -8.216  0.00  0.00     0.147 A 
ATOM     10  O   LIG d   1       4.192  -2.586  -7.208  0.00  0.00    -0.449 OA
ATOM     11  C   LIG d   1       4.399  -2.030  -6.018  0.00  0.00     0.220 A 
ATOM     12  C   LIG d   1       3.899  -3.952  -9.638  0.00  0.00     0.034 C 
ATOM     13  N   LIG d   1       3.261  -4.532 -10.828  0.00  0.00    -0.262 N 
ATOM     14  C   LIG d   1       3.391  -3.615 -11.971  0.00  0.00     0.144 C 
ATOM     15  O   LIG d   1       2.632  -2.434 -11.696  0.00  0.00    -0.476 OA
ATOM     16  H   LIG d   1       2.221   1.109  -8.963  0.00  0.00     0.063 H 
ATOM     17  H   LIG d   1       1.916  -0.001 -11.118  0.00  0.00     0.065 H 
ATOM     18  H   LIG d   1       4.991  -3.959  -9.769  0.00  0.00     0.048 H 
ATOM     19  H   LIG d   1       3.632  -4.547  -8.753  0.00  0.00     0.048 H 
ATOM     20  H   LIG d   1       4.450  -3.354 -12.114  0.00  0.00     0.087 H 
ATOM     21  H   LIG d   1       3.009  -4.102 -12.879  0.00  0.00     0.087 H 
ENDROOT
BRANCH   1  22
ATOM     22  C   LIG d   1       4.284  -0.214  -4.348  0.00  0.00     0.031 A 
ATOM     23  C   LIG d   1       5.485   0.449  -4.074  0.00  0.00     0.128 A 
ATOM     24  C   LIG d   1       5.713   0.959  -2.806  0.00  0.00    -0.019 A 
ATOM     25  C   LIG d   1       4.758   0.814  -1.819  0.00  0.00    -0.058 A 
ATOM     26  H   LIG d   1       6.640   1.472  -2.591  0.00  0.00     0.065 H 
ATOM     27  C   LIG d   1       3.570   0.159  -2.087  0.00  0.00    -0.061 A 
ATOM     28  H   LIG d   1       4.940   1.214  -0.832  0.00  0.00     0.062 H 
ATOM     29  C   LIG d   1       3.327  -0.351  -3.348  0.00  0.00    -0.050 A 
ATOM     30  H   LIG d   1       2.827   0.050  -1.310  0.00  0.00     0.062 H 
ATOM     31  H   LIG d   1       2.396  -0.858  -3.555  0.00  0.00     0.062 H 
BRANCH  23  32
ATOM     32  O   LIG d   1       6.423   0.592  -5.046  0.00  0.00    -0.494 OA
BRANCH  32  33
ATOM     33  C   LIG d   1       7.780   0.736  -4.622  0.00  0.00     0.079 C 
ATOM     34  H   LIG d   1       7.812   1.313  -3.686  0.00  0.00     0.066 H 
ATOM     35  H   LIG d   1       8.352   1.264  -5.399  0.00  0.00     0.066 H 
ATOM     36  H   LIG d   1       8.219  -0.258  -4.455  0.00  0.00     0.066 H 
ENDBRANCH  32  33
ENDBRANCH  23  32
ENDBRANCH   1  22
BRANCH  11  37
ATOM     37  C   LIG d   1       5.072  -2.861  -4.954  0.00  0.00     0.451 C 
ATOM     38  F   LIG d   1       6.323  -2.312  -4.656  0.00  0.00    -0.163 F 
ATOM     39  F   LIG d   1       4.280  -2.871  -3.801  0.00  0.00    -0.163 F 
ATOM     40  F   LIG d   1       5.236  -4.170  -5.420  0.00  0.00    -0.163 F 
ENDBRANCH  11  37
BRANCH  13  41
ATOM     41  C   LIG d   1       3.832  -5.848 -11.142  0.00  0.00     0.029 C 
ATOM     42  H   LIG d   1       4.183  -5.857 -12.185  0.00  0.00     0.048 H 
ATOM     43  H   LIG d   1       4.678  -6.052 -10.469  0.00  0.00     0.048 H 
BRANCH  41  44
ATOM     44  C   LIG d   1       2.779  -6.910 -10.958  0.00  0.00    -0.015 A 
ATOM     45  C   LIG d   1       1.652  -6.655 -10.200  0.00  0.00     0.032 A 
ATOM     46  N   LIG d   1       0.722  -7.577 -10.039  0.00  0.00    -0.263 NA
ATOM     47  H   LIG d   1       1.528  -5.687  -9.738  0.00  0.00     0.083 H 
ATOM     48  C   LIG d   1       0.834  -8.774 -10.581  0.00  0.00     0.028 A 
ATOM     49  C   LIG d   1       1.935  -9.105 -11.348  0.00  0.00    -0.043 A 
ATOM     50  H   LIG d   1       0.055  -9.506 -10.425  0.00  0.00     0.083 H 
ATOM     51  C   LIG d   1       2.930  -8.159 -11.543  0.00  0.00    -0.054 A 
ATOM     52  H   LIG d   1       2.022 -10.087 -11.788  0.00  0.00     0.063 H 
ATOM     53  H   LIG d   1       3.802  -8.389 -12.137  0.00  0.00     0.062 H 
ENDBRANCH  41  44
ENDBRANCH  13  41
TORSDOF 6
ENDMDL
MODEL 2
REMARK VINA RESULT:      -7.0      2.277      3.149
REMARK  6 active torsions:
REMARK  status: ('A' for Active; 'I' for Inactive)
REMARK    1  A    between atoms: C_1  and  O_2 
REMARK    2  A    between atoms: O_2  and  C_3 
REMARK    3  A    between atoms: C_8  and  C_9 
REMARK    4  A    between atoms: C_19  and  C_20 
REMARK    5  A    between atoms: N_25  and  C_28 
REMARK    6  A    between atoms: C_28  and  C_29 
ROOT
ATOM      1  C   LIG d   1       4.873  -2.073  -6.666  0.00  0.00     0.080 A 
ATOM      2  C   LIG d   1       4.488  -0.787  -7.273  0.00  0.00     0.201 A 
ATOM      3  O   LIG d   1       4.923   0.275  -6.861  0.00  0.00    -0.286 OA
ATOM      4  C   LIG d   1       3.548  -0.855  -8.407  0.00  0.00     0.065 A 
ATOM      5  C   LIG d   1       3.116   0.302  -9.056  0.00  0.00    -0.044 A 
ATOM      6  C   LIG d   1       2.249   0.207 -10.106  0.00  0.00    -0.019 A 
ATOM      7  C   LIG d   1       1.789  -1.041 -10.530  0.00  0.00     0.130 A 
ATOM      8  C   LIG d   1       2.204  -2.195  -9.893  0.00  0.00     0.051 A 
ATOM      9  C   LIG d   1       3.088  -2.116  -8.819  0.00  0.00     0.147 A 
ATOM     10  O   LIG d   1       3.492  -3.239  -8.197  0.00  0.00    -0.449 OA
ATOM     11  C   LIG d   1       4.347  -3.213  -7.179  0.00  0.00     0.220 A 
ATOM     12  C   LIG d   1       1.717  -3.548 -10.344  0.00  0.00     0.034 C 
ATOM     13  N   LIG d   1       0.519  -3.386 -11.180  0.00  0.00    -0.262 N 
ATOM     14  C   LIG d   1       0.757  -2.368 -12.215  0.00  0.00     0.144 C 
ATOM     15  O   LIG d   1       0.924  -1.099 -11.577  0.00  0.00    -0.476 OA
ATOM     16  H   LIG d   1       3.471   1.270  -8.732  0.00  0.00     0.063 H 
ATOM     17  H   LIG d   1       1.918   1.102 -10.611  0.00  0.00     0.065 H 
ATOM     18  H   LIG d   1       2.505  -4.046 -10.928  0.00  0.00     0.048 H 
ATOM     19  H   LIG d   1       1.469  -4.160  -9.465  0.00  0.00     0.048 H 
ATOM     20  H   LIG d   1       1.665  -2.625 -12.781  0.00  0.00     0.087 H 
ATOM     21  H   LIG d   1      -0.102  -2.332 -12.900  0.00  0.00     0.087 H 
ENDROOT
BRANCH   1  22
ATOM     22  C   LIG d   1       5.814  -2.120  -5.519  0.00  0.00     0.031 A 
ATOM     23  C   LIG d   1       5.346  -1.905  -4.220  0.00  0.00     0.128 A 
ATOM     24  C   LIG d   1       6.231  -1.950  -3.155  0.00  0.00    -0.019 A 
ATOM     25  C   LIG d   1       7.570  -2.207  -3.378  0.00  0.00    -0.058 A 
ATOM     26  H   LIG d   1       5.873  -1.785  -2.149  0.00  0.00     0.065 H 
ATOM     27  C   LIG d   1       8.036  -2.420  -4.663  0.00  0.00    -0.061 A 
ATOM     28  H   LIG d   1       8.257  -2.242  -2.545  0.00  0.00     0.062 H 
ATOM     29  C   LIG d   1       7.164  -2.382  -5.733  0.00  0.00    -0.050 A 
ATOM     30  H   LIG d   1       9.084  -2.621  -4.830  0.00  0.00     0.062 H 
ATOM     31  H   LIG d   1       7.530  -2.553  -6.734  0.00  0.00     0.062 H 
BRANCH  23  32
ATOM     32  O   LIG d   1       4.029  -1.653  -4.001  0.00  0.00    -0.494 OA
BRANCH  32  33
ATOM     33  C   LIG d   1       3.562  -1.761  -2.654  0.00  0.00     0.079 C 
ATOM     34  H   LIG d   1       4.421  -1.879  -1.977  0.00  0.00     0.066 H 
ATOM     35  H   LIG d   1       2.901  -2.636  -2.564  0.00  0.00     0.066 H 
ATOM     36  H   LIG d   1       3.006  -0.851  -2.385  0.00  0.00     0.066 H 
ENDBRANCH  32  33
ENDBRANCH  23  32
ENDBRANCH   1  22
BRANCH  11  37
ATOM     37  C   LIG d   1       4.745  -4.525  -6.552  0.00  0.00     0.451 C 
ATOM     38  F   LIG d   1       6.089  -4.788  -6.835  0.00  0.00    -0.163 F 
ATOM     39  F   LIG d   1       4.565  -4.453  -5.166  0.00  0.00    -0.163 F 
ATOM     40  F   LIG d   1       3.949  -5.551  -7.074  0.00  0.00    -0.163 F 
ENDBRANCH  11  37
BRANCH  13  41
ATOM     41  C   LIG d   1       0.121  -4.665 -11.782  0.00  0.00     0.029 C 
ATOM     42  H   LIG d   1      -0.466  -4.475 -12.693  0.00  0.00     0.048 H 
ATOM     43  H   LIG d   1       1.019  -5.246 -12.039  0.00  0.00     0.048 H 
BRANCH  41  44
ATOM     44  C   LIG d   1      -0.716  -5.444 -10.799  0.00  0.00    -0.015 A 
ATOM     45  C   LIG d   1      -0.234  -6.615 -10.245  0.00  0.00     0.032 A 
ATOM     46  N   LIG d   1      -0.957  -7.300  -9.379  0.00  0.00    -0.263 NA
ATOM     47  H   LIG d   1       0.748  -6.971 -10.518  0.00  0.00     0.083 H 
ATOM     48  C   LIG d   1      -2.164  -6.905  -9.020  0.00  0.00     0.028 A 
ATOM     49  C   LIG d   1      -2.713  -5.748  -9.536  0.00  0.00    -0.043 A 
ATOM     50  H   LIG d   1      -2.729  -7.494  -8.312  0.00  0.00     0.083 H 
ATOM     51  C   LIG d   1      -1.980  -4.999 -10.445  0.00  0.00    -0.054 A 
ATOM     52  H   LIG d   1      -3.702  -5.430  -9.239  0.00  0.00     0.063 H 
ATOM     53  H   LIG d   1      -2.384  -4.090 -10.865  0.00  0.00     0.062 H 
ENDBRANCH  41  44
ENDBRANCH  13  41
TORSDOF 6
ENDMDL
MODEL 3
REMARK VINA RESULT:      -6.7      7.103     10.700
REMARK  6 active torsions:
REMARK  status: ('A' for Active; 'I' for Inactive)
REMARK    1  A    between atoms: C_1  and  O_2 
REMARK    2  A    between atoms: O_2  and  C_3 
REMARK    3  A    between atoms: C_8  and  C_9 
REMARK    4  A    between atoms: C_19  and  C_20 
REMARK    5  A    between atoms: N_25  and  C_28 
REMARK    6  A    between atoms: C_28  and  C_29 
ROOT
ATOM      1  C   LIG d   1      10.532   7.239  -3.914  0.00  0.00     0.080 A 
ATOM      2  C   LIG d   1      10.596   6.879  -5.342  0.00  0.00     0.201 A 
ATOM      3  O   LIG d   1      11.045   7.643  -6.179  0.00  0.00    -0.286 OA
ATOM      4  C   LIG d   1      10.087   5.543  -5.702  0.00  0.00     0.065 A 
ATOM      5  C   LIG d   1      10.099   5.099  -7.024  0.00  0.00    -0.044 A 
ATOM      6  C   LIG d   1       9.625   3.855  -7.326  0.00  0.00    -0.019 A 
ATOM      7  C   LIG d   1       9.125   3.027  -6.319  0.00  0.00     0.130 A 
ATOM      8  C   LIG d   1       9.102   3.455  -5.006  0.00  0.00     0.051 A 
ATOM      9  C   LIG d   1       9.580   4.723  -4.680  0.00  0.00     0.147 A 
ATOM     10  O   LIG d   1       9.558   5.142  -3.402  0.00  0.00    -0.449 OA
ATOM     11  C   LIG d   1      10.019   6.336  -3.043  0.00  0.00     0.220 A 
ATOM     12  C   LIG d   1       8.567   2.569  -3.910  0.00  0.00     0.034 C 
ATOM     13  N   LIG d   1       7.760   1.492  -4.498  0.00  0.00    -0.262 N 
ATOM     14  C   LIG d   1       8.497   0.847  -5.597  0.00  0.00     0.144 C 
ATOM     15  O   LIG d   1       8.658   1.795  -6.655  0.00  0.00    -0.476 OA
ATOM     16  H   LIG d   1      10.486   5.735  -7.807  0.00  0.00     0.063 H 
ATOM     17  H   LIG d   1       9.638   3.509  -8.349  0.00  0.00     0.065 H 
ATOM     18  H   LIG d   1       9.407   2.132  -3.350  0.00  0.00     0.048 H 
ATOM     19  H   LIG d   1       7.942   3.165  -3.229  0.00  0.00     0.048 H 
ATOM     20  H   LIG d   1       9.483   0.520  -5.234  0.00  0.00     0.087 H 
ATOM     21  H   LIG d   1       7.933  -0.024  -5.957  0.00  0.00     0.087 H 
ENDROOT
BRANCH   1  22
ATOM     22  C   LIG d   1      11.018   8.559  -3.443  0.00  0.00     0.031 A 
ATOM     23  C   LIG d   1      12.381   8.761  -3.206  0.00  0.00     0.128 A 
ATOM     24  C   LIG d   1      12.826   9.997  -2.766  0.00  0.00    -0.019 A 
ATOM     25  C   LIG d   1      11.926  11.025  -2.562  0.00  0.00    -0.058 A 
ATOM     26  H   LIG d   1      13.879  10.156  -2.583  0.00  0.00     0.065 H 
ATOM     27  C   LIG d   1      10.577  10.828  -2.795  0.00  0.00    -0.061 A 
ATOM     28  H   LIG d   1      12.277  11.987  -2.219  0.00  0.00     0.062 H 
ATOM     29  C   LIG d   1      10.120   9.603  -3.238  0.00  0.00    -0.050 A 
ATOM     30  H   LIG d   1       9.878  11.637  -2.633  0.00  0.00     0.062 H 
ATOM     31  H   LIG d   1       9.066   9.454  -3.423  0.00  0.00     0.062 H 
BRANCH  23  32
ATOM     32  O   LIG d   1      13.266   7.750  -3.409  0.00  0.00    -0.494 OA
BRANCH  32  33
ATOM     33  C   LIG d   1      14.254   7.540  -2.397  0.00  0.00     0.079 C 
ATOM     34  H   LIG d   1      13.971   8.093  -1.489  0.00  0.00     0.066 H 
ATOM     35  H   LIG d   1      15.229   7.898  -2.757  0.00  0.00     0.066 H 
ATOM     36  H   LIG d   1      14.319   6.467  -2.167  0.00  0.00     0.066 H 
ENDBRANCH  32  33
ENDBRANCH  23  32
ENDBRANCH   1  22
BRANCH  11  37
ATOM     37  C   LIG d   1       9.956   6.712  -1.584  0.00  0.00     0.451 C 
ATOM     38  F   LIG d   1      11.118   7.407  -1.231  0.00  0.00    -0.163 F 
ATOM     39  F   LIG d   1       8.840   7.525  -1.359  0.00  0.00    -0.163 F 
ATOM     40  F   LIG d   1       9.853   5.552  -0.808  0.00  0.00    -0.163 F 
ENDBRANCH  11  37
BRANCH  13  41
ATOM     41  C   LIG d   1       7.370   0.510  -3.479  0.00  0.00     0.029 C 
ATOM     42  H   LIG d   1       7.749  -0.484  -3.762  0.00  0.00     0.048 H 
ATOM     43  H   LIG d   1       7.796   0.800  -2.507  0.00  0.00     0.048 H 
BRANCH  41  44
ATOM     44  C   LIG d   1       5.868   0.462  -3.374  0.00  0.00    -0.015 A 
ATOM     45  C   LIG d   1       5.123  -0.235  -4.305  0.00  0.00     0.032 A 
ATOM     46  N   LIG d   1       3.807  -0.286  -4.217  0.00  0.00    -0.263 NA
ATOM     47  H   LIG d   1       5.623  -0.748  -5.113  0.00  0.00     0.083 H 
ATOM     48  C   LIG d   1       3.154   0.330  -3.250  0.00  0.00     0.028 A 
ATOM     49  C   LIG d   1       3.831   1.051  -2.286  0.00  0.00    -0.043 A 
ATOM     50  H   LIG d   1       2.076   0.269  -3.212  0.00  0.00     0.083 H 
ATOM     51  C   LIG d   1       5.215   1.123  -2.343  0.00  0.00    -0.054 A 
ATOM     52  H   LIG d   1       3.291   1.554  -1.498  0.00  0.00     0.063 H 
ATOM     53  H   LIG d   1       5.770   1.679  -1.604  0.00  0.00     0.062 H 
ENDBRANCH  41  44
ENDBRANCH  13  41
TORSDOF 6
ENDMDL
MODEL 4
REMARK VINA RESULT:      -6.6      3.695      5.464
REMARK  6 active torsions:
REMARK  status: ('A' for Active; 'I' for Inactive)
REMARK    1  A    between atoms: C_1  and  O_2 
REMARK    2  A    between atoms: O_2  and  C_3 
REMARK    3  A    between atoms: C_8  and  C_9 
REMARK    4  A    between atoms: C_19  and  C_20 
REMARK    5  A    between atoms: N_25  and  C_28 
REMARK    6  A    between atoms: C_28  and  C_29 
ROOT
ATOM      1  C   LIG d   1       3.446  -1.712  -9.000  0.00  0.00     0.080 A 
ATOM      2  C   LIG d   1       2.482  -2.471  -9.816  0.00  0.00     0.201 A 
ATOM      3  O   LIG d   1       1.678  -1.915 -10.545  0.00  0.00    -0.286 OA
ATOM      4  C   LIG d   1       2.544  -3.940  -9.703  0.00  0.00     0.065 A 
ATOM      5  C   LIG d   1       1.678  -4.756 -10.431  0.00  0.00    -0.044 A 
ATOM      6  C   LIG d   1       1.762  -6.112 -10.308  0.00  0.00    -0.019 A 
ATOM      7  C   LIG d   1       2.707  -6.687  -9.456  0.00  0.00     0.130 A 
ATOM      8  C   LIG d   1       3.568  -5.891  -8.726  0.00  0.00     0.051 A 
ATOM      9  C   LIG d   1       3.495  -4.504  -8.837  0.00  0.00     0.147 A 
ATOM     10  O   LIG d   1       4.331  -3.728  -8.125  0.00  0.00    -0.449 OA
ATOM     11  C   LIG d   1       4.309  -2.401  -8.212  0.00  0.00     0.220 A 
ATOM     12  C   LIG d   1       4.594  -6.500  -7.804  0.00  0.00     0.034 C 
ATOM     13  N   LIG d   1       4.237  -7.897  -7.525  0.00  0.00    -0.262 N 
ATOM     14  C   LIG d   1       3.942  -8.606  -8.780  0.00  0.00     0.144 C 
ATOM     15  O   LIG d   1       2.761  -8.042  -9.356  0.00  0.00    -0.476 OA
ATOM     16  H   LIG d   1       0.946  -4.316 -11.093  0.00  0.00     0.063 H 
ATOM     17  H   LIG d   1       1.095  -6.745 -10.875  0.00  0.00     0.065 H 
ATOM     18  H   LIG d   1       5.583  -6.464  -8.284  0.00  0.00     0.048 H 
ATOM     19  H   LIG d   1       4.622  -5.934  -6.862  0.00  0.00     0.048 H 
ATOM     20  H   LIG d   1       4.788  -8.491  -9.474  0.00  0.00     0.087 H 
ATOM     21  H   LIG d   1       3.783  -9.674  -8.572  0.00  0.00     0.087 H 
ENDROOT
BRANCH   1  22
ATOM     22  C   LIG d   1       3.471  -0.229  -9.038  0.00  0.00     0.031 A 
ATOM     23  C   LIG d   1       4.167   0.435 -10.053  0.00  0.00     0.128 A 
ATOM     24  C   LIG d   1       4.185   1.820 -10.081  0.00  0.00    -0.019 A 
ATOM     25  C   LIG d   1       3.518   2.541  -9.111  0.00  0.00    -0.058 A 
ATOM     26  H   LIG d   1       4.722   2.336 -10.864  0.00  0.00     0.065 H 
ATOM     27  C   LIG d   1       2.828   1.887  -8.105  0.00  0.00    -0.061 A 
ATOM     28  H   LIG d   1       3.534   3.621  -9.136  0.00  0.00     0.062 H 
ATOM     29  C   LIG d   1       2.798   0.507  -8.067  0.00  0.00    -0.050 A 
ATOM     30  H   LIG d   1       2.308   2.458  -7.349  0.00  0.00     0.062 H 
ATOM     31  H   LIG d   1       2.255   0.000  -7.283  0.00  0.00     0.062 H 
BRANCH  23  32
ATOM     32  O   LIG d   1       4.822  -0.276 -11.008  0.00  0.00    -0.494 OA
BRANCH  32  33
ATOM     33  C   LIG d   1       4.307  -0.203 -12.340  0.00  0.00     0.079 C 
ATOM     34  H   LIG d   1       3.640  -1.058 -12.521  0.00  0.00     0.066 H 
ATOM     35  H   LIG d   1       5.140  -0.227 -13.057  0.00  0.00     0.066 H 
ATOM     36  H   LIG d   1       3.744   0.734 -12.463  0.00  0.00     0.066 H 
ENDBRANCH  32  33
ENDBRANCH  23  32
ENDBRANCH   1  22
BRANCH  11  37
ATOM     37  C   LIG d   1       5.292  -1.617  -7.379  0.00  0.00     0.451 C 
ATOM     38  F   LIG d   1       4.603  -0.911  -6.387  0.00  0.00    -0.163 F 
ATOM     39  F   LIG d   1       6.201  -2.496  -6.781  0.00  0.00    -0.163 F 
ATOM     40  F   LIG d   1       5.982  -0.716  -8.198  0.00  0.00    -0.163 F 
ENDBRANCH  11  37
BRANCH  13  41
ATOM     41  C   LIG d   1       5.304  -8.573  -6.777  0.00  0.00     0.029 C 
ATOM     42  H   LIG d   1       5.911  -9.177  -7.468  0.00  0.00     0.048 H 
ATOM     43  H   LIG d   1       5.943  -7.823  -6.288  0.00  0.00     0.048 H 
BRANCH  41  44
ATOM     44  C   LIG d   1       4.695  -9.470  -5.730  0.00  0.00    -0.015 A 
ATOM     45  C   LIG d   1       4.249 -10.734  -6.065  0.00  0.00     0.032 A 
ATOM     46  N   LIG d   1       3.720 -11.528  -5.153  0.00  0.00    -0.263 NA
ATOM     47  H   LIG d   1       4.339 -11.079  -7.084  0.00  0.00     0.083 H 
ATOM     48  C   LIG d   1       3.585 -11.147  -3.898  0.00  0.00     0.028 A 
ATOM     49  C   LIG d   1       4.003  -9.894  -3.489  0.00  0.00    -0.043 A 
ATOM     50  H   LIG d   1       3.143 -11.822  -3.180  0.00  0.00     0.083 H 
ATOM     51  C   LIG d   1       4.569  -9.035  -4.419  0.00  0.00    -0.054 A 
ATOM     52  H   LIG d   1       3.889  -9.588  -2.460  0.00  0.00     0.063 H 
ATOM     53  H   LIG d   1       4.904  -8.051  -4.129  0.00  0.00     0.062 H 
ENDBRANCH  41  44
ENDBRANCH  13  41
TORSDOF 6
ENDMDL
MODEL 5
REMARK VINA RESULT:      -6.6      7.120     10.818
REMARK  6 active torsions:
REMARK  status: ('A' for Active; 'I' for Inactive)
REMARK    1  A    between atoms: C_1  and  O_2 
REMARK    2  A    between atoms: O_2  and  C_3 
REMARK    3  A    between atoms: C_8  and  C_9 
REMARK    4  A    between atoms: C_19  and  C_20 
REMARK    5  A    between atoms: N_25  and  C_28 
REMARK    6  A    between atoms: C_28  and  C_29 
ROOT
ATOM      1  C   LIG d   1      11.026   7.048  -3.853  0.00  0.00     0.080 A 
ATOM      2  C   LIG d   1      11.000   6.703  -5.285  0.00  0.00     0.201 A 
ATOM      3  O   LIG d   1      11.480   7.435  -6.133  0.00  0.00    -0.286 OA
ATOM      4  C   LIG d   1      10.361   5.421  -5.636  0.00  0.00     0.065 A 
ATOM      5  C   LIG d   1      10.281   4.995  -6.962  0.00  0.00    -0.044 A 
ATOM      6  C   LIG d   1       9.688   3.801  -7.255  0.00  0.00    -0.019 A 
ATOM      7  C   LIG d   1       9.158   3.007  -6.237  0.00  0.00     0.130 A 
ATOM      8  C   LIG d   1       9.226   3.419  -4.920  0.00  0.00     0.051 A 
ATOM      9  C   LIG d   1       9.826   4.635  -4.602  0.00  0.00     0.147 A 
ATOM     10  O   LIG d   1       9.892   5.038  -3.320  0.00  0.00    -0.449 OA
ATOM     11  C   LIG d   1      10.471   6.183  -2.969  0.00  0.00     0.220 A 
ATOM     12  C   LIG d   1       8.660   2.569  -3.811  0.00  0.00     0.034 C 
ATOM     13  N   LIG d   1       7.738   1.574  -4.375  0.00  0.00    -0.262 N 
ATOM     14  C   LIG d   1       8.371   0.881  -5.509  0.00  0.00     0.144 C 
ATOM     15  O   LIG d   1       8.571   1.825  -6.565  0.00  0.00    -0.476 OA
ATOM     16  H   LIG d   1      10.690   5.605  -7.754  0.00  0.00     0.063 H 
ATOM     17  H   LIG d   1       9.629   3.469  -8.281  0.00  0.00     0.065 H 
ATOM     18  H   LIG d   1       9.480   2.053  -3.290  0.00  0.00     0.048 H 
ATOM     19  H   LIG d   1       8.118   3.208  -3.099  0.00  0.00     0.048 H 
ATOM     20  H   LIG d   1       9.338   0.465  -5.191  0.00  0.00     0.087 H 
ATOM     21  H   LIG d   1       7.718   0.067  -5.854  0.00  0.00     0.087 H 
ENDROOT
BRANCH   1  22
ATOM     22  C   LIG d   1      11.645   8.315  -3.389  0.00  0.00     0.031 A 
ATOM     23  C   LIG d   1      10.920   9.509  -3.440  0.00  0.00     0.128 A 
ATOM     24  C   LIG d   1      11.505  10.687  -3.006  0.00  0.00    -0.019 A 
ATOM     25  C   LIG d   1      12.800  10.681  -2.524  0.00  0.00    -0.058 A 
ATOM     26  H   LIG d   1      10.948  11.612  -3.043  0.00  0.00     0.065 H 
ATOM     27  C   LIG d   1      13.520   9.500  -2.472  0.00  0.00    -0.061 A 
ATOM     28  H   LIG d   1      13.252  11.601  -2.185  0.00  0.00     0.062 H 
ATOM     29  C   LIG d   1      12.947   8.318  -2.898  0.00  0.00    -0.050 A 
ATOM     30  H   LIG d   1      14.532   9.502  -2.093  0.00  0.00     0.062 H 
ATOM     31  H   LIG d   1      13.510   7.398  -2.852  0.00  0.00     0.062 H 
BRANCH  23  32
ATOM     32  O   LIG d   1       9.646   9.515  -3.914  0.00  0.00    -0.494 OA
BRANCH  32  33
ATOM     33  C   LIG d   1       9.402  10.255  -5.112  0.00  0.00     0.079 C 
ATOM     34  H   LIG d   1      10.353  10.419  -5.641  0.00  0.00     0.066 H 
ATOM     35  H   LIG d   1       8.951  11.225  -4.858  0.00  0.00     0.066 H 
ATOM     36  H   LIG d   1       8.716   9.689  -5.758  0.00  0.00     0.066 H 
ENDBRANCH  32  33
ENDBRANCH  23  32
ENDBRANCH   1  22
BRANCH  11  37
ATOM     37  C   LIG d   1      10.501   6.544  -1.506  0.00  0.00     0.451 C 
ATOM     38  F   LIG d   1      11.823   6.765  -1.107  0.00  0.00    -0.163 F 
ATOM     39  F   LIG d   1       9.750   7.706  -1.297  0.00  0.00    -0.163 F 
ATOM     40  F   LIG d   1       9.956   5.495  -0.756  0.00  0.00    -0.163 F 
ENDBRANCH  11  37
BRANCH  13  41
ATOM     41  C   LIG d   1       7.305   0.616  -3.349  0.00  0.00     0.029 C 
ATOM     42  H   LIG d   1       7.720  -0.377  -3.576  0.00  0.00     0.048 H 
ATOM     43  H   LIG d   1       7.663   0.947  -2.363  0.00  0.00     0.048 H 
BRANCH  41  44
ATOM     44  C   LIG d   1       5.800   0.540  -3.335  0.00  0.00    -0.015 A 
ATOM     45  C   LIG d   1       5.123  -0.118  -4.345  0.00  0.00     0.032 A 
ATOM     46  N   LIG d   1       3.806  -0.195  -4.336  0.00  0.00    -0.263 NA
ATOM     47  H   LIG d   1       5.679  -0.580  -5.147  0.00  0.00     0.083 H 
ATOM     48  C   LIG d   1       3.086   0.358  -3.379  0.00  0.00     0.028 A 
ATOM     49  C   LIG d   1       3.693   1.037  -2.340  0.00  0.00    -0.043 A 
ATOM     50  H   LIG d   1       2.009   0.279  -3.408  0.00  0.00     0.083 H 
ATOM     51  C   LIG d   1       5.076   1.134  -2.312  0.00  0.00    -0.054 A 
ATOM     52  H   LIG d   1       3.098   1.489  -1.559  0.00  0.00     0.063 H 
ATOM     53  H   LIG d   1       5.577   1.659  -1.513  0.00  0.00     0.062 H 
ENDBRANCH  41  44
ENDBRANCH  13  41
TORSDOF 6
ENDMDL
MODEL 6
REMARK VINA RESULT:      -6.4      4.299      5.359
REMARK  6 active torsions:
REMARK  status: ('A' for Active; 'I' for Inactive)
REMARK    1  A    between atoms: C_1  and  O_2 
REMARK    2  A    between atoms: O_2  and  C_3 
REMARK    3  A    between atoms: C_8  and  C_9 
REMARK    4  A    between atoms: C_19  and  C_20 
REMARK    5  A    between atoms: N_25  and  C_28 
REMARK    6  A    between atoms: C_28  and  C_29 
ROOT
ATOM      1  C   LIG d   1       6.264  -2.118  -5.375  0.00  0.00     0.080 A 
ATOM      2  C   LIG d   1       5.163  -2.206  -6.351  0.00  0.00     0.201 A 
ATOM      3  O   LIG d   1       4.575  -1.215  -6.749  0.00  0.00    -0.286 OA
ATOM      4  C   LIG d   1       4.813  -3.560  -6.820  0.00  0.00     0.065 A 
ATOM      5  C   LIG d   1       3.786  -3.759  -7.743  0.00  0.00    -0.044 A 
ATOM      6  C   LIG d   1       3.488  -5.024  -8.161  0.00  0.00    -0.019 A 
ATOM      7  C   LIG d   1       4.201  -6.118  -7.667  0.00  0.00     0.130 A 
ATOM      8  C   LIG d   1       5.217  -5.935  -6.749  0.00  0.00     0.051 A 
ATOM      9  C   LIG d   1       5.534  -4.652  -6.310  0.00  0.00     0.147 A 
ATOM     10  O   LIG d   1       6.522  -4.473  -5.414  0.00  0.00    -0.449 OA
ATOM     11  C   LIG d   1       6.870  -3.265  -4.980  0.00  0.00     0.220 A 
ATOM     12  C   LIG d   1       5.996  -7.108  -6.211  0.00  0.00     0.034 C 
ATOM     13  N   LIG d   1       5.256  -8.350  -6.469  0.00  0.00    -0.262 N 
ATOM     14  C   LIG d   1       4.829  -8.404  -7.877  0.00  0.00     0.144 C 
ATOM     15  O   LIG d   1       3.875  -7.363  -8.103  0.00  0.00    -0.476 OA
ATOM     16  H   LIG d   1       3.232  -2.916  -8.129  0.00  0.00     0.063 H 
ATOM     17  H   LIG d   1       2.695  -5.179  -8.879  0.00  0.00     0.065 H 
ATOM     18  H   LIG d   1       6.976  -7.156  -6.709  0.00  0.00     0.048 H 
ATOM     19  H   LIG d   1       6.140  -6.986  -5.128  0.00  0.00     0.048 H 
ATOM     20  H   LIG d   1       5.702  -8.260  -8.530  0.00  0.00     0.087 H 
ATOM     21  H   LIG d   1       4.373  -9.382  -8.086  0.00  0.00     0.087 H 
ENDROOT
BRANCH   1  22
ATOM     22  C   LIG d   1       6.699  -0.805  -4.839  0.00  0.00     0.031 A 
ATOM     23  C   LIG d   1       6.030  -0.236  -3.751  0.00  0.00     0.128 A 
ATOM     24  C   LIG d   1       6.443   0.991  -3.256  0.00  0.00    -0.019 A 
ATOM     25  C   LIG d   1       7.511   1.648  -3.836  0.00  0.00    -0.058 A 
ATOM     26  H   LIG d   1       5.928   1.433  -2.415  0.00  0.00     0.065 H 
ATOM     27  C   LIG d   1       8.174   1.087  -4.912  0.00  0.00    -0.061 A 
ATOM     28  H   LIG d   1       7.829   2.603  -3.447  0.00  0.00     0.062 H 
ATOM     29  C   LIG d   1       7.777  -0.137  -5.413  0.00  0.00    -0.050 A 
ATOM     30  H   LIG d   1       9.010   1.606  -5.361  0.00  0.00     0.062 H 
ATOM     31  H   LIG d   1       8.300  -0.574  -6.250  0.00  0.00     0.062 H 
BRANCH  23  32
ATOM     32  O   LIG d   1       4.981  -0.883  -3.181  0.00  0.00    -0.494 OA
BRANCH  32  33
ATOM     33  C   LIG d   1       4.449  -0.324  -1.977  0.00  0.00     0.079 C 
ATOM     34  H   LIG d   1       3.992  -1.121  -1.373  0.00  0.00     0.066 H 
ATOM     35  H   LIG d   1       3.687   0.429  -2.229  0.00  0.00     0.066 H 
ATOM     36  H   LIG d   1       5.259   0.151  -1.406  0.00  0.00     0.066 H 
ENDBRANCH  32  33
ENDBRANCH  23  32
ENDBRANCH   1  22
BRANCH  11  37
ATOM     37  C   LIG d   1       7.995  -3.167  -3.981  0.00  0.00     0.451 C 
ATOM     38  F   LIG d   1       9.066  -2.471  -4.552  0.00  0.00    -0.163 F 
ATOM     39  F   LIG d   1       7.550  -2.486  -2.843  0.00  0.00    -0.163 F 
ATOM     40  F   LIG d   1       8.413  -4.453  -3.622  0.00  0.00    -0.163 F 
ENDBRANCH  11  37
BRANCH  13  41
ATOM     41  C   LIG d   1       6.063  -9.526  -6.119  0.00  0.00     0.029 C 
ATOM     42  H   LIG d   1       5.748 -10.384  -6.732  0.00  0.00     0.048 H 
ATOM     43  H   LIG d   1       7.125  -9.312  -6.308  0.00  0.00     0.048 H 
BRANCH  41  44
ATOM     44  C   LIG d   1       5.869  -9.854  -4.661  0.00  0.00    -0.015 A 
ATOM     45  C   LIG d   1       6.945  -9.844  -3.793  0.00  0.00     0.032 A 
ATOM     46  N   LIG d   1       6.783 -10.124  -2.514  0.00  0.00    -0.263 NA
ATOM     47  H   LIG d   1       7.929  -9.601  -4.165  0.00  0.00     0.083 H 
ATOM     48  C   LIG d   1       5.600 -10.432  -2.017  0.00  0.00     0.028 A 
ATOM     49  C   LIG d   1       4.480 -10.466  -2.825  0.00  0.00    -0.043 A 
ATOM     50  H   LIG d   1       5.506 -10.659  -0.965  0.00  0.00     0.083 H 
ATOM     51  C   LIG d   1       4.611 -10.173  -4.174  0.00  0.00    -0.054 A 
ATOM     52  H   LIG d   1       3.515 -10.720  -2.412  0.00  0.00     0.063 H 
ATOM     53  H   LIG d   1       3.753 -10.193  -4.829  0.00  0.00     0.062 H 
ENDBRANCH  41  44
ENDBRANCH  13  41
TORSDOF 6
ENDMDL
MODEL 7
REMARK VINA RESULT:      -6.4      5.677     10.118
REMARK  6 active torsions:
REMARK  status: ('A' for Active; 'I' for Inactive)
REMARK    1  A    between atoms: C_1  and  O_2 
REMARK    2  A    between atoms: O_2  and  C_3 
REMARK    3  A    between atoms: C_8  and  C_9 
REMARK    4  A    between atoms: C_19  and  C_20 
REMARK    5  A    between atoms: N_25  and  C_28 
REMARK    6  A    between atoms: C_28  and  C_29 
ROOT
ATOM      1  C   LIG d   1       4.900   0.079  -9.195  0.00  0.00     0.080 A 
ATOM      2  C   LIG d   1       5.892  -0.942  -8.811  0.00  0.00     0.201 A 
ATOM      3  O   LIG d   1       5.698  -2.130  -8.999  0.00  0.00    -0.286 OA
ATOM      4  C   LIG d   1       7.132  -0.444  -8.187  0.00  0.00     0.065 A 
ATOM      5  C   LIG d   1       8.139  -1.322  -7.785  0.00  0.00    -0.044 A 
ATOM      6  C   LIG d   1       9.277  -0.831  -7.215  0.00  0.00    -0.019 A 
ATOM      7  C   LIG d   1       9.438   0.543  -7.028  0.00  0.00     0.130 A 
ATOM      8  C   LIG d   1       8.447   1.423  -7.417  0.00  0.00     0.051 A 
ATOM      9  C   LIG d   1       7.278   0.940  -8.000  0.00  0.00     0.147 A 
ATOM     10  O   LIG d   1       6.311   1.796  -8.378  0.00  0.00    -0.449 OA
ATOM     11  C   LIG d   1       5.186   1.382  -8.953  0.00  0.00     0.220 A 
ATOM     12  C   LIG d   1       8.610   2.909  -7.223  0.00  0.00     0.034 C 
ATOM     13  N   LIG d   1       9.682   3.164  -6.252  0.00  0.00    -0.262 N 
ATOM     14  C   LIG d   1      10.882   2.387  -6.603  0.00  0.00     0.144 C 
ATOM     15  O   LIG d   1      10.584   0.997  -6.454  0.00  0.00    -0.476 OA
ATOM     16  H   LIG d   1       8.020  -2.386  -7.929  0.00  0.00     0.063 H 
ATOM     17  H   LIG d   1      10.059  -1.511  -6.907  0.00  0.00     0.065 H 
ATOM     18  H   LIG d   1       8.870   3.378  -8.184  0.00  0.00     0.048 H 
ATOM     19  H   LIG d   1       7.669   3.336  -6.850  0.00  0.00     0.048 H 
ATOM     20  H   LIG d   1      11.163   2.599  -7.646  0.00  0.00     0.087 H 
ATOM     21  H   LIG d   1      11.710   2.666  -5.937  0.00  0.00     0.087 H 
ENDROOT
BRANCH   1  22
ATOM     22  C   LIG d   1       3.617  -0.312  -9.830  0.00  0.00     0.031 A 
ATOM     23  C   LIG d   1       3.556  -0.528 -11.210  0.00  0.00     0.128 A 
ATOM     24  C   LIG d   1       2.354  -0.892 -11.796  0.00  0.00    -0.019 A 
ATOM     25  C   LIG d   1       1.222  -1.042 -11.018  0.00  0.00    -0.058 A 
ATOM     26  H   LIG d   1       2.304  -1.061 -12.862  0.00  0.00     0.065 H 
ATOM     27  C   LIG d   1       1.280  -0.828  -9.653  0.00  0.00    -0.061 A 
ATOM     28  H   LIG d   1       0.287  -1.326 -11.479  0.00  0.00     0.062 H 
ATOM     29  C   LIG d   1       2.472  -0.469  -9.055  0.00  0.00    -0.050 A 
ATOM     30  H   LIG d   1       0.390  -0.946  -9.051  0.00  0.00     0.062 H 
ATOM     31  H   LIG d   1       2.514  -0.307  -7.989  0.00  0.00     0.062 H 
BRANCH  23  32
ATOM     32  O   LIG d   1       4.670  -0.383 -11.974  0.00  0.00    -0.494 OA
BRANCH  32  33
ATOM     33  C   LIG d   1       4.510  -0.516 -13.388  0.00  0.00     0.079 C 
ATOM     34  H   LIG d   1       5.494  -0.461 -13.875  0.00  0.00     0.066 H 
ATOM     35  H   LIG d   1       3.869   0.296 -13.762  0.00  0.00     0.066 H 
ATOM     36  H   LIG d   1       4.042  -1.485 -13.614  0.00  0.00     0.066 H 
ENDBRANCH  32  33
ENDBRANCH  23  32
ENDBRANCH   1  22
BRANCH  11  37
ATOM     37  C   LIG d   1       4.166   2.419  -9.347  0.00  0.00     0.451 C 
ATOM     38  F   LIG d   1       3.034   2.293  -8.535  0.00  0.00    -0.163 F 
ATOM     39  F   LIG d   1       4.714   3.696  -9.188  0.00  0.00    -0.163 F 
ATOM     40  F   LIG d   1       3.802   2.230 -10.685  0.00  0.00    -0.163 F 
ENDBRANCH  11  37
BRANCH  13  41
ATOM     41  C   LIG d   1       9.989   4.598  -6.171  0.00  0.00     0.029 C 
ATOM     42  H   LIG d   1      10.994   4.782  -6.580  0.00  0.00     0.048 H 
ATOM     43  H   LIG d   1       9.247   5.166  -6.751  0.00  0.00     0.048 H 
BRANCH  41  44
ATOM     44  C   LIG d   1       9.946   5.041  -4.731  0.00  0.00    -0.015 A 
ATOM     45  C   LIG d   1       9.584   6.335  -4.408  0.00  0.00     0.032 A 
ATOM     46  N   LIG d   1       9.537   6.729  -3.150  0.00  0.00    -0.263 NA
ATOM     47  H   LIG d   1       9.331   7.031  -5.194  0.00  0.00     0.083 H 
ATOM     48  C   LIG d   1       9.842   5.916  -2.158  0.00  0.00     0.028 A 
ATOM     49  C   LIG d   1      10.218   4.609  -2.403  0.00  0.00    -0.043 A 
ATOM     50  H   LIG d   1       9.796   6.275  -1.140  0.00  0.00     0.083 H 
ATOM     51  C   LIG d   1      10.273   4.157  -3.713  0.00  0.00    -0.054 A 
ATOM     52  H   LIG d   1      10.467   3.948  -1.587  0.00  0.00     0.063 H 
ATOM     53  H   LIG d   1      10.564   3.142  -3.936  0.00  0.00     0.062 H 
ENDBRANCH  41  44
ENDBRANCH  13  41
TORSDOF 6
ENDMDL
MODEL 8
REMARK VINA RESULT:      -6.3      5.667     10.170
REMARK  6 active torsions:
REMARK  status: ('A' for Active; 'I' for Inactive)
REMARK    1  A    between atoms: C_1  and  O_2 
REMARK    2  A    between atoms: O_2  and  C_3 
REMARK    3  A    between atoms: C_8  and  C_9 
REMARK    4  A    between atoms: C_19  and  C_20 
REMARK    5  A    between atoms: N_25  and  C_28 
REMARK    6  A    between atoms: C_28  and  C_29 
ROOT
ATOM      1  C   LIG d   1       5.275   0.392  -9.854  0.00  0.00     0.080 A 
ATOM      2  C   LIG d   1       6.524  -0.384  -9.951  0.00  0.00     0.201 A 
ATOM      3  O   LIG d   1       6.527  -1.562 -10.264  0.00  0.00    -0.286 OA
ATOM      4  C   LIG d   1       7.770   0.344  -9.650  0.00  0.00     0.065 A 
ATOM      5  C   LIG d   1       9.010  -0.293  -9.711  0.00  0.00    -0.044 A 
ATOM      6  C   LIG d   1      10.146   0.410  -9.430  0.00  0.00    -0.019 A 
ATOM      7  C   LIG d   1      10.075   1.759  -9.079  0.00  0.00     0.130 A 
ATOM      8  C   LIG d   1       8.853   2.400  -9.009  0.00  0.00     0.051 A 
ATOM      9  C   LIG d   1       7.683   1.699  -9.291  0.00  0.00     0.147 A 
ATOM     10  O   LIG d   1       6.492   2.323  -9.222  0.00  0.00    -0.449 OA
ATOM     11  C   LIG d   1       5.351   1.698  -9.499  0.00  0.00     0.220 A 
ATOM     12  C   LIG d   1       8.763   3.857  -8.633  0.00  0.00     0.034 C 
ATOM     13  N   LIG d   1      10.016   4.279  -7.994  0.00  0.00    -0.262 N 
ATOM     14  C   LIG d   1      11.168   3.855  -8.806  0.00  0.00     0.144 C 
ATOM     15  O   LIG d   1      11.226   2.427  -8.803  0.00  0.00    -0.476 OA
ATOM     16  H   LIG d   1       9.071  -1.336  -9.983  0.00  0.00     0.063 H 
ATOM     17  H   LIG d   1      11.107  -0.082  -9.481  0.00  0.00     0.065 H 
ATOM     18  H   LIG d   1       8.594   4.459  -9.539  0.00  0.00     0.048 H 
ATOM     19  H   LIG d   1       7.927   4.005  -7.934  0.00  0.00     0.048 H 
ATOM     20  H   LIG d   1      11.046   4.223  -9.835  0.00  0.00     0.087 H 
ATOM     21  H   LIG d   1      12.092   4.268  -8.377  0.00  0.00     0.087 H 
ENDROOT
BRANCH   1  22
ATOM     22  C   LIG d   1       3.964  -0.243 -10.137  0.00  0.00     0.031 A 
ATOM     23  C   LIG d   1       3.274  -0.910  -9.120  0.00  0.00     0.128 A 
ATOM     24  C   LIG d   1       2.050  -1.500  -9.394  0.00  0.00    -0.019 A 
ATOM     25  C   LIG d   1       1.515  -1.429 -10.665  0.00  0.00    -0.058 A 
ATOM     26  H   LIG d   1       1.514  -2.016  -8.610  0.00  0.00     0.065 H 
ATOM     27  C   LIG d   1       2.196  -0.770 -11.673  0.00  0.00    -0.061 A 
ATOM     28  H   LIG d   1       0.561  -1.890 -10.874  0.00  0.00     0.062 H 
ATOM     29  C   LIG d   1       3.414  -0.173 -11.414  0.00  0.00    -0.050 A 
ATOM     30  H   LIG d   1       1.772  -0.717 -12.666  0.00  0.00     0.062 H 
ATOM     31  H   LIG d   1       3.941   0.344 -12.202  0.00  0.00     0.062 H 
BRANCH  23  32
ATOM     32  O   LIG d   1       3.800  -0.978  -7.869  0.00  0.00    -0.494 OA
BRANCH  32  33
ATOM     33  C   LIG d   1       4.325  -2.242  -7.455  0.00  0.00     0.079 C 
ATOM     34  H   LIG d   1       4.167  -2.366  -6.373  0.00  0.00     0.066 H 
ATOM     35  H   LIG d   1       5.401  -2.281  -7.676  0.00  0.00     0.066 H 
ATOM     36  H   LIG d   1       3.809  -3.048  -7.996  0.00  0.00     0.066 H 
ENDBRANCH  32  33
ENDBRANCH  23  32
ENDBRANCH   1  22
BRANCH  11  37
ATOM     37  C   LIG d   1       4.069   2.484  -9.400  0.00  0.00     0.451 C 
ATOM     38  F   LIG d   1       3.251   1.922  -8.415  0.00  0.00    -0.163 F 
ATOM     39  F   LIG d   1       4.360   3.811  -9.064  0.00  0.00    -0.163 F 
ATOM     40  F   LIG d   1       3.405   2.449 -10.632  0.00  0.00    -0.163 F 
ENDBRANCH  11  37
BRANCH  13  41
ATOM     41  C   LIG d   1      10.033   5.731  -7.776  0.00  0.00     0.029 C 
ATOM     42  H   LIG d   1      10.986   6.146  -8.136  0.00  0.00     0.048 H 
ATOM     43  H   LIG d   1       9.200   6.195  -8.325  0.00  0.00     0.048 H 
BRANCH  41  44
ATOM     44  C   LIG d   1       9.885   6.021  -6.304  0.00  0.00    -0.015 A 
ATOM     45  C   LIG d   1       9.859   7.324  -5.846  0.00  0.00     0.032 A 
ATOM     46  N   LIG d   1       9.724   7.586  -4.560  0.00  0.00    -0.263 NA
ATOM     47  H   LIG d   1       9.947   8.139  -6.550  0.00  0.00     0.083 H 
ATOM     48  C   LIG d   1       9.619   6.623  -3.665  0.00  0.00     0.028 A 
ATOM     49  C   LIG d   1       9.642   5.296  -4.047  0.00  0.00    -0.043 A 
ATOM     50  H   LIG d   1       9.514   6.876  -2.620  0.00  0.00     0.083 H 
ATOM     51  C   LIG d   1       9.777   4.982  -5.391  0.00  0.00    -0.054 A 
ATOM     52  H   LIG d   1       9.557   4.512  -3.309  0.00  0.00     0.063 H 
ATOM     53  H   LIG d   1       9.799   3.954  -5.719  0.00  0.00     0.062 H 
ENDBRANCH  41  44
ENDBRANCH  13  41
TORSDOF 6
ENDMDL
MODEL 9
REMARK VINA RESULT:      -6.1      5.788      7.970
REMARK  6 active torsions:
REMARK  status: ('A' for Active; 'I' for Inactive)
REMARK    1  A    between atoms: C_1  and  O_2 
REMARK    2  A    between atoms: O_2  and  C_3 
REMARK    3  A    between atoms: C_8  and  C_9 
REMARK    4  A    between atoms: C_19  and  C_20 
REMARK    5  A    between atoms: N_25  and  C_28 
REMARK    6  A    between atoms: C_28  and  C_29 
ROOT
ATOM      1  C   LIG d   1       5.477  -3.508  -4.789  0.00  0.00     0.080 A 
ATOM      2  C   LIG d   1       4.939  -4.740  -5.392  0.00  0.00     0.201 A 
ATOM      3  O   LIG d   1       3.752  -4.872  -5.636  0.00  0.00    -0.286 OA
ATOM      4  C   LIG d   1       5.917  -5.805  -5.684  0.00  0.00     0.065 A 
ATOM      5  C   LIG d   1       5.518  -7.014  -6.255  0.00  0.00    -0.044 A 
ATOM      6  C   LIG d   1       6.447  -7.978  -6.517  0.00  0.00    -0.019 A 
ATOM      7  C   LIG d   1       7.793  -7.764  -6.214  0.00  0.00     0.130 A 
ATOM      8  C   LIG d   1       8.201  -6.573  -5.644  0.00  0.00     0.051 A 
ATOM      9  C   LIG d   1       7.267  -5.578  -5.368  0.00  0.00     0.147 A 
ATOM     10  O   LIG d   1       7.663  -4.419  -4.812  0.00  0.00    -0.449 OA
ATOM     11  C   LIG d   1       6.809  -3.435  -4.546  0.00  0.00     0.220 A 
ATOM     12  C   LIG d   1       9.652  -6.329  -5.315  0.00  0.00     0.034 C 
ATOM     13  N   LIG d   1      10.374  -7.608  -5.296  0.00  0.00    -0.262 N 
ATOM     14  C   LIG d   1      10.072  -8.381  -6.512  0.00  0.00     0.144 C 
ATOM     15  O   LIG d   1       8.691  -8.748  -6.486  0.00  0.00    -0.476 OA
ATOM     16  H   LIG d   1       4.478  -7.184  -6.492  0.00  0.00     0.063 H 
ATOM     17  H   LIG d   1       6.139  -8.913  -6.963  0.00  0.00     0.065 H 
ATOM     18  H   LIG d   1      10.095  -5.671  -6.078  0.00  0.00     0.048 H 
ATOM     19  H   LIG d   1       9.729  -5.851  -4.329  0.00  0.00     0.048 H 
ATOM     20  H   LIG d   1      10.280  -7.764  -7.399  0.00  0.00     0.087 H 
ATOM     21  H   LIG d   1      10.699  -9.283  -6.540  0.00  0.00     0.087 H 
ENDROOT
BRANCH   1  22
ATOM     22  C   LIG d   1       4.581  -2.373  -4.456  0.00  0.00     0.031 A 
ATOM     23  C   LIG d   1       4.287  -1.405  -5.420  0.00  0.00     0.128 A 
ATOM     24  C   LIG d   1       3.450  -0.349  -5.100  0.00  0.00    -0.019 A 
ATOM     25  C   LIG d   1       2.908  -0.254  -3.833  0.00  0.00    -0.058 A 
ATOM     26  H   LIG d   1       3.220   0.401  -5.844  0.00  0.00     0.065 H 
ATOM     27  C   LIG d   1       3.197  -1.210  -2.876  0.00  0.00    -0.061 A 
ATOM     28  H   LIG d   1       2.255   0.571  -3.588  0.00  0.00     0.062 H 
ATOM     29  C   LIG d   1       4.027  -2.271  -3.183  0.00  0.00    -0.050 A 
ATOM     30  H   LIG d   1       2.769  -1.130  -1.887  0.00  0.00     0.062 H 
ATOM     31  H   LIG d   1       4.247  -3.018  -2.435  0.00  0.00     0.062 H 
BRANCH  23  32
ATOM     32  O   LIG d   1       4.819  -1.500  -6.667  0.00  0.00    -0.494 OA
BRANCH  32  33
ATOM     33  C   LIG d   1       5.151  -0.275  -7.326  0.00  0.00     0.079 C 
ATOM     34  H   LIG d   1       6.243  -0.203  -7.435  0.00  0.00     0.066 H 
ATOM     35  H   LIG d   1       4.784   0.573  -6.729  0.00  0.00     0.066 H 
ATOM     36  H   LIG d   1       4.681  -0.256  -8.320  0.00  0.00     0.066 H 
ENDBRANCH  32  33
ENDBRANCH  23  32
ENDBRANCH   1  22
BRANCH  11  37
ATOM     37  C   LIG d   1       7.351  -2.171  -3.928  0.00  0.00     0.451 C 
ATOM     38  F   LIG d   1       7.083  -1.088  -4.771  0.00  0.00    -0.163 F 
ATOM     39  F   LIG d   1       6.742  -1.960  -2.687  0.00  0.00    -0.163 F 
ATOM     40  F   LIG d   1       8.735  -2.294  -3.754  0.00  0.00    -0.163 F 
ENDBRANCH  11  37
BRANCH  13  41
ATOM     41  C   LIG d   1      11.820  -7.394  -5.155  0.00  0.00     0.029 C 
ATOM     42  H   LIG d   1      12.361  -8.086  -5.818  0.00  0.00     0.048 H 
ATOM     43  H   LIG d   1      12.067  -6.357  -5.428  0.00  0.00     0.048 H 
BRANCH  41  44
ATOM     44  C   LIG d   1      12.229  -7.645  -3.726  0.00  0.00    -0.015 A 
ATOM     45  C   LIG d   1      13.327  -7.000  -3.189  0.00  0.00     0.032 A 
ATOM     46  N   LIG d   1      13.688  -7.211  -1.937  0.00  0.00    -0.263 NA
ATOM     47  H   LIG d   1      13.894  -6.313  -3.799  0.00  0.00     0.083 H 
ATOM     48  C   LIG d   1      13.028  -8.045  -1.157  0.00  0.00     0.028 A 
ATOM     49  C   LIG d   1      11.923  -8.729  -1.626  0.00  0.00    -0.043 A 
ATOM     50  H   LIG d   1      13.355  -8.195  -0.138  0.00  0.00     0.083 H 
ATOM     51  C   LIG d   1      11.511  -8.530  -2.935  0.00  0.00    -0.054 A 
ATOM     52  H   LIG d   1      11.388  -9.412  -0.983  0.00  0.00     0.063 H 
ATOM     53  H   LIG d   1      10.652  -9.052  -3.329  0.00  0.00     0.062 H 
ENDBRANCH  41  44
ENDBRANCH  13  41
TORSDOF 6
ENDMDL
