MODEL 1
REMARK VINA RESULT:      -7.3      0.000      0.000
REMARK  7 active torsions:
REMARK  status: ('A' for Active; 'I' for Inactive)
REMARK    1  A    between atoms: C_1  and  N_61 
REMARK    2  A    between atoms: C_2  and  N_61 
REMARK    3  A    between atoms: C_3  and  C_4 
REMARK    4  A    between atoms: C_3  and  N_61 
REMARK       I    between atoms: C_4  and  N_6 
REMARK    5  A    between atoms: N_6  and  C_7 
REMARK    6  A    between atoms: C_22  and  C_23 
REMARK    7  A    between atoms: C_22  and  N_63 
ROOT
ATOM      1  C   LIG d   1       3.657  -0.465  -7.278  0.00  0.00     0.099 A 
ATOM      2  C   LIG d   1       4.336  -1.652  -7.281  0.00  0.00    -0.034 A 
ATOM      3  C   LIG d   1       4.663  -2.246  -6.056  0.00  0.00    -0.040 A 
ATOM      4  C   LIG d   1       4.294  -1.664  -4.885  0.00  0.00     0.030 A 
ATOM      5  N   LIG d   1       3.550  -0.531  -4.879  0.00  0.00    -0.310 N 
ATOM      6  C   LIG d   1       3.277   0.102  -6.047  0.00  0.00     0.273 A 
ATOM      7  O   LIG d   1       2.695   1.175  -6.029  0.00  0.00    -0.266 OA
ATOM      8  C   LIG d   1       2.977   0.045  -3.663  0.00  0.00     0.034 C 
ATOM      9  C   LIG d   1       3.662  -0.460  -2.404  0.00  0.00     0.018 C 
ATOM     10  H   LIG d   1       3.037  -0.208  -1.548  0.00  0.00     0.037 H 
ATOM     11  C   LIG d   1       3.796  -1.983  -2.474  0.00  0.00    -0.031 C 
ATOM     12  C   LIG d   1       4.778  -2.309  -3.606  0.00  0.00     0.040 C 
ATOM     13  H   LIG d   1       4.876  -3.389  -3.726  0.00  0.00     0.042 H 
ATOM     14  C   LIG d   1       6.136  -1.681  -3.255  0.00  0.00    -0.024 C 
ATOM     15  C   LIG d   1       5.021   0.194  -2.198  0.00  0.00    -0.027 C 
ATOM     16  H   LIG d   1       4.620  -2.122  -8.211  0.00  0.00     0.064 H 
ATOM     17  H   LIG d   1       5.210  -3.176  -6.042  0.00  0.00     0.064 H 
ATOM     18  H   LIG d   1       3.073   1.130  -3.707  0.00  0.00     0.050 H 
ATOM     19  H   LIG d   1       1.919  -0.213  -3.614  0.00  0.00     0.050 H 
ATOM     20  H   LIG d   1       4.182  -2.364  -1.528  0.00  0.00     0.028 H 
ATOM     21  H   LIG d   1       2.826  -2.430  -2.684  0.00  0.00     0.028 H 
ATOM     22  H   LIG d   1       6.459  -2.025  -2.271  0.00  0.00     0.082 H 
ATOM     23  H   LIG d   1       6.876  -1.960  -4.004  0.00  0.00     0.082 H 
ATOM     24  H   LIG d   1       4.905   1.278  -2.231  0.00  0.00     0.082 H 
ATOM     25  H   LIG d   1       5.412  -0.094  -1.224  0.00  0.00     0.082 H 
ATOM     26  N   LIG d   1       5.959  -0.211  -3.266  0.00  0.00     0.236 N 
ATOM     27  H   LIG d   1       5.572   0.072  -4.174  0.00  0.00     0.203 HD
ENDROOT
BRANCH  26  28
ATOM     28  C   LIG d   1       7.262   0.457  -3.072  0.00  0.00    -0.029 C 
ATOM     29  H   LIG d   1       7.254   0.974  -2.112  0.00  0.00     0.082 H 
ATOM     30  H   LIG d   1       8.049  -0.296  -3.071  0.00  0.00     0.082 H 
BRANCH  28  31
ATOM     31  C   LIG d   1       7.522   1.467  -4.191  0.00  0.00    -0.001 C 
ATOM     32  C   LIG d   1       8.685   2.380  -3.796  0.00  0.00    -0.045 C 
ATOM     33  C   LIG d   1       8.944   3.389  -4.916  0.00  0.00    -0.053 C 
ATOM     34  H   LIG d   1       8.432   2.911  -2.878  0.00  0.00     0.027 H 
ATOM     35  H   LIG d   1       9.579   1.778  -3.634  0.00  0.00     0.027 H 
ATOM     36  C   LIG d   1       9.297   2.643  -6.204  0.00  0.00    -0.053 C 
ATOM     37  H   LIG d   1       8.049   3.991  -5.077  0.00  0.00     0.026 H 
ATOM     38  H   LIG d   1       9.772   4.040  -4.634  0.00  0.00     0.026 H 
ATOM     39  C   LIG d   1       8.135   1.730  -6.600  0.00  0.00    -0.053 C 
ATOM     40  H   LIG d   1       9.482   3.362  -7.001  0.00  0.00     0.026 H 
ATOM     41  H   LIG d   1      10.192   2.042  -6.042  0.00  0.00     0.026 H 
ATOM     42  C   LIG d   1       7.875   0.721  -5.480  0.00  0.00    -0.045 C 
ATOM     43  H   LIG d   1       7.240   2.331  -6.761  0.00  0.00     0.026 H 
ATOM     44  H   LIG d   1       8.386   1.199  -7.517  0.00  0.00     0.026 H 
ATOM     45  H   LIG d   1       8.769   0.120  -5.318  0.00  0.00     0.027 H 
ATOM     46  H   LIG d   1       7.046   0.071  -5.761  0.00  0.00     0.027 H 
ATOM     47  H   LIG d   1       6.627   2.068  -4.354  0.00  0.00     0.035 H 
ENDBRANCH  28  31
ENDBRANCH  26  28
BRANCH   1  48
ATOM     48  N   LIG d   1       3.338   0.175  -8.484  0.00  0.00    -0.277 N 
ATOM     49  C   LIG d   1       4.186   1.081  -9.010  0.00  0.00     0.263 C 
ATOM     50  O   LIG d   1       5.178   1.412  -8.395  0.00  0.00    -0.270 OA
ATOM     51  H   LIG d   1       2.508  -0.034  -8.940  0.00  0.00     0.155 HD
BRANCH  49  52
ATOM     52  C   LIG d   1       3.902   1.683 -10.363  0.00  0.00     0.046 C 
ATOM     53  H   LIG d   1       2.835   1.887 -10.453  0.00  0.00     0.091 H 
ATOM     54  H   LIG d   1       4.460   2.613 -10.469  0.00  0.00     0.091 H 
BRANCH  52  55
ATOM     55  N   LIG d   1       4.301   0.717 -11.407  0.00  0.00     0.237 N 
ATOM     56  H   LIG d   1       4.494   1.227 -12.277  0.00  0.00     0.203 HD
BRANCH  55  57
ATOM     57  C   LIG d   1       5.524  -0.001 -10.990  0.00  0.00    -0.043 C 
ATOM     58  H   LIG d   1       5.841  -0.700 -11.764  0.00  0.00     0.078 H 
ATOM     59  H   LIG d   1       6.316   0.725 -10.808  0.00  0.00     0.078 H 
ATOM     60  H   LIG d   1       5.316  -0.549 -10.070  0.00  0.00     0.078 H 
ENDBRANCH  55  57
BRANCH  55  61
ATOM     61  C   LIG d   1       3.208  -0.248 -11.648  0.00  0.00    -0.043 C 
ATOM     62  H   LIG d   1       2.648  -0.386 -10.722  0.00  0.00     0.078 H 
ATOM     63  H   LIG d   1       2.545   0.151 -12.417  0.00  0.00     0.078 H 
ATOM     64  H   LIG d   1       3.609  -1.207 -11.975  0.00  0.00     0.078 H 
ENDBRANCH  55  61
ENDBRANCH  52  55
ENDBRANCH  49  52
ENDBRANCH   1  48
TORSDOF 7
ENDMDL
MODEL 2
REMARK VINA RESULT:      -6.8      2.375      4.992
REMARK  7 active torsions:
REMARK  status: ('A' for Active; 'I' for Inactive)
REMARK    1  A    between atoms: C_1  and  N_61 
REMARK    2  A    between atoms: C_2  and  N_61 
REMARK    3  A    between atoms: C_3  and  C_4 
REMARK    4  A    between atoms: C_3  and  N_61 
REMARK       I    between atoms: C_4  and  N_6 
REMARK    5  A    between atoms: N_6  and  C_7 
REMARK    6  A    between atoms: C_22  and  C_23 
REMARK    7  A    between atoms: C_22  and  N_63 
ROOT
ATOM      1  C   LIG d   1       8.037  -0.009  -4.959  0.00  0.00     0.099 A 
ATOM      2  C   LIG d   1       7.897   1.214  -4.363  0.00  0.00    -0.034 A 
ATOM      3  C   LIG d   1       6.846   1.409  -3.461  0.00  0.00    -0.040 A 
ATOM      4  C   LIG d   1       5.990   0.396  -3.166  0.00  0.00     0.030 A 
ATOM      5  N   LIG d   1       6.174  -0.840  -3.691  0.00  0.00    -0.310 N 
ATOM      6  C   LIG d   1       7.142  -1.041  -4.619  0.00  0.00     0.273 A 
ATOM      7  O   LIG d   1       7.238  -2.129  -5.165  0.00  0.00    -0.266 OA
ATOM      8  C   LIG d   1       5.397  -2.009  -3.281  0.00  0.00     0.034 C 
ATOM      9  C   LIG d   1       4.101  -1.628  -2.585  0.00  0.00     0.018 C 
ATOM     10  H   LIG d   1       3.708  -2.512  -2.083  0.00  0.00     0.037 H 
ATOM     11  C   LIG d   1       4.386  -0.558  -1.529  0.00  0.00    -0.031 C 
ATOM     12  C   LIG d   1       4.818   0.715  -2.266  0.00  0.00     0.040 C 
ATOM     13  H   LIG d   1       5.075   1.500  -1.553  0.00  0.00     0.042 H 
ATOM     14  C   LIG d   1       3.654   1.164  -3.164  0.00  0.00    -0.024 C 
ATOM     15  C   LIG d   1       3.049  -1.147  -3.574  0.00  0.00    -0.027 C 
ATOM     16  H   LIG d   1       8.584   2.017  -4.588  0.00  0.00     0.064 H 
ATOM     17  H   LIG d   1       6.715   2.373  -2.991  0.00  0.00     0.064 H 
ATOM     18  H   LIG d   1       5.163  -2.606  -4.162  0.00  0.00     0.050 H 
ATOM     19  H   LIG d   1       5.998  -2.611  -2.599  0.00  0.00     0.050 H 
ATOM     20  H   LIG d   1       3.483  -0.361  -0.949  0.00  0.00     0.028 H 
ATOM     21  H   LIG d   1       5.184  -0.893  -0.869  0.00  0.00     0.028 H 
ATOM     22  H   LIG d   1       2.749   1.280  -2.566  0.00  0.00     0.082 H 
ATOM     23  H   LIG d   1       3.902   2.110  -3.645  0.00  0.00     0.082 H 
ATOM     24  H   LIG d   1       2.924  -1.895  -4.356  0.00  0.00     0.082 H 
ATOM     25  H   LIG d   1       2.102  -1.014  -3.052  0.00  0.00     0.082 H 
ATOM     26  N   LIG d   1       3.469   0.124  -4.201  0.00  0.00     0.236 N 
ATOM     27  H   LIG d   1       4.361  -0.025  -4.688  0.00  0.00     0.203 HD
ENDROOT
BRANCH  26  28
ATOM     28  C   LIG d   1       2.454   0.560  -5.181  0.00  0.00    -0.029 C 
ATOM     29  H   LIG d   1       1.503   0.085  -4.941  0.00  0.00     0.082 H 
ATOM     30  H   LIG d   1       2.345   1.643  -5.119  0.00  0.00     0.082 H 
BRANCH  28  31
ATOM     31  C   LIG d   1       2.873   0.171  -6.601  0.00  0.00    -0.001 C 
ATOM     32  C   LIG d   1       2.764   1.391  -7.518  0.00  0.00    -0.045 C 
ATOM     33  C   LIG d   1       3.183   1.001  -8.937  0.00  0.00    -0.053 C 
ATOM     34  H   LIG d   1       1.733   1.746  -7.527  0.00  0.00     0.027 H 
ATOM     35  H   LIG d   1       3.418   2.181  -7.150  0.00  0.00     0.027 H 
ATOM     36  C   LIG d   1       4.628   0.501  -8.923  0.00  0.00    -0.053 C 
ATOM     37  H   LIG d   1       2.527   0.210  -9.304  0.00  0.00     0.026 H 
ATOM     38  H   LIG d   1       3.104   1.870  -9.590  0.00  0.00     0.026 H 
ATOM     39  C   LIG d   1       4.738  -0.719  -8.006  0.00  0.00    -0.053 C 
ATOM     40  H   LIG d   1       4.926   0.224  -9.934  0.00  0.00     0.026 H 
ATOM     41  H   LIG d   1       5.283   1.292  -8.556  0.00  0.00     0.026 H 
ATOM     42  C   LIG d   1       4.319  -0.329  -6.587  0.00  0.00    -0.045 C 
ATOM     43  H   LIG d   1       4.083  -1.510  -8.373  0.00  0.00     0.026 H 
ATOM     44  H   LIG d   1       5.767  -1.075  -7.997  0.00  0.00     0.026 H 
ATOM     45  H   LIG d   1       4.973   0.461  -6.220  0.00  0.00     0.027 H 
ATOM     46  H   LIG d   1       4.396  -1.198  -5.934  0.00  0.00     0.027 H 
ATOM     47  H   LIG d   1       2.219  -0.620  -6.968  0.00  0.00     0.035 H 
ENDBRANCH  28  31
ENDBRANCH  26  28
BRANCH   1  48
ATOM     48  N   LIG d   1       9.060  -0.233  -5.891  0.00  0.00    -0.277 N 
ATOM     49  C   LIG d   1       8.932   0.220  -7.154  0.00  0.00     0.263 C 
ATOM     50  O   LIG d   1       7.894   0.738  -7.510  0.00  0.00    -0.270 OA
ATOM     51  H   LIG d   1       9.860  -0.714  -5.628  0.00  0.00     0.155 HD
BRANCH  49  52
ATOM     52  C   LIG d   1      10.077   0.083  -8.125  0.00  0.00     0.046 C 
ATOM     53  H   LIG d   1      11.005  -0.062  -7.573  0.00  0.00     0.091 H 
ATOM     54  H   LIG d   1       9.902  -0.776  -8.773  0.00  0.00     0.091 H 
BRANCH  52  55
ATOM     55  N   LIG d   1      10.176   1.322  -8.923  0.00  0.00     0.237 N 
ATOM     56  H   LIG d   1       9.240   1.734  -9.016  0.00  0.00     0.203 HD
BRANCH  55  57
ATOM     57  C   LIG d   1      11.061   2.292  -8.242  0.00  0.00    -0.043 C 
ATOM     58  H   LIG d   1      12.074   1.899  -8.169  0.00  0.00     0.078 H 
ATOM     59  H   LIG d   1      11.070   3.222  -8.810  0.00  0.00     0.078 H 
ATOM     60  H   LIG d   1      10.672   2.482  -7.241  0.00  0.00     0.078 H 
ENDBRANCH  55  57
BRANCH  55  61
ATOM     61  C   LIG d   1      10.704   1.017 -10.269  0.00  0.00    -0.043 C 
ATOM     62  H   LIG d   1      11.793   0.983 -10.221  0.00  0.00     0.078 H 
ATOM     63  H   LIG d   1      10.324   0.045 -10.587  0.00  0.00     0.078 H 
ATOM     64  H   LIG d   1      10.395   1.780 -10.983  0.00  0.00     0.078 H 
ENDBRANCH  55  61
ENDBRANCH  52  55
ENDBRANCH  49  52
ENDBRANCH   1  48
TORSDOF 7
ENDMDL
MODEL 3
REMARK VINA RESULT:      -6.8      3.891      6.128
REMARK  7 active torsions:
REMARK  status: ('A' for Active; 'I' for Inactive)
REMARK    1  A    between atoms: C_1  and  N_61 
REMARK    2  A    between atoms: C_2  and  N_61 
REMARK    3  A    between atoms: C_3  and  C_4 
REMARK    4  A    between atoms: C_3  and  N_61 
REMARK       I    between atoms: C_4  and  N_6 
REMARK    5  A    between atoms: N_6  and  C_7 
REMARK    6  A    between atoms: C_22  and  C_23 
REMARK    7  A    between atoms: C_22  and  N_63 
ROOT
ATOM      1  C   LIG d   1       1.588  -2.810 -10.015  0.00  0.00     0.099 A 
ATOM      2  C   LIG d   1       1.065  -1.607 -10.401  0.00  0.00    -0.034 A 
ATOM      3  C   LIG d   1       1.763  -0.435 -10.087  0.00  0.00    -0.040 A 
ATOM      4  C   LIG d   1       2.950  -0.492  -9.429  0.00  0.00     0.030 A 
ATOM      5  N   LIG d   1       3.512  -1.686  -9.117  0.00  0.00    -0.310 N 
ATOM      6  C   LIG d   1       2.827  -2.834  -9.348  0.00  0.00     0.273 A 
ATOM      7  O   LIG d   1       3.292  -3.898  -8.972  0.00  0.00    -0.266 OA
ATOM      8  C   LIG d   1       4.861  -1.818  -8.568  0.00  0.00     0.034 C 
ATOM      9  C   LIG d   1       5.369  -0.520  -7.962  0.00  0.00     0.018 C 
ATOM     10  H   LIG d   1       6.445  -0.608  -7.814  0.00  0.00     0.037 H 
ATOM     11  C   LIG d   1       5.108   0.633  -8.935  0.00  0.00    -0.031 C 
ATOM     12  C   LIG d   1       3.589   0.820  -9.032  0.00  0.00     0.040 C 
ATOM     13  H   LIG d   1       3.346   1.604  -9.749  0.00  0.00     0.042 H 
ATOM     14  C   LIG d   1       3.064   1.186  -7.634  0.00  0.00    -0.024 C 
ATOM     15  C   LIG d   1       4.733  -0.240  -6.608  0.00  0.00    -0.027 C 
ATOM     16  H   LIG d   1       0.127  -1.560 -10.935  0.00  0.00     0.064 H 
ATOM     17  H   LIG d   1       1.357   0.523 -10.375  0.00  0.00     0.064 H 
ATOM     18  H   LIG d   1       4.855  -2.589  -7.798  0.00  0.00     0.050 H 
ATOM     19  H   LIG d   1       5.539  -2.122  -9.365  0.00  0.00     0.050 H 
ATOM     20  H   LIG d   1       5.570   1.546  -8.559  0.00  0.00     0.028 H 
ATOM     21  H   LIG d   1       5.515   0.388  -9.915  0.00  0.00     0.028 H 
ATOM     22  H   LIG d   1       3.597   2.059  -7.256  0.00  0.00     0.082 H 
ATOM     23  H   LIG d   1       1.996   1.400  -7.686  0.00  0.00     0.082 H 
ATOM     24  H   LIG d   1       4.868  -1.109  -5.963  0.00  0.00     0.082 H 
ATOM     25  H   LIG d   1       5.222   0.621  -6.154  0.00  0.00     0.082 H 
ATOM     26  N   LIG d   1       3.284   0.013  -6.757  0.00  0.00     0.236 N 
ATOM     27  H   LIG d   1       2.845  -0.810  -7.184  0.00  0.00     0.203 HD
ENDROOT
BRANCH  26  28
ATOM     28  C   LIG d   1       2.676   0.250  -5.433  0.00  0.00    -0.029 C 
ATOM     29  H   LIG d   1       2.312   1.276  -5.390  0.00  0.00     0.082 H 
ATOM     30  H   LIG d   1       1.841  -0.438  -5.300  0.00  0.00     0.082 H 
BRANCH  28  31
ATOM     31  C   LIG d   1       3.702   0.027  -4.321  0.00  0.00    -0.001 C 
ATOM     32  C   LIG d   1       3.691   1.224  -3.368  0.00  0.00    -0.045 C 
ATOM     33  C   LIG d   1       4.718   1.000  -2.256  0.00  0.00    -0.053 C 
ATOM     34  H   LIG d   1       3.945   2.129  -3.920  0.00  0.00     0.027 H 
ATOM     35  H   LIG d   1       2.699   1.330  -2.930  0.00  0.00     0.027 H 
ATOM     36  C   LIG d   1       4.364  -0.271  -1.482  0.00  0.00    -0.053 C 
ATOM     37  H   LIG d   1       5.711   0.895  -2.695  0.00  0.00     0.026 H 
ATOM     38  H   LIG d   1       4.711   1.854  -1.578  0.00  0.00     0.026 H 
ATOM     39  C   LIG d   1       4.375  -1.468  -2.434  0.00  0.00    -0.053 C 
ATOM     40  H   LIG d   1       5.096  -0.429  -0.690  0.00  0.00     0.026 H 
ATOM     41  H   LIG d   1       3.372  -0.164  -1.044  0.00  0.00     0.026 H 
ATOM     42  C   LIG d   1       3.348  -1.244  -3.546  0.00  0.00    -0.045 C 
ATOM     43  H   LIG d   1       5.367  -1.575  -2.873  0.00  0.00     0.026 H 
ATOM     44  H   LIG d   1       4.123  -2.373  -1.883  0.00  0.00     0.026 H 
ATOM     45  H   LIG d   1       2.356  -1.138  -3.108  0.00  0.00     0.027 H 
ATOM     46  H   LIG d   1       3.356  -2.097  -4.226  0.00  0.00     0.027 H 
ATOM     47  H   LIG d   1       4.695  -0.080  -4.759  0.00  0.00     0.035 H 
ENDBRANCH  28  31
ENDBRANCH  26  28
BRANCH   1  48
ATOM     48  N   LIG d   1       0.903  -4.003 -10.285  0.00  0.00    -0.277 N 
ATOM     49  C   LIG d   1       1.169  -4.692 -11.412  0.00  0.00     0.263 C 
ATOM     50  O   LIG d   1       1.931  -4.234 -12.238  0.00  0.00    -0.270 OA
ATOM     51  H   LIG d   1       0.238  -4.332  -9.661  0.00  0.00     0.155 HD
BRANCH  49  52
ATOM     52  C   LIG d   1       0.520  -6.032 -11.648  0.00  0.00     0.046 C 
ATOM     53  H   LIG d   1      -0.512  -5.884 -11.966  0.00  0.00     0.091 H 
ATOM     54  H   LIG d   1       1.066  -6.568 -12.424  0.00  0.00     0.091 H 
BRANCH  52  55
ATOM     55  N   LIG d   1       0.532  -6.796 -10.383  0.00  0.00     0.237 N 
ATOM     56  H   LIG d   1       0.444  -6.142  -9.598  0.00  0.00     0.203 HD
BRANCH  55  57
ATOM     57  C   LIG d   1      -0.606  -7.740 -10.353  0.00  0.00    -0.043 C 
ATOM     58  H   LIG d   1      -1.158  -7.643  -9.419  0.00  0.00     0.078 H 
ATOM     59  H   LIG d   1      -1.267  -7.525 -11.192  0.00  0.00     0.078 H 
ATOM     60  H   LIG d   1      -0.223  -8.758 -10.445  0.00  0.00     0.078 H 
ENDBRANCH  55  57
BRANCH  55  61
ATOM     61  C   LIG d   1       1.805  -7.536 -10.252  0.00  0.00    -0.043 C 
ATOM     62  H   LIG d   1       2.159  -7.449  -9.225  0.00  0.00     0.078 H 
ATOM     63  H   LIG d   1       1.630  -8.587 -10.488  0.00  0.00     0.078 H 
ATOM     64  H   LIG d   1       2.555  -7.131 -10.931  0.00  0.00     0.078 H 
ENDBRANCH  55  61
ENDBRANCH  52  55
ENDBRANCH  49  52
ENDBRANCH   1  48
TORSDOF 7
ENDMDL
MODEL 4
REMARK VINA RESULT:      -6.6      2.452      5.996
REMARK  7 active torsions:
REMARK  status: ('A' for Active; 'I' for Inactive)
REMARK    1  A    between atoms: C_1  and  N_61 
REMARK    2  A    between atoms: C_2  and  N_61 
REMARK    3  A    between atoms: C_3  and  C_4 
REMARK    4  A    between atoms: C_3  and  N_61 
REMARK       I    between atoms: C_4  and  N_6 
REMARK    5  A    between atoms: N_6  and  C_7 
REMARK    6  A    between atoms: C_22  and  C_23 
REMARK    7  A    between atoms: C_22  and  N_63 
ROOT
ATOM      1  C   LIG d   1       8.207   0.609  -4.156  0.00  0.00     0.099 A 
ATOM      2  C   LIG d   1       7.211   1.412  -3.671  0.00  0.00    -0.034 A 
ATOM      3  C   LIG d   1       5.943   0.860  -3.455  0.00  0.00    -0.040 A 
ATOM      4  C   LIG d   1       5.710  -0.455  -3.703  0.00  0.00     0.030 A 
ATOM      5  N   LIG d   1       6.714  -1.272  -4.105  0.00  0.00    -0.310 N 
ATOM      6  C   LIG d   1       7.934  -0.752  -4.387  0.00  0.00     0.273 A 
ATOM      7  O   LIG d   1       8.806  -1.473  -4.847  0.00  0.00    -0.266 OA
ATOM      8  C   LIG d   1       6.569  -2.723  -4.221  0.00  0.00     0.034 C 
ATOM      9  C   LIG d   1       5.115  -3.156  -4.302  0.00  0.00     0.018 C 
ATOM     10  H   LIG d   1       5.065  -4.229  -4.123  0.00  0.00     0.037 H 
ATOM     11  C   LIG d   1       4.311  -2.446  -3.209  0.00  0.00    -0.031 C 
ATOM     12  C   LIG d   1       4.290  -0.951  -3.548  0.00  0.00     0.040 C 
ATOM     13  H   LIG d   1       3.764  -0.391  -2.773  0.00  0.00     0.042 H 
ATOM     14  C   LIG d   1       3.590  -0.781  -4.906  0.00  0.00    -0.024 C 
ATOM     15  C   LIG d   1       4.519  -2.882  -5.675  0.00  0.00    -0.027 C 
ATOM     16  H   LIG d   1       7.398   2.455  -3.463  0.00  0.00     0.064 H 
ATOM     17  H   LIG d   1       5.144   1.484  -3.084  0.00  0.00     0.064 H 
ATOM     18  H   LIG d   1       7.089  -3.060  -5.118  0.00  0.00     0.050 H 
ATOM     19  H   LIG d   1       7.028  -3.194  -3.351  0.00  0.00     0.050 H 
ATOM     20  H   LIG d   1       3.293  -2.835  -3.186  0.00  0.00     0.028 H 
ATOM     21  H   LIG d   1       4.788  -2.600  -2.241  0.00  0.00     0.028 H 
ATOM     22  H   LIG d   1       2.603  -1.244  -4.873  0.00  0.00     0.082 H 
ATOM     23  H   LIG d   1       3.491   0.280  -5.139  0.00  0.00     0.082 H 
ATOM     24  H   LIG d   1       5.154  -3.334  -6.437  0.00  0.00     0.082 H 
ATOM     25  H   LIG d   1       3.526  -3.327  -5.729  0.00  0.00     0.082 H 
ATOM     26  N   LIG d   1       4.443  -1.428  -5.928  0.00  0.00     0.236 N 
ATOM     27  H   LIG d   1       5.388  -1.031  -5.874  0.00  0.00     0.203 HD
ENDROOT
BRANCH  26  28
ATOM     28  C   LIG d   1       3.894  -1.180  -7.276  0.00  0.00    -0.029 C 
ATOM     29  H   LIG d   1       4.439  -1.790  -7.997  0.00  0.00     0.082 H 
ATOM     30  H   LIG d   1       2.841  -1.460  -7.286  0.00  0.00     0.082 H 
BRANCH  28  31
ATOM     31  C   LIG d   1       4.032   0.297  -7.651  0.00  0.00    -0.001 C 
ATOM     32  C   LIG d   1       5.137   0.456  -8.698  0.00  0.00    -0.045 C 
ATOM     33  C   LIG d   1       5.275   1.933  -9.072  0.00  0.00    -0.053 C 
ATOM     34  H   LIG d   1       6.080   0.095  -8.288  0.00  0.00     0.027 H 
ATOM     35  H   LIG d   1       4.881  -0.121  -9.586  0.00  0.00     0.027 H 
ATOM     36  C   LIG d   1       3.951   2.441  -9.646  0.00  0.00    -0.053 C 
ATOM     37  H   LIG d   1       5.531   2.511  -8.183  0.00  0.00     0.026 H 
ATOM     38  H   LIG d   1       6.062   2.047  -9.818  0.00  0.00     0.026 H 
ATOM     39  C   LIG d   1       2.846   2.281  -8.599  0.00  0.00    -0.053 C 
ATOM     40  H   LIG d   1       4.050   3.493  -9.913  0.00  0.00     0.026 H 
ATOM     41  H   LIG d   1       3.695   1.863 -10.535  0.00  0.00     0.026 H 
ATOM     42  C   LIG d   1       2.708   0.804  -8.225  0.00  0.00    -0.045 C 
ATOM     43  H   LIG d   1       3.102   2.858  -7.711  0.00  0.00     0.026 H 
ATOM     44  H   LIG d   1       1.904   2.642  -9.008  0.00  0.00     0.026 H 
ATOM     45  H   LIG d   1       2.452   0.227  -9.113  0.00  0.00     0.027 H 
ATOM     46  H   LIG d   1       1.922   0.690  -7.479  0.00  0.00     0.027 H 
ATOM     47  H   LIG d   1       4.288   0.874  -6.762  0.00  0.00     0.035 H 
ENDBRANCH  28  31
ENDBRANCH  26  28
BRANCH   1  48
ATOM     48  N   LIG d   1       9.481   1.134  -4.413  0.00  0.00    -0.277 N 
ATOM     49  C   LIG d   1       9.716   1.801  -5.561  0.00  0.00     0.263 C 
ATOM     50  O   LIG d   1       8.853   1.867  -6.411  0.00  0.00    -0.270 OA
ATOM     51  H   LIG d   1      10.194   1.016  -3.766  0.00  0.00     0.155 HD
BRANCH  49  52
ATOM     52  C   LIG d   1      11.050   2.465  -5.787  0.00  0.00     0.046 C 
ATOM     53  H   LIG d   1      11.831   1.706  -5.830  0.00  0.00     0.091 H 
ATOM     54  H   LIG d   1      11.026   3.014  -6.729  0.00  0.00     0.091 H 
BRANCH  52  55
ATOM     55  N   LIG d   1      11.324   3.380  -4.660  0.00  0.00     0.237 N 
ATOM     56  H   LIG d   1      11.005   2.940  -3.789  0.00  0.00     0.203 HD
BRANCH  55  57
ATOM     57  C   LIG d   1      12.776   3.641  -4.563  0.00  0.00    -0.043 C 
ATOM     58  H   LIG d   1      13.026   4.594  -5.027  0.00  0.00     0.078 H 
ATOM     59  H   LIG d   1      13.063   3.661  -3.512  0.00  0.00     0.078 H 
ATOM     60  H   LIG d   1      13.313   2.838  -5.071  0.00  0.00     0.078 H 
ENDBRANCH  55  57
BRANCH  55  61
ATOM     61  C   LIG d   1      10.596   4.652  -4.852  0.00  0.00    -0.043 C 
ATOM     62  H   LIG d   1       9.983   4.575  -5.751  0.00  0.00     0.078 H 
ATOM     63  H   LIG d   1       9.953   4.826  -3.989  0.00  0.00     0.078 H 
ATOM     64  H   LIG d   1      11.295   5.481  -4.958  0.00  0.00     0.078 H 
ENDBRANCH  55  61
ENDBRANCH  52  55
ENDBRANCH  49  52
ENDBRANCH   1  48
TORSDOF 7
ENDMDL
MODEL 5
REMARK VINA RESULT:      -6.5      3.500      5.610
REMARK  7 active torsions:
REMARK  status: ('A' for Active; 'I' for Inactive)
REMARK    1  A    between atoms: C_1  and  N_61 
REMARK    2  A    between atoms: C_2  and  N_61 
REMARK    3  A    between atoms: C_3  and  C_4 
REMARK    4  A    between atoms: C_3  and  N_61 
REMARK       I    between atoms: C_4  and  N_6 
REMARK    5  A    between atoms: N_6  and  C_7 
REMARK    6  A    between atoms: C_22  and  C_23 
REMARK    7  A    between atoms: C_22  and  N_63 
ROOT
ATOM      1  C   LIG d   1       7.302  -2.518  -5.372  0.00  0.00     0.099 A 
ATOM      2  C   LIG d   1       7.869  -1.330  -5.000  0.00  0.00    -0.034 A 
ATOM      3  C   LIG d   1       7.204  -0.528  -4.065  0.00  0.00    -0.040 A 
ATOM      4  C   LIG d   1       6.025  -0.932  -3.521  0.00  0.00     0.030 A 
ATOM      5  N   LIG d   1       5.502  -2.145  -3.826  0.00  0.00    -0.310 N 
ATOM      6  C   LIG d   1       6.089  -2.912  -4.777  0.00  0.00     0.273 A 
ATOM      7  O   LIG d   1       5.558  -3.956  -5.122  0.00  0.00    -0.266 OA
ATOM      8  C   LIG d   1       4.335  -2.707  -3.147  0.00  0.00     0.034 C 
ATOM      9  C   LIG d   1       3.516  -1.648  -2.430  0.00  0.00     0.018 C 
ATOM     10  H   LIG d   1       2.833  -2.148  -1.744  0.00  0.00     0.037 H 
ATOM     11  C   LIG d   1       4.448  -0.749  -1.613  0.00  0.00    -0.031 C 
ATOM     12  C   LIG d   1       5.316   0.037  -2.603  0.00  0.00     0.040 C 
ATOM     13  H   LIG d   1       6.032   0.663  -2.069  0.00  0.00     0.042 H 
ATOM     14  C   LIG d   1       4.386   0.900  -3.470  0.00  0.00    -0.024 C 
ATOM     15  C   LIG d   1       2.683  -0.823  -3.400  0.00  0.00    -0.027 C 
ATOM     16  H   LIG d   1       8.811  -1.014  -5.423  0.00  0.00     0.064 H 
ATOM     17  H   LIG d   1       7.632   0.417  -3.771  0.00  0.00     0.064 H 
ATOM     18  H   LIG d   1       3.703  -3.204  -3.883  0.00  0.00     0.050 H 
ATOM     19  H   LIG d   1       4.672  -3.444  -2.418  0.00  0.00     0.050 H 
ATOM     20  H   LIG d   1       3.861  -0.059  -1.007  0.00  0.00     0.028 H 
ATOM     21  H   LIG d   1       5.080  -1.360  -0.970  0.00  0.00     0.028 H 
ATOM     22  H   LIG d   1       3.760   1.525  -2.831  0.00  0.00     0.082 H 
ATOM     23  H   LIG d   1       4.979   1.530  -4.134  0.00  0.00     0.082 H 
ATOM     24  H   LIG d   1       2.088  -1.493  -4.020  0.00  0.00     0.082 H 
ATOM     25  H   LIG d   1       2.016  -0.172  -2.836  0.00  0.00     0.082 H 
ATOM     26  N   LIG d   1       3.557  -0.020  -4.281  0.00  0.00     0.236 N 
ATOM     27  H   LIG d   1       4.174  -0.652  -4.804  0.00  0.00     0.203 HD
ENDROOT
BRANCH  26  28
ATOM     28  C   LIG d   1       2.736   0.749  -5.239  0.00  0.00    -0.029 C 
ATOM     29  H   LIG d   1       1.698   0.731  -4.908  0.00  0.00     0.082 H 
ATOM     30  H   LIG d   1       3.092   1.778  -5.262  0.00  0.00     0.082 H 
BRANCH  28  31
ATOM     31  C   LIG d   1       2.834   0.143  -6.640  0.00  0.00    -0.001 C 
ATOM     32  C   LIG d   1       2.805   1.262  -7.683  0.00  0.00    -0.045 C 
ATOM     33  C   LIG d   1       2.903   0.655  -9.084  0.00  0.00    -0.053 C 
ATOM     34  H   LIG d   1       1.873   1.819  -7.592  0.00  0.00     0.027 H 
ATOM     35  H   LIG d   1       3.648   1.933  -7.518  0.00  0.00     0.027 H 
ATOM     36  C   LIG d   1       4.211  -0.128  -9.212  0.00  0.00    -0.053 C 
ATOM     37  H   LIG d   1       2.059  -0.016  -9.249  0.00  0.00     0.026 H 
ATOM     38  H   LIG d   1       2.882   1.452  -9.828  0.00  0.00     0.026 H 
ATOM     39  C   LIG d   1       4.239  -1.247  -8.169  0.00  0.00    -0.053 C 
ATOM     40  H   LIG d   1       4.280  -0.559 -10.210  0.00  0.00     0.026 H 
ATOM     41  H   LIG d   1       5.054   0.544  -9.048  0.00  0.00     0.026 H 
ATOM     42  C   LIG d   1       4.142  -0.640  -6.768  0.00  0.00    -0.045 C 
ATOM     43  H   LIG d   1       3.397  -1.919  -8.333  0.00  0.00     0.026 H 
ATOM     44  H   LIG d   1       5.171  -1.804  -8.260  0.00  0.00     0.026 H 
ATOM     45  H   LIG d   1       4.984   0.031  -6.603  0.00  0.00     0.027 H 
ATOM     46  H   LIG d   1       4.162  -1.438  -6.024  0.00  0.00     0.027 H 
ATOM     47  H   LIG d   1       1.991  -0.529  -6.805  0.00  0.00     0.035 H 
ENDBRANCH  28  31
ENDBRANCH  26  28
BRANCH   1  48
ATOM     48  N   LIG d   1       7.924  -3.334  -6.328  0.00  0.00    -0.277 N 
ATOM     49  C   LIG d   1       8.819  -4.264  -5.939  0.00  0.00     0.263 C 
ATOM     50  O   LIG d   1       9.157  -4.333  -4.776  0.00  0.00    -0.270 OA
ATOM     51  H   LIG d   1       7.711  -3.230  -7.267  0.00  0.00     0.155 HD
BRANCH  49  52
ATOM     52  C   LIG d   1       9.401  -5.219  -6.950  0.00  0.00     0.046 C 
ATOM     53  H   LIG d   1      10.052  -4.674  -7.632  0.00  0.00     0.091 H 
ATOM     54  H   LIG d   1       9.978  -5.987  -6.433  0.00  0.00     0.091 H 
BRANCH  52  55
ATOM     55  N   LIG d   1       8.296  -5.831  -7.718  0.00  0.00     0.237 N 
ATOM     56  H   LIG d   1       7.581  -5.117  -7.898  0.00  0.00     0.203 HD
BRANCH  55  57
ATOM     57  C   LIG d   1       8.802  -6.340  -9.011  0.00  0.00    -0.043 C 
ATOM     58  H   LIG d   1       9.134  -7.373  -8.911  0.00  0.00     0.078 H 
ATOM     59  H   LIG d   1       8.004  -6.283  -9.750  0.00  0.00     0.078 H 
ATOM     60  H   LIG d   1       9.640  -5.719  -9.331  0.00  0.00     0.078 H 
ENDBRANCH  55  57
BRANCH  55  61
ATOM     61  C   LIG d   1       7.692  -6.935  -6.943  0.00  0.00    -0.043 C 
ATOM     62  H   LIG d   1       7.227  -7.638  -7.635  0.00  0.00     0.078 H 
ATOM     63  H   LIG d   1       8.475  -7.443  -6.380  0.00  0.00     0.078 H 
ATOM     64  H   LIG d   1       6.939  -6.551  -6.255  0.00  0.00     0.078 H 
ENDBRANCH  55  61
ENDBRANCH  52  55
ENDBRANCH  49  52
ENDBRANCH   1  48
TORSDOF 7
ENDMDL
MODEL 6
REMARK VINA RESULT:      -6.4      3.804      7.971
REMARK  7 active torsions:
REMARK  status: ('A' for Active; 'I' for Inactive)
REMARK    1  A    between atoms: C_1  and  N_61 
REMARK    2  A    between atoms: C_2  and  N_61 
REMARK    3  A    between atoms: C_3  and  C_4 
REMARK    4  A    between atoms: C_3  and  N_61 
REMARK       I    between atoms: C_4  and  N_6 
REMARK    5  A    between atoms: N_6  and  C_7 
REMARK    6  A    between atoms: C_22  and  C_23 
REMARK    7  A    between atoms: C_22  and  N_63 
ROOT
ATOM      1  C   LIG d   1      10.610   2.844  -3.627  0.00  0.00     0.099 A 
ATOM      2  C   LIG d   1      11.528   1.832  -3.565  0.00  0.00    -0.034 A 
ATOM      3  C   LIG d   1      11.394   0.745  -4.437  0.00  0.00    -0.040 A 
ATOM      4  C   LIG d   1      10.383   0.705  -5.343  0.00  0.00     0.030 A 
ATOM      5  N   LIG d   1       9.520   1.744  -5.463  0.00  0.00    -0.310 N 
ATOM      6  C   LIG d   1       9.583   2.777  -4.588  0.00  0.00     0.273 A 
ATOM      7  O   LIG d   1       8.740   3.660  -4.634  0.00  0.00    -0.266 OA
ATOM      8  C   LIG d   1       8.522   1.838  -6.529  0.00  0.00     0.034 C 
ATOM      9  C   LIG d   1       8.240   0.494  -7.179  0.00  0.00     0.018 C 
ATOM     10  H   LIG d   1       7.706   0.669  -8.112  0.00  0.00     0.037 H 
ATOM     11  C   LIG d   1       9.565  -0.201  -7.505  0.00  0.00    -0.031 C 
ATOM     12  C   LIG d   1      10.243  -0.550  -6.175  0.00  0.00     0.040 C 
ATOM     13  H   LIG d   1      11.216  -1.011  -6.352  0.00  0.00     0.042 H 
ATOM     14  C   LIG d   1       9.322  -1.513  -5.408  0.00  0.00    -0.024 C 
ATOM     15  C   LIG d   1       7.368  -0.389  -6.299  0.00  0.00    -0.027 C 
ATOM     16  H   LIG d   1      12.339   1.868  -2.853  0.00  0.00     0.064 H 
ATOM     17  H   LIG d   1      12.104  -0.067  -4.392  0.00  0.00     0.064 H 
ATOM     18  H   LIG d   1       7.595   2.230  -6.112  0.00  0.00     0.050 H 
ATOM     19  H   LIG d   1       8.884   2.528  -7.291  0.00  0.00     0.050 H 
ATOM     20  H   LIG d   1       9.375  -1.112  -8.073  0.00  0.00     0.028 H 
ATOM     21  H   LIG d   1      10.202   0.468  -8.082  0.00  0.00     0.028 H 
ATOM     22  H   LIG d   1       9.091  -2.378  -6.031  0.00  0.00     0.082 H 
ATOM     23  H   LIG d   1       9.811  -1.839  -4.491  0.00  0.00     0.082 H 
ATOM     24  H   LIG d   1       6.469   0.161  -6.020  0.00  0.00     0.082 H 
ATOM     25  H   LIG d   1       7.083  -1.280  -6.857  0.00  0.00     0.082 H 
ATOM     26  N   LIG d   1       8.089  -0.767  -5.066  0.00  0.00     0.236 N 
ATOM     27  H   LIG d   1       8.346   0.086  -4.556  0.00  0.00     0.203 HD
ENDROOT
BRANCH  26  28
ATOM     28  C   LIG d   1       7.219  -1.595  -4.207  0.00  0.00    -0.029 C 
ATOM     29  H   LIG d   1       6.896  -2.470  -4.771  0.00  0.00     0.082 H 
ATOM     30  H   LIG d   1       7.786  -1.915  -3.333  0.00  0.00     0.082 H 
BRANCH  28  31
ATOM     31  C   LIG d   1       5.992  -0.800  -3.757  0.00  0.00    -0.001 C 
ATOM     32  C   LIG d   1       5.258  -1.572  -2.658  0.00  0.00    -0.045 C 
ATOM     33  C   LIG d   1       4.031  -0.776  -2.209  0.00  0.00    -0.053 C 
ATOM     34  H   LIG d   1       4.941  -2.540  -3.046  0.00  0.00     0.027 H 
ATOM     35  H   LIG d   1       5.926  -1.719  -1.811  0.00  0.00     0.027 H 
ATOM     36  C   LIG d   1       4.476   0.584  -1.667  0.00  0.00    -0.053 C 
ATOM     37  H   LIG d   1       3.363  -0.628  -3.058  0.00  0.00     0.026 H 
ATOM     38  H   LIG d   1       3.508  -1.326  -1.427  0.00  0.00     0.026 H 
ATOM     39  C   LIG d   1       5.210   1.356  -2.765  0.00  0.00    -0.053 C 
ATOM     40  H   LIG d   1       3.602   1.151  -1.346  0.00  0.00     0.026 H 
ATOM     41  H   LIG d   1       5.144   0.436  -0.818  0.00  0.00     0.026 H 
ATOM     42  C   LIG d   1       6.436   0.560  -3.215  0.00  0.00    -0.045 C 
ATOM     43  H   LIG d   1       4.542   1.504  -3.614  0.00  0.00     0.026 H 
ATOM     44  H   LIG d   1       5.526   2.324  -2.379  0.00  0.00     0.026 H 
ATOM     45  H   LIG d   1       7.104   0.413  -2.367  0.00  0.00     0.027 H 
ATOM     46  H   LIG d   1       6.959   1.110  -3.998  0.00  0.00     0.027 H 
ATOM     47  H   LIG d   1       5.324  -0.651  -4.606  0.00  0.00     0.035 H 
ENDBRANCH  28  31
ENDBRANCH  26  28
BRANCH   1  48
ATOM     48  N   LIG d   1      10.693   3.934  -2.749  0.00  0.00    -0.277 N 
ATOM     49  C   LIG d   1      11.512   4.966  -3.034  0.00  0.00     0.263 C 
ATOM     50  O   LIG d   1      12.246   4.911  -3.999  0.00  0.00    -0.270 OA
ATOM     51  H   LIG d   1      10.162   3.946  -1.938  0.00  0.00     0.155 HD
BRANCH  49  52
ATOM     52  C   LIG d   1      11.516   6.190  -2.154  0.00  0.00     0.046 C 
ATOM     53  H   LIG d   1      12.437   6.215  -1.571  0.00  0.00     0.091 H 
ATOM     54  H   LIG d   1      11.456   7.084  -2.775  0.00  0.00     0.091 H 
BRANCH  52  55
ATOM     55  N   LIG d   1      10.362   6.119  -1.234  0.00  0.00     0.237 N 
ATOM     56  H   LIG d   1       9.858   5.240  -1.399  0.00  0.00     0.203 HD
BRANCH  55  57
ATOM     57  C   LIG d   1      10.831   6.149   0.168  0.00  0.00    -0.043 C 
ATOM     58  H   LIG d   1       9.985   6.195   0.854  0.00  0.00     0.078 H 
ATOM     59  H   LIG d   1      11.412   5.249   0.366  0.00  0.00     0.078 H 
ATOM     60  H   LIG d   1      11.462   7.027   0.311  0.00  0.00     0.078 H 
ENDBRANCH  55  57
BRANCH  55  61
ATOM     61  C   LIG d   1       9.446   7.252  -1.483  0.00  0.00    -0.043 C 
ATOM     62  H   LIG d   1       9.973   8.010  -2.064  0.00  0.00     0.078 H 
ATOM     63  H   LIG d   1       8.586   6.895  -2.049  0.00  0.00     0.078 H 
ATOM     64  H   LIG d   1       9.108   7.685  -0.542  0.00  0.00     0.078 H 
ENDBRANCH  55  61
ENDBRANCH  52  55
ENDBRANCH  49  52
ENDBRANCH   1  48
TORSDOF 7
ENDMDL
MODEL 7
REMARK VINA RESULT:      -6.4      2.401      6.425
REMARK  7 active torsions:
REMARK  status: ('A' for Active; 'I' for Inactive)
REMARK    1  A    between atoms: C_1  and  N_61 
REMARK    2  A    between atoms: C_2  and  N_61 
REMARK    3  A    between atoms: C_3  and  C_4 
REMARK    4  A    between atoms: C_3  and  N_61 
REMARK       I    between atoms: C_4  and  N_6 
REMARK    5  A    between atoms: N_6  and  C_7 
REMARK    6  A    between atoms: C_22  and  C_23 
REMARK    7  A    between atoms: C_22  and  N_63 
ROOT
ATOM      1  C   LIG d   1       8.374   0.411  -5.326  0.00  0.00     0.099 A 
ATOM      2  C   LIG d   1       8.140  -0.858  -4.872  0.00  0.00    -0.034 A 
ATOM      3  C   LIG d   1       7.115  -1.607  -5.461  0.00  0.00    -0.040 A 
ATOM      4  C   LIG d   1       6.378  -1.091  -6.479  0.00  0.00     0.030 A 
ATOM      5  N   LIG d   1       6.660   0.134  -6.986  0.00  0.00    -0.310 N 
ATOM      6  C   LIG d   1       7.601   0.909  -6.392  0.00  0.00     0.273 A 
ATOM      7  O   LIG d   1       7.780   2.050  -6.787  0.00  0.00    -0.266 OA
ATOM      8  C   LIG d   1       6.021   0.671  -8.187  0.00  0.00     0.034 C 
ATOM      9  C   LIG d   1       4.725  -0.047  -8.524  0.00  0.00     0.018 C 
ATOM     10  H   LIG d   1       4.444   0.212  -9.544  0.00  0.00     0.037 H 
ATOM     11  C   LIG d   1       4.949  -1.560  -8.454  0.00  0.00    -0.031 C 
ATOM     12  C   LIG d   1       5.220  -1.919  -6.988  0.00  0.00     0.040 C 
ATOM     13  H   LIG d   1       5.430  -2.985  -6.889  0.00  0.00     0.042 H 
ATOM     14  C   LIG d   1       3.979  -1.536  -6.166  0.00  0.00    -0.024 C 
ATOM     15  C   LIG d   1       3.588   0.375  -7.604  0.00  0.00    -0.027 C 
ATOM     16  H   LIG d   1       8.733  -1.274  -4.071  0.00  0.00     0.064 H 
ATOM     17  H   LIG d   1       6.911  -2.606  -5.106  0.00  0.00     0.064 H 
ATOM     18  H   LIG d   1       5.809   1.729  -8.032  0.00  0.00     0.050 H 
ATOM     19  H   LIG d   1       6.707   0.570  -9.027  0.00  0.00     0.050 H 
ATOM     20  H   LIG d   1       4.058  -2.082  -8.804  0.00  0.00     0.028 H 
ATOM     21  H   LIG d   1       5.805  -1.836  -9.068  0.00  0.00     0.028 H 
ATOM     22  H   LIG d   1       3.095  -2.016  -6.586  0.00  0.00     0.082 H 
ATOM     23  H   LIG d   1       4.112  -1.849  -5.130  0.00  0.00     0.082 H 
ATOM     24  H   LIG d   1       3.504   1.462  -7.616  0.00  0.00     0.082 H 
ATOM     25  H   LIG d   1       2.657  -0.059  -7.965  0.00  0.00     0.082 H 
ATOM     26  N   LIG d   1       3.853  -0.061  -6.217  0.00  0.00     0.236 N 
ATOM     27  H   LIG d   1       4.733   0.360  -5.898  0.00  0.00     0.203 HD
ENDROOT
BRANCH  26  28
ATOM     28  C   LIG d   1       2.758   0.384  -5.332  0.00  0.00    -0.029 C 
ATOM     29  H   LIG d   1       2.611   1.456  -5.465  0.00  0.00     0.082 H 
ATOM     30  H   LIG d   1       1.845  -0.145  -5.605  0.00  0.00     0.082 H 
BRANCH  28  31
ATOM     31  C   LIG d   1       3.097   0.095  -3.869  0.00  0.00    -0.001 C 
ATOM     32  C   LIG d   1       3.274  -1.413  -3.674  0.00  0.00    -0.045 C 
ATOM     33  C   LIG d   1       3.613  -1.701  -2.210  0.00  0.00    -0.053 C 
ATOM     34  H   LIG d   1       2.349  -1.924  -3.941  0.00  0.00     0.027 H 
ATOM     35  H   LIG d   1       4.084  -1.768  -4.311  0.00  0.00     0.027 H 
ATOM     36  C   LIG d   1       4.910  -0.982  -1.834  0.00  0.00    -0.053 C 
ATOM     37  H   LIG d   1       2.802  -1.346  -1.573  0.00  0.00     0.026 H 
ATOM     38  H   LIG d   1       3.738  -2.775  -2.071  0.00  0.00     0.026 H 
ATOM     39  C   LIG d   1       4.732   0.525  -2.029  0.00  0.00    -0.053 C 
ATOM     40  H   LIG d   1       5.150  -1.188  -0.792  0.00  0.00     0.026 H 
ATOM     41  H   LIG d   1       5.720  -1.338  -2.472  0.00  0.00     0.026 H 
ATOM     42  C   LIG d   1       4.394   0.814  -3.493  0.00  0.00    -0.045 C 
ATOM     43  H   LIG d   1       3.922   0.881  -1.392  0.00  0.00     0.026 H 
ATOM     44  H   LIG d   1       5.656   1.037  -1.762  0.00  0.00     0.026 H 
ATOM     45  H   LIG d   1       5.204   0.458  -4.130  0.00  0.00     0.027 H 
ATOM     46  H   LIG d   1       4.267   1.888  -3.632  0.00  0.00     0.027 H 
ATOM     47  H   LIG d   1       2.287   0.451  -3.231  0.00  0.00     0.035 H 
ENDBRANCH  28  31
ENDBRANCH  26  28
BRANCH   1  48
ATOM     48  N   LIG d   1       9.373   1.203  -4.741  0.00  0.00    -0.277 N 
ATOM     49  C   LIG d   1       9.066   2.026  -3.718  0.00  0.00     0.263 C 
ATOM     50  O   LIG d   1       7.912   2.152  -3.366  0.00  0.00    -0.270 OA
ATOM     51  H   LIG d   1      10.283   1.158  -5.071  0.00  0.00     0.155 HD
BRANCH  49  52
ATOM     52  C   LIG d   1      10.158   2.789  -3.012  0.00  0.00     0.046 C 
ATOM     53  H   LIG d   1      10.257   2.421  -1.992  0.00  0.00     0.091 H 
ATOM     54  H   LIG d   1      11.100   2.649  -3.543  0.00  0.00     0.091 H 
BRANCH  52  55
ATOM     55  N   LIG d   1       9.792   4.221  -2.977  0.00  0.00     0.237 N 
ATOM     56  H   LIG d   1       8.795   4.304  -2.745  0.00  0.00     0.203 HD
BRANCH  55  57
ATOM     57  C   LIG d   1      10.585   4.919  -1.944  0.00  0.00    -0.043 C 
ATOM     58  H   LIG d   1      11.648   4.872  -2.180  0.00  0.00     0.078 H 
ATOM     59  H   LIG d   1      10.268   5.961  -1.898  0.00  0.00     0.078 H 
ATOM     60  H   LIG d   1      10.406   4.443  -0.979  0.00  0.00     0.078 H 
ENDBRANCH  55  57
BRANCH  55  61
ATOM     61  C   LIG d   1      10.031   4.837  -4.299  0.00  0.00    -0.043 C 
ATOM     62  H   LIG d   1       9.279   4.473  -5.000  0.00  0.00     0.078 H 
ATOM     63  H   LIG d   1       9.947   5.920  -4.206  0.00  0.00     0.078 H 
ATOM     64  H   LIG d   1      11.024   4.579  -4.667  0.00  0.00     0.078 H 
ENDBRANCH  55  61
ENDBRANCH  52  55
ENDBRANCH  49  52
ENDBRANCH   1  48
TORSDOF 7
ENDMDL
MODEL 8
REMARK VINA RESULT:      -6.4      1.645      2.205
REMARK  7 active torsions:
REMARK  status: ('A' for Active; 'I' for Inactive)
REMARK    1  A    between atoms: C_1  and  N_61 
REMARK    2  A    between atoms: C_2  and  N_61 
REMARK    3  A    between atoms: C_3  and  C_4 
REMARK    4  A    between atoms: C_3  and  N_61 
REMARK       I    between atoms: C_4  and  N_6 
REMARK    5  A    between atoms: N_6  and  C_7 
REMARK    6  A    between atoms: C_22  and  C_23 
REMARK    7  A    between atoms: C_22  and  N_63 
ROOT
ATOM      1  C   LIG d   1       4.627  -1.866  -7.474  0.00  0.00     0.099 A 
ATOM      2  C   LIG d   1       5.175  -2.891  -6.752  0.00  0.00    -0.034 A 
ATOM      3  C   LIG d   1       5.059  -2.872  -5.358  0.00  0.00    -0.040 A 
ATOM      4  C   LIG d   1       4.396  -1.864  -4.732  0.00  0.00     0.030 A 
ATOM      5  N   LIG d   1       3.782  -0.891  -5.447  0.00  0.00    -0.310 N 
ATOM      6  C   LIG d   1       3.934  -0.846  -6.794  0.00  0.00     0.273 A 
ATOM      7  O   LIG d   1       3.465   0.089  -7.423  0.00  0.00    -0.266 OA
ATOM      8  C   LIG d   1       2.911   0.118  -4.845  0.00  0.00     0.034 C 
ATOM      9  C   LIG d   1       3.132   0.254  -3.348  0.00  0.00     0.018 C 
ATOM     10  H   LIG d   1       2.296   0.812  -2.927  0.00  0.00     0.037 H 
ATOM     11  C   LIG d   1       3.156  -1.137  -2.708  0.00  0.00    -0.031 C 
ATOM     12  C   LIG d   1       4.408  -1.859  -3.220  0.00  0.00     0.040 C 
ATOM     13  H   LIG d   1       4.449  -2.875  -2.826  0.00  0.00     0.042 H 
ATOM     14  C   LIG d   1       5.638  -1.055  -2.769  0.00  0.00    -0.024 C 
ATOM     15  C   LIG d   1       4.410   1.017  -3.031  0.00  0.00    -0.027 C 
ATOM     16  H   LIG d   1       5.692  -3.698  -7.249  0.00  0.00     0.064 H 
ATOM     17  H   LIG d   1       5.497  -3.668  -4.774  0.00  0.00     0.064 H 
ATOM     18  H   LIG d   1       3.104   1.080  -5.319  0.00  0.00     0.050 H 
ATOM     19  H   LIG d   1       1.872  -0.160  -5.023  0.00  0.00     0.050 H 
ATOM     20  H   LIG d   1       3.199  -1.044  -1.623  0.00  0.00     0.028 H 
ATOM     21  H   LIG d   1       2.264  -1.691  -2.997  0.00  0.00     0.028 H 
ATOM     22  H   LIG d   1       5.613  -0.917  -1.688  0.00  0.00     0.082 H 
ATOM     23  H   LIG d   1       6.548  -1.584  -3.052  0.00  0.00     0.082 H 
ATOM     24  H   LIG d   1       4.398   1.970  -3.561  0.00  0.00     0.082 H 
ATOM     25  H   LIG d   1       4.457   1.206  -1.959  0.00  0.00     0.082 H 
ATOM     26  N   LIG d   1       5.595   0.250  -3.468  0.00  0.00     0.236 N 
ATOM     27  H   LIG d   1       5.530   0.085  -4.479  0.00  0.00     0.203 HD
ENDROOT
BRANCH  26  28
ATOM     28  C   LIG d   1       6.824   1.017  -3.184  0.00  0.00    -0.029 C 
ATOM     29  H   LIG d   1       6.552   2.046  -2.950  0.00  0.00     0.082 H 
ATOM     30  H   LIG d   1       7.329   0.572  -2.327  0.00  0.00     0.082 H 
BRANCH  28  31
ATOM     31  C   LIG d   1       7.761   1.001  -4.393  0.00  0.00    -0.001 C 
ATOM     32  C   LIG d   1       7.006   0.475  -5.616  0.00  0.00    -0.045 C 
ATOM     33  C   LIG d   1       7.944   0.458  -6.825  0.00  0.00    -0.053 C 
ATOM     34  H   LIG d   1       6.653  -0.537  -5.417  0.00  0.00     0.027 H 
ATOM     35  H   LIG d   1       6.156   1.123  -5.824  0.00  0.00     0.027 H 
ATOM     36  C   LIG d   1       8.441   1.878  -7.105  0.00  0.00    -0.053 C 
ATOM     37  H   LIG d   1       8.795  -0.191  -6.616  0.00  0.00     0.026 H 
ATOM     38  H   LIG d   1       7.407   0.083  -7.696  0.00  0.00     0.026 H 
ATOM     39  C   LIG d   1       9.196   2.404  -5.882  0.00  0.00    -0.053 C 
ATOM     40  H   LIG d   1       9.109   1.865  -7.966  0.00  0.00     0.026 H 
ATOM     41  H   LIG d   1       7.590   2.526  -7.314  0.00  0.00     0.026 H 
ATOM     42  C   LIG d   1       8.258   2.420  -4.673  0.00  0.00    -0.045 C 
ATOM     43  H   LIG d   1      10.047   1.755  -5.673  0.00  0.00     0.026 H 
ATOM     44  H   LIG d   1       9.550   3.414  -6.081  0.00  0.00     0.026 H 
ATOM     45  H   LIG d   1       7.408   3.069  -4.881  0.00  0.00     0.027 H 
ATOM     46  H   LIG d   1       8.796   2.795  -3.801  0.00  0.00     0.027 H 
ATOM     47  H   LIG d   1       8.612   0.352  -4.185  0.00  0.00     0.035 H 
ENDBRANCH  28  31
ENDBRANCH  26  28
BRANCH   1  48
ATOM     48  N   LIG d   1       4.748  -1.835  -8.870  0.00  0.00    -0.277 N 
ATOM     49  C   LIG d   1       3.855  -2.488  -9.638  0.00  0.00     0.263 C 
ATOM     50  O   LIG d   1       3.001  -3.179  -9.123  0.00  0.00    -0.270 OA
ATOM     51  H   LIG d   1       5.475  -1.343  -9.283  0.00  0.00     0.155 HD
BRANCH  49  52
ATOM     52  C   LIG d   1       3.915  -2.360 -11.139  0.00  0.00     0.046 C 
ATOM     53  H   LIG d   1       4.781  -1.760 -11.418  0.00  0.00     0.091 H 
ATOM     54  H   LIG d   1       4.001  -3.351 -11.584  0.00  0.00     0.091 H 
BRANCH  52  55
ATOM     55  N   LIG d   1       2.686  -1.686 -11.609  0.00  0.00     0.237 N 
ATOM     56  H   LIG d   1       1.872  -2.145 -11.186  0.00  0.00     0.203 HD
BRANCH  55  57
ATOM     57  C   LIG d   1       2.703  -0.265 -11.201  0.00  0.00    -0.043 C 
ATOM     58  H   LIG d   1       3.684   0.012 -10.817  0.00  0.00     0.078 H 
ATOM     59  H   LIG d   1       2.461   0.354 -12.065  0.00  0.00     0.078 H 
ATOM     60  H   LIG d   1       1.953  -0.112 -10.424  0.00  0.00     0.078 H 
ENDBRANCH  55  57
BRANCH  55  61
ATOM     61  C   LIG d   1       2.585  -1.787 -13.080  0.00  0.00    -0.043 C 
ATOM     62  H   LIG d   1       3.550  -2.102 -13.479  0.00  0.00     0.078 H 
ATOM     63  H   LIG d   1       1.828  -2.529 -13.334  0.00  0.00     0.078 H 
ATOM     64  H   LIG d   1       2.310  -0.825 -13.512  0.00  0.00     0.078 H 
ENDBRANCH  55  61
ENDBRANCH  52  55
ENDBRANCH  49  52
ENDBRANCH   1  48
TORSDOF 7
ENDMDL
MODEL 9
REMARK VINA RESULT:      -6.2      3.070      6.673
REMARK  7 active torsions:
REMARK  status: ('A' for Active; 'I' for Inactive)
REMARK    1  A    between atoms: C_1  and  N_61 
REMARK    2  A    between atoms: C_2  and  N_61 
REMARK    3  A    between atoms: C_3  and  C_4 
REMARK    4  A    between atoms: C_3  and  N_61 
REMARK       I    between atoms: C_4  and  N_6 
REMARK    5  A    between atoms: N_6  and  C_7 
REMARK    6  A    between atoms: C_22  and  C_23 
REMARK    7  A    between atoms: C_22  and  N_63 
ROOT
ATOM      1  C   LIG d   1       9.391   1.356  -5.716  0.00  0.00     0.099 A 
ATOM      2  C   LIG d   1      10.268   0.431  -5.221  0.00  0.00    -0.034 A 
ATOM      3  C   LIG d   1      10.056  -0.922  -5.508  0.00  0.00    -0.040 A 
ATOM      4  C   LIG d   1       9.008  -1.309  -6.283  0.00  0.00     0.030 A 
ATOM      5  N   LIG d   1       8.185  -0.389  -6.842  0.00  0.00    -0.310 N 
ATOM      6  C   LIG d   1       8.325   0.922  -6.526  0.00  0.00     0.273 A 
ATOM      7  O   LIG d   1       7.518   1.734  -6.950  0.00  0.00    -0.266 OA
ATOM      8  C   LIG d   1       7.150  -0.729  -7.819  0.00  0.00     0.034 C 
ATOM      9  C   LIG d   1       6.788  -2.204  -7.790  0.00  0.00     0.018 C 
ATOM     10  H   LIG d   1       6.225  -2.437  -8.693  0.00  0.00     0.037 H 
ATOM     11  C   LIG d   1       8.070  -3.043  -7.791  0.00  0.00    -0.031 C 
ATOM     12  C   LIG d   1       8.785  -2.794  -6.458  0.00  0.00     0.040 C 
ATOM     13  H   LIG d   1       9.730  -3.338  -6.425  0.00  0.00     0.042 H 
ATOM     14  C   LIG d   1       7.856  -3.260  -5.325  0.00  0.00    -0.024 C 
ATOM     15  C   LIG d   1       5.916  -2.550  -6.592  0.00  0.00    -0.027 C 
ATOM     16  H   LIG d   1      11.108   0.738  -4.615  0.00  0.00     0.064 H 
ATOM     17  H   LIG d   1      10.733  -1.665  -5.115  0.00  0.00     0.064 H 
ATOM     18  H   LIG d   1       6.257  -0.142  -7.607  0.00  0.00     0.050 H 
ATOM     19  H   LIG d   1       7.510  -0.475  -8.816  0.00  0.00     0.050 H 
ATOM     20  H   LIG d   1       7.820  -4.100  -7.885  0.00  0.00     0.028 H 
ATOM     21  H   LIG d   1       8.710  -2.739  -8.618  0.00  0.00     0.028 H 
ATOM     22  H   LIG d   1       7.566  -4.298  -5.488  0.00  0.00     0.082 H 
ATOM     23  H   LIG d   1       8.368  -3.166  -4.367  0.00  0.00     0.082 H 
ATOM     24  H   LIG d   1       5.052  -1.886  -6.575  0.00  0.00     0.082 H 
ATOM     25  H   LIG d   1       5.573  -3.580  -6.685  0.00  0.00     0.082 H 
ATOM     26  N   LIG d   1       6.670  -2.374  -5.333  0.00  0.00     0.236 N 
ATOM     27  H   LIG d   1       6.982  -1.398  -5.266  0.00  0.00     0.203 HD
ENDROOT
BRANCH  26  28
ATOM     28  C   LIG d   1       5.801  -2.680  -4.179  0.00  0.00    -0.029 C 
ATOM     29  H   LIG d   1       4.796  -2.898  -4.542  0.00  0.00     0.082 H 
ATOM     30  H   LIG d   1       6.197  -3.553  -3.661  0.00  0.00     0.082 H 
BRANCH  28  31
ATOM     31  C   LIG d   1       5.748  -1.494  -3.214  0.00  0.00    -0.001 C 
ATOM     32  C   LIG d   1       5.915  -0.191  -3.998  0.00  0.00    -0.045 C 
ATOM     33  C   LIG d   1       5.862   0.995  -3.032  0.00  0.00    -0.053 C 
ATOM     34  H   LIG d   1       6.876  -0.198  -4.513  0.00  0.00     0.027 H 
ATOM     35  H   LIG d   1       5.111  -0.101  -4.728  0.00  0.00     0.027 H 
ATOM     36  C   LIG d   1       4.514   1.004  -2.309  0.00  0.00    -0.053 C 
ATOM     37  H   LIG d   1       6.667   0.904  -2.302  0.00  0.00     0.026 H 
ATOM     38  H   LIG d   1       5.982   1.923  -3.590  0.00  0.00     0.026 H 
ATOM     39  C   LIG d   1       4.347  -0.299  -1.525  0.00  0.00    -0.053 C 
ATOM     40  H   LIG d   1       4.477   1.849  -1.622  0.00  0.00     0.026 H 
ATOM     41  H   LIG d   1       3.710   1.095  -3.040  0.00  0.00     0.026 H 
ATOM     42  C   LIG d   1       4.400  -1.485  -2.491  0.00  0.00    -0.045 C 
ATOM     43  H   LIG d   1       5.150  -0.390  -0.795  0.00  0.00     0.026 H 
ATOM     44  H   LIG d   1       3.387  -0.292  -1.010  0.00  0.00     0.026 H 
ATOM     45  H   LIG d   1       3.596  -1.395  -3.221  0.00  0.00     0.027 H 
ATOM     46  H   LIG d   1       4.281  -2.414  -1.933  0.00  0.00     0.027 H 
ATOM     47  H   LIG d   1       6.551  -1.585  -2.483  0.00  0.00     0.035 H 
ENDBRANCH  28  31
ENDBRANCH  26  28
BRANCH   1  48
ATOM     48  N   LIG d   1       9.553   2.718  -5.424  0.00  0.00    -0.277 N 
ATOM     49  C   LIG d   1       9.273   3.180  -4.189  0.00  0.00     0.263 C 
ATOM     50  O   LIG d   1       8.791   2.438  -3.359  0.00  0.00    -0.270 OA
ATOM     51  H   LIG d   1       9.868   3.327  -6.109  0.00  0.00     0.155 HD
BRANCH  49  52
ATOM     52  C   LIG d   1       9.557   4.618  -3.840  0.00  0.00     0.046 C 
ATOM     53  H   LIG d   1      10.257   5.036  -4.563  0.00  0.00     0.091 H 
ATOM     54  H   LIG d   1       8.627   5.188  -3.864  0.00  0.00     0.091 H 
BRANCH  52  55
ATOM     55  N   LIG d   1      10.163   4.671  -2.493  0.00  0.00     0.237 N 
ATOM     56  H   LIG d   1       9.698   3.980  -1.892  0.00  0.00     0.203 HD
BRANCH  55  57
ATOM     57  C   LIG d   1      11.603   4.346  -2.574  0.00  0.00    -0.043 C 
ATOM     58  H   LIG d   1      11.785   3.328  -2.233  0.00  0.00     0.078 H 
ATOM     59  H   LIG d   1      11.931   4.449  -3.608  0.00  0.00     0.078 H 
ATOM     60  H   LIG d   1      12.158   5.045  -1.946  0.00  0.00     0.078 H 
ENDBRANCH  55  57
BRANCH  55  61
ATOM     61  C   LIG d   1       9.981   6.016  -1.909  0.00  0.00    -0.043 C 
ATOM     62  H   LIG d   1      10.736   6.170  -1.137  0.00  0.00     0.078 H 
ATOM     63  H   LIG d   1      10.106   6.763  -2.693  0.00  0.00     0.078 H 
ATOM     64  H   LIG d   1       8.988   6.112  -1.470  0.00  0.00     0.078 H 
ENDBRANCH  55  61
ENDBRANCH  52  55
ENDBRANCH  49  52
ENDBRANCH   1  48
TORSDOF 7
ENDMDL
MODEL 10
REMARK VINA RESULT:      -6.1      3.313      5.887
REMARK  7 active torsions:
REMARK  status: ('A' for Active; 'I' for Inactive)
REMARK    1  A    between atoms: C_1  and  N_61 
REMARK    2  A    between atoms: C_2  and  N_61 
REMARK    3  A    between atoms: C_3  and  C_4 
REMARK    4  A    between atoms: C_3  and  N_61 
REMARK       I    between atoms: C_4  and  N_6 
REMARK    5  A    between atoms: N_6  and  C_7 
REMARK    6  A    between atoms: C_22  and  C_23 
REMARK    7  A    between atoms: C_22  and  N_63 
ROOT
ATOM      1  C   LIG d   1       2.480  -2.197 -11.196  0.00  0.00     0.099 A 
ATOM      2  C   LIG d   1       1.354  -1.677 -10.618  0.00  0.00    -0.034 A 
ATOM      3  C   LIG d   1       1.480  -0.567  -9.775  0.00  0.00    -0.040 A 
ATOM      4  C   LIG d   1       2.695  -0.002  -9.550  0.00  0.00     0.030 A 
ATOM      5  N   LIG d   1       3.800  -0.464 -10.185  0.00  0.00    -0.310 N 
ATOM      6  C   LIG d   1       3.721  -1.578 -10.953  0.00  0.00     0.273 A 
ATOM      7  O   LIG d   1       4.737  -2.050 -11.439  0.00  0.00    -0.266 OA
ATOM      8  C   LIG d   1       5.100   0.205 -10.120  0.00  0.00     0.034 C 
ATOM      9  C   LIG d   1       5.202   1.159  -8.942  0.00  0.00     0.018 C 
ATOM     10  H   LIG d   1       6.066   1.804  -9.097  0.00  0.00     0.037 H 
ATOM     11  C   LIG d   1       3.948   2.035  -8.886  0.00  0.00    -0.031 C 
ATOM     12  C   LIG d   1       2.763   1.125  -8.544  0.00  0.00     0.040 C 
ATOM     13  H   LIG d   1       1.834   1.695  -8.535  0.00  0.00     0.042 H 
ATOM     14  C   LIG d   1       3.026   0.499  -7.165  0.00  0.00    -0.024 C 
ATOM     15  C   LIG d   1       5.403   0.417  -7.629  0.00  0.00    -0.027 C 
ATOM     16  H   LIG d   1       0.386  -2.117 -10.805  0.00  0.00     0.064 H 
ATOM     17  H   LIG d   1       0.602  -0.152  -9.302  0.00  0.00     0.064 H 
ATOM     18  H   LIG d   1       5.882  -0.549 -10.034  0.00  0.00     0.050 H 
ATOM     19  H   LIG d   1       5.253   0.767 -11.042  0.00  0.00     0.050 H 
ATOM     20  H   LIG d   1       4.064   2.797  -8.115  0.00  0.00     0.028 H 
ATOM     21  H   LIG d   1       3.785   2.509  -9.853  0.00  0.00     0.028 H 
ATOM     22  H   LIG d   1       3.210   1.285  -6.432  0.00  0.00     0.082 H 
ATOM     23  H   LIG d   1       2.164  -0.095  -6.860  0.00  0.00     0.082 H 
ATOM     24  H   LIG d   1       6.255  -0.256  -7.725  0.00  0.00     0.082 H 
ATOM     25  H   LIG d   1       5.604   1.138  -6.838  0.00  0.00     0.082 H 
ATOM     26  N   LIG d   1       4.206  -0.385  -7.298  0.00  0.00     0.236 N 
ATOM     27  H   LIG d   1       4.036  -1.058  -8.054  0.00  0.00     0.203 HD
ENDROOT
BRANCH  26  28
ATOM     28  C   LIG d   1       4.429  -1.125  -6.039  0.00  0.00    -0.029 C 
ATOM     29  H   LIG d   1       3.690  -1.923  -5.963  0.00  0.00     0.082 H 
ATOM     30  H   LIG d   1       5.429  -1.556  -6.055  0.00  0.00     0.082 H 
BRANCH  28  31
ATOM     31  C   LIG d   1       4.295  -0.191  -4.834  0.00  0.00    -0.001 C 
ATOM     32  C   LIG d   1       3.275  -0.770  -3.851  0.00  0.00    -0.045 C 
ATOM     33  C   LIG d   1       3.141   0.164  -2.647  0.00  0.00    -0.053 C 
ATOM     34  H   LIG d   1       2.309  -0.866  -4.346  0.00  0.00     0.027 H 
ATOM     35  H   LIG d   1       3.612  -1.750  -3.515  0.00  0.00     0.027 H 
ATOM     36  C   LIG d   1       4.498   0.301  -1.953  0.00  0.00    -0.053 C 
ATOM     37  H   LIG d   1       2.804   1.145  -2.984  0.00  0.00     0.026 H 
ATOM     38  H   LIG d   1       2.415  -0.247  -1.946  0.00  0.00     0.026 H 
ATOM     39  C   LIG d   1       5.517   0.880  -2.937  0.00  0.00    -0.053 C 
ATOM     40  H   LIG d   1       4.402   0.966  -1.096  0.00  0.00     0.026 H 
ATOM     41  H   LIG d   1       4.834  -0.680  -1.617  0.00  0.00     0.026 H 
ATOM     42  C   LIG d   1       5.651  -0.054  -4.141  0.00  0.00    -0.045 C 
ATOM     43  H   LIG d   1       5.182   1.861  -3.274  0.00  0.00     0.026 H 
ATOM     44  H   LIG d   1       6.483   0.977  -2.443  0.00  0.00     0.026 H 
ATOM     45  H   LIG d   1       5.988  -1.034  -3.805  0.00  0.00     0.027 H 
ATOM     46  H   LIG d   1       6.377   0.358  -4.842  0.00  0.00     0.027 H 
ATOM     47  H   LIG d   1       3.958   0.790  -5.171  0.00  0.00     0.035 H 
ENDBRANCH  28  31
ENDBRANCH  26  28
BRANCH   1  48
ATOM     48  N   LIG d   1       2.398  -3.327 -12.022  0.00  0.00    -0.277 N 
ATOM     49  C   LIG d   1       2.160  -3.181 -13.341  0.00  0.00     0.263 C 
ATOM     50  O   LIG d   1       1.925  -2.081 -13.797  0.00  0.00    -0.270 OA
ATOM     51  H   LIG d   1       2.511  -4.213 -11.645  0.00  0.00     0.155 HD
BRANCH  49  52
ATOM     52  C   LIG d   1       2.188  -4.383 -14.249  0.00  0.00     0.046 C 
ATOM     53  H   LIG d   1       3.035  -5.017 -13.988  0.00  0.00     0.091 H 
ATOM     54  H   LIG d   1       1.262  -4.948 -14.131  0.00  0.00     0.091 H 
BRANCH  52  55
ATOM     55  N   LIG d   1       2.339  -3.922 -15.645  0.00  0.00     0.237 N 
ATOM     56  H   LIG d   1       2.292  -2.897 -15.664  0.00  0.00     0.203 HD
BRANCH  55  57
ATOM     57  C   LIG d   1       3.648  -4.353 -16.180  0.00  0.00    -0.043 C 
ATOM     58  H   LIG d   1       3.684  -5.438 -16.276  0.00  0.00     0.078 H 
ATOM     59  H   LIG d   1       3.799  -3.895 -17.157  0.00  0.00     0.078 H 
ATOM     60  H   LIG d   1       4.434  -4.022 -15.499  0.00  0.00     0.078 H 
ENDBRANCH  55  57
BRANCH  55  61
ATOM     61  C   LIG d   1       1.249  -4.470 -16.480  0.00  0.00    -0.043 C 
ATOM     62  H   LIG d   1       0.350  -3.872 -16.323  0.00  0.00     0.078 H 
ATOM     63  H   LIG d   1       1.543  -4.414 -17.528  0.00  0.00     0.078 H 
ATOM     64  H   LIG d   1       1.046  -5.507 -16.213  0.00  0.00     0.078 H 
ENDBRANCH  55  61
ENDBRANCH  52  55
ENDBRANCH  49  52
ENDBRANCH   1  48
TORSDOF 7
ENDMDL
