MODEL 1
REMARK VINA RESULT:      -4.5      0.000      0.000
REMARK  5 active torsions:
REMARK  status: ('A' for Active; 'I' for Inactive)
REMARK    1  A    between atoms: C_1  and  C_2 
REMARK    2  A    between atoms: C_1  and  C_7 
REMARK    3  A    between atoms: C_2  and  C_4 
REMARK    4  A    between atoms: C_2  and  O_6 
REMARK    5  A    between atoms: C_7  and  C_9 
ROOT
ATOM      1  C   LIG d   1       3.873  -1.689  -2.306  0.00  0.00     0.043 C 
ATOM      2  H   LIG d   1       4.492  -1.210  -1.684  0.00  0.00     0.037 H 
ATOM      3  H   LIG d   1       3.314  -2.444  -1.752  0.00  0.00     0.037 H 
ENDROOT
BRANCH   1   4
ATOM      4  C   LIG d   1       2.897  -0.687  -2.928  0.00  0.00     0.101 C 
ATOM      5  H   LIG d   1       1.930  -0.767  -2.431  0.00  0.00     0.066 H 
BRANCH   4   6
ATOM      6  C   LIG d   1       3.437   0.710  -2.760  0.00  0.00     0.070 C 
ATOM      7  O   LIG d   1       3.901   1.055  -1.700  0.00  0.00    -0.547 OA
ATOM      8  O   LIG d   1       3.403   1.569  -3.791  0.00  0.00    -0.547 OA
ENDBRANCH   4   6
BRANCH   4   9
ATOM      9  O   LIG d   1       2.742  -0.975  -4.319  0.00  0.00    -0.386 OA
ATOM     10  H   LIG d   1       2.712  -1.920  -4.524  0.00  0.00     0.210 HD
ENDBRANCH   4   9
ENDBRANCH   1   4
BRANCH   1  11
ATOM     11  C   LIG d   1       4.672  -2.355  -3.395  0.00  0.00     0.181 C 
ATOM     12  O   LIG d   1       4.278  -3.384  -3.891  0.00  0.00    -0.291 OA
BRANCH  11  13
ATOM     13  C   LIG d   1       5.950  -1.745  -3.862  0.00  0.00     0.107 C 
ATOM     14  O   LIG d   1       5.935  -0.889  -4.720  0.00  0.00    -0.542 OA
ATOM     15  O   LIG d   1       7.120  -2.145  -3.330  0.00  0.00    -0.542 OA
ENDBRANCH  11  13
ENDBRANCH   1  11
TORSDOF 5
ENDMDL
MODEL 2
REMARK VINA RESULT:      -4.3      1.458      2.554
REMARK  5 active torsions:
REMARK  status: ('A' for Active; 'I' for Inactive)
REMARK    1  A    between atoms: C_1  and  C_2 
REMARK    2  A    between atoms: C_1  and  C_7 
REMARK    3  A    between atoms: C_2  and  C_4 
REMARK    4  A    between atoms: C_2  and  O_6 
REMARK    5  A    between atoms: C_7  and  C_9 
ROOT
ATOM      1  C   LIG d   1       4.267  -1.096  -1.866  0.00  0.00     0.043 C 
ATOM      2  H   LIG d   1       5.094  -1.657  -1.850  0.00  0.00     0.037 H 
ATOM      3  H   LIG d   1       3.630  -1.365  -1.022  0.00  0.00     0.037 H 
ENDROOT
BRANCH   1   4
ATOM      4  C   LIG d   1       4.651   0.382  -1.764  0.00  0.00     0.101 C 
ATOM      5  H   LIG d   1       5.065   0.581  -0.775  0.00  0.00     0.066 H 
BRANCH   4   6
ATOM      6  C   LIG d   1       5.679   0.707  -2.816  0.00  0.00     0.070 C 
ATOM      7  O   LIG d   1       5.554   1.697  -3.498  0.00  0.00    -0.547 OA
ATOM      8  O   LIG d   1       6.735  -0.102  -2.994  0.00  0.00    -0.547 OA
ENDBRANCH   4   6
BRANCH   4   9
ATOM      9  O   LIG d   1       3.489   1.190  -1.966  0.00  0.00    -0.386 OA
ATOM     10  H   LIG d   1       3.659   2.003  -2.463  0.00  0.00     0.210 HD
ENDBRANCH   4   9
ENDBRANCH   1   4
BRANCH   1  11
ATOM     11  C   LIG d   1       3.523  -1.335  -3.153  0.00  0.00     0.181 C 
ATOM     12  O   LIG d   1       2.407  -0.895  -3.297  0.00  0.00    -0.291 OA
BRANCH  11  13
ATOM     13  C   LIG d   1       4.163  -2.115  -4.250  0.00  0.00     0.107 C 
ATOM     14  O   LIG d   1       4.529  -1.552  -5.260  0.00  0.00    -0.542 OA
ATOM     15  O   LIG d   1       4.334  -3.444  -4.120  0.00  0.00    -0.542 OA
ENDBRANCH  11  13
ENDBRANCH   1  11
TORSDOF 5
ENDMDL
MODEL 3
REMARK VINA RESULT:      -4.2      1.118      3.935
REMARK  5 active torsions:
REMARK  status: ('A' for Active; 'I' for Inactive)
REMARK    1  A    between atoms: C_1  and  C_2 
REMARK    2  A    between atoms: C_1  and  C_7 
REMARK    3  A    between atoms: C_2  and  C_4 
REMARK    4  A    between atoms: C_2  and  O_6 
REMARK    5  A    between atoms: C_7  and  C_9 
ROOT
ATOM      1  C   LIG d   1       4.274  -1.101  -1.956  0.00  0.00     0.043 C 
ATOM      2  H   LIG d   1       3.416  -1.483  -2.298  0.00  0.00     0.037 H 
ATOM      3  H   LIG d   1       4.394  -1.359  -0.904  0.00  0.00     0.037 H 
ENDROOT
BRANCH   1   4
ATOM      4  C   LIG d   1       5.444  -1.676  -2.758  0.00  0.00     0.101 C 
ATOM      5  H   LIG d   1       5.969  -2.416  -2.153  0.00  0.00     0.066 H 
BRANCH   4   6
ATOM      6  C   LIG d   1       4.921  -2.330  -4.011  0.00  0.00     0.070 C 
ATOM      7  O   LIG d   1       4.329  -3.381  -3.943  0.00  0.00    -0.547 OA
ATOM      8  O   LIG d   1       5.114  -1.744  -5.203  0.00  0.00    -0.547 OA
ENDBRANCH   4   6
BRANCH   4   9
ATOM      9  O   LIG d   1       6.345  -0.623  -3.110  0.00  0.00    -0.386 OA
ATOM     10  H   LIG d   1       7.096  -0.912  -3.647  0.00  0.00     0.210 HD
ENDBRANCH   4   9
ENDBRANCH   1   4
BRANCH   1  11
ATOM     11  C   LIG d   1       4.251   0.398  -2.107  0.00  0.00     0.181 C 
ATOM     12  O   LIG d   1       4.868   1.093  -1.336  0.00  0.00    -0.291 OA
BRANCH  11  13
ATOM     13  C   LIG d   1       3.465   1.024  -3.209  0.00  0.00     0.107 C 
ATOM     14  O   LIG d   1       3.580   2.209  -3.438  0.00  0.00    -0.542 OA
ATOM     15  O   LIG d   1       2.628   0.273  -3.948  0.00  0.00    -0.542 OA
ENDBRANCH  11  13
ENDBRANCH   1  11
TORSDOF 5
ENDMDL
MODEL 4
REMARK VINA RESULT:      -4.1      1.367      2.093
REMARK  5 active torsions:
REMARK  status: ('A' for Active; 'I' for Inactive)
REMARK    1  A    between atoms: C_1  and  C_2 
REMARK    2  A    between atoms: C_1  and  C_7 
REMARK    3  A    between atoms: C_2  and  C_4 
REMARK    4  A    between atoms: C_2  and  O_6 
REMARK    5  A    between atoms: C_7  and  C_9 
ROOT
ATOM      1  C   LIG d   1       4.769  -1.357  -2.112  0.00  0.00     0.043 C 
ATOM      2  H   LIG d   1       4.761  -0.575  -1.490  0.00  0.00     0.037 H 
ATOM      3  H   LIG d   1       4.954  -2.270  -1.545  0.00  0.00     0.037 H 
ENDROOT
BRANCH   1   4
ATOM      4  C   LIG d   1       3.415  -1.461  -2.817  0.00  0.00     0.101 C 
ATOM      5  H   LIG d   1       2.704  -1.970  -2.165  0.00  0.00     0.066 H 
BRANCH   4   6
ATOM      6  C   LIG d   1       2.906  -0.079  -3.134  0.00  0.00     0.070 C 
ATOM      7  O   LIG d   1       2.349   0.134  -4.186  0.00  0.00    -0.547 OA
ATOM      8  O   LIG d   1       3.070   0.916  -2.248  0.00  0.00    -0.547 OA
ENDBRANCH   4   6
BRANCH   4   9
ATOM      9  O   LIG d   1       3.565  -2.204  -4.029  0.00  0.00    -0.386 OA
ATOM     10  H   LIG d   1       2.858  -2.846  -4.186  0.00  0.00     0.210 HD
ENDBRANCH   4   9
ENDBRANCH   1   4
BRANCH   1  11
ATOM     11  C   LIG d   1       5.857  -1.173  -3.137  0.00  0.00     0.181 C 
ATOM     12  O   LIG d   1       6.472  -2.129  -3.543  0.00  0.00    -0.291 OA
BRANCH  11  13
ATOM     13  C   LIG d   1       6.175   0.190  -3.650  0.00  0.00     0.107 C 
ATOM     14  O   LIG d   1       6.339   1.107  -2.873  0.00  0.00    -0.542 OA
ATOM     15  O   LIG d   1       6.279   0.403  -4.974  0.00  0.00    -0.542 OA
ENDBRANCH  11  13
ENDBRANCH   1  11
TORSDOF 5
ENDMDL
MODEL 5
REMARK VINA RESULT:      -4.1      2.573      4.083
REMARK  5 active torsions:
REMARK  status: ('A' for Active; 'I' for Inactive)
REMARK    1  A    between atoms: C_1  and  C_2 
REMARK    2  A    between atoms: C_1  and  C_7 
REMARK    3  A    between atoms: C_2  and  C_4 
REMARK    4  A    between atoms: C_2  and  O_6 
REMARK    5  A    between atoms: C_7  and  C_9 
ROOT
ATOM      1  C   LIG d   1       2.487   0.403  -4.795  0.00  0.00     0.043 C 
ATOM      2  H   LIG d   1       2.038   1.239  -5.107  0.00  0.00     0.037 H 
ATOM      3  H   LIG d   1       1.733  -0.343  -4.544  0.00  0.00     0.037 H 
ENDROOT
BRANCH   1   4
ATOM      4  C   LIG d   1       3.388  -0.138  -5.908  0.00  0.00     0.101 C 
ATOM      5  H   LIG d   1       3.350  -1.228  -5.907  0.00  0.00     0.066 H 
BRANCH   4   6
ATOM      6  C   LIG d   1       2.909   0.381  -7.239  0.00  0.00     0.070 C 
ATOM      7  O   LIG d   1       2.335  -0.357  -8.005  0.00  0.00    -0.547 OA
ATOM      8  O   LIG d   1       3.119   1.664  -7.573  0.00  0.00    -0.547 OA
ENDBRANCH   4   6
BRANCH   4   9
ATOM      9  O   LIG d   1       4.732   0.292  -5.684  0.00  0.00    -0.386 OA
ATOM     10  H   LIG d   1       5.207  -0.230  -5.022  0.00  0.00     0.210 HD
ENDBRANCH   4   9
ENDBRANCH   1   4
BRANCH   1  11
ATOM     11  C   LIG d   1       3.320   0.705  -3.577  0.00  0.00     0.181 C 
ATOM     12  O   LIG d   1       3.768   1.814  -3.411  0.00  0.00    -0.291 OA
BRANCH  11  13
ATOM     13  C   LIG d   1       3.592  -0.365  -2.575  0.00  0.00     0.107 C 
ATOM     14  O   LIG d   1       3.034  -1.438  -2.667  0.00  0.00    -0.542 OA
ATOM     15  O   LIG d   1       4.457  -0.141  -1.569  0.00  0.00    -0.542 OA
ENDBRANCH  11  13
ENDBRANCH   1  11
TORSDOF 5
ENDMDL
MODEL 6
REMARK VINA RESULT:      -4.1      1.544      1.793
REMARK  5 active torsions:
REMARK  status: ('A' for Active; 'I' for Inactive)
REMARK    1  A    between atoms: C_1  and  C_2 
REMARK    2  A    between atoms: C_1  and  C_7 
REMARK    3  A    between atoms: C_2  and  C_4 
REMARK    4  A    between atoms: C_2  and  O_6 
REMARK    5  A    between atoms: C_7  and  C_9 
ROOT
ATOM      1  C   LIG d   1       5.246  -1.478  -2.732  0.00  0.00     0.043 C 
ATOM      2  H   LIG d   1       5.981  -0.833  -2.938  0.00  0.00     0.037 H 
ATOM      3  H   LIG d   1       5.632  -2.279  -2.102  0.00  0.00     0.037 H 
ENDROOT
BRANCH   1   4
ATOM      4  C   LIG d   1       4.119  -0.750  -1.995  0.00  0.00     0.101 C 
ATOM      5  H   LIG d   1       4.121  -1.047  -0.947  0.00  0.00     0.066 H 
BRANCH   4   6
ATOM      6  C   LIG d   1       4.332   0.739  -2.097  0.00  0.00     0.070 C 
ATOM      7  O   LIG d   1       3.394   1.492  -1.984  0.00  0.00    -0.547 OA
ATOM      8  O   LIG d   1       5.564   1.227  -2.313  0.00  0.00    -0.547 OA
ENDBRANCH   4   6
BRANCH   4   9
ATOM      9  O   LIG d   1       2.864  -1.093  -2.586  0.00  0.00    -0.386 OA
ATOM     10  H   LIG d   1       2.619  -2.023  -2.475  0.00  0.00     0.210 HD
ENDBRANCH   4   9
ENDBRANCH   1   4
BRANCH   1  11
ATOM     11  C   LIG d   1       4.714  -2.059  -4.016  0.00  0.00     0.181 C 
ATOM     12  O   LIG d   1       4.223  -3.162  -4.022  0.00  0.00    -0.291 OA
BRANCH  11  13
ATOM     13  C   LIG d   1       4.794  -1.272  -5.280  0.00  0.00     0.107 C 
ATOM     14  O   LIG d   1       4.001  -0.379  -5.489  0.00  0.00    -0.542 OA
ATOM     15  O   LIG d   1       5.745  -1.554  -6.189  0.00  0.00    -0.542 OA
ENDBRANCH  11  13
ENDBRANCH   1  11
TORSDOF 5
ENDMDL
MODEL 7
REMARK VINA RESULT:      -4.1      1.736      3.959
REMARK  5 active torsions:
REMARK  status: ('A' for Active; 'I' for Inactive)
REMARK    1  A    between atoms: C_1  and  C_2 
REMARK    2  A    between atoms: C_1  and  C_7 
REMARK    3  A    between atoms: C_2  and  C_4 
REMARK    4  A    between atoms: C_2  and  O_6 
REMARK    5  A    between atoms: C_7  and  C_9 
ROOT
ATOM      1  C   LIG d   1       6.149  -0.859  -3.169  0.00  0.00     0.043 C 
ATOM      2  H   LIG d   1       5.767  -1.205  -2.312  0.00  0.00     0.037 H 
ATOM      3  H   LIG d   1       7.216  -1.081  -3.206  0.00  0.00     0.037 H 
ENDROOT
BRANCH   1   4
ATOM      4  C   LIG d   1       5.448  -1.536  -4.349  0.00  0.00     0.101 C 
ATOM      5  H   LIG d   1       6.193  -1.989  -5.002  0.00  0.00     0.066 H 
BRANCH   4   6
ATOM      6  C   LIG d   1       4.514  -2.601  -3.835  0.00  0.00     0.070 C 
ATOM      7  O   LIG d   1       3.813  -2.380  -2.876  0.00  0.00    -0.547 OA
ATOM      8  O   LIG d   1       4.460  -3.796  -4.445  0.00  0.00    -0.547 OA
ENDBRANCH   4   6
BRANCH   4   9
ATOM      9  O   LIG d   1       4.702  -0.561  -5.082  0.00  0.00    -0.386 OA
ATOM     10  H   LIG d   1       4.551  -0.798  -6.008  0.00  0.00     0.210 HD
ENDBRANCH   4   9
ENDBRANCH   1   4
BRANCH   1  11
ATOM     11  C   LIG d   1       5.941   0.630  -3.247  0.00  0.00     0.181 C 
ATOM     12  O   LIG d   1       6.697   1.313  -3.897  0.00  0.00    -0.291 OA
BRANCH  11  13
ATOM     13  C   LIG d   1       4.803   1.263  -2.522  0.00  0.00     0.107 C 
ATOM     14  O   LIG d   1       4.741   1.195  -1.313  0.00  0.00    -0.542 OA
ATOM     15  O   LIG d   1       3.844   1.911  -3.210  0.00  0.00    -0.542 OA
ENDBRANCH  11  13
ENDBRANCH   1  11
TORSDOF 5
ENDMDL
MODEL 8
REMARK VINA RESULT:      -4.1      1.263      4.026
REMARK  5 active torsions:
REMARK  status: ('A' for Active; 'I' for Inactive)
REMARK    1  A    between atoms: C_1  and  C_2 
REMARK    2  A    between atoms: C_1  and  C_7 
REMARK    3  A    between atoms: C_2  and  C_4 
REMARK    4  A    between atoms: C_2  and  O_6 
REMARK    5  A    between atoms: C_7  and  C_9 
ROOT
ATOM      1  C   LIG d   1       4.472  -1.587  -2.772  0.00  0.00     0.043 C 
ATOM      2  H   LIG d   1       4.005  -2.408  -2.445  0.00  0.00     0.037 H 
ATOM      3  H   LIG d   1       5.363  -1.412  -2.168  0.00  0.00     0.037 H 
ENDROOT
BRANCH   1   4
ATOM      4  C   LIG d   1       4.879  -1.782  -4.234  0.00  0.00     0.101 C 
ATOM      5  H   LIG d   1       5.740  -1.152  -4.458  0.00  0.00     0.066 H 
BRANCH   4   6
ATOM      6  C   LIG d   1       5.238  -3.227  -4.469  0.00  0.00     0.070 C 
ATOM      7  O   LIG d   1       4.367  -4.060  -4.548  0.00  0.00    -0.547 OA
ATOM      8  O   LIG d   1       6.525  -3.587  -4.590  0.00  0.00    -0.547 OA
ENDBRANCH   4   6
BRANCH   4   9
ATOM      9  O   LIG d   1       3.789  -1.417  -5.085  0.00  0.00    -0.386 OA
ATOM     10  H   LIG d   1       4.062  -1.074  -5.947  0.00  0.00     0.210 HD
ENDBRANCH   4   9
ENDBRANCH   1   4
BRANCH   1  11
ATOM     11  C   LIG d   1       3.547  -0.404  -2.660  0.00  0.00     0.181 C 
ATOM     12  O   LIG d   1       2.360  -0.547  -2.829  0.00  0.00    -0.291 OA
BRANCH  11  13
ATOM     13  C   LIG d   1       4.097   0.945  -2.342  0.00  0.00     0.107 C 
ATOM     14  O   LIG d   1       4.734   1.115  -1.324  0.00  0.00    -0.542 OA
ATOM     15  O   LIG d   1       3.886   1.973  -3.184  0.00  0.00    -0.542 OA
ENDBRANCH  11  13
ENDBRANCH   1  11
TORSDOF 5
ENDMDL
MODEL 9
REMARK VINA RESULT:      -4.0      1.397      3.521
REMARK  5 active torsions:
REMARK  status: ('A' for Active; 'I' for Inactive)
REMARK    1  A    between atoms: C_1  and  C_2 
REMARK    2  A    between atoms: C_1  and  C_7 
REMARK    3  A    between atoms: C_2  and  C_4 
REMARK    4  A    between atoms: C_2  and  O_6 
REMARK    5  A    between atoms: C_7  and  C_9 
ROOT
ATOM      1  C   LIG d   1       3.247  -0.059  -5.049  0.00  0.00     0.043 C 
ATOM      2  H   LIG d   1       3.579   0.810  -5.415  0.00  0.00     0.037 H 
ATOM      3  H   LIG d   1       2.289  -0.303  -5.510  0.00  0.00     0.037 H 
ENDROOT
BRANCH   1   4
ATOM      4  C   LIG d   1       4.259  -1.164  -5.360  0.00  0.00     0.101 C 
ATOM      5  H   LIG d   1       4.295  -1.330  -6.437  0.00  0.00     0.066 H 
BRANCH   4   6
ATOM      6  C   LIG d   1       5.622  -0.751  -4.867  0.00  0.00     0.070 C 
ATOM      7  O   LIG d   1       6.226  -1.459  -4.098  0.00  0.00    -0.547 OA
ATOM      8  O   LIG d   1       6.163   0.404  -5.284  0.00  0.00    -0.547 OA
ENDBRANCH   4   6
BRANCH   4   9
ATOM      9  O   LIG d   1       3.861  -2.371  -4.706  0.00  0.00    -0.386 OA
ATOM     10  H   LIG d   1       4.428  -3.130  -4.904  0.00  0.00     0.210 HD
ENDBRANCH   4   9
ENDBRANCH   1   4
BRANCH   1  11
ATOM     11  C   LIG d   1       3.072   0.058  -3.558  0.00  0.00     0.181 C 
ATOM     12  O   LIG d   1       2.477  -0.799  -2.950  0.00  0.00    -0.291 OA
BRANCH  11  13
ATOM     13  C   LIG d   1       3.633   1.233  -2.831  0.00  0.00     0.107 C 
ATOM     14  O   LIG d   1       3.676   2.317  -3.373  0.00  0.00    -0.542 OA
ATOM     15  O   LIG d   1       4.093   1.089  -1.574  0.00  0.00    -0.542 OA
ENDBRANCH  11  13
ENDBRANCH   1  11
TORSDOF 5
ENDMDL
MODEL 10
REMARK VINA RESULT:      -3.8      1.870      3.170
REMARK  5 active torsions:
REMARK  status: ('A' for Active; 'I' for Inactive)
REMARK    1  A    between atoms: C_1  and  C_2 
REMARK    2  A    between atoms: C_1  and  C_7 
REMARK    3  A    between atoms: C_2  and  C_4 
REMARK    4  A    between atoms: C_2  and  O_6 
REMARK    5  A    between atoms: C_7  and  C_9 
ROOT
ATOM      1  C   LIG d   1       5.208  -1.278  -3.718  0.00  0.00     0.043 C 
ATOM      2  H   LIG d   1       5.606  -2.180  -3.556  0.00  0.00     0.037 H 
ATOM      3  H   LIG d   1       5.967  -0.616  -4.135  0.00  0.00     0.037 H 
ENDROOT
BRANCH   1   4
ATOM      4  C   LIG d   1       4.045  -1.403  -4.706  0.00  0.00     0.101 C 
ATOM      5  H   LIG d   1       3.108  -1.477  -4.154  0.00  0.00     0.066 H 
BRANCH   4   6
ATOM      6  C   LIG d   1       4.011  -0.190  -5.599  0.00  0.00     0.070 C 
ATOM      7  O   LIG d   1       3.093   0.591  -5.523  0.00  0.00    -0.547 OA
ATOM      8  O   LIG d   1       5.002   0.022  -6.479  0.00  0.00    -0.547 OA
ENDBRANCH   4   6
BRANCH   4   9
ATOM      9  O   LIG d   1       4.222  -2.577  -5.503  0.00  0.00    -0.386 OA
ATOM     10  H   LIG d   1       3.554  -3.260  -5.349  0.00  0.00     0.210 HD
ENDBRANCH   4   9
ENDBRANCH   1   4
BRANCH   1  11
ATOM     11  C   LIG d   1       4.704  -0.710  -2.418  0.00  0.00     0.181 C 
ATOM     12  O   LIG d   1       4.390  -1.451  -1.517  0.00  0.00    -0.291 OA
BRANCH  11  13
ATOM     13  C   LIG d   1       4.592   0.766  -2.242  0.00  0.00     0.107 C 
ATOM     14  O   LIG d   1       3.530   1.261  -1.930  0.00  0.00    -0.542 OA
ATOM     15  O   LIG d   1       5.670   1.549  -2.430  0.00  0.00    -0.542 OA
ENDBRANCH  11  13
ENDBRANCH   1  11
TORSDOF 5
ENDMDL
