MODEL 1
REMARK VINA RESULT:      -5.7      0.000      0.000
REMARK  12 active torsions:
REMARK  status: ('A' for Active; 'I' for Inactive)
REMARK    1  A    between atoms: C_1  and  N_2 
REMARK    2  A    between atoms: N_2  and  C_3 
REMARK    3  A    between atoms: N_2  and  C_4 
REMARK    4  A    between atoms: C_4  and  C_5 
REMARK    5  A    between atoms: C_5  and  C_6 
REMARK    6  A    between atoms: C_6  and  N_7 
REMARK    7  A    between atoms: C_9  and  N_14 
REMARK    8  A    between atoms: N_14  and  C_15 
REMARK    9  A    between atoms: C_15  and  C_16 
REMARK   10  A    between atoms: C_16  and  C_17 
REMARK   11  A    between atoms: C_24  and  O_27 
REMARK   12  A    between atoms: O_27  and  C_28 
ROOT
ATOM      1  N   LIG d   1       2.684  -1.375  -8.769  0.00  0.00    -0.282 NA
ATOM      2  C   LIG d   1       3.645  -1.082  -7.959  0.00  0.00     0.111 C 
ATOM      3  C   LIG d   1       5.063  -1.558  -7.726  0.00  0.00     0.121 C 
ATOM      4  C   LIG d   1       5.313  -0.180  -7.151  0.00  0.00     0.227 C 
ATOM      5  O   LIG d   1       6.266   0.549  -7.008  0.00  0.00    -0.286 OA
ATOM      6  C   LIG d   1       3.853  -0.122  -6.844  0.00  0.00     0.246 C 
ATOM      7  O   LIG d   1       3.151   0.455  -6.041  0.00  0.00    -0.282 OA
ATOM      8  H   LIG d   1       5.615  -1.759  -8.644  0.00  0.00     0.061 H 
ENDROOT
BRANCH   3   9
ATOM      9  N   LIG d   1       5.170  -2.641  -6.741  0.00  0.00    -0.301 N 
ATOM     10  H   LIG d   1       4.476  -2.540  -6.016  0.00  0.00     0.123 HD
BRANCH   9  11
ATOM     11  C   LIG d   1       6.522  -2.700  -6.169  0.00  0.00     0.001 C 
ATOM     12  H   LIG d   1       7.158  -3.320  -6.802  0.00  0.00     0.043 H 
ATOM     13  H   LIG d   1       6.937  -1.694  -6.112  0.00  0.00     0.043 H 
BRANCH  11  14
ATOM     14  C   LIG d   1       6.456  -3.306  -4.765  0.00  0.00    -0.013 C 
ATOM     15  H   LIG d   1       6.200  -4.362  -4.837  0.00  0.00     0.033 H 
ATOM     16  H   LIG d   1       7.425  -3.199  -4.278  0.00  0.00     0.033 H 
BRANCH  14  17
ATOM     17  C   LIG d   1       5.405  -2.587  -3.957  0.00  0.00    -0.021 A 
ATOM     18  C   LIG d   1       5.442  -1.186  -3.532  0.00  0.00     0.006 A 
ATOM     19  C   LIG d   1       4.254  -0.967  -2.810  0.00  0.00     0.047 A 
ATOM     20  C   LIG d   1       6.354  -0.144  -3.705  0.00  0.00    -0.011 A 
ATOM     21  N   LIG d   1       3.561  -2.160  -2.798  0.00  0.00    -0.360 N 
ATOM     22  C   LIG d   1       4.000   0.290  -2.275  0.00  0.00    -0.034 A 
ATOM     23  C   LIG d   1       4.263  -3.112  -3.486  0.00  0.00     0.006 A 
ATOM     24  H   LIG d   1       2.705  -2.302  -2.366  0.00  0.00     0.165 HD
ATOM     25  H   LIG d   1       3.945  -4.134  -3.630  0.00  0.00     0.081 H 
ATOM     26  C   LIG d   1       4.910   1.309  -2.446  0.00  0.00    -0.018 A 
ATOM     27  H   LIG d   1       3.092   0.465  -1.715  0.00  0.00     0.064 H 
ATOM     28  C   LIG d   1       6.085   1.097  -3.162  0.00  0.00     0.121 A 
ATOM     29  H   LIG d   1       4.709   2.283  -2.025  0.00  0.00     0.066 H 
ATOM     30  H   LIG d   1       7.267  -0.307  -4.260  0.00  0.00     0.066 H 
BRANCH  28  31
ATOM     31  O   LIG d   1       6.970   2.116  -3.327  0.00  0.00    -0.495 OA
BRANCH  31  32
ATOM     32  C   LIG d   1       8.180   1.817  -4.026  0.00  0.00     0.079 C 
ATOM     33  H   LIG d   1       8.604   0.891  -3.637  0.00  0.00     0.066 H 
ATOM     34  H   LIG d   1       7.967   1.702  -5.089  0.00  0.00     0.066 H 
ATOM     35  H   LIG d   1       8.892   2.631  -3.884  0.00  0.00     0.066 H 
ENDBRANCH  31  32
ENDBRANCH  28  31
ENDBRANCH  14  17
ENDBRANCH  11  14
ENDBRANCH   9  11
ENDBRANCH   3   9
BRANCH   1  36
ATOM     36  C   LIG d   1       2.868  -2.427  -9.774  0.00  0.00     0.045 C 
ATOM     37  H   LIG d   1       1.950  -3.006  -9.866  0.00  0.00     0.051 H 
ATOM     38  H   LIG d   1       3.683  -3.083  -9.467  0.00  0.00     0.051 H 
BRANCH  36  39
ATOM     39  C   LIG d   1       3.207  -1.790 -11.123  0.00  0.00     0.007 C 
ATOM     40  H   LIG d   1       2.711  -2.342 -11.921  0.00  0.00     0.034 H 
ATOM     41  H   LIG d   1       4.286  -1.818 -11.277  0.00  0.00     0.034 H 
BRANCH  39  42
ATOM     42  C   LIG d   1       2.729  -0.337 -11.135  0.00  0.00    -0.031 C 
ATOM     43  H   LIG d   1       2.288  -0.091 -10.168  0.00  0.00     0.082 H 
ATOM     44  H   LIG d   1       1.982  -0.206 -11.917  0.00  0.00     0.082 H 
BRANCH  42  45
ATOM     45  N   LIG d   1       3.870   0.552 -11.392  0.00  0.00     0.231 N 
ATOM     46  H   LIG d   1       3.794   0.935 -12.323  0.00  0.00     0.203 HD
BRANCH  45  47
ATOM     47  C   LIG d   1       3.870   1.645 -10.410  0.00  0.00    -0.043 C 
ATOM     48  H   LIG d   1       2.920   1.652  -9.875  0.00  0.00     0.078 H 
ATOM     49  H   LIG d   1       4.685   1.498  -9.702  0.00  0.00     0.078 H 
ATOM     50  H   LIG d   1       4.003   2.596 -10.926  0.00  0.00     0.078 H 
ENDBRANCH  45  47
BRANCH  45  51
ATOM     51  C   LIG d   1       5.121  -0.209 -11.278  0.00  0.00    -0.043 C 
ATOM     52  H   LIG d   1       5.961   0.483 -11.205  0.00  0.00     0.078 H 
ATOM     53  H   LIG d   1       5.086  -0.833 -10.385  0.00  0.00     0.078 H 
ATOM     54  H   LIG d   1       5.244  -0.839 -12.158  0.00  0.00     0.078 H 
ENDBRANCH  45  51
ENDBRANCH  42  45
ENDBRANCH  39  42
ENDBRANCH  36  39
ENDBRANCH   1  36
TORSDOF 12
ENDMDL
MODEL 2
REMARK VINA RESULT:      -5.4      2.652      7.551
REMARK  12 active torsions:
REMARK  status: ('A' for Active; 'I' for Inactive)
REMARK    1  A    between atoms: C_1  and  N_2 
REMARK    2  A    between atoms: N_2  and  C_3 
REMARK    3  A    between atoms: N_2  and  C_4 
REMARK    4  A    between atoms: C_4  and  C_5 
REMARK    5  A    between atoms: C_5  and  C_6 
REMARK    6  A    between atoms: C_6  and  N_7 
REMARK    7  A    between atoms: C_9  and  N_14 
REMARK    8  A    between atoms: N_14  and  C_15 
REMARK    9  A    between atoms: C_15  and  C_16 
REMARK   10  A    between atoms: C_16  and  C_17 
REMARK   11  A    between atoms: C_24  and  O_27 
REMARK   12  A    between atoms: O_27  and  C_28 
ROOT
ATOM      1  N   LIG d   1       6.037  -3.598  -4.904  0.00  0.00    -0.282 NA
ATOM      2  C   LIG d   1       5.191  -3.522  -5.876  0.00  0.00     0.111 C 
ATOM      3  C   LIG d   1       4.815  -2.493  -6.921  0.00  0.00     0.121 C 
ATOM      4  C   LIG d   1       4.354  -3.670  -7.754  0.00  0.00     0.227 C 
ATOM      5  O   LIG d   1       4.212  -3.908  -8.930  0.00  0.00    -0.286 OA
ATOM      6  C   LIG d   1       4.159  -4.410  -6.472  0.00  0.00     0.246 C 
ATOM      7  O   LIG d   1       3.465  -5.327  -6.088  0.00  0.00    -0.282 OA
ATOM      8  H   LIG d   1       5.668  -1.963  -7.343  0.00  0.00     0.061 H 
ENDROOT
BRANCH   3   9
ATOM      9  N   LIG d   1       3.728  -1.597  -6.506  0.00  0.00    -0.301 N 
ATOM     10  H   LIG d   1       2.859  -1.855  -6.950  0.00  0.00     0.123 HD
BRANCH   9  11
ATOM     11  C   LIG d   1       4.065  -0.196  -6.786  0.00  0.00     0.001 C 
ATOM     12  H   LIG d   1       4.257   0.326  -5.847  0.00  0.00     0.043 H 
ATOM     13  H   LIG d   1       4.956  -0.154  -7.412  0.00  0.00     0.043 H 
BRANCH  11  14
ATOM     14  C   LIG d   1       2.898   0.475  -7.512  0.00  0.00    -0.013 C 
ATOM     15  H   LIG d   1       1.973  -0.053  -7.279  0.00  0.00     0.033 H 
ATOM     16  H   LIG d   1       2.816   1.512  -7.187  0.00  0.00     0.033 H 
BRANCH  14  17
ATOM     17  C   LIG d   1       3.141   0.434  -9.000  0.00  0.00    -0.021 A 
ATOM     18  C   LIG d   1       2.586  -0.538  -9.945  0.00  0.00     0.006 A 
ATOM     19  C   LIG d   1       3.085  -0.179 -11.210  0.00  0.00     0.047 A 
ATOM     20  C   LIG d   1       1.736  -1.639  -9.817  0.00  0.00    -0.011 A 
ATOM     21  N   LIG d   1       3.889   0.927 -11.030  0.00  0.00    -0.360 N 
ATOM     22  C   LIG d   1       2.725  -0.925 -12.326  0.00  0.00    -0.034 A 
ATOM     23  C   LIG d   1       3.910   1.276  -9.707  0.00  0.00     0.006 A 
ATOM     24  H   LIG d   1       4.369   1.388 -11.735  0.00  0.00     0.165 HD
ATOM     25  H   LIG d   1       4.462   2.107  -9.293  0.00  0.00     0.081 H 
ATOM     26  C   LIG d   1       1.892  -2.013 -12.187  0.00  0.00    -0.018 A 
ATOM     27  H   LIG d   1       3.106  -0.658 -13.301  0.00  0.00     0.064 H 
ATOM     28  C   LIG d   1       1.394  -2.370 -10.937  0.00  0.00     0.121 A 
ATOM     29  H   LIG d   1       1.618  -2.592 -13.057  0.00  0.00     0.066 H 
ATOM     30  H   LIG d   1       1.349  -1.917  -8.847  0.00  0.00     0.066 H 
BRANCH  28  31
ATOM     31  O   LIG d   1       0.567  -3.443 -10.819  0.00  0.00    -0.495 OA
BRANCH  31  32
ATOM     32  C   LIG d   1       1.178  -4.707 -10.557  0.00  0.00     0.079 C 
ATOM     33  H   LIG d   1       1.352  -5.229 -11.499  0.00  0.00     0.066 H 
ATOM     34  H   LIG d   1       2.128  -4.554 -10.045  0.00  0.00     0.066 H 
ATOM     35  H   LIG d   1       0.519  -5.306  -9.927  0.00  0.00     0.066 H 
ENDBRANCH  31  32
ENDBRANCH  28  31
ENDBRANCH  14  17
ENDBRANCH  11  14
ENDBRANCH   9  11
ENDBRANCH   3   9
BRANCH   1  36
ATOM     36  C   LIG d   1       6.924  -2.467  -4.615  0.00  0.00     0.045 C 
ATOM     37  H   LIG d   1       6.787  -1.696  -5.373  0.00  0.00     0.051 H 
ATOM     38  H   LIG d   1       7.959  -2.807  -4.624  0.00  0.00     0.051 H 
BRANCH  36  39
ATOM     39  C   LIG d   1       6.587  -1.894  -3.237  0.00  0.00     0.007 C 
ATOM     40  H   LIG d   1       7.500  -1.544  -2.755  0.00  0.00     0.034 H 
ATOM     41  H   LIG d   1       6.127  -2.668  -2.624  0.00  0.00     0.034 H 
BRANCH  39  42
ATOM     42  C   LIG d   1       5.614  -0.724  -3.395  0.00  0.00    -0.031 C 
ATOM     43  H   LIG d   1       5.143  -0.773  -4.377  0.00  0.00     0.082 H 
ATOM     44  H   LIG d   1       6.158   0.217  -3.301  0.00  0.00     0.082 H 
BRANCH  42  45
ATOM     45  N   LIG d   1       4.583  -0.800  -2.352  0.00  0.00     0.231 N 
ATOM     46  H   LIG d   1       5.020  -0.766  -1.444  0.00  0.00     0.203 HD
BRANCH  45  47
ATOM     47  C   LIG d   1       3.659   0.334  -2.495  0.00  0.00    -0.043 C 
ATOM     48  H   LIG d   1       4.007   0.987  -3.295  0.00  0.00     0.078 H 
ATOM     49  H   LIG d   1       2.663  -0.037  -2.736  0.00  0.00     0.078 H 
ATOM     50  H   LIG d   1       3.623   0.892  -1.559  0.00  0.00     0.078 H 
ENDBRANCH  45  47
BRANCH  45  51
ATOM     51  C   LIG d   1       3.838  -2.059  -2.490  0.00  0.00    -0.043 C 
ATOM     52  H   LIG d   1       3.125  -1.971  -3.311  0.00  0.00     0.078 H 
ATOM     53  H   LIG d   1       4.534  -2.872  -2.699  0.00  0.00     0.078 H 
ATOM     54  H   LIG d   1       3.302  -2.267  -1.564  0.00  0.00     0.078 H 
ENDBRANCH  45  51
ENDBRANCH  42  45
ENDBRANCH  39  42
ENDBRANCH  36  39
ENDBRANCH   1  36
TORSDOF 12
ENDMDL
MODEL 3
REMARK VINA RESULT:      -5.4      2.426      4.489
REMARK  12 active torsions:
REMARK  status: ('A' for Active; 'I' for Inactive)
REMARK    1  A    between atoms: C_1  and  N_2 
REMARK    2  A    between atoms: N_2  and  C_3 
REMARK    3  A    between atoms: N_2  and  C_4 
REMARK    4  A    between atoms: C_4  and  C_5 
REMARK    5  A    between atoms: C_5  and  C_6 
REMARK    6  A    between atoms: C_6  and  N_7 
REMARK    7  A    between atoms: C_9  and  N_14 
REMARK    8  A    between atoms: N_14  and  C_15 
REMARK    9  A    between atoms: C_15  and  C_16 
REMARK   10  A    between atoms: C_16  and  C_17 
REMARK   11  A    between atoms: C_24  and  O_27 
REMARK   12  A    between atoms: O_27  and  C_28 
ROOT
ATOM      1  N   LIG d   1       4.622  -1.476  -8.859  0.00  0.00    -0.282 NA
ATOM      2  C   LIG d   1       3.803  -0.586  -8.409  0.00  0.00     0.111 C 
ATOM      3  C   LIG d   1       3.650   0.216  -7.135  0.00  0.00     0.121 C 
ATOM      4  C   LIG d   1       2.933   1.237  -7.993  0.00  0.00     0.227 C 
ATOM      5  O   LIG d   1       2.730   2.427  -7.952  0.00  0.00    -0.286 OA
ATOM      6  C   LIG d   1       2.594   0.115  -8.918  0.00  0.00     0.246 C 
ATOM      7  O   LIG d   1       1.720  -0.119  -9.725  0.00  0.00    -0.282 OA
ATOM      8  H   LIG d   1       4.594   0.572  -6.724  0.00  0.00     0.061 H 
ENDROOT
BRANCH   3   9
ATOM      9  N   LIG d   1       2.790  -0.424  -6.131  0.00  0.00    -0.301 N 
ATOM     10  H   LIG d   1       1.862  -0.579  -6.497  0.00  0.00     0.123 HD
BRANCH   9  11
ATOM     11  C   LIG d   1       2.743   0.368  -4.896  0.00  0.00     0.001 C 
ATOM     12  H   LIG d   1       3.505   1.147  -4.934  0.00  0.00     0.043 H 
ATOM     13  H   LIG d   1       1.759   0.828  -4.796  0.00  0.00     0.043 H 
BRANCH  11  14
ATOM     14  C   LIG d   1       3.005  -0.543  -3.695  0.00  0.00    -0.013 C 
ATOM     15  H   LIG d   1       2.645  -0.060  -2.787  0.00  0.00     0.033 H 
ATOM     16  H   LIG d   1       2.482  -1.489  -3.835  0.00  0.00     0.033 H 
BRANCH  14  17
ATOM     17  C   LIG d   1       4.486  -0.801  -3.574  0.00  0.00    -0.021 A 
ATOM     18  C   LIG d   1       5.206  -1.980  -4.060  0.00  0.00     0.006 A 
ATOM     19  C   LIG d   1       6.557  -1.776  -3.725  0.00  0.00     0.047 A 
ATOM     20  C   LIG d   1       4.822  -3.144  -4.727  0.00  0.00    -0.011 A 
ATOM     21  N   LIG d   1       6.636  -0.561  -3.076  0.00  0.00    -0.360 N 
ATOM     22  C   LIG d   1       7.500  -2.738  -4.066  0.00  0.00    -0.034 A 
ATOM     23  C   LIG d   1       5.392   0.004  -2.996  0.00  0.00     0.006 A 
ATOM     24  H   LIG d   1       7.450  -0.166  -2.729  0.00  0.00     0.165 HD
ATOM     25  H   LIG d   1       5.172   0.956  -2.537  0.00  0.00     0.081 H 
ATOM     26  C   LIG d   1       7.109  -3.886  -4.718  0.00  0.00    -0.018 A 
ATOM     27  H   LIG d   1       8.540  -2.591  -3.809  0.00  0.00     0.064 H 
ATOM     28  C   LIG d   1       5.773  -4.091  -5.053  0.00  0.00     0.121 A 
ATOM     29  H   LIG d   1       7.845  -4.632  -4.977  0.00  0.00     0.066 H 
ATOM     30  H   LIG d   1       3.785  -3.304  -4.987  0.00  0.00     0.066 H 
BRANCH  28  31
ATOM     31  O   LIG d   1       5.404  -5.226  -5.703  0.00  0.00    -0.495 OA
BRANCH  31  32
ATOM     32  C   LIG d   1       4.143  -5.209  -6.375  0.00  0.00     0.079 C 
ATOM     33  H   LIG d   1       3.406  -4.705  -5.749  0.00  0.00     0.066 H 
ATOM     34  H   LIG d   1       4.242  -4.677  -7.321  0.00  0.00     0.066 H 
ATOM     35  H   LIG d   1       3.819  -6.232  -6.566  0.00  0.00     0.066 H 
ENDBRANCH  31  32
ENDBRANCH  28  31
ENDBRANCH  14  17
ENDBRANCH  11  14
ENDBRANCH   9  11
ENDBRANCH   3   9
BRANCH   1  36
ATOM     36  C   LIG d   1       5.738  -1.931  -8.025  0.00  0.00     0.045 C 
ATOM     37  H   LIG d   1       5.995  -2.956  -8.291  0.00  0.00     0.051 H 
ATOM     38  H   LIG d   1       5.447  -1.890  -6.975  0.00  0.00     0.051 H 
BRANCH  36  39
ATOM     39  C   LIG d   1       6.949  -1.025  -8.254  0.00  0.00     0.007 C 
ATOM     40  H   LIG d   1       6.675  -0.217  -8.933  0.00  0.00     0.034 H 
ATOM     41  H   LIG d   1       7.761  -1.607  -8.690  0.00  0.00     0.034 H 
BRANCH  39  42
ATOM     42  C   LIG d   1       7.404  -0.435  -6.918  0.00  0.00    -0.031 C 
ATOM     43  H   LIG d   1       8.478  -0.584  -6.803  0.00  0.00     0.082 H 
ATOM     44  H   LIG d   1       6.879  -0.933  -6.103  0.00  0.00     0.082 H 
BRANCH  42  45
ATOM     45  N   LIG d   1       7.104   1.002  -6.889  0.00  0.00     0.231 N 
ATOM     46  H   LIG d   1       6.219   1.151  -6.426  0.00  0.00     0.203 HD
BRANCH  45  47
ATOM     47  C   LIG d   1       8.164   1.709  -6.158  0.00  0.00    -0.043 C 
ATOM     48  H   LIG d   1       7.984   2.783  -6.206  0.00  0.00     0.078 H 
ATOM     49  H   LIG d   1       8.165   1.387  -5.117  0.00  0.00     0.078 H 
ATOM     50  H   LIG d   1       9.130   1.481  -6.610  0.00  0.00     0.078 H 
ENDBRANCH  45  47
BRANCH  45  51
ATOM     51  C   LIG d   1       7.029   1.516  -8.263  0.00  0.00    -0.043 C 
ATOM     52  H   LIG d   1       7.178   2.597  -8.255  0.00  0.00     0.078 H 
ATOM     53  H   LIG d   1       7.804   1.047  -8.869  0.00  0.00     0.078 H 
ATOM     54  H   LIG d   1       6.050   1.287  -8.683  0.00  0.00     0.078 H 
ENDBRANCH  45  51
ENDBRANCH  42  45
ENDBRANCH  39  42
ENDBRANCH  36  39
ENDBRANCH   1  36
TORSDOF 12
ENDMDL
MODEL 4
REMARK VINA RESULT:      -5.3      3.033      7.865
REMARK  12 active torsions:
REMARK  status: ('A' for Active; 'I' for Inactive)
REMARK    1  A    between atoms: C_1  and  N_2 
REMARK    2  A    between atoms: N_2  and  C_3 
REMARK    3  A    between atoms: N_2  and  C_4 
REMARK    4  A    between atoms: C_4  and  C_5 
REMARK    5  A    between atoms: C_5  and  C_6 
REMARK    6  A    between atoms: C_6  and  N_7 
REMARK    7  A    between atoms: C_9  and  N_14 
REMARK    8  A    between atoms: N_14  and  C_15 
REMARK    9  A    between atoms: C_15  and  C_16 
REMARK   10  A    between atoms: C_16  and  C_17 
REMARK   11  A    between atoms: C_24  and  O_27 
REMARK   12  A    between atoms: O_27  and  C_28 
ROOT
ATOM      1  N   LIG d   1       7.010   1.461  -3.570  0.00  0.00    -0.282 NA
ATOM      2  C   LIG d   1       5.973   0.743  -3.297  0.00  0.00     0.111 C 
ATOM      3  C   LIG d   1       5.154  -0.312  -4.010  0.00  0.00     0.121 C 
ATOM      4  C   LIG d   1       4.789  -0.806  -2.627  0.00  0.00     0.227 C 
ATOM      5  O   LIG d   1       4.443  -1.853  -2.134  0.00  0.00    -0.286 OA
ATOM      6  C   LIG d   1       5.054   0.581  -2.140  0.00  0.00     0.246 C 
ATOM      7  O   LIG d   1       4.684   1.267  -1.212  0.00  0.00    -0.282 OA
ATOM      8  H   LIG d   1       5.753  -1.018  -4.586  0.00  0.00     0.061 H 
ENDROOT
BRANCH   3   9
ATOM      9  N   LIG d   1       4.018   0.230  -4.766  0.00  0.00    -0.301 N 
ATOM     10  H   LIG d   1       3.153   0.095  -4.264  0.00  0.00     0.123 HD
BRANCH   9  11
ATOM     11  C   LIG d   1       3.946  -0.366  -6.107  0.00  0.00     0.001 C 
ATOM     12  H   LIG d   1       4.900  -0.230  -6.617  0.00  0.00     0.043 H 
ATOM     13  H   LIG d   1       3.729  -1.430  -6.021  0.00  0.00     0.043 H 
BRANCH  11  14
ATOM     14  C   LIG d   1       2.837   0.318  -6.910  0.00  0.00    -0.013 C 
ATOM     15  H   LIG d   1       1.939  -0.299  -6.888  0.00  0.00     0.033 H 
ATOM     16  H   LIG d   1       2.619   1.292  -6.472  0.00  0.00     0.033 H 
BRANCH  14  17
ATOM     17  C   LIG d   1       3.289   0.499  -8.337  0.00  0.00    -0.021 A 
ATOM     18  C   LIG d   1       2.825  -0.262  -9.499  0.00  0.00     0.006 A 
ATOM     19  C   LIG d   1       3.519   0.258 -10.607  0.00  0.00     0.047 A 
ATOM     20  C   LIG d   1       1.910  -1.302  -9.676  0.00  0.00    -0.011 A 
ATOM     21  N   LIG d   1       4.347   1.255 -10.135  0.00  0.00    -0.360 N 
ATOM     22  C   LIG d   1       3.285  -0.269 -11.872  0.00  0.00    -0.034 A 
ATOM     23  C   LIG d   1       4.195   1.383  -8.782  0.00  0.00     0.006 A 
ATOM     24  H   LIG d   1       4.946   1.786 -10.681  0.00  0.00     0.165 HD
ATOM     25  H   LIG d   1       4.725   2.092  -8.162  0.00  0.00     0.081 H 
ATOM     26  C   LIG d   1       2.384  -1.299 -12.033  0.00  0.00    -0.018 A 
ATOM     27  H   LIG d   1       3.816   0.122 -12.727  0.00  0.00     0.064 H 
ATOM     28  C   LIG d   1       1.694  -1.815 -10.940  0.00  0.00     0.121 A 
ATOM     29  H   LIG d   1       2.208  -1.707 -13.017  0.00  0.00     0.066 H 
ATOM     30  H   LIG d   1       1.373  -1.703  -8.828  0.00  0.00     0.066 H 
BRANCH  28  31
ATOM     31  O   LIG d   1       0.803  -2.827 -11.117  0.00  0.00    -0.495 OA
BRANCH  31  32
ATOM     32  C   LIG d   1       1.164  -4.107 -10.598  0.00  0.00     0.079 C 
ATOM     33  H   LIG d   1       1.954  -3.988  -9.855  0.00  0.00     0.066 H 
ATOM     34  H   LIG d   1       0.294  -4.570 -10.131  0.00  0.00     0.066 H 
ATOM     35  H   LIG d   1       1.521  -4.742 -11.409  0.00  0.00     0.066 H 
ENDBRANCH  31  32
ENDBRANCH  28  31
ENDBRANCH  14  17
ENDBRANCH  11  14
ENDBRANCH   9  11
ENDBRANCH   3   9
BRANCH   1  36
ATOM     36  C   LIG d   1       7.668   1.332  -4.874  0.00  0.00     0.045 C 
ATOM     37  H   LIG d   1       6.922   1.399  -5.664  0.00  0.00     0.051 H 
ATOM     38  H   LIG d   1       8.173   0.367  -4.931  0.00  0.00     0.051 H 
BRANCH  36  39
ATOM     39  C   LIG d   1       8.693   2.454  -5.041  0.00  0.00     0.007 C 
ATOM     40  H   LIG d   1       8.202   3.338  -5.450  0.00  0.00     0.034 H 
ATOM     41  H   LIG d   1       9.481   2.129  -5.721  0.00  0.00     0.034 H 
BRANCH  39  42
ATOM     42  C   LIG d   1       9.303   2.795  -3.681  0.00  0.00    -0.031 C 
ATOM     43  H   LIG d   1       9.959   1.983  -3.363  0.00  0.00     0.082 H 
ATOM     44  H   LIG d   1       8.507   2.925  -2.947  0.00  0.00     0.082 H 
BRANCH  42  45
ATOM     45  N   LIG d   1      10.079   4.037  -3.788  0.00  0.00     0.231 N 
ATOM     46  H   LIG d   1      11.035   3.817  -4.026  0.00  0.00     0.203 HD
BRANCH  45  47
ATOM     47  C   LIG d   1       9.497   4.889  -4.834  0.00  0.00    -0.043 C 
ATOM     48  H   LIG d   1      10.055   4.758  -5.761  0.00  0.00     0.078 H 
ATOM     49  H   LIG d   1       8.456   4.607  -4.994  0.00  0.00     0.078 H 
ATOM     50  H   LIG d   1       9.548   5.932  -4.522  0.00  0.00     0.078 H 
ENDBRANCH  45  47
BRANCH  45  51
ATOM     51  C   LIG d   1      10.047   4.748  -2.502  0.00  0.00    -0.043 C 
ATOM     52  H   LIG d   1       9.857   4.036  -1.699  0.00  0.00     0.078 H 
ATOM     53  H   LIG d   1      11.006   5.239  -2.334  0.00  0.00     0.078 H 
ATOM     54  H   LIG d   1       9.253   5.495  -2.521  0.00  0.00     0.078 H 
ENDBRANCH  45  51
ENDBRANCH  42  45
ENDBRANCH  39  42
ENDBRANCH  36  39
ENDBRANCH   1  36
TORSDOF 12
ENDMDL
MODEL 5
REMARK VINA RESULT:      -5.3      2.938      6.895
REMARK  12 active torsions:
REMARK  status: ('A' for Active; 'I' for Inactive)
REMARK    1  A    between atoms: C_1  and  N_2 
REMARK    2  A    between atoms: N_2  and  C_3 
REMARK    3  A    between atoms: N_2  and  C_4 
REMARK    4  A    between atoms: C_4  and  C_5 
REMARK    5  A    between atoms: C_5  and  C_6 
REMARK    6  A    between atoms: C_6  and  N_7 
REMARK    7  A    between atoms: C_9  and  N_14 
REMARK    8  A    between atoms: N_14  and  C_15 
REMARK    9  A    between atoms: C_15  and  C_16 
REMARK   10  A    between atoms: C_16  and  C_17 
REMARK   11  A    between atoms: C_24  and  O_27 
REMARK   12  A    between atoms: O_27  and  C_28 
ROOT
ATOM      1  N   LIG d   1       6.549   1.713  -3.261  0.00  0.00    -0.282 NA
ATOM      2  C   LIG d   1       5.672   0.778  -3.115  0.00  0.00     0.111 C 
ATOM      3  C   LIG d   1       5.503  -0.649  -3.592  0.00  0.00     0.121 C 
ATOM      4  C   LIG d   1       4.655  -0.847  -2.353  0.00  0.00     0.227 C 
ATOM      5  O   LIG d   1       4.344  -1.774  -1.645  0.00  0.00    -0.286 OA
ATOM      6  C   LIG d   1       4.381   0.620  -2.394  0.00  0.00     0.246 C 
ATOM      7  O   LIG d   1       3.497   1.355  -2.010  0.00  0.00    -0.282 OA
ATOM      8  H   LIG d   1       6.428  -1.226  -3.589  0.00  0.00     0.061 H 
ENDROOT
BRANCH   3   9
ATOM      9  N   LIG d   1       4.754  -0.768  -4.849  0.00  0.00    -0.301 N 
ATOM     10  H   LIG d   1       3.861  -0.303  -4.783  0.00  0.00     0.123 HD
BRANCH   9  11
ATOM     11  C   LIG d   1       4.585  -2.177  -5.230  0.00  0.00     0.001 C 
ATOM     12  H   LIG d   1       5.016  -2.816  -4.458  0.00  0.00     0.043 H 
ATOM     13  H   LIG d   1       3.523  -2.401  -5.335  0.00  0.00     0.043 H 
BRANCH  11  14
ATOM     14  C   LIG d   1       5.295  -2.435  -6.560  0.00  0.00    -0.013 C 
ATOM     15  H   LIG d   1       5.833  -1.537  -6.865  0.00  0.00     0.033 H 
ATOM     16  H   LIG d   1       6.001  -3.258  -6.441  0.00  0.00     0.033 H 
BRANCH  14  17
ATOM     17  C   LIG d   1       4.277  -2.794  -7.612  0.00  0.00    -0.021 A 
ATOM     18  C   LIG d   1       3.446  -1.859  -8.374  0.00  0.00     0.006 A 
ATOM     19  C   LIG d   1       2.659  -2.648  -9.232  0.00  0.00     0.047 A 
ATOM     20  C   LIG d   1       3.318  -0.469  -8.392  0.00  0.00    -0.011 A 
ATOM     21  N   LIG d   1       2.992  -3.965  -8.992  0.00  0.00    -0.360 N 
ATOM     22  C   LIG d   1       1.759  -2.033 -10.094  0.00  0.00    -0.034 A 
ATOM     23  C   LIG d   1       3.957  -4.031  -8.024  0.00  0.00     0.006 A 
ATOM     24  H   LIG d   1       2.601  -4.729  -9.442  0.00  0.00     0.165 HD
ATOM     25  H   LIG d   1       4.398  -4.943  -7.649  0.00  0.00     0.081 H 
ATOM     26  C   LIG d   1       1.636  -0.662 -10.099  0.00  0.00    -0.018 A 
ATOM     27  H   LIG d   1       1.148  -2.632 -10.755  0.00  0.00     0.064 H 
ATOM     28  C   LIG d   1       2.415   0.123  -9.253  0.00  0.00     0.121 A 
ATOM     29  H   LIG d   1       0.932  -0.190 -10.769  0.00  0.00     0.066 H 
ATOM     30  H   LIG d   1       3.922   0.141  -7.735  0.00  0.00     0.066 H 
BRANCH  28  31
ATOM     31  O   LIG d   1       2.286   1.476  -9.275  0.00  0.00    -0.495 OA
BRANCH  31  32
ATOM     32  C   LIG d   1       3.272   2.233  -8.571  0.00  0.00     0.079 C 
ATOM     33  H   LIG d   1       4.255   2.039  -9.002  0.00  0.00     0.066 H 
ATOM     34  H   LIG d   1       3.042   3.295  -8.652  0.00  0.00     0.066 H 
ATOM     35  H   LIG d   1       3.272   1.941  -7.520  0.00  0.00     0.066 H 
ENDBRANCH  31  32
ENDBRANCH  28  31
ENDBRANCH  14  17
ENDBRANCH  11  14
ENDBRANCH   9  11
ENDBRANCH   3   9
BRANCH   1  36
ATOM     36  C   LIG d   1       7.740   1.477  -4.083  0.00  0.00     0.045 C 
ATOM     37  H   LIG d   1       7.495   1.640  -5.132  0.00  0.00     0.051 H 
ATOM     38  H   LIG d   1       8.079   0.450  -3.944  0.00  0.00     0.051 H 
BRANCH  36  39
ATOM     39  C   LIG d   1       8.850   2.442  -3.661  0.00  0.00     0.007 C 
ATOM     40  H   LIG d   1       9.760   1.880  -3.450  0.00  0.00     0.034 H 
ATOM     41  H   LIG d   1       8.541   2.982  -2.766  0.00  0.00     0.034 H 
BRANCH  39  42
ATOM     42  C   LIG d   1       9.116   3.438  -4.791  0.00  0.00    -0.031 C 
ATOM     43  H   LIG d   1       8.167   3.766  -5.217  0.00  0.00     0.082 H 
ATOM     44  H   LIG d   1       9.714   2.958  -5.566  0.00  0.00     0.082 H 
BRANCH  42  45
ATOM     45  N   LIG d   1       9.842   4.599  -4.260  0.00  0.00     0.231 N 
ATOM     46  H   LIG d   1       9.342   5.443  -4.493  0.00  0.00     0.203 HD
BRANCH  45  47
ATOM     47  C   LIG d   1       9.953   4.481  -2.800  0.00  0.00    -0.043 C 
ATOM     48  H   LIG d   1       9.494   3.547  -2.475  0.00  0.00     0.078 H 
ATOM     49  H   LIG d   1      11.004   4.489  -2.513  0.00  0.00     0.078 H 
ATOM     50  H   LIG d   1       9.441   5.320  -2.329  0.00  0.00     0.078 H 
ENDBRANCH  45  47
BRANCH  45  51
ATOM     51  C   LIG d   1      11.187   4.648  -4.851  0.00  0.00    -0.043 C 
ATOM     52  H   LIG d   1      11.898   5.002  -4.103  0.00  0.00     0.078 H 
ATOM     53  H   LIG d   1      11.474   3.650  -5.183  0.00  0.00     0.078 H 
ATOM     54  H   LIG d   1      11.185   5.329  -5.701  0.00  0.00     0.078 H 
ENDBRANCH  45  51
ENDBRANCH  42  45
ENDBRANCH  39  42
ENDBRANCH  36  39
ENDBRANCH   1  36
TORSDOF 12
ENDMDL
MODEL 6
REMARK VINA RESULT:      -5.3      8.694     11.665
REMARK  12 active torsions:
REMARK  status: ('A' for Active; 'I' for Inactive)
REMARK    1  A    between atoms: C_1  and  N_2 
REMARK    2  A    between atoms: N_2  and  C_3 
REMARK    3  A    between atoms: N_2  and  C_4 
REMARK    4  A    between atoms: C_4  and  C_5 
REMARK    5  A    between atoms: C_5  and  C_6 
REMARK    6  A    between atoms: C_6  and  N_7 
REMARK    7  A    between atoms: C_9  and  N_14 
REMARK    8  A    between atoms: N_14  and  C_15 
REMARK    9  A    between atoms: C_15  and  C_16 
REMARK   10  A    between atoms: C_16  and  C_17 
REMARK   11  A    between atoms: C_24  and  O_27 
REMARK   12  A    between atoms: O_27  and  C_28 
ROOT
ATOM      1  N   LIG d   1       9.139  11.309  -5.061  0.00  0.00    -0.282 NA
ATOM      2  C   LIG d   1       9.173  11.659  -3.820  0.00  0.00     0.111 C 
ATOM      3  C   LIG d   1       9.515  10.993  -2.504  0.00  0.00     0.121 C 
ATOM      4  C   LIG d   1       9.846  12.386  -2.012  0.00  0.00     0.227 C 
ATOM      5  O   LIG d   1      10.559  12.869  -1.165  0.00  0.00    -0.286 OA
ATOM      6  C   LIG d   1       8.900  12.899  -3.046  0.00  0.00     0.246 C 
ATOM      7  O   LIG d   1       8.214  13.888  -3.190  0.00  0.00    -0.282 OA
ATOM      8  H   LIG d   1      10.378  10.330  -2.559  0.00  0.00     0.061 H 
ENDROOT
BRANCH   3   9
ATOM      9  N   LIG d   1       8.362  10.384  -1.830  0.00  0.00    -0.301 N 
ATOM     10  H   LIG d   1       7.735  11.092  -1.477  0.00  0.00     0.123 HD
BRANCH   9  11
ATOM     11  C   LIG d   1       8.796   9.482  -0.755  0.00  0.00     0.001 C 
ATOM     12  H   LIG d   1       8.703   9.991   0.205  0.00  0.00     0.043 H 
ATOM     13  H   LIG d   1       8.172   8.589  -0.755  0.00  0.00     0.043 H 
BRANCH  11  14
ATOM     14  C   LIG d   1      10.256   9.085  -0.981  0.00  0.00    -0.013 C 
ATOM     15  H   LIG d   1      10.591   9.467  -1.945  0.00  0.00     0.033 H 
ATOM     16  H   LIG d   1      10.874   9.507  -0.189  0.00  0.00     0.033 H 
BRANCH  14  17
ATOM     17  C   LIG d   1      10.377   7.582  -0.966  0.00  0.00    -0.021 A 
ATOM     18  C   LIG d   1      10.176   6.682  -2.103  0.00  0.00     0.006 A 
ATOM     19  C   LIG d   1      10.396   5.381  -1.613  0.00  0.00     0.047 A 
ATOM     20  C   LIG d   1       9.843   6.873  -3.445  0.00  0.00    -0.011 A 
ATOM     21  N   LIG d   1      10.699   5.499  -0.272  0.00  0.00    -0.360 N 
ATOM     22  C   LIG d   1      10.281   4.296  -2.474  0.00  0.00    -0.034 A 
ATOM     23  C   LIG d   1      10.682   6.817   0.094  0.00  0.00     0.006 A 
ATOM     24  H   LIG d   1      10.894   4.758   0.321  0.00  0.00     0.165 HD
ATOM     25  H   LIG d   1      10.885   7.187   1.088  0.00  0.00     0.081 H 
ATOM     26  C   LIG d   1       9.944   4.497  -3.794  0.00  0.00    -0.018 A 
ATOM     27  H   LIG d   1      10.444   3.294  -2.105  0.00  0.00     0.064 H 
ATOM     28  C   LIG d   1       9.728   5.782  -4.283  0.00  0.00     0.121 A 
ATOM     29  H   LIG d   1       9.852   3.650  -4.458  0.00  0.00     0.066 H 
ATOM     30  H   LIG d   1       9.674   7.871  -3.826  0.00  0.00     0.066 H 
BRANCH  28  31
ATOM     31  O   LIG d   1       9.404   5.963  -5.591  0.00  0.00    -0.495 OA
BRANCH  31  32
ATOM     32  C   LIG d   1       9.860   4.975  -6.516  0.00  0.00     0.079 C 
ATOM     33  H   LIG d   1       9.075   4.235  -6.674  0.00  0.00     0.066 H 
ATOM     34  H   LIG d   1      10.108   5.450  -7.464  0.00  0.00     0.066 H 
ATOM     35  H   LIG d   1      10.746   4.483  -6.114  0.00  0.00     0.066 H 
ENDBRANCH  31  32
ENDBRANCH  28  31
ENDBRANCH  14  17
ENDBRANCH  11  14
ENDBRANCH   9  11
ENDBRANCH   3   9
BRANCH   1  36
ATOM     36  C   LIG d   1       9.492   9.939  -5.446  0.00  0.00     0.045 C 
ATOM     37  H   LIG d   1       8.650   9.278  -5.244  0.00  0.00     0.051 H 
ATOM     38  H   LIG d   1      10.358   9.613  -4.869  0.00  0.00     0.051 H 
BRANCH  36  39
ATOM     39  C   LIG d   1       9.828   9.899  -6.937  0.00  0.00     0.007 C 
ATOM     40  H   LIG d   1      10.901   9.756  -7.065  0.00  0.00     0.034 H 
ATOM     41  H   LIG d   1       9.529  10.838  -7.403  0.00  0.00     0.034 H 
BRANCH  39  42
ATOM     42  C   LIG d   1       9.078   8.741  -7.598  0.00  0.00    -0.031 C 
ATOM     43  H   LIG d   1       8.005   8.928  -7.548  0.00  0.00     0.082 H 
ATOM     44  H   LIG d   1       9.309   7.812  -7.075  0.00  0.00     0.082 H 
BRANCH  42  45
ATOM     45  N   LIG d   1       9.490   8.627  -9.003  0.00  0.00     0.231 N 
ATOM     46  H   LIG d   1       8.908   9.223  -9.573  0.00  0.00     0.203 HD
BRANCH  45  47
ATOM     47  C   LIG d   1      10.893   9.041  -9.136  0.00  0.00    -0.043 C 
ATOM     48  H   LIG d   1      11.178   9.642  -8.272  0.00  0.00     0.078 H 
ATOM     49  H   LIG d   1      11.529   8.157  -9.189  0.00  0.00     0.078 H 
ATOM     50  H   LIG d   1      11.013   9.630 -10.045  0.00  0.00     0.078 H 
ENDBRANCH  45  47
BRANCH  45  51
ATOM     51  C   LIG d   1       9.345   7.234  -9.446  0.00  0.00    -0.043 C 
ATOM     52  H   LIG d   1      10.162   6.982 -10.124  0.00  0.00     0.078 H 
ATOM     53  H   LIG d   1       9.376   6.573  -8.579  0.00  0.00     0.078 H 
ATOM     54  H   LIG d   1       8.394   7.114  -9.962  0.00  0.00     0.078 H 
ENDBRANCH  45  51
ENDBRANCH  42  45
ENDBRANCH  39  42
ENDBRANCH  36  39
ENDBRANCH   1  36
TORSDOF 12
ENDMDL
MODEL 7
REMARK VINA RESULT:      -5.2      4.435      6.596
REMARK  12 active torsions:
REMARK  status: ('A' for Active; 'I' for Inactive)
REMARK    1  A    between atoms: C_1  and  N_2 
REMARK    2  A    between atoms: N_2  and  C_3 
REMARK    3  A    between atoms: N_2  and  C_4 
REMARK    4  A    between atoms: C_4  and  C_5 
REMARK    5  A    between atoms: C_5  and  C_6 
REMARK    6  A    between atoms: C_6  and  N_7 
REMARK    7  A    between atoms: C_9  and  N_14 
REMARK    8  A    between atoms: N_14  and  C_15 
REMARK    9  A    between atoms: C_15  and  C_16 
REMARK   10  A    between atoms: C_16  and  C_17 
REMARK   11  A    between atoms: C_24  and  O_27 
REMARK   12  A    between atoms: O_27  and  C_28 
ROOT
ATOM      1  N   LIG d   1       6.594  -0.173  -6.401  0.00  0.00    -0.282 NA
ATOM      2  C   LIG d   1       6.662   0.088  -5.139  0.00  0.00     0.111 C 
ATOM      3  C   LIG d   1       7.295   1.157  -4.275  0.00  0.00     0.121 C 
ATOM      4  C   LIG d   1       6.210   0.833  -3.271  0.00  0.00     0.227 C 
ATOM      5  O   LIG d   1       5.646   1.414  -2.374  0.00  0.00    -0.286 OA
ATOM      6  C   LIG d   1       6.144  -0.525  -3.888  0.00  0.00     0.246 C 
ATOM      7  O   LIG d   1       5.815  -1.634  -3.526  0.00  0.00    -0.282 OA
ATOM      8  H   LIG d   1       7.222   2.161  -4.694  0.00  0.00     0.061 H 
ENDROOT
BRANCH   3   9
ATOM      9  N   LIG d   1       8.649   0.822  -3.815  0.00  0.00    -0.301 N 
ATOM     10  H   LIG d   1       8.676   0.728  -2.811  0.00  0.00     0.123 HD
BRANCH   9  11
ATOM     11  C   LIG d   1       9.623   1.821  -4.275  0.00  0.00     0.001 C 
ATOM     12  H   LIG d   1      10.505   1.314  -4.668  0.00  0.00     0.043 H 
ATOM     13  H   LIG d   1       9.176   2.431  -5.060  0.00  0.00     0.043 H 
BRANCH  11  14
ATOM     14  C   LIG d   1      10.029   2.715  -3.102  0.00  0.00    -0.013 C 
ATOM     15  H   LIG d   1       9.394   2.500  -2.244  0.00  0.00     0.033 H 
ATOM     16  H   LIG d   1      11.070   2.521  -2.841  0.00  0.00     0.033 H 
BRANCH  14  17
ATOM     17  C   LIG d   1       9.872   4.162  -3.495  0.00  0.00    -0.021 A 
ATOM     18  C   LIG d   1      10.012   5.323  -2.613  0.00  0.00     0.006 A 
ATOM     19  C   LIG d   1       9.781   6.454  -3.418  0.00  0.00     0.047 A 
ATOM     20  C   LIG d   1      10.307   5.482  -1.258  0.00  0.00    -0.011 A 
ATOM     21  N   LIG d   1       9.513   5.997  -4.692  0.00  0.00    -0.360 N 
ATOM     22  C   LIG d   1       9.850   7.722  -2.854  0.00  0.00    -0.034 A 
ATOM     23  C   LIG d   1       9.571   4.630  -4.716  0.00  0.00     0.006 A 
ATOM     24  H   LIG d   1       9.312   6.560  -5.455  0.00  0.00     0.165 HD
ATOM     25  H   LIG d   1       9.402   4.017  -5.590  0.00  0.00     0.081 H 
ATOM     26  C   LIG d   1      10.134   7.866  -1.514  0.00  0.00    -0.018 A 
ATOM     27  H   LIG d   1       9.670   8.596  -3.465  0.00  0.00     0.064 H 
ATOM     28  C   LIG d   1      10.366   6.750  -0.715  0.00  0.00     0.121 A 
ATOM     29  H   LIG d   1      10.183   8.854  -1.081  0.00  0.00     0.066 H 
ATOM     30  H   LIG d   1      10.487   4.616  -0.636  0.00  0.00     0.066 H 
BRANCH  28  31
ATOM     31  O   LIG d   1      10.653   6.910   0.604  0.00  0.00    -0.495 OA
BRANCH  31  32
ATOM     32  C   LIG d   1      11.384   8.081   0.972  0.00  0.00     0.079 C 
ATOM     33  H   LIG d   1      12.435   7.825   1.110  0.00  0.00     0.066 H 
ATOM     34  H   LIG d   1      11.292   8.830   0.185  0.00  0.00     0.066 H 
ATOM     35  H   LIG d   1      10.983   8.483   1.903  0.00  0.00     0.066 H 
ENDBRANCH  31  32
ENDBRANCH  28  31
ENDBRANCH  14  17
ENDBRANCH  11  14
ENDBRANCH   9  11
ENDBRANCH   3   9
BRANCH   1  36
ATOM     36  C   LIG d   1       7.264   0.704  -7.367  0.00  0.00     0.045 C 
ATOM     37  H   LIG d   1       8.020   0.137  -7.908  0.00  0.00     0.051 H 
ATOM     38  H   LIG d   1       7.738   1.530  -6.838  0.00  0.00     0.051 H 
BRANCH  36  39
ATOM     39  C   LIG d   1       6.234   1.255  -8.355  0.00  0.00     0.007 C 
ATOM     40  H   LIG d   1       6.671   1.293  -9.353  0.00  0.00     0.034 H 
ATOM     41  H   LIG d   1       5.938   2.258  -8.049  0.00  0.00     0.034 H 
BRANCH  39  42
ATOM     42  C   LIG d   1       5.006   0.344  -8.372  0.00  0.00    -0.031 C 
ATOM     43  H   LIG d   1       5.228  -0.576  -7.830  0.00  0.00     0.082 H 
ATOM     44  H   LIG d   1       4.745   0.103  -9.403  0.00  0.00     0.082 H 
BRANCH  42  45
ATOM     45  N   LIG d   1       3.877   1.030  -7.729  0.00  0.00     0.231 N 
ATOM     46  H   LIG d   1       4.204   1.516  -6.907  0.00  0.00     0.203 HD
BRANCH  45  47
ATOM     47  C   LIG d   1       3.291   1.994  -8.669  0.00  0.00    -0.043 C 
ATOM     48  H   LIG d   1       2.986   2.890  -8.127  0.00  0.00     0.078 H 
ATOM     49  H   LIG d   1       4.030   2.261  -9.424  0.00  0.00     0.078 H 
ATOM     50  H   LIG d   1       2.422   1.548  -9.152  0.00  0.00     0.078 H 
ENDBRANCH  45  47
BRANCH  45  51
ATOM     51  C   LIG d   1       2.860   0.043  -7.341  0.00  0.00    -0.043 C 
ATOM     52  H   LIG d   1       2.447  -0.423  -8.236  0.00  0.00     0.078 H 
ATOM     53  H   LIG d   1       3.316  -0.721  -6.711  0.00  0.00     0.078 H 
ATOM     54  H   LIG d   1       2.063   0.542  -6.790  0.00  0.00     0.078 H 
ENDBRANCH  45  51
ENDBRANCH  42  45
ENDBRANCH  39  42
ENDBRANCH  36  39
ENDBRANCH   1  36
TORSDOF 12
ENDMDL
MODEL 8
REMARK VINA RESULT:      -5.2      5.565      8.592
REMARK  12 active torsions:
REMARK  status: ('A' for Active; 'I' for Inactive)
REMARK    1  A    between atoms: C_1  and  N_2 
REMARK    2  A    between atoms: N_2  and  C_3 
REMARK    3  A    between atoms: N_2  and  C_4 
REMARK    4  A    between atoms: C_4  and  C_5 
REMARK    5  A    between atoms: C_5  and  C_6 
REMARK    6  A    between atoms: C_6  and  N_7 
REMARK    7  A    between atoms: C_9  and  N_14 
REMARK    8  A    between atoms: N_14  and  C_15 
REMARK    9  A    between atoms: C_15  and  C_16 
REMARK   10  A    between atoms: C_16  and  C_17 
REMARK   11  A    between atoms: C_24  and  O_27 
REMARK   12  A    between atoms: O_27  and  C_28 
ROOT
ATOM      1  N   LIG d   1      10.454   7.098  -3.925  0.00  0.00    -0.282 NA
ATOM      2  C   LIG d   1      10.445   6.370  -2.859  0.00  0.00     0.111 C 
ATOM      3  C   LIG d   1      10.871   4.965  -2.490  0.00  0.00     0.121 C 
ATOM      4  C   LIG d   1      11.025   5.500  -1.082  0.00  0.00     0.227 C 
ATOM      5  O   LIG d   1      11.674   5.215  -0.104  0.00  0.00    -0.286 OA
ATOM      6  C   LIG d   1      10.021   6.543  -1.445  0.00  0.00     0.246 C 
ATOM      7  O   LIG d   1       9.216   7.227  -0.849  0.00  0.00    -0.282 OA
ATOM      8  H   LIG d   1      11.810   4.655  -2.948  0.00  0.00     0.061 H 
ENDROOT
BRANCH   3   9
ATOM      9  N   LIG d   1       9.803   3.966  -2.632  0.00  0.00    -0.301 N 
ATOM     10  H   LIG d   1       9.786   3.342  -1.839  0.00  0.00     0.123 HD
BRANCH   9  11
ATOM     11  C   LIG d   1       9.947   3.218  -3.887  0.00  0.00     0.001 C 
ATOM     12  H   LIG d   1      10.464   3.836  -4.622  0.00  0.00     0.043 H 
ATOM     13  H   LIG d   1      10.523   2.310  -3.706  0.00  0.00     0.043 H 
BRANCH  11  14
ATOM     14  C   LIG d   1       8.562   2.846  -4.420  0.00  0.00    -0.013 C 
ATOM     15  H   LIG d   1       7.796   3.285  -3.781  0.00  0.00     0.033 H 
ATOM     16  H   LIG d   1       8.449   3.226  -5.436  0.00  0.00     0.033 H 
BRANCH  14  17
ATOM     17  C   LIG d   1       8.412   1.345  -4.427  0.00  0.00    -0.021 A 
ATOM     18  C   LIG d   1       7.323   0.577  -3.821  0.00  0.00     0.006 A 
ATOM     19  C   LIG d   1       7.608  -0.776  -4.083  0.00  0.00     0.047 A 
ATOM     20  C   LIG d   1       6.174   0.921  -3.106  0.00  0.00    -0.011 A 
ATOM     21  N   LIG d   1       8.791  -0.811  -4.791  0.00  0.00    -0.360 N 
ATOM     22  C   LIG d   1       6.738  -1.760  -3.628  0.00  0.00    -0.034 A 
ATOM     23  C   LIG d   1       9.254   0.462  -4.985  0.00  0.00     0.006 A 
ATOM     24  H   LIG d   1       9.229  -1.617  -5.103  0.00  0.00     0.165 HD
ATOM     25  H   LIG d   1      10.162   0.718  -5.511  0.00  0.00     0.081 H 
ATOM     26  C   LIG d   1       5.611  -1.409  -2.918  0.00  0.00    -0.018 A 
ATOM     27  H   LIG d   1       6.951  -2.801  -3.822  0.00  0.00     0.064 H 
ATOM     28  C   LIG d   1       5.325  -0.072  -2.658  0.00  0.00     0.121 A 
ATOM     29  H   LIG d   1       4.941  -2.178  -2.564  0.00  0.00     0.066 H 
ATOM     30  H   LIG d   1       5.950   1.959  -2.904  0.00  0.00     0.066 H 
BRANCH  28  31
ATOM     31  O   LIG d   1       4.204   0.258  -1.962  0.00  0.00    -0.495 OA
BRANCH  31  32
ATOM     32  C   LIG d   1       3.440   1.363  -2.448  0.00  0.00     0.079 C 
ATOM     33  H   LIG d   1       2.558   1.498  -1.822  0.00  0.00     0.066 H 
ATOM     34  H   LIG d   1       4.048   2.267  -2.420  0.00  0.00     0.066 H 
ATOM     35  H   LIG d   1       3.130   1.167  -3.475  0.00  0.00     0.066 H 
ENDBRANCH  31  32
ENDBRANCH  28  31
ENDBRANCH  14  17
ENDBRANCH  11  14
ENDBRANCH   9  11
ENDBRANCH   3   9
BRANCH   1  36
ATOM     36  C   LIG d   1      10.976   6.550  -5.181  0.00  0.00     0.045 C 
ATOM     37  H   LIG d   1      10.963   5.462  -5.135  0.00  0.00     0.051 H 
ATOM     38  H   LIG d   1      11.998   6.896  -5.330  0.00  0.00     0.051 H 
BRANCH  36  39
ATOM     39  C   LIG d   1      10.102   7.023  -6.345  0.00  0.00     0.007 C 
ATOM     40  H   LIG d   1       9.515   6.186  -6.722  0.00  0.00     0.034 H 
ATOM     41  H   LIG d   1      10.737   7.410  -7.142  0.00  0.00     0.034 H 
BRANCH  39  42
ATOM     42  C   LIG d   1       9.163   8.128  -5.861  0.00  0.00    -0.031 C 
ATOM     43  H   LIG d   1       9.472   8.459  -4.869  0.00  0.00     0.082 H 
ATOM     44  H   LIG d   1       8.143   7.744  -5.813  0.00  0.00     0.082 H 
BRANCH  42  45
ATOM     45  N   LIG d   1       9.216   9.261  -6.794  0.00  0.00     0.231 N 
ATOM     46  H   LIG d   1       8.281   9.598  -6.967  0.00  0.00     0.203 HD
BRANCH  45  47
ATOM     47  C   LIG d   1      10.026  10.339  -6.209  0.00  0.00    -0.043 C 
ATOM     48  H   LIG d   1       9.938  10.310  -5.123  0.00  0.00     0.078 H 
ATOM     49  H   LIG d   1      11.069  10.205  -6.493  0.00  0.00     0.078 H 
ATOM     50  H   LIG d   1       9.669  11.301  -6.577  0.00  0.00     0.078 H 
ENDBRANCH  45  47
BRANCH  45  51
ATOM     51  C   LIG d   1       9.822   8.825  -8.060  0.00  0.00    -0.043 C 
ATOM     52  H   LIG d   1       9.804   9.651  -8.773  0.00  0.00     0.078 H 
ATOM     53  H   LIG d   1      10.853   8.520  -7.883  0.00  0.00     0.078 H 
ATOM     54  H   LIG d   1       9.256   7.985  -8.462  0.00  0.00     0.078 H 
ENDBRANCH  45  51
ENDBRANCH  42  45
ENDBRANCH  39  42
ENDBRANCH  36  39
ENDBRANCH   1  36
TORSDOF 12
ENDMDL
MODEL 9
REMARK VINA RESULT:      -5.2      2.198      7.299
REMARK  12 active torsions:
REMARK  status: ('A' for Active; 'I' for Inactive)
REMARK    1  A    between atoms: C_1  and  N_2 
REMARK    2  A    between atoms: N_2  and  C_3 
REMARK    3  A    between atoms: N_2  and  C_4 
REMARK    4  A    between atoms: C_4  and  C_5 
REMARK    5  A    between atoms: C_5  and  C_6 
REMARK    6  A    between atoms: C_6  and  N_7 
REMARK    7  A    between atoms: C_9  and  N_14 
REMARK    8  A    between atoms: N_14  and  C_15 
REMARK    9  A    between atoms: C_15  and  C_16 
REMARK   10  A    between atoms: C_16  and  C_17 
REMARK   11  A    between atoms: C_24  and  O_27 
REMARK   12  A    between atoms: O_27  and  C_28 
ROOT
ATOM      1  N   LIG d   1       6.873  -1.006  -3.637  0.00  0.00    -0.282 NA
ATOM      2  C   LIG d   1       5.656  -0.578  -3.648  0.00  0.00     0.111 C 
ATOM      3  C   LIG d   1       4.445  -0.743  -4.542  0.00  0.00     0.121 C 
ATOM      4  C   LIG d   1       3.628  -0.445  -3.303  0.00  0.00     0.227 C 
ATOM      5  O   LIG d   1       2.514  -0.696  -2.908  0.00  0.00    -0.286 OA
ATOM      6  C   LIG d   1       4.817   0.292  -2.783  0.00  0.00     0.246 C 
ATOM      7  O   LIG d   1       5.010   1.198  -2.001  0.00  0.00    -0.282 OA
ATOM      8  H   LIG d   1       4.315  -1.756  -4.922  0.00  0.00     0.061 H 
ENDROOT
BRANCH   3   9
ATOM      9  N   LIG d   1       4.335   0.283  -5.587  0.00  0.00    -0.301 N 
ATOM     10  H   LIG d   1       4.096   1.179  -5.189  0.00  0.00     0.123 HD
BRANCH   9  11
ATOM     11  C   LIG d   1       3.362  -0.113  -6.612  0.00  0.00     0.001 C 
ATOM     12  H   LIG d   1       3.832  -0.806  -7.311  0.00  0.00     0.043 H 
ATOM     13  H   LIG d   1       2.510  -0.599  -6.137  0.00  0.00     0.043 H 
BRANCH  11  14
ATOM     14  C   LIG d   1       2.884   1.128  -7.369  0.00  0.00    -0.013 C 
ATOM     15  H   LIG d   1       1.810   1.248  -7.230  0.00  0.00     0.033 H 
ATOM     16  H   LIG d   1       3.401   2.008  -6.986  0.00  0.00     0.033 H 
BRANCH  14  17
ATOM     17  C   LIG d   1       3.186   0.968  -8.838  0.00  0.00    -0.021 A 
ATOM     18  C   LIG d   1       2.706  -0.103  -9.713  0.00  0.00     0.006 A 
ATOM     19  C   LIG d   1       3.240   0.166 -10.987  0.00  0.00     0.047 A 
ATOM     20  C   LIG d   1       1.894  -1.222  -9.521  0.00  0.00    -0.011 A 
ATOM     21  N   LIG d   1       3.995   1.316 -10.875  0.00  0.00    -0.360 N 
ATOM     22  C   LIG d   1       2.952  -0.687 -12.045  0.00  0.00    -0.034 A 
ATOM     23  C   LIG d   1       3.951   1.777  -9.588  0.00  0.00     0.006 A 
ATOM     24  H   LIG d   1       4.484   1.733 -11.600  0.00  0.00     0.165 HD
ATOM     25  H   LIG d   1       4.455   2.663  -9.229  0.00  0.00     0.081 H 
ATOM     26  C   LIG d   1       2.156  -1.792 -11.842  0.00  0.00    -0.018 A 
ATOM     27  H   LIG d   1       3.362  -0.490 -13.025  0.00  0.00     0.064 H 
ATOM     28  C   LIG d   1       1.623  -2.061 -10.584  0.00  0.00     0.121 A 
ATOM     29  H   LIG d   1       1.938  -2.454 -12.667  0.00  0.00     0.066 H 
ATOM     30  H   LIG d   1       1.480  -1.432  -8.545  0.00  0.00     0.066 H 
BRANCH  28  31
ATOM     31  O   LIG d   1       0.833  -3.152 -10.402  0.00  0.00    -0.495 OA
BRANCH  31  32
ATOM     32  C   LIG d   1       1.457  -4.431 -10.521  0.00  0.00     0.079 C 
ATOM     33  H   LIG d   1       0.718  -5.214 -10.341  0.00  0.00     0.066 H 
ATOM     34  H   LIG d   1       1.868  -4.544 -11.524  0.00  0.00     0.066 H 
ATOM     35  H   LIG d   1       2.259  -4.514  -9.787  0.00  0.00     0.066 H 
ENDBRANCH  31  32
ENDBRANCH  28  31
ENDBRANCH  14  17
ENDBRANCH  11  14
ENDBRANCH   9  11
ENDBRANCH   3   9
BRANCH   1  36
ATOM     36  C   LIG d   1       7.350  -1.884  -4.711  0.00  0.00     0.045 C 
ATOM     37  H   LIG d   1       8.434  -1.808  -4.787  0.00  0.00     0.051 H 
ATOM     38  H   LIG d   1       6.896  -1.581  -5.655  0.00  0.00     0.051 H 
BRANCH  36  39
ATOM     39  C   LIG d   1       6.959  -3.329  -4.398  0.00  0.00     0.007 C 
ATOM     40  H   LIG d   1       6.147  -3.338  -3.671  0.00  0.00     0.034 H 
ATOM     41  H   LIG d   1       7.820  -3.858  -3.988  0.00  0.00     0.034 H 
BRANCH  39  42
ATOM     42  C   LIG d   1       6.501  -4.023  -5.682  0.00  0.00    -0.031 C 
ATOM     43  H   LIG d   1       6.960  -5.010  -5.746  0.00  0.00     0.082 H 
ATOM     44  H   LIG d   1       6.801  -3.427  -6.545  0.00  0.00     0.082 H 
BRANCH  42  45
ATOM     45  N   LIG d   1       5.039  -4.163  -5.669  0.00  0.00     0.231 N 
ATOM     46  H   LIG d   1       4.657  -3.624  -4.906  0.00  0.00     0.203 HD
BRANCH  45  47
ATOM     47  C   LIG d   1       4.489  -3.672  -6.940  0.00  0.00    -0.043 C 
ATOM     48  H   LIG d   1       4.585  -4.447  -7.700  0.00  0.00     0.078 H 
ATOM     49  H   LIG d   1       3.436  -3.421  -6.807  0.00  0.00     0.078 H 
ATOM     50  H   LIG d   1       5.037  -2.784  -7.254  0.00  0.00     0.078 H 
ENDBRANCH  45  47
BRANCH  45  51
ATOM     51  C   LIG d   1       4.683  -5.577  -5.494  0.00  0.00    -0.043 C 
ATOM     52  H   LIG d   1       4.125  -5.699  -4.565  0.00  0.00     0.078 H 
ATOM     53  H   LIG d   1       4.068  -5.903  -6.333  0.00  0.00     0.078 H 
ATOM     54  H   LIG d   1       5.592  -6.178  -5.453  0.00  0.00     0.078 H 
ENDBRANCH  45  51
ENDBRANCH  42  45
ENDBRANCH  39  42
ENDBRANCH  36  39
ENDBRANCH   1  36
TORSDOF 12
ENDMDL
