MODEL 1
REMARK VINA RESULT:      -6.8      0.000      0.000
REMARK  9 active torsions:
REMARK  status: ('A' for Active; 'I' for Inactive)
REMARK    1  A    between atoms: C_1  and  O_2 
REMARK    2  A    between atoms: O_2  and  C_3 
REMARK    3  A    between atoms: C_8  and  O_9 
REMARK    4  A    between atoms: O_9  and  C_10 
REMARK       I    between atoms: N_12  and  C_15 
REMARK    5  A    between atoms: C_15  and  C_17 
REMARK    6  A    between atoms: C_17  and  C_18 
REMARK    7  A    between atoms: C_23  and  C_25 
REMARK    8  A    between atoms: C_25  and  C_26 
REMARK    9  A    between atoms: C_28  and  C_31 
ROOT
ATOM      1  C   LIG d   1       5.173  -3.491  -4.766  0.00  0.00     0.028 C 
ATOM      2  H   LIG d   1       4.572  -4.259  -4.279  0.00  0.00     0.036 H 
ATOM      3  H   LIG d   1       4.695  -3.193  -5.698  0.00  0.00     0.036 H 
ENDROOT
BRANCH   1   4
ATOM      4  C   LIG d   1       6.547  -4.038  -5.057  0.00  0.00     0.216 C 
ATOM      5  N   LIG d   1       6.686  -5.287  -5.544  0.00  0.00    -0.297 N 
ATOM      6  C   LIG d   1       5.520  -6.142  -5.795  0.00  0.00     0.040 C 
ATOM      7  C   LIG d   1       8.013  -5.851  -5.838  0.00  0.00     0.019 C 
ATOM      8  C   LIG d   1       5.784  -7.531  -5.285  0.00  0.00    -0.023 A 
ATOM      9  H   LIG d   1       4.650  -5.728  -5.284  0.00  0.00     0.051 H 
ATOM     10  H   LIG d   1       5.325  -6.183  -6.867  0.00  0.00     0.051 H 
ATOM     11  C   LIG d   1       7.036  -7.942  -4.880  0.00  0.00    -0.037 A 
ATOM     12  C   LIG d   1       4.714  -8.414  -5.230  0.00  0.00    -0.011 A 
ATOM     13  C   LIG d   1       7.220  -9.244  -4.430  0.00  0.00    -0.013 A 
ATOM     14  C   LIG d   1       8.238  -7.036  -4.900  0.00  0.00    -0.011 C 
ATOM     15  C   LIG d   1       6.159 -10.128  -4.377  0.00  0.00     0.162 A 
ATOM     16  H   LIG d   1       8.201  -9.567  -4.117  0.00  0.00     0.066 H 
ATOM     17  C   LIG d   1       4.893  -9.709  -4.779  0.00  0.00     0.162 A 
ATOM     18  H   LIG d   1       9.108  -7.600  -5.238  0.00  0.00     0.033 H 
ATOM     19  H   LIG d   1       8.423  -6.663  -3.892  0.00  0.00     0.033 H 
ATOM     20  H   LIG d   1       3.734  -8.086  -5.541  0.00  0.00     0.066 H 
ATOM     21  H   LIG d   1       8.048  -6.190  -6.874  0.00  0.00     0.047 H 
ATOM     22  H   LIG d   1       8.780  -5.096  -5.671  0.00  0.00     0.047 H 
ATOM     23  O   LIG d   1       7.528  -3.354  -4.852  0.00  0.00    -0.276 OA
BRANCH  15  24
ATOM     24  O   LIG d   1       6.349 -11.400  -3.936  0.00  0.00    -0.491 OA
BRANCH  24  25
ATOM     25  C   LIG d   1       6.805 -11.557  -2.591  0.00  0.00     0.079 C 
ATOM     26  H   LIG d   1       7.567 -12.336  -2.553  0.00  0.00     0.066 H 
ATOM     27  H   LIG d   1       7.229 -10.617  -2.238  0.00  0.00     0.066 H 
ATOM     28  H   LIG d   1       5.966 -11.838  -1.954  0.00  0.00     0.066 H 
ENDBRANCH  24  25
ENDBRANCH  15  24
BRANCH  17  29
ATOM     29  O   LIG d   1       3.840 -10.568  -4.728  0.00  0.00    -0.491 OA
BRANCH  29  30
ATOM     30  C   LIG d   1       3.153 -10.678  -3.480  0.00  0.00     0.079 C 
ATOM     31  H   LIG d   1       3.027 -11.730  -3.226  0.00  0.00     0.066 H 
ATOM     32  H   LIG d   1       3.732 -10.181  -2.701  0.00  0.00     0.066 H 
ATOM     33  H   LIG d   1       2.174 -10.205  -3.562  0.00  0.00     0.066 H 
ENDBRANCH  29  30
ENDBRANCH  17  29
ENDBRANCH   1   4
BRANCH   1  34
ATOM     34  C   LIG d   1       5.293  -2.276  -3.843  0.00  0.00    -0.020 C 
ATOM     35  H   LIG d   1       6.273  -2.278  -3.364  0.00  0.00     0.031 H 
ATOM     36  C   LIG d   1       5.124  -0.994  -4.661  0.00  0.00     0.008 C 
ATOM     37  C   LIG d   1       5.186   0.215  -3.725  0.00  0.00    -0.030 C 
ATOM     38  H   LIG d   1       5.925  -0.924  -5.398  0.00  0.00     0.036 H 
ATOM     39  H   LIG d   1       5.051   1.130  -4.303  0.00  0.00     0.082 H 
ATOM     40  H   LIG d   1       6.155   0.240  -3.227  0.00  0.00     0.082 H 
ATOM     41  N   LIG d   1       4.112   0.120  -2.718  0.00  0.00     0.227 N 
ATOM     42  C   LIG d   1       4.290  -1.088  -1.890  0.00  0.00    -0.033 C 
ATOM     43  H   LIG d   1       4.138   0.950  -2.115  0.00  0.00     0.201 HD
ATOM     44  H   LIG d   1       3.204   0.072  -3.195  0.00  0.00     0.201 HD
ATOM     45  C   LIG d   1       4.201  -2.336  -2.771  0.00  0.00    -0.009 C 
ATOM     46  H   LIG d   1       5.263  -1.058  -1.400  0.00  0.00     0.081 H 
ATOM     47  H   LIG d   1       3.504  -1.120  -1.135  0.00  0.00     0.081 H 
ATOM     48  H   LIG d   1       4.342  -3.226  -2.158  0.00  0.00     0.032 H 
ATOM     49  H   LIG d   1       3.223  -2.375  -3.251  0.00  0.00     0.032 H 
BRANCH  36  50
ATOM     50  C   LIG d   1       3.772  -1.018  -5.377  0.00  0.00     0.001 C 
ATOM     51  H   LIG d   1       3.567  -2.029  -5.730  0.00  0.00     0.033 H 
ATOM     52  H   LIG d   1       2.990  -0.709  -4.685  0.00  0.00     0.033 H 
BRANCH  50  53
ATOM     53  C   LIG d   1       3.807  -0.075  -6.551  0.00  0.00     0.085 A 
ATOM     54  N   LIG d   1       3.033   0.954  -6.745  0.00  0.00    -0.083 NA
ATOM     55  O   LIG d   1       3.295   1.529  -7.776  0.00  0.00    -0.353 OA
ATOM     56  C   LIG d   1       4.309   0.932  -8.430  0.00  0.00     0.183 A 
ATOM     57  C   LIG d   1       4.682  -0.135  -7.658  0.00  0.00     0.009 A 
ATOM     58  H   LIG d   1       5.464  -0.856  -7.851  0.00  0.00     0.068 H 
BRANCH  56  59
ATOM     59  C   LIG d   1       4.897   1.344  -9.717  0.00  0.00     0.110 C 
ATOM     60  O   LIG d   1       6.076   1.634  -9.781  0.00  0.00    -0.541 OA
ATOM     61  O   LIG d   1       4.128   1.401 -10.822  0.00  0.00    -0.541 OA
ENDBRANCH  56  59
ENDBRANCH  50  53
ENDBRANCH  36  50
ENDBRANCH   1  34
TORSDOF 9
ENDMDL
MODEL 2
REMARK VINA RESULT:      -6.7      5.601     10.978
REMARK  9 active torsions:
REMARK  status: ('A' for Active; 'I' for Inactive)
REMARK    1  A    between atoms: C_1  and  O_2 
REMARK    2  A    between atoms: O_2  and  C_3 
REMARK    3  A    between atoms: C_8  and  O_9 
REMARK    4  A    between atoms: O_9  and  C_10 
REMARK       I    between atoms: N_12  and  C_15 
REMARK    5  A    between atoms: C_15  and  C_17 
REMARK    6  A    between atoms: C_17  and  C_18 
REMARK    7  A    between atoms: C_23  and  C_25 
REMARK    8  A    between atoms: C_25  and  C_26 
REMARK    9  A    between atoms: C_28  and  C_31 
ROOT
ATOM      1  C   LIG d   1       7.253   1.063  -3.451  0.00  0.00     0.028 C 
ATOM      2  H   LIG d   1       7.558   1.677  -2.604  0.00  0.00     0.036 H 
ATOM      3  H   LIG d   1       7.602   0.041  -3.304  0.00  0.00     0.036 H 
ENDROOT
BRANCH   1   4
ATOM      4  C   LIG d   1       7.851   1.621  -4.717  0.00  0.00     0.216 C 
ATOM      5  N   LIG d   1       8.971   2.369  -4.660  0.00  0.00    -0.297 N 
ATOM      6  C   LIG d   1       9.628   2.663  -3.382  0.00  0.00     0.040 C 
ATOM      7  C   LIG d   1       9.580   2.929  -5.877  0.00  0.00     0.019 C 
ATOM      8  C   LIG d   1      10.017   4.115  -3.328  0.00  0.00    -0.023 A 
ATOM      9  H   LIG d   1       8.944   2.441  -2.563  0.00  0.00     0.051 H 
ATOM     10  H   LIG d   1      10.523   2.047  -3.284  0.00  0.00     0.051 H 
ATOM     11  C   LIG d   1       9.963   4.934  -4.436  0.00  0.00    -0.037 A 
ATOM     12  C   LIG d   1      10.443   4.625  -2.109  0.00  0.00    -0.011 A 
ATOM     13  C   LIG d   1      10.348   6.264  -4.325  0.00  0.00    -0.013 A 
ATOM     14  C   LIG d   1       9.499   4.452  -5.785  0.00  0.00    -0.011 C 
ATOM     15  C   LIG d   1      10.777   6.776  -3.115  0.00  0.00     0.162 A 
ATOM     16  H   LIG d   1      10.311   6.905  -5.194  0.00  0.00     0.066 H 
ATOM     17  C   LIG d   1      10.823   5.950  -1.996  0.00  0.00     0.162 A 
ATOM     18  H   LIG d   1      10.129   4.892  -6.559  0.00  0.00     0.033 H 
ATOM     19  H   LIG d   1       8.467   4.765  -5.942  0.00  0.00     0.033 H 
ATOM     20  H   LIG d   1      10.476   3.982  -1.243  0.00  0.00     0.066 H 
ATOM     21  H   LIG d   1      10.623   2.619  -5.944  0.00  0.00     0.047 H 
ATOM     22  H   LIG d   1       9.036   2.583  -6.756  0.00  0.00     0.047 H 
ATOM     23  O   LIG d   1       7.324   1.398  -5.786  0.00  0.00    -0.276 OA
BRANCH  15  24
ATOM     24  O   LIG d   1      11.152   8.079  -3.018  0.00  0.00    -0.491 OA
BRANCH  24  25
ATOM     25  C   LIG d   1      10.114   9.037  -2.801  0.00  0.00     0.079 C 
ATOM     26  H   LIG d   1      10.085   9.310  -1.746  0.00  0.00     0.066 H 
ATOM     27  H   LIG d   1      10.308   9.927  -3.401  0.00  0.00     0.066 H 
ATOM     28  H   LIG d   1       9.156   8.606  -3.091  0.00  0.00     0.066 H 
ENDBRANCH  24  25
ENDBRANCH  15  24
BRANCH  17  29
ATOM     29  O   LIG d   1      11.239   6.442  -0.798  0.00  0.00    -0.491 OA
BRANCH  29  30
ATOM     30  C   LIG d   1      12.335   5.776  -0.168  0.00  0.00     0.079 C 
ATOM     31  H   LIG d   1      12.137   5.681   0.899  0.00  0.00     0.066 H 
ATOM     32  H   LIG d   1      12.457   4.784  -0.606  0.00  0.00     0.066 H 
ATOM     33  H   LIG d   1      13.247   6.354  -0.319  0.00  0.00     0.066 H 
ENDBRANCH  29  30
ENDBRANCH  17  29
ENDBRANCH   1   4
BRANCH   1  34
ATOM     34  C   LIG d   1       5.727   1.070  -3.562  0.00  0.00    -0.020 C 
ATOM     35  H   LIG d   1       5.411   1.910  -4.182  0.00  0.00     0.031 H 
ATOM     36  C   LIG d   1       5.255  -0.241  -4.197  0.00  0.00     0.008 C 
ATOM     37  C   LIG d   1       3.725  -0.254  -4.251  0.00  0.00    -0.030 C 
ATOM     38  H   LIG d   1       5.656  -0.321  -5.208  0.00  0.00     0.036 H 
ATOM     39  H   LIG d   1       3.385  -1.194  -4.689  0.00  0.00     0.082 H 
ATOM     40  H   LIG d   1       3.377   0.579  -4.861  0.00  0.00     0.082 H 
ATOM     41  N   LIG d   1       3.178  -0.134  -2.886  0.00  0.00     0.227 N 
ATOM     42  C   LIG d   1       3.587   1.148  -2.280  0.00  0.00    -0.033 C 
ATOM     43  H   LIG d   1       2.153  -0.177  -2.927  0.00  0.00     0.201 HD
ATOM     44  H   LIG d   1       3.531  -0.907  -2.311  0.00  0.00     0.201 HD
ATOM     45  C   LIG d   1       5.111   1.203  -2.167  0.00  0.00    -0.009 C 
ATOM     46  H   LIG d   1       3.238   1.974  -2.899  0.00  0.00     0.081 H 
ATOM     47  H   LIG d   1       3.145   1.227  -1.286  0.00  0.00     0.081 H 
ATOM     48  H   LIG d   1       5.410   2.154  -1.727  0.00  0.00     0.032 H 
ATOM     49  H   LIG d   1       5.460   0.385  -1.536  0.00  0.00     0.032 H 
BRANCH  36  50
ATOM     50  C   LIG d   1       5.747  -1.422  -3.357  0.00  0.00     0.001 C 
ATOM     51  H   LIG d   1       6.772  -1.237  -3.037  0.00  0.00     0.033 H 
ATOM     52  H   LIG d   1       5.109  -1.536  -2.482  0.00  0.00     0.033 H 
BRANCH  50  53
ATOM     53  C   LIG d   1       5.699  -2.681  -4.183  0.00  0.00     0.085 A 
ATOM     54  N   LIG d   1       6.678  -3.201  -4.865  0.00  0.00    -0.083 NA
ATOM     55  O   LIG d   1       6.347  -4.219  -5.428  0.00  0.00    -0.353 OA
ATOM     56  C   LIG d   1       5.054  -4.514  -5.193  0.00  0.00     0.183 A 
ATOM     57  C   LIG d   1       4.582  -3.525  -4.373  0.00  0.00     0.009 A 
ATOM     58  H   LIG d   1       3.587  -3.415  -3.967  0.00  0.00     0.068 H 
BRANCH  56  59
ATOM     59  C   LIG d   1       4.301  -5.669  -5.713  0.00  0.00     0.110 C 
ATOM     60  O   LIG d   1       3.412  -5.498  -6.524  0.00  0.00    -0.541 OA
ATOM     61  O   LIG d   1       4.596  -6.913  -5.289  0.00  0.00    -0.541 OA
ENDBRANCH  56  59
ENDBRANCH  50  53
ENDBRANCH  36  50
ENDBRANCH   1  34
TORSDOF 9
ENDMDL
MODEL 3
REMARK VINA RESULT:      -6.6      3.794      7.908
REMARK  9 active torsions:
REMARK  status: ('A' for Active; 'I' for Inactive)
REMARK    1  A    between atoms: C_1  and  O_2 
REMARK    2  A    between atoms: O_2  and  C_3 
REMARK    3  A    between atoms: C_8  and  O_9 
REMARK    4  A    between atoms: O_9  and  C_10 
REMARK       I    between atoms: N_12  and  C_15 
REMARK    5  A    between atoms: C_15  and  C_17 
REMARK    6  A    between atoms: C_17  and  C_18 
REMARK    7  A    between atoms: C_23  and  C_25 
REMARK    8  A    between atoms: C_25  and  C_26 
REMARK    9  A    between atoms: C_28  and  C_31 
ROOT
ATOM      1  C   LIG d   1       5.707  -0.801  -6.864  0.00  0.00     0.028 C 
ATOM      2  H   LIG d   1       6.796  -0.835  -6.893  0.00  0.00     0.036 H 
ATOM      3  H   LIG d   1       5.305  -1.745  -7.231  0.00  0.00     0.036 H 
ENDROOT
BRANCH   1   4
ATOM      4  C   LIG d   1       5.216   0.328  -7.733  0.00  0.00     0.216 C 
ATOM      5  N   LIG d   1       4.052   0.206  -8.403  0.00  0.00    -0.297 N 
ATOM      6  C   LIG d   1       3.245  -1.015  -8.312  0.00  0.00     0.040 C 
ATOM      7  C   LIG d   1       3.546   1.290  -9.260  0.00  0.00     0.019 C 
ATOM      8  C   LIG d   1       2.763  -1.413  -9.680  0.00  0.00    -0.023 A 
ATOM      9  H   LIG d   1       3.849  -1.819  -7.892  0.00  0.00     0.051 H 
ATOM     10  H   LIG d   1       2.384  -0.833  -7.667  0.00  0.00     0.051 H 
ATOM     11  C   LIG d   1       2.886  -0.585 -10.774  0.00  0.00    -0.037 A 
ATOM     12  C   LIG d   1       2.177  -2.665  -9.819  0.00  0.00    -0.011 A 
ATOM     13  C   LIG d   1       2.410  -1.006 -12.011  0.00  0.00    -0.013 A 
ATOM     14  C   LIG d   1       3.522   0.778 -10.700  0.00  0.00    -0.011 C 
ATOM     15  C   LIG d   1       1.821  -2.248 -12.154  0.00  0.00     0.162 A 
ATOM     16  H   LIG d   1       2.502  -0.355 -12.867  0.00  0.00     0.066 H 
ATOM     17  C   LIG d   1       1.706  -3.087 -11.049  0.00  0.00     0.162 A 
ATOM     18  H   LIG d   1       2.954   1.473 -11.318  0.00  0.00     0.033 H 
ATOM     19  H   LIG d   1       4.544   0.717 -11.074  0.00  0.00     0.033 H 
ATOM     20  H   LIG d   1       2.090  -3.313  -8.961  0.00  0.00     0.066 H 
ATOM     21  H   LIG d   1       2.537   1.564  -8.950  0.00  0.00     0.047 H 
ATOM     22  H   LIG d   1       4.202   2.156  -9.187  0.00  0.00     0.047 H 
ATOM     23  O   LIG d   1       5.868   1.346  -7.831  0.00  0.00    -0.276 OA
BRANCH  15  24
ATOM     24  O   LIG d   1       1.359  -2.650 -13.368  0.00  0.00    -0.491 OA
BRANCH  24  25
ATOM     25  C   LIG d   1       0.033  -2.251 -13.720  0.00  0.00     0.079 C 
ATOM     26  H   LIG d   1      -0.672  -3.028 -13.424  0.00  0.00     0.066 H 
ATOM     27  H   LIG d   1      -0.216  -1.321 -13.207  0.00  0.00     0.066 H 
ATOM     28  H   LIG d   1      -0.026  -2.097 -14.798  0.00  0.00     0.066 H 
ENDBRANCH  24  25
ENDBRANCH  15  24
BRANCH  17  29
ATOM     29  O   LIG d   1       1.133  -4.313 -11.178  0.00  0.00    -0.491 OA
BRANCH  29  30
ATOM     30  C   LIG d   1      -0.170  -4.483 -10.616  0.00  0.00     0.079 C 
ATOM     31  H   LIG d   1      -0.889  -3.893 -11.182  0.00  0.00     0.066 H 
ATOM     32  H   LIG d   1      -0.449  -5.536 -10.657  0.00  0.00     0.066 H 
ATOM     33  H   LIG d   1      -0.163  -4.149  -9.578  0.00  0.00     0.066 H 
ENDBRANCH  29  30
ENDBRANCH  17  29
ENDBRANCH   1   4
BRANCH   1  34
ATOM     34  C   LIG d   1       5.242  -0.575  -5.423  0.00  0.00    -0.020 C 
ATOM     35  H   LIG d   1       4.593   0.300  -5.384  0.00  0.00     0.031 H 
ATOM     36  C   LIG d   1       4.475  -1.806  -4.935  0.00  0.00     0.008 C 
ATOM     37  C   LIG d   1       4.064  -1.598  -3.475  0.00  0.00    -0.030 C 
ATOM     38  H   LIG d   1       3.583  -1.945  -5.547  0.00  0.00     0.036 H 
ATOM     39  H   LIG d   1       3.530  -2.479  -3.119  0.00  0.00     0.082 H 
ATOM     40  H   LIG d   1       3.416  -0.725  -3.401  0.00  0.00     0.082 H 
ATOM     41  N   LIG d   1       5.266  -1.396  -2.644  0.00  0.00     0.227 N 
ATOM     42  C   LIG d   1       5.991  -0.185  -3.075  0.00  0.00    -0.033 C 
ATOM     43  H   LIG d   1       4.986  -1.291  -1.662  0.00  0.00     0.201 HD
ATOM     44  H   LIG d   1       5.884  -2.211  -2.738  0.00  0.00     0.201 HD
ATOM     45  C   LIG d   1       6.459  -0.350  -4.522  0.00  0.00    -0.009 C 
ATOM     46  H   LIG d   1       5.334   0.682  -3.002  0.00  0.00     0.081 H 
ATOM     47  H   LIG d   1       6.856  -0.040  -2.427  0.00  0.00     0.081 H 
ATOM     48  H   LIG d   1       6.986   0.550  -4.839  0.00  0.00     0.032 H 
ATOM     49  H   LIG d   1       7.128  -1.208  -4.593  0.00  0.00     0.032 H 
BRANCH  36  50
ATOM     50  C   LIG d   1       5.369  -3.042  -5.044  0.00  0.00     0.001 C 
ATOM     51  H   LIG d   1       6.306  -2.771  -5.529  0.00  0.00     0.033 H 
ATOM     52  H   LIG d   1       5.575  -3.430  -4.047  0.00  0.00     0.033 H 
BRANCH  50  53
ATOM     53  C   LIG d   1       4.669  -4.098  -5.859  0.00  0.00     0.085 A 
ATOM     54  N   LIG d   1       3.991  -5.111  -5.401  0.00  0.00    -0.083 NA
ATOM     55  O   LIG d   1       3.538  -5.792  -6.292  0.00  0.00    -0.353 OA
ATOM     56  C   LIG d   1       3.876  -5.308  -7.502  0.00  0.00     0.183 A 
ATOM     57  C   LIG d   1       4.625  -4.187  -7.268  0.00  0.00     0.009 A 
ATOM     58  H   LIG d   1       5.077  -3.525  -7.992  0.00  0.00     0.068 H 
BRANCH  56  59
ATOM     59  C   LIG d   1       3.512  -5.873  -8.815  0.00  0.00     0.110 C 
ATOM     60  O   LIG d   1       2.457  -6.462  -8.951  0.00  0.00    -0.541 OA
ATOM     61  O   LIG d   1       4.349  -5.738  -9.862  0.00  0.00    -0.541 OA
ENDBRANCH  56  59
ENDBRANCH  50  53
ENDBRANCH  36  50
ENDBRANCH   1  34
TORSDOF 9
ENDMDL
MODEL 4
REMARK VINA RESULT:      -6.5     10.898     16.167
REMARK  9 active torsions:
REMARK  status: ('A' for Active; 'I' for Inactive)
REMARK    1  A    between atoms: C_1  and  O_2 
REMARK    2  A    between atoms: O_2  and  C_3 
REMARK    3  A    between atoms: C_8  and  O_9 
REMARK    4  A    between atoms: O_9  and  C_10 
REMARK       I    between atoms: N_12  and  C_15 
REMARK    5  A    between atoms: C_15  and  C_17 
REMARK    6  A    between atoms: C_17  and  C_18 
REMARK    7  A    between atoms: C_23  and  C_25 
REMARK    8  A    between atoms: C_25  and  C_26 
REMARK    9  A    between atoms: C_28  and  C_31 
ROOT
ATOM      1  C   LIG d   1       9.358   6.235  -4.649  0.00  0.00     0.028 C 
ATOM      2  H   LIG d   1       8.437   5.668  -4.776  0.00  0.00     0.036 H 
ATOM      3  H   LIG d   1       9.146   7.155  -4.104  0.00  0.00     0.036 H 
ENDROOT
BRANCH   1   4
ATOM      4  C   LIG d   1       9.931   6.573  -6.002  0.00  0.00     0.216 C 
ATOM      5  N   LIG d   1      10.516   7.770  -6.206  0.00  0.00    -0.297 N 
ATOM      6  C   LIG d   1      10.607   8.768  -5.135  0.00  0.00     0.040 C 
ATOM      7  C   LIG d   1      11.084   8.131  -7.515  0.00  0.00     0.019 C 
ATOM      8  C   LIG d   1      10.247  10.126  -5.669  0.00  0.00    -0.023 A 
ATOM      9  H   LIG d   1       9.920   8.500  -4.331  0.00  0.00     0.051 H 
ATOM     10  H   LIG d   1      11.626   8.792  -4.747  0.00  0.00     0.051 H 
ATOM     11  C   LIG d   1      10.105  10.375  -7.017  0.00  0.00    -0.037 A 
ATOM     12  C   LIG d   1      10.056  11.151  -4.751  0.00  0.00    -0.011 A 
ATOM     13  C   LIG d   1       9.783  11.656  -7.449  0.00  0.00    -0.013 A 
ATOM     14  C   LIG d   1      10.283   9.310  -8.066  0.00  0.00    -0.011 C 
ATOM     15  C   LIG d   1       9.597  12.681  -6.541  0.00  0.00     0.162 A 
ATOM     16  H   LIG d   1       9.677  11.852  -8.506  0.00  0.00     0.066 H 
ATOM     17  C   LIG d   1       9.733  12.427  -5.179  0.00  0.00     0.162 A 
ATOM     18  H   LIG d   1      10.811   9.733  -8.921  0.00  0.00     0.033 H 
ATOM     19  H   LIG d   1       9.304   8.957  -8.388  0.00  0.00     0.033 H 
ATOM     20  H   LIG d   1      10.161  10.951  -3.696  0.00  0.00     0.066 H 
ATOM     21  H   LIG d   1      12.129   8.419  -7.397  0.00  0.00     0.047 H 
ATOM     22  H   LIG d   1      11.010   7.283  -8.196  0.00  0.00     0.047 H 
ATOM     23  O   LIG d   1       9.863   5.769  -6.907  0.00  0.00    -0.276 OA
BRANCH  15  24
ATOM     24  O   LIG d   1       9.283  13.930  -6.974  0.00  0.00    -0.491 OA
BRANCH  24  25
ATOM     25  C   LIG d   1       9.967  14.404  -8.136  0.00  0.00     0.079 C 
ATOM     26  H   LIG d   1       9.365  15.170  -8.626  0.00  0.00     0.066 H 
ATOM     27  H   LIG d   1      10.928  14.828  -7.846  0.00  0.00     0.066 H 
ATOM     28  H   LIG d   1      10.129  13.574  -8.825  0.00  0.00     0.066 H 
ENDBRANCH  24  25
ENDBRANCH  15  24
BRANCH  17  29
ATOM     29  O   LIG d   1       9.548  13.425  -4.275  0.00  0.00    -0.491 OA
BRANCH  29  30
ATOM     30  C   LIG d   1       8.633  13.172  -3.207  0.00  0.00     0.079 C 
ATOM     31  H   LIG d   1       7.617  13.146  -3.598  0.00  0.00     0.066 H 
ATOM     32  H   LIG d   1       8.871  12.214  -2.744  0.00  0.00     0.066 H 
ATOM     33  H   LIG d   1       8.715  13.965  -2.463  0.00  0.00     0.066 H 
ENDBRANCH  29  30
ENDBRANCH  17  29
ENDBRANCH   1   4
BRANCH   1  34
ATOM     34  C   LIG d   1      10.369   5.397  -3.863  0.00  0.00    -0.020 C 
ATOM     35  H   LIG d   1      11.258   5.233  -4.473  0.00  0.00     0.031 H 
ATOM     36  C   LIG d   1      10.757   6.136  -2.579  0.00  0.00     0.008 C 
ATOM     37  C   LIG d   1      11.721   5.267  -1.769  0.00  0.00    -0.030 C 
ATOM     38  H   LIG d   1      11.242   7.078  -2.834  0.00  0.00     0.036 H 
ATOM     39  H   LIG d   1      11.988   5.784  -0.846  0.00  0.00     0.082 H 
ATOM     40  H   LIG d   1      12.622   5.080  -2.354  0.00  0.00     0.082 H 
ATOM     41  N   LIG d   1      11.073   3.985  -1.432  0.00  0.00     0.227 N 
ATOM     42  C   LIG d   1      10.736   3.241  -2.661  0.00  0.00    -0.033 C 
ATOM     43  H   LIG d   1      11.713   3.422  -0.860  0.00  0.00     0.201 HD
ATOM     44  H   LIG d   1      10.213   4.170  -0.902  0.00  0.00     0.201 HD
ATOM     45  C   LIG d   1       9.743   4.049  -3.498  0.00  0.00    -0.009 C 
ATOM     46  H   LIG d   1      11.641   3.063  -3.242  0.00  0.00     0.081 H 
ATOM     47  H   LIG d   1      10.288   2.286  -2.386  0.00  0.00     0.081 H 
ATOM     48  H   LIG d   1       9.503   3.500  -4.409  0.00  0.00     0.032 H 
ATOM     49  H   LIG d   1       8.832   4.215  -2.922  0.00  0.00     0.032 H 
BRANCH  36  50
ATOM     50  C   LIG d   1       9.501   6.415  -1.752  0.00  0.00     0.001 C 
ATOM     51  H   LIG d   1       8.616   6.197  -2.349  0.00  0.00     0.033 H 
ATOM     52  H   LIG d   1       9.504   5.784  -0.863  0.00  0.00     0.033 H 
BRANCH  50  53
ATOM     53  C   LIG d   1       9.483   7.864  -1.339  0.00  0.00     0.085 A 
ATOM     54  N   LIG d   1       8.501   8.496  -0.763  0.00  0.00    -0.083 NA
ATOM     55  O   LIG d   1       8.774   9.654  -0.546  0.00  0.00    -0.353 OA
ATOM     56  C   LIG d   1      10.014   9.957  -0.974  0.00  0.00     0.183 A 
ATOM     57  C   LIG d   1      10.524   8.804  -1.507  0.00  0.00     0.009 A 
ATOM     58  H   LIG d   1      11.496   8.649  -1.952  0.00  0.00     0.068 H 
BRANCH  56  59
ATOM     59  C   LIG d   1      10.686  11.266  -0.887  0.00  0.00     0.110 C 
ATOM     60  O   LIG d   1      11.601  11.531  -1.642  0.00  0.00    -0.541 OA
ATOM     61  O   LIG d   1      10.287  12.168   0.031  0.00  0.00    -0.541 OA
ENDBRANCH  56  59
ENDBRANCH  50  53
ENDBRANCH  36  50
ENDBRANCH   1  34
TORSDOF 9
ENDMDL
MODEL 5
REMARK VINA RESULT:      -6.5      4.163      7.827
REMARK  9 active torsions:
REMARK  status: ('A' for Active; 'I' for Inactive)
REMARK    1  A    between atoms: C_1  and  O_2 
REMARK    2  A    between atoms: O_2  and  C_3 
REMARK    3  A    between atoms: C_8  and  O_9 
REMARK    4  A    between atoms: O_9  and  C_10 
REMARK       I    between atoms: N_12  and  C_15 
REMARK    5  A    between atoms: C_15  and  C_17 
REMARK    6  A    between atoms: C_17  and  C_18 
REMARK    7  A    between atoms: C_23  and  C_25 
REMARK    8  A    between atoms: C_25  and  C_26 
REMARK    9  A    between atoms: C_28  and  C_31 
ROOT
ATOM      1  C   LIG d   1       6.024  -2.543  -3.760  0.00  0.00     0.028 C 
ATOM      2  H   LIG d   1       6.772  -1.885  -4.201  0.00  0.00     0.036 H 
ATOM      3  H   LIG d   1       6.516  -3.277  -3.123  0.00  0.00     0.036 H 
ENDROOT
BRANCH   1   4
ATOM      4  C   LIG d   1       5.270  -3.252  -4.856  0.00  0.00     0.216 C 
ATOM      5  N   LIG d   1       5.516  -2.951  -6.147  0.00  0.00    -0.297 N 
ATOM      6  C   LIG d   1       6.506  -1.933  -6.517  0.00  0.00     0.040 C 
ATOM      7  C   LIG d   1       4.798  -3.625  -7.241  0.00  0.00     0.019 C 
ATOM      8  C   LIG d   1       5.950  -1.048  -7.597  0.00  0.00    -0.023 A 
ATOM      9  H   LIG d   1       6.750  -1.329  -5.643  0.00  0.00     0.051 H 
ATOM     10  H   LIG d   1       7.410  -2.423  -6.883  0.00  0.00     0.051 H 
ATOM     11  C   LIG d   1       4.784  -1.348  -8.269  0.00  0.00    -0.037 A 
ATOM     12  C   LIG d   1       6.654   0.107  -7.913  0.00  0.00    -0.011 A 
ATOM     13  C   LIG d   1       4.328  -0.495  -9.267  0.00  0.00    -0.013 A 
ATOM     14  C   LIG d   1       3.963  -2.574  -7.971  0.00  0.00    -0.011 C 
ATOM     15  C   LIG d   1       5.027   0.653  -9.588  0.00  0.00     0.162 A 
ATOM     16  H   LIG d   1       3.417  -0.732  -9.797  0.00  0.00     0.066 H 
ATOM     17  C   LIG d   1       6.200   0.959  -8.904  0.00  0.00     0.162 A 
ATOM     18  H   LIG d   1       3.595  -2.996  -8.907  0.00  0.00     0.033 H 
ATOM     19  H   LIG d   1       3.115  -2.294  -7.346  0.00  0.00     0.033 H 
ATOM     20  H   LIG d   1       7.562   0.342  -7.380  0.00  0.00     0.066 H 
ATOM     21  H   LIG d   1       5.513  -4.072  -7.931  0.00  0.00     0.047 H 
ATOM     22  H   LIG d   1       4.146  -4.397  -6.833  0.00  0.00     0.047 H 
ATOM     23  O   LIG d   1       4.442  -4.093  -4.577  0.00  0.00    -0.276 OA
BRANCH  15  24
ATOM     24  O   LIG d   1       4.572   1.480 -10.567  0.00  0.00    -0.491 OA
BRANCH  24  25
ATOM     25  C   LIG d   1       3.550   2.410 -10.205  0.00  0.00     0.079 C 
ATOM     26  H   LIG d   1       3.998   3.382  -9.997  0.00  0.00     0.066 H 
ATOM     27  H   LIG d   1       2.839   2.507 -11.026  0.00  0.00     0.066 H 
ATOM     28  H   LIG d   1       3.030   2.052  -9.316  0.00  0.00     0.066 H 
ENDBRANCH  24  25
ENDBRANCH  15  24
BRANCH  17  29
ATOM     29  O   LIG d   1       6.894   2.088  -9.207  0.00  0.00    -0.491 OA
BRANCH  29  30
ATOM     30  C   LIG d   1       8.118   2.305  -8.501  0.00  0.00     0.079 C 
ATOM     31  H   LIG d   1       7.933   2.252  -7.429  0.00  0.00     0.066 H 
ATOM     32  H   LIG d   1       8.842   1.541  -8.785  0.00  0.00     0.066 H 
ATOM     33  H   LIG d   1       8.512   3.290  -8.753  0.00  0.00     0.066 H 
ENDBRANCH  29  30
ENDBRANCH  17  29
ENDBRANCH   1   4
BRANCH   1  34
ATOM     34  C   LIG d   1       5.046  -1.714  -2.923  0.00  0.00    -0.020 C 
ATOM     35  H   LIG d   1       4.881  -2.205  -1.964  0.00  0.00     0.031 H 
ATOM     36  C   LIG d   1       5.628  -0.318  -2.692  0.00  0.00     0.008 C 
ATOM     37  C   LIG d   1       4.621   0.525  -1.906  0.00  0.00    -0.030 C 
ATOM     38  H   LIG d   1       6.555  -0.400  -2.123  0.00  0.00     0.036 H 
ATOM     39  H   LIG d   1       5.026   1.526  -1.752  0.00  0.00     0.082 H 
ATOM     40  H   LIG d   1       4.430   0.057  -0.940  0.00  0.00     0.082 H 
ATOM     41  N   LIG d   1       3.360   0.629  -2.665  0.00  0.00     0.227 N 
ATOM     42  C   LIG d   1       2.763  -0.707  -2.855  0.00  0.00    -0.033 C 
ATOM     43  H   LIG d   1       2.701   1.223  -2.148  0.00  0.00     0.201 HD
ATOM     44  H   LIG d   1       3.551   1.047  -3.583  0.00  0.00     0.201 HD
ATOM     45  C   LIG d   1       3.714  -1.587  -3.668  0.00  0.00    -0.009 C 
ATOM     46  H   LIG d   1       2.581  -1.170  -1.885  0.00  0.00     0.081 H 
ATOM     47  H   LIG d   1       1.818  -0.602  -3.390  0.00  0.00     0.081 H 
ATOM     48  H   LIG d   1       3.275  -2.576  -3.799  0.00  0.00     0.032 H 
ATOM     49  H   LIG d   1       3.886  -1.133  -4.644  0.00  0.00     0.032 H 
BRANCH  36  50
ATOM     50  C   LIG d   1       5.911   0.348  -4.039  0.00  0.00     0.001 C 
ATOM     51  H   LIG d   1       5.867  -0.401  -4.831  0.00  0.00     0.033 H 
ATOM     52  H   LIG d   1       5.165   1.119  -4.227  0.00  0.00     0.033 H 
BRANCH  50  53
ATOM     53  C   LIG d   1       7.283   0.971  -4.014  0.00  0.00     0.085 A 
ATOM     54  N   LIG d   1       7.620   2.087  -3.435  0.00  0.00    -0.083 NA
ATOM     55  O   LIG d   1       8.795   2.335  -3.579  0.00  0.00    -0.353 OA
ATOM     56  C   LIG d   1       9.413   1.386  -4.306  0.00  0.00     0.183 A 
ATOM     57  C   LIG d   1       8.454   0.461  -4.618  0.00  0.00     0.009 A 
ATOM     58  H   LIG d   1       8.566  -0.447  -5.192  0.00  0.00     0.068 H 
BRANCH  56  59
ATOM     59  C   LIG d   1      10.836   1.352  -4.690  0.00  0.00     0.110 C 
ATOM     60  O   LIG d   1      11.696   1.535  -3.850  0.00  0.00    -0.541 OA
ATOM     61  O   LIG d   1      11.183   1.119  -5.970  0.00  0.00    -0.541 OA
ENDBRANCH  56  59
ENDBRANCH  50  53
ENDBRANCH  36  50
ENDBRANCH   1  34
TORSDOF 9
ENDMDL
MODEL 6
REMARK VINA RESULT:      -6.5      9.905     13.600
REMARK  9 active torsions:
REMARK  status: ('A' for Active; 'I' for Inactive)
REMARK    1  A    between atoms: C_1  and  O_2 
REMARK    2  A    between atoms: O_2  and  C_3 
REMARK    3  A    between atoms: C_8  and  O_9 
REMARK    4  A    between atoms: O_9  and  C_10 
REMARK       I    between atoms: N_12  and  C_15 
REMARK    5  A    between atoms: C_15  and  C_17 
REMARK    6  A    between atoms: C_17  and  C_18 
REMARK    7  A    between atoms: C_23  and  C_25 
REMARK    8  A    between atoms: C_25  and  C_26 
REMARK    9  A    between atoms: C_28  and  C_31 
ROOT
ATOM      1  C   LIG d   1       9.399   8.465  -1.452  0.00  0.00     0.028 C 
ATOM      2  H   LIG d   1       8.439   8.557  -0.945  0.00  0.00     0.036 H 
ATOM      3  H   LIG d   1       9.253   8.555  -2.528  0.00  0.00     0.036 H 
ENDROOT
BRANCH   1   4
ATOM      4  C   LIG d   1      10.005   7.121  -1.138  0.00  0.00     0.216 C 
ATOM      5  N   LIG d   1      10.590   6.400  -2.115  0.00  0.00    -0.297 N 
ATOM      6  C   LIG d   1      10.646   6.892  -3.496  0.00  0.00     0.040 C 
ATOM      7  C   LIG d   1      11.190   5.084  -1.842  0.00  0.00     0.019 C 
ATOM      8  C   LIG d   1      10.293   5.785  -4.449  0.00  0.00    -0.023 A 
ATOM      9  H   LIG d   1       9.940   7.714  -3.618  0.00  0.00     0.051 H 
ATOM     10  H   LIG d   1      11.655   7.246  -3.714  0.00  0.00     0.051 H 
ATOM     11  C   LIG d   1      10.185   4.471  -4.046  0.00  0.00    -0.037 A 
ATOM     12  C   LIG d   1      10.073   6.121  -5.778  0.00  0.00    -0.011 A 
ATOM     13  C   LIG d   1       9.868   3.490  -4.977  0.00  0.00    -0.013 A 
ATOM     14  C   LIG d   1      10.397   4.035  -2.620  0.00  0.00    -0.011 C 
ATOM     15  C   LIG d   1       9.652   3.819  -6.303  0.00  0.00     0.162 A 
ATOM     16  H   LIG d   1       9.788   2.460  -4.663  0.00  0.00     0.066 H 
ATOM     17  C   LIG d   1       9.753   5.147  -6.707  0.00  0.00     0.162 A 
ATOM     18  H   LIG d   1      10.945   3.093  -2.610  0.00  0.00     0.033 H 
ATOM     19  H   LIG d   1       9.428   3.892  -2.142  0.00  0.00     0.033 H 
ATOM     20  H   LIG d   1      10.151   7.152  -6.089  0.00  0.00     0.066 H 
ATOM     21  H   LIG d   1      12.230   5.078  -2.170  0.00  0.00     0.047 H 
ATOM     22  H   LIG d   1      11.138   4.869  -0.775  0.00  0.00     0.047 H 
ATOM     23  O   LIG d   1       9.966   6.688  -0.005  0.00  0.00    -0.276 OA
BRANCH  15  24
ATOM     24  O   LIG d   1       9.343   2.852  -7.206  0.00  0.00    -0.491 OA
BRANCH  24  25
ATOM     25  C   LIG d   1       8.384   1.872  -6.803  0.00  0.00     0.079 C 
ATOM     26  H   LIG d   1       7.968   1.384  -7.685  0.00  0.00     0.066 H 
ATOM     27  H   LIG d   1       8.869   1.126  -6.172  0.00  0.00     0.066 H 
ATOM     28  H   LIG d   1       7.583   2.356  -6.243  0.00  0.00     0.066 H 
ENDBRANCH  24  25
ENDBRANCH  15  24
BRANCH  17  29
ATOM     29  O   LIG d   1       9.539   5.485  -8.007  0.00  0.00    -0.491 OA
BRANCH  29  30
ATOM     30  C   LIG d   1       9.590   6.875  -8.333  0.00  0.00     0.079 C 
ATOM     31  H   LIG d   1       8.910   7.426  -7.684  0.00  0.00     0.066 H 
ATOM     32  H   LIG d   1      10.607   7.244  -8.192  0.00  0.00     0.066 H 
ATOM     33  H   LIG d   1       9.294   7.016  -9.372  0.00  0.00     0.066 H 
ENDBRANCH  29  30
ENDBRANCH  17  29
ENDBRANCH   1   4
BRANCH   1  34
ATOM     34  C   LIG d   1      10.339   9.573  -0.970  0.00  0.00    -0.020 C 
ATOM     35  H   LIG d   1      11.244   9.128  -0.555  0.00  0.00     0.031 H 
ATOM     36  C   LIG d   1      10.706  10.479  -2.147  0.00  0.00     0.008 C 
ATOM     37  C   LIG d   1      11.597  11.619  -1.649  0.00  0.00    -0.030 C 
ATOM     38  H   LIG d   1      11.243   9.900  -2.899  0.00  0.00     0.036 H 
ATOM     39  H   LIG d   1      11.849  12.276  -2.482  0.00  0.00     0.082 H 
ATOM     40  H   LIG d   1      12.511  11.206  -1.223  0.00  0.00     0.082 H 
ATOM     41  N   LIG d   1      10.879  12.399  -0.622  0.00  0.00     0.227 N 
ATOM     42  C   LIG d   1      10.561  11.548   0.540  0.00  0.00    -0.033 C 
ATOM     43  H   LIG d   1      11.470  13.181  -0.317  0.00  0.00     0.201 HD
ATOM     44  H   LIG d   1      10.008  12.764  -1.023  0.00  0.00     0.201 HD
ATOM     45  C   LIG d   1       9.639  10.406   0.107  0.00  0.00    -0.009 C 
ATOM     46  H   LIG d   1      11.480  11.135   0.956  0.00  0.00     0.081 H 
ATOM     47  H   LIG d   1      10.059  12.153   1.297  0.00  0.00     0.081 H 
ATOM     48  H   LIG d   1       9.412   9.774   0.966  0.00  0.00     0.032 H 
ATOM     49  H   LIG d   1       8.713  10.818  -0.296  0.00  0.00     0.032 H 
BRANCH  36  50
ATOM     50  C   LIG d   1       9.432  11.058  -2.764  0.00  0.00     0.001 C 
ATOM     51  H   LIG d   1       8.573  10.468  -2.443  0.00  0.00     0.033 H 
ATOM     52  H   LIG d   1       9.306  12.090  -2.436  0.00  0.00     0.033 H 
BRANCH  50  53
ATOM     53  C   LIG d   1       9.536  11.018  -4.266  0.00  0.00     0.085 A 
ATOM     54  N   LIG d   1       9.523   9.955  -5.018  0.00  0.00    -0.083 NA
ATOM     55  O   LIG d   1       9.619  10.229  -6.192  0.00  0.00    -0.353 OA
ATOM     56  C   LIG d   1       9.723  11.558  -6.380  0.00  0.00     0.183 A 
ATOM     57  C   LIG d   1       9.672  12.124  -5.135  0.00  0.00     0.009 A 
ATOM     58  H   LIG d   1       9.724  13.171  -4.876  0.00  0.00     0.068 H 
BRANCH  56  59
ATOM     59  C   LIG d   1       9.863  12.262  -7.668  0.00  0.00     0.110 C 
ATOM     60  O   LIG d   1      10.760  11.960  -8.430  0.00  0.00    -0.541 OA
ATOM     61  O   LIG d   1       8.997  13.239  -7.999  0.00  0.00    -0.541 OA
ENDBRANCH  56  59
ENDBRANCH  50  53
ENDBRANCH  36  50
ENDBRANCH   1  34
TORSDOF 9
ENDMDL
MODEL 7
REMARK VINA RESULT:      -6.4      9.839     14.025
REMARK  9 active torsions:
REMARK  status: ('A' for Active; 'I' for Inactive)
REMARK    1  A    between atoms: C_1  and  O_2 
REMARK    2  A    between atoms: O_2  and  C_3 
REMARK    3  A    between atoms: C_8  and  O_9 
REMARK    4  A    between atoms: O_9  and  C_10 
REMARK       I    between atoms: N_12  and  C_15 
REMARK    5  A    between atoms: C_15  and  C_17 
REMARK    6  A    between atoms: C_17  and  C_18 
REMARK    7  A    between atoms: C_23  and  C_25 
REMARK    8  A    between atoms: C_25  and  C_26 
REMARK    9  A    between atoms: C_28  and  C_31 
ROOT
ATOM      1  C   LIG d   1      10.533  10.607  -5.560  0.00  0.00     0.028 C 
ATOM      2  H   LIG d   1      11.499  11.075  -5.747  0.00  0.00     0.036 H 
ATOM      3  H   LIG d   1      10.660   9.781  -4.860  0.00  0.00     0.036 H 
ENDROOT
BRANCH   1   4
ATOM      4  C   LIG d   1       9.967  10.086  -6.857  0.00  0.00     0.216 C 
ATOM      5  N   LIG d   1       9.384   8.872  -6.898  0.00  0.00    -0.297 N 
ATOM      6  C   LIG d   1       9.290   8.029  -5.701  0.00  0.00     0.040 C 
ATOM      7  C   LIG d   1       8.822   8.335  -8.148  0.00  0.00     0.019 C 
ATOM      8  C   LIG d   1       9.654   6.611  -6.043  0.00  0.00    -0.023 A 
ATOM      9  H   LIG d   1       9.972   8.405  -4.938  0.00  0.00     0.051 H 
ATOM     10  H   LIG d   1       8.269   8.057  -5.318  0.00  0.00     0.051 H 
ATOM     11  C   LIG d   1       9.802   6.182  -7.344  0.00  0.00    -0.037 A 
ATOM     12  C   LIG d   1       9.841   5.721  -4.993  0.00  0.00    -0.011 A 
ATOM     13  C   LIG d   1      10.127   4.854  -7.596  0.00  0.00    -0.013 A 
ATOM     14  C   LIG d   1       9.627   7.093  -8.529  0.00  0.00    -0.011 C 
ATOM     15  C   LIG d   1      10.310   3.963  -6.555  0.00  0.00     0.162 A 
ATOM     16  H   LIG d   1      10.239   4.516  -8.615  0.00  0.00     0.066 H 
ATOM     17  C   LIG d   1      10.168   4.401  -5.241  0.00  0.00     0.162 A 
ATOM     18  H   LIG d   1       9.104   6.557  -9.321  0.00  0.00     0.033 H 
ATOM     19  H   LIG d   1      10.608   7.401  -8.892  0.00  0.00     0.033 H 
ATOM     20  H   LIG d   1       9.731   6.064  -3.975  0.00  0.00     0.066 H 
ATOM     21  H   LIG d   1       7.777   8.064  -7.996  0.00  0.00     0.047 H 
ATOM     22  H   LIG d   1       8.899   9.081  -8.938  0.00  0.00     0.047 H 
ATOM     23  O   LIG d   1      10.038  10.760  -7.862  0.00  0.00    -0.276 OA
BRANCH  15  24
ATOM     24  O   LIG d   1      10.628   2.667  -6.812  0.00  0.00    -0.491 OA
BRANCH  24  25
ATOM     25  C   LIG d   1       9.564   1.811  -7.235  0.00  0.00     0.079 C 
ATOM     26  H   LIG d   1       8.781   2.407  -7.703  0.00  0.00     0.066 H 
ATOM     27  H   LIG d   1       9.945   1.084  -7.953  0.00  0.00     0.066 H 
ATOM     28  H   LIG d   1       9.155   1.287  -6.371  0.00  0.00     0.066 H 
ENDBRANCH  24  25
ENDBRANCH  15  24
BRANCH  17  29
ATOM     29  O   LIG d   1      10.350   3.535  -4.208  0.00  0.00    -0.491 OA
BRANCH  29  30
ATOM     30  C   LIG d   1       9.178   2.946  -3.642  0.00  0.00     0.079 C 
ATOM     31  H   LIG d   1       8.685   2.326  -4.389  0.00  0.00     0.066 H 
ATOM     32  H   LIG d   1       9.457   2.332  -2.785  0.00  0.00     0.066 H 
ATOM     33  H   LIG d   1       8.497   3.734  -3.317  0.00  0.00     0.066 H 
ENDBRANCH  29  30
ENDBRANCH  17  29
ENDBRANCH   1   4
BRANCH   1  34
ATOM     34  C   LIG d   1       9.573  11.638  -4.963  0.00  0.00    -0.020 C 
ATOM     35  H   LIG d   1       8.747  11.810  -5.653  0.00  0.00     0.031 H 
ATOM     36  C   LIG d   1       9.028  11.117  -3.630  0.00  0.00     0.008 C 
ATOM     37  C   LIG d   1       8.115  12.178  -3.009  0.00  0.00    -0.030 C 
ATOM     38  H   LIG d   1       8.459  10.203  -3.802  0.00  0.00     0.036 H 
ATOM     39  H   LIG d   1       7.737  11.816  -2.052  0.00  0.00     0.082 H 
ATOM     40  H   LIG d   1       7.279  12.376  -3.679  0.00  0.00     0.082 H 
ATOM     41  N   LIG d   1       8.878  13.421  -2.785  0.00  0.00     0.227 N 
ATOM     42  C   LIG d   1       9.370  13.960  -4.068  0.00  0.00    -0.033 C 
ATOM     43  H   LIG d   1       8.269  14.116  -2.338  0.00  0.00     0.201 HD
ATOM     44  H   LIG d   1       9.678  13.222  -2.174  0.00  0.00     0.201 HD
ATOM     45  C   LIG d   1      10.319  12.953  -4.721  0.00  0.00    -0.009 C 
ATOM     46  H   LIG d   1       8.528  14.149  -4.734  0.00  0.00     0.081 H 
ATOM     47  H   LIG d   1       9.902  14.893  -3.881  0.00  0.00     0.081 H 
ATOM     48  H   LIG d   1      10.674  13.350  -5.672  0.00  0.00     0.032 H 
ATOM     49  H   LIG d   1      11.169  12.773  -4.062  0.00  0.00     0.032 H 
BRANCH  36  50
ATOM     50  C   LIG d   1      10.191  10.824  -2.681  0.00  0.00     0.001 C 
ATOM     51  H   LIG d   1      11.105  10.687  -3.259  0.00  0.00     0.033 H 
ATOM     52  H   LIG d   1      10.318  11.659  -1.993  0.00  0.00     0.033 H 
BRANCH  50  53
ATOM     53  C   LIG d   1       9.899   9.569  -1.900  0.00  0.00     0.085 A 
ATOM     54  N   LIG d   1       8.855   9.341  -1.156  0.00  0.00    -0.083 NA
ATOM     55  O   LIG d   1       8.889   8.242  -0.653  0.00  0.00    -0.353 OA
ATOM     56  C   LIG d   1      10.005   7.575  -1.002  0.00  0.00     0.183 A 
ATOM     57  C   LIG d   1      10.707   8.412  -1.827  0.00  0.00     0.009 A 
ATOM     58  H   LIG d   1      11.656   8.231  -2.310  0.00  0.00     0.068 H 
BRANCH  56  59
ATOM     59  C   LIG d   1      10.394   6.217  -0.579  0.00  0.00     0.110 C 
ATOM     60  O   LIG d   1      10.539   5.342  -1.409  0.00  0.00    -0.541 OA
ATOM     61  O   LIG d   1      10.585   5.947   0.727  0.00  0.00    -0.541 OA
ENDBRANCH  56  59
ENDBRANCH  50  53
ENDBRANCH  36  50
ENDBRANCH   1  34
TORSDOF 9
ENDMDL
MODEL 8
REMARK VINA RESULT:      -6.4      7.746     10.478
REMARK  9 active torsions:
REMARK  status: ('A' for Active; 'I' for Inactive)
REMARK    1  A    between atoms: C_1  and  O_2 
REMARK    2  A    between atoms: O_2  and  C_3 
REMARK    3  A    between atoms: C_8  and  O_9 
REMARK    4  A    between atoms: O_9  and  C_10 
REMARK       I    between atoms: N_12  and  C_15 
REMARK    5  A    between atoms: C_15  and  C_17 
REMARK    6  A    between atoms: C_17  and  C_18 
REMARK    7  A    between atoms: C_23  and  C_25 
REMARK    8  A    between atoms: C_25  and  C_26 
REMARK    9  A    between atoms: C_28  and  C_31 
ROOT
ATOM      1  C   LIG d   1      10.593   3.040  -2.700  0.00  0.00     0.028 C 
ATOM      2  H   LIG d   1      11.591   3.183  -2.284  0.00  0.00     0.036 H 
ATOM      3  H   LIG d   1       9.942   2.608  -1.941  0.00  0.00     0.036 H 
ENDROOT
BRANCH   1   4
ATOM      4  C   LIG d   1      10.672   2.110  -3.884  0.00  0.00     0.216 C 
ATOM      5  N   LIG d   1       9.541   1.625  -4.436  0.00  0.00    -0.297 N 
ATOM      6  C   LIG d   1       8.221   1.977  -3.903  0.00  0.00     0.040 C 
ATOM      7  C   LIG d   1       9.583   0.715  -5.592  0.00  0.00     0.019 C 
ATOM      8  C   LIG d   1       7.359   0.748  -3.819  0.00  0.00    -0.023 A 
ATOM      9  H   LIG d   1       8.334   2.409  -2.909  0.00  0.00     0.051 H 
ATOM     10  H   LIG d   1       7.746   2.705  -4.562  0.00  0.00     0.051 H 
ATOM     11  C   LIG d   1       7.722  -0.449  -4.399  0.00  0.00    -0.037 A 
ATOM     12  C   LIG d   1       6.158   0.847  -3.128  0.00  0.00    -0.011 A 
ATOM     13  C   LIG d   1       6.876  -1.546  -4.296  0.00  0.00    -0.013 A 
ATOM     14  C   LIG d   1       9.013  -0.632  -5.150  0.00  0.00    -0.011 C 
ATOM     15  C   LIG d   1       5.677  -1.452  -3.614  0.00  0.00     0.162 A 
ATOM     16  H   LIG d   1       7.158  -2.482  -4.755  0.00  0.00     0.066 H 
ATOM     17  C   LIG d   1       5.315  -0.245  -3.022  0.00  0.00     0.162 A 
ATOM     18  H   LIG d   1       8.832  -1.250  -6.030  0.00  0.00     0.033 H 
ATOM     19  H   LIG d   1       9.736  -1.131  -4.505  0.00  0.00     0.033 H 
ATOM     20  H   LIG d   1       5.880   1.784  -2.669  0.00  0.00     0.066 H 
ATOM     21  H   LIG d   1       8.979   1.122  -6.404  0.00  0.00     0.047 H 
ATOM     22  H   LIG d   1      10.613   0.589  -5.926  0.00  0.00     0.047 H 
ATOM     23  O   LIG d   1      11.751   1.798  -4.340  0.00  0.00    -0.276 OA
BRANCH  15  24
ATOM     24  O   LIG d   1       4.856  -2.531  -3.521  0.00  0.00    -0.491 OA
BRANCH  24  25
ATOM     25  C   LIG d   1       4.909  -3.479  -4.589  0.00  0.00     0.079 C 
ATOM     26  H   LIG d   1       3.967  -3.464  -5.137  0.00  0.00     0.066 H 
ATOM     27  H   LIG d   1       5.726  -3.222  -5.264  0.00  0.00     0.066 H 
ATOM     28  H   LIG d   1       5.076  -4.477  -4.181  0.00  0.00     0.066 H 
ENDBRANCH  24  25
ENDBRANCH  15  24
BRANCH  17  29
ATOM     29  O   LIG d   1       4.141  -0.140  -2.344  0.00  0.00    -0.491 OA
BRANCH  29  30
ATOM     30  C   LIG d   1       3.489   1.131  -2.369  0.00  0.00     0.079 C 
ATOM     31  H   LIG d   1       3.519   1.535  -3.380  0.00  0.00     0.066 H 
ATOM     32  H   LIG d   1       2.452   1.014  -2.054  0.00  0.00     0.066 H 
ATOM     33  H   LIG d   1       4.000   1.814  -1.690  0.00  0.00     0.066 H 
ENDBRANCH  29  30
ENDBRANCH  17  29
ENDBRANCH   1   4
BRANCH   1  34
ATOM     34  C   LIG d   1      10.030   4.390  -3.148  0.00  0.00    -0.020 C 
ATOM     35  H   LIG d   1       9.013   4.255  -3.520  0.00  0.00     0.031 H 
ATOM     36  C   LIG d   1      10.018   5.358  -1.963  0.00  0.00     0.008 C 
ATOM     37  C   LIG d   1       9.510   6.724  -2.430  0.00  0.00    -0.030 C 
ATOM     38  H   LIG d   1       9.359   4.972  -1.184  0.00  0.00     0.036 H 
ATOM     39  H   LIG d   1       9.514   7.420  -1.591  0.00  0.00     0.082 H 
ATOM     40  H   LIG d   1       8.494   6.622  -2.813  0.00  0.00     0.082 H 
ATOM     41  N   LIG d   1      10.391   7.245  -3.493  0.00  0.00     0.227 N 
ATOM     42  C   LIG d   1      10.374   6.345  -4.662  0.00  0.00    -0.033 C 
ATOM     43  H   LIG d   1      10.063   8.175  -3.778  0.00  0.00     0.201 HD
ATOM     44  H   LIG d   1      11.350   7.315  -3.133  0.00  0.00     0.201 HD
ATOM     45  C   LIG d   1      10.908   4.968  -4.261  0.00  0.00    -0.009 C 
ATOM     46  H   LIG d   1       9.355   6.245  -5.034  0.00  0.00     0.081 H 
ATOM     47  H   LIG d   1      11.007   6.766  -5.444  0.00  0.00     0.081 H 
ATOM     48  H   LIG d   1      10.887   4.303  -5.124  0.00  0.00     0.032 H 
ATOM     49  H   LIG d   1      11.933   5.065  -3.902  0.00  0.00     0.032 H 
BRANCH  36  50
ATOM     50  C   LIG d   1      11.436   5.503  -1.407  0.00  0.00     0.001 C 
ATOM     51  H   LIG d   1      11.855   4.514  -1.218  0.00  0.00     0.033 H 
ATOM     52  H   LIG d   1      12.058   6.028  -2.131  0.00  0.00     0.033 H 
BRANCH  50  53
ATOM     53  C   LIG d   1      11.394   6.284  -0.119  0.00  0.00     0.085 A 
ATOM     54  N   LIG d   1      10.954   5.863   1.032  0.00  0.00    -0.083 NA
ATOM     55  O   LIG d   1      11.048   6.710   1.889  0.00  0.00    -0.353 OA
ATOM     56  C   LIG d   1      11.573   7.849   1.401  0.00  0.00     0.183 A 
ATOM     57  C   LIG d   1      11.819   7.617   0.075  0.00  0.00     0.009 A 
ATOM     58  H   LIG d   1      12.240   8.295  -0.654  0.00  0.00     0.068 H 
BRANCH  56  59
ATOM     59  C   LIG d   1      11.830   9.096   2.145  0.00  0.00     0.110 C 
ATOM     60  O   LIG d   1      11.664  10.171   1.604  0.00  0.00    -0.541 OA
ATOM     61  O   LIG d   1      12.250   9.043   3.424  0.00  0.00    -0.541 OA
ENDBRANCH  56  59
ENDBRANCH  50  53
ENDBRANCH  36  50
ENDBRANCH   1  34
TORSDOF 9
ENDMDL
MODEL 9
REMARK VINA RESULT:      -6.3     10.903     14.327
REMARK  9 active torsions:
REMARK  status: ('A' for Active; 'I' for Inactive)
REMARK    1  A    between atoms: C_1  and  O_2 
REMARK    2  A    between atoms: O_2  and  C_3 
REMARK    3  A    between atoms: C_8  and  O_9 
REMARK    4  A    between atoms: O_9  and  C_10 
REMARK       I    between atoms: N_12  and  C_15 
REMARK    5  A    between atoms: C_15  and  C_17 
REMARK    6  A    between atoms: C_17  and  C_18 
REMARK    7  A    between atoms: C_23  and  C_25 
REMARK    8  A    between atoms: C_25  and  C_26 
REMARK    9  A    between atoms: C_28  and  C_31 
ROOT
ATOM      1  C   LIG d   1      11.303   6.313  -6.382  0.00  0.00     0.028 C 
ATOM      2  H   LIG d   1      12.259   6.084  -6.853  0.00  0.00     0.036 H 
ATOM      3  H   LIG d   1      11.422   7.166  -5.715  0.00  0.00     0.036 H 
ENDROOT
BRANCH   1   4
ATOM      4  C   LIG d   1      10.835   5.118  -5.591  0.00  0.00     0.216 C 
ATOM      5  N   LIG d   1      10.210   5.294  -4.410  0.00  0.00    -0.297 N 
ATOM      6  C   LIG d   1       9.978   6.635  -3.862  0.00  0.00     0.040 C 
ATOM      7  C   LIG d   1       9.741   4.149  -3.613  0.00  0.00     0.019 C 
ATOM      8  C   LIG d   1      10.315   6.656  -2.398  0.00  0.00    -0.023 A 
ATOM      9  H   LIG d   1      10.604   7.356  -4.389  0.00  0.00     0.051 H 
ATOM     10  H   LIG d   1       8.929   6.903  -3.994  0.00  0.00     0.051 H 
ATOM     11  C   LIG d   1      10.562   5.504  -1.681  0.00  0.00    -0.037 A 
ATOM     12  C   LIG d   1      10.374   7.891  -1.765  0.00  0.00    -0.011 A 
ATOM     13  C   LIG d   1      10.856   5.588  -0.326  0.00  0.00    -0.013 A 
ATOM     14  C   LIG d   1      10.528   4.133  -2.304  0.00  0.00    -0.011 C 
ATOM     15  C   LIG d   1      10.911   6.814   0.310  0.00  0.00     0.162 A 
ATOM     16  H   LIG d   1      11.044   4.685   0.236  0.00  0.00     0.066 H 
ATOM     17  C   LIG d   1      10.670   7.977  -0.417  0.00  0.00     0.162 A 
ATOM     18  H   LIG d   1      10.057   3.436  -1.611  0.00  0.00     0.033 H 
ATOM     19  H   LIG d   1      11.548   3.806  -2.504  0.00  0.00     0.033 H 
ATOM     20  H   LIG d   1      10.188   8.791  -2.331  0.00  0.00     0.066 H 
ATOM     21  H   LIG d   1       8.677   4.257  -3.402  0.00  0.00     0.047 H 
ATOM     22  H   LIG d   1       9.916   3.222  -4.160  0.00  0.00     0.047 H 
ATOM     23  O   LIG d   1      11.020   3.998  -6.018  0.00  0.00    -0.276 OA
BRANCH  15  24
ATOM     24  O   LIG d   1      11.200   6.885   1.636  0.00  0.00    -0.491 OA
BRANCH  24  25
ATOM     25  C   LIG d   1      10.911   5.729   2.424  0.00  0.00     0.079 C 
ATOM     26  H   LIG d   1      10.398   6.029   3.338  0.00  0.00     0.066 H 
ATOM     27  H   LIG d   1      10.273   5.051   1.856  0.00  0.00     0.066 H 
ATOM     28  H   LIG d   1      11.842   5.222   2.681  0.00  0.00     0.066 H 
ENDBRANCH  24  25
ENDBRANCH  15  24
BRANCH  17  29
ATOM     29  O   LIG d   1      10.726   9.190   0.195  0.00  0.00    -0.491 OA
BRANCH  29  30
ATOM     30  C   LIG d   1      11.718  10.106  -0.271  0.00  0.00     0.079 C 
ATOM     31  H   LIG d   1      12.082  10.704   0.565  0.00  0.00     0.066 H 
ATOM     32  H   LIG d   1      12.548   9.552  -0.710  0.00  0.00     0.066 H 
ATOM     33  H   LIG d   1      11.282  10.763  -1.023  0.00  0.00     0.066 H 
ENDBRANCH  29  30
ENDBRANCH  17  29
ENDBRANCH   1   4
BRANCH   1  34
ATOM     34  C   LIG d   1      10.270   6.647  -7.460  0.00  0.00    -0.020 C 
ATOM     35  H   LIG d   1       9.468   5.908  -7.438  0.00  0.00     0.031 H 
ATOM     36  C   LIG d   1       9.690   8.040  -7.198  0.00  0.00     0.008 C 
ATOM     37  C   LIG d   1       8.702   8.394  -8.311  0.00  0.00    -0.030 C 
ATOM     38  H   LIG d   1       9.173   8.044  -6.238  0.00  0.00     0.036 H 
ATOM     39  H   LIG d   1       8.298   9.391  -8.136  0.00  0.00     0.082 H 
ATOM     40  H   LIG d   1       7.888   7.668  -8.319  0.00  0.00     0.082 H 
ATOM     41  N   LIG d   1       9.394   8.378  -9.614  0.00  0.00     0.227 N 
ATOM     42  C   LIG d   1       9.917   7.028  -9.901  0.00  0.00    -0.033 C 
ATOM     43  H   LIG d   1       8.734   8.648 -10.352  0.00  0.00     0.201 HD
ATOM     44  H   LIG d   1      10.174   9.045  -9.591  0.00  0.00     0.201 HD
ATOM     45  C   LIG d   1      10.941   6.633  -8.836  0.00  0.00    -0.009 C 
ATOM     46  H   LIG d   1       9.098   6.309  -9.902  0.00  0.00     0.081 H 
ATOM     47  H   LIG d   1      10.396   7.034 -10.881  0.00  0.00     0.081 H 
ATOM     48  H   LIG d   1      11.319   5.633  -9.046  0.00  0.00     0.032 H 
ATOM     49  H   LIG d   1      11.768   7.344  -8.844  0.00  0.00     0.032 H 
BRANCH  36  50
ATOM     50  C   LIG d   1      10.822   9.068  -7.173  0.00  0.00     0.001 C 
ATOM     51  H   LIG d   1      11.570   8.767  -6.439  0.00  0.00     0.033 H 
ATOM     52  H   LIG d   1      11.282   9.126  -8.158  0.00  0.00     0.033 H 
BRANCH  50  53
ATOM     53  C   LIG d   1      10.267  10.418  -6.797  0.00  0.00     0.085 A 
ATOM     54  N   LIG d   1       9.648  10.724  -5.693  0.00  0.00    -0.083 NA
ATOM     55  O   LIG d   1       9.319  11.887  -5.667  0.00  0.00    -0.353 OA
ATOM     56  C   LIG d   1       9.680  12.527  -6.795  0.00  0.00     0.183 A 
ATOM     57  C   LIG d   1      10.312  11.596  -7.575  0.00  0.00     0.009 A 
ATOM     58  H   LIG d   1      10.744  11.731  -8.556  0.00  0.00     0.068 H 
BRANCH  56  59
ATOM     59  C   LIG d   1       9.443  13.945  -7.124  0.00  0.00     0.110 C 
ATOM     60  O   LIG d   1       9.235  14.747  -6.235  0.00  0.00    -0.541 OA
ATOM     61  O   LIG d   1       9.454  14.349  -8.409  0.00  0.00    -0.541 OA
ENDBRANCH  56  59
ENDBRANCH  50  53
ENDBRANCH  36  50
ENDBRANCH   1  34
TORSDOF 9
ENDMDL
