MODEL 1
REMARK VINA RESULT:      -5.5      0.000      0.000
REMARK  12 active torsions:
REMARK  status: ('A' for Active; 'I' for Inactive)
REMARK    1  A    between atoms: C_1  and  C_2 
REMARK    2  A    between atoms: C_7  and  N_9 
REMARK    3  A    between atoms: N_9  and  C_10 
REMARK    4  A    between atoms: C_12  and  C_32 
REMARK    5  A    between atoms: C_15  and  O_31 
REMARK    6  A    between atoms: C_17  and  C_21 
REMARK    7  A    between atoms: C_21  and  C_23 
REMARK    8  A    between atoms: C_21  and  C_24 
REMARK       I    between atoms: C_24  and  N_26 
REMARK    9  A    between atoms: N_26  and  C_27 
REMARK   10  A    between atoms: C_27  and  C_28 
REMARK   11  A    between atoms: C_28  and  O_29 
REMARK   12  A    between atoms: O_29  and  C_30 
ROOT
ATOM      1  C   LIG d   1      11.547   6.196  -0.742  0.00  0.00     0.005 C 
ATOM      2  H   LIG d   1      12.498   6.165  -1.275  0.00  0.00     0.036 H 
ATOM      3  C   LIG d   1      11.350   7.578  -0.137  0.00  0.00     0.057 A 
ATOM      4  C   LIG d   1      10.533   8.476  -0.741  0.00  0.00     0.015 A 
ATOM      5  S   LIG d   1      10.648   9.888   0.324  0.00  0.00    -0.057 SA
ATOM      6  C   LIG d   1      11.752   9.196   1.475  0.00  0.00     0.158 A 
ATOM      7  N   LIG d   1      11.944   7.989   0.983  0.00  0.00    -0.229 NA
ATOM      8  C   LIG d   1       9.746   8.292  -1.990  0.00  0.00    -0.014 C 
ATOM      9  C   LIG d   1      10.256   7.039  -2.727  0.00  0.00    -0.022 C 
ATOM     10  C   LIG d   1      10.404   5.896  -1.719  0.00  0.00    -0.001 C 
ATOM     11  H   LIG d   1       9.473   5.769  -1.165  0.00  0.00     0.034 H 
ATOM     12  C   LIG d   1      10.751   4.594  -2.447  0.00  0.00     0.063 C 
ATOM     13  H   LIG d   1      11.709   4.708  -2.955  0.00  0.00     0.060 H 
ATOM     14  C   LIG d   1       9.672   4.258  -3.474  0.00  0.00    -0.004 C 
ATOM     15  H   LIG d   1       8.708   4.159  -2.973  0.00  0.00     0.033 H 
ATOM     16  C   LIG d   1       9.603   5.390  -4.505  0.00  0.00    -0.047 C 
ATOM     17  C   LIG d   1       9.210   6.679  -3.787  0.00  0.00    -0.047 C 
ATOM     18  H   LIG d   1       8.691   8.166  -1.741  0.00  0.00     0.032 H 
ATOM     19  H   LIG d   1       9.866   9.167  -2.630  0.00  0.00     0.032 H 
ATOM     20  H   LIG d   1       8.856   5.150  -5.262  0.00  0.00     0.027 H 
ATOM     21  H   LIG d   1      10.577   5.517  -4.979  0.00  0.00     0.027 H 
ATOM     22  H   LIG d   1       8.241   6.543  -3.306  0.00  0.00     0.027 H 
ATOM     23  H   LIG d   1       9.139   7.488  -4.513  0.00  0.00     0.027 H 
ENDROOT
BRANCH  14  24
ATOM     24  C   LIG d   1      10.024   2.947  -4.180  0.00  0.00     0.038 C 
ATOM     25  H   LIG d   1      10.661   2.346  -3.531  0.00  0.00     0.040 H 
BRANCH  24  26
ATOM     26  C   LIG d   1      10.764   3.252  -5.482  0.00  0.00    -0.054 C 
ATOM     27  H   LIG d   1      11.201   4.250  -5.428  0.00  0.00     0.024 H 
ATOM     28  H   LIG d   1      11.556   2.518  -5.632  0.00  0.00     0.024 H 
ATOM     29  H   LIG d   1      10.066   3.207  -6.318  0.00  0.00     0.024 H 
ENDBRANCH  24  26
BRANCH  24  30
ATOM     30  C   LIG d   1       8.760   2.186  -4.487  0.00  0.00     0.216 C 
ATOM     31  O   LIG d   1       8.077   2.503  -5.438  0.00  0.00    -0.276 OA
ATOM     32  N   LIG d   1       8.387   1.155  -3.703  0.00  0.00    -0.313 N 
ATOM     33  H   LIG d   1       8.933   0.901  -2.943  0.00  0.00     0.149 HD
BRANCH  32  34
ATOM     34  C   LIG d   1       7.158   0.414  -4.002  0.00  0.00     0.035 C 
ATOM     35  H   LIG d   1       6.758   0.748  -4.959  0.00  0.00     0.048 H 
ATOM     36  H   LIG d   1       7.380  -0.652  -4.053  0.00  0.00     0.048 H 
BRANCH  34  37
ATOM     37  C   LIG d   1       6.129   0.669  -2.900  0.00  0.00     0.063 C 
ATOM     38  H   LIG d   1       5.653  -0.271  -2.622  0.00  0.00     0.058 H 
ATOM     39  H   LIG d   1       6.626   1.097  -2.029  0.00  0.00     0.058 H 
BRANCH  37  40
ATOM     40  O   LIG d   1       5.136   1.581  -3.377  0.00  0.00    -0.381 OA
BRANCH  40  41
ATOM     41  C   LIG d   1       3.871   1.457  -2.725  0.00  0.00     0.036 C 
ATOM     42  H   LIG d   1       3.342   0.592  -3.122  0.00  0.00     0.052 H 
ATOM     43  H   LIG d   1       4.026   1.327  -1.653  0.00  0.00     0.052 H 
ATOM     44  H   LIG d   1       3.282   2.356  -2.900  0.00  0.00     0.052 H 
ENDBRANCH  40  41
ENDBRANCH  37  40
ENDBRANCH  34  37
ENDBRANCH  32  34
ENDBRANCH  24  30
ENDBRANCH  14  24
BRANCH  12  45
ATOM     45  O   LIG d   1      10.844   3.531  -1.496  0.00  0.00    -0.391 OA
ATOM     46  H   LIG d   1      11.707   3.461  -1.067  0.00  0.00     0.210 HD
ENDBRANCH  12  45
BRANCH   1  47
ATOM     47  C   LIG d   1      11.553   5.149   0.373  0.00  0.00    -0.057 C 
ATOM     48  H   LIG d   1      11.300   5.625   1.321  0.00  0.00     0.024 H 
ATOM     49  H   LIG d   1      10.818   4.375   0.148  0.00  0.00     0.024 H 
ATOM     50  H   LIG d   1      12.543   4.699   0.445  0.00  0.00     0.024 H 
ENDBRANCH   1  47
BRANCH   9  51
ATOM     51  C   LIG d   1      11.606   7.333  -3.385  0.00  0.00    -0.059 C 
ATOM     52  H   LIG d   1      11.481   8.109  -4.140  0.00  0.00     0.024 H 
ATOM     53  H   LIG d   1      12.312   7.673  -2.628  0.00  0.00     0.024 H 
ATOM     54  H   LIG d   1      11.986   6.427  -3.855  0.00  0.00     0.024 H 
ENDBRANCH   9  51
BRANCH   6  55
ATOM     55  N   LIG d   1      12.292   9.767   2.617  0.00  0.00    -0.327 N 
ATOM     56  H   LIG d   1      12.431   9.226   3.411  0.00  0.00     0.148 HD
BRANCH  55  57
ATOM     57  C   LIG d   1      12.652  11.187   2.626  0.00  0.00    -0.001 C 
ATOM     58  H   LIG d   1      13.306  11.402   1.781  0.00  0.00     0.043 H 
ATOM     59  H   LIG d   1      11.748  11.792   2.550  0.00  0.00     0.043 H 
ATOM     60  H   LIG d   1      13.171  11.424   3.556  0.00  0.00     0.043 H 
ENDBRANCH  55  57
ENDBRANCH   6  55
TORSDOF 12
ENDMDL
MODEL 2
REMARK VINA RESULT:      -5.3      2.551      3.113
REMARK  12 active torsions:
REMARK  status: ('A' for Active; 'I' for Inactive)
REMARK    1  A    between atoms: C_1  and  C_2 
REMARK    2  A    between atoms: C_7  and  N_9 
REMARK    3  A    between atoms: N_9  and  C_10 
REMARK    4  A    between atoms: C_12  and  C_32 
REMARK    5  A    between atoms: C_15  and  O_31 
REMARK    6  A    between atoms: C_17  and  C_21 
REMARK    7  A    between atoms: C_21  and  C_23 
REMARK    8  A    between atoms: C_21  and  C_24 
REMARK       I    between atoms: C_24  and  N_26 
REMARK    9  A    between atoms: N_26  and  C_27 
REMARK   10  A    between atoms: C_27  and  C_28 
REMARK   11  A    between atoms: C_28  and  O_29 
REMARK   12  A    between atoms: O_29  and  C_30 
ROOT
ATOM      1  C   LIG d   1      10.222   7.887  -2.426  0.00  0.00     0.005 C 
ATOM      2  H   LIG d   1      11.300   7.767  -2.322  0.00  0.00     0.036 H 
ATOM      3  C   LIG d   1       9.916   9.267  -2.987  0.00  0.00     0.057 A 
ATOM      4  C   LIG d   1       9.611   9.417  -4.300  0.00  0.00     0.015 A 
ATOM      5  S   LIG d   1       9.353  11.164  -4.445  0.00  0.00    -0.057 SA
ATOM      6  C   LIG d   1       9.661  11.563  -2.781  0.00  0.00     0.158 A 
ATOM      7  N   LIG d   1       9.928  10.383  -2.259  0.00  0.00    -0.229 NA
ATOM      8  C   LIG d   1       9.523   8.356  -5.339  0.00  0.00    -0.014 C 
ATOM      9  C   LIG d   1      10.179   7.069  -4.803  0.00  0.00    -0.022 C 
ATOM     10  C   LIG d   1       9.678   6.814  -3.378  0.00  0.00    -0.001 C 
ATOM     11  H   LIG d   1       8.589   6.828  -3.361  0.00  0.00     0.034 H 
ATOM     12  C   LIG d   1      10.183   5.457  -2.878  0.00  0.00     0.063 C 
ATOM     13  H   LIG d   1      11.273   5.467  -2.845  0.00  0.00     0.060 H 
ATOM     14  C   LIG d   1       9.716   4.342  -3.811  0.00  0.00    -0.004 C 
ATOM     15  H   LIG d   1       8.627   4.339  -3.859  0.00  0.00     0.033 H 
ATOM     16  C   LIG d   1      10.295   4.593  -5.207  0.00  0.00    -0.047 C 
ATOM     17  C   LIG d   1       9.754   5.923  -5.726  0.00  0.00    -0.047 C 
ATOM     18  H   LIG d   1       8.475   8.161  -5.574  0.00  0.00     0.032 H 
ATOM     19  H   LIG d   1      10.042   8.683  -6.241  0.00  0.00     0.032 H 
ATOM     20  H   LIG d   1       9.993   3.789  -5.878  0.00  0.00     0.027 H 
ATOM     21  H   LIG d   1      11.383   4.637  -5.154  0.00  0.00     0.027 H 
ATOM     22  H   LIG d   1       8.665   5.879  -5.768  0.00  0.00     0.027 H 
ATOM     23  H   LIG d   1      10.143   6.105  -6.728  0.00  0.00     0.027 H 
ENDROOT
BRANCH  14  24
ATOM     24  C   LIG d   1      10.214   2.993  -3.289  0.00  0.00     0.038 C 
ATOM     25  H   LIG d   1      10.109   2.962  -2.204  0.00  0.00     0.040 H 
BRANCH  24  26
ATOM     26  C   LIG d   1      11.686   2.813  -3.664  0.00  0.00    -0.054 C 
ATOM     27  H   LIG d   1      11.819   3.026  -4.725  0.00  0.00     0.024 H 
ATOM     28  H   LIG d   1      12.297   3.497  -3.077  0.00  0.00     0.024 H 
ATOM     29  H   LIG d   1      11.991   1.787  -3.459  0.00  0.00     0.024 H 
ENDBRANCH  24  26
BRANCH  24  30
ATOM     30  C   LIG d   1       9.400   1.884  -3.904  0.00  0.00     0.216 C 
ATOM     31  O   LIG d   1       9.939   1.047  -4.595  0.00  0.00    -0.276 OA
ATOM     32  N   LIG d   1       8.071   1.825  -3.688  0.00  0.00    -0.313 N 
ATOM     33  H   LIG d   1       7.639   2.495  -3.135  0.00  0.00     0.149 HD
BRANCH  32  34
ATOM     34  C   LIG d   1       7.278   0.747  -4.286  0.00  0.00     0.035 C 
ATOM     35  H   LIG d   1       6.734   1.133  -5.148  0.00  0.00     0.048 H 
ATOM     36  H   LIG d   1       7.940  -0.057  -4.603  0.00  0.00     0.048 H 
BRANCH  34  37
ATOM     37  C   LIG d   1       6.284   0.212  -3.253  0.00  0.00     0.063 C 
ATOM     38  H   LIG d   1       5.497  -0.344  -3.761  0.00  0.00     0.058 H 
ATOM     39  H   LIG d   1       6.803  -0.445  -2.555  0.00  0.00     0.058 H 
BRANCH  37  40
ATOM     40  O   LIG d   1       5.706   1.307  -2.537  0.00  0.00    -0.381 OA
BRANCH  40  41
ATOM     41  C   LIG d   1       4.562   0.952  -1.757  0.00  0.00     0.036 C 
ATOM     42  H   LIG d   1       3.921   0.287  -2.336  0.00  0.00     0.052 H 
ATOM     43  H   LIG d   1       4.885   0.444  -0.848  0.00  0.00     0.052 H 
ATOM     44  H   LIG d   1       4.008   1.852  -1.494  0.00  0.00     0.052 H 
ENDBRANCH  40  41
ENDBRANCH  37  40
ENDBRANCH  34  37
ENDBRANCH  32  34
ENDBRANCH  24  30
ENDBRANCH  14  24
BRANCH  12  45
ATOM     45  O   LIG d   1       9.674   5.218  -1.564  0.00  0.00    -0.391 OA
ATOM     46  H   LIG d   1       8.953   4.574  -1.532  0.00  0.00     0.210 HD
ENDBRANCH  12  45
BRANCH   1  47
ATOM     47  C   LIG d   1       9.557   7.736  -1.056  0.00  0.00    -0.057 C 
ATOM     48  H   LIG d   1       9.209   6.710  -0.932  0.00  0.00     0.024 H 
ATOM     49  H   LIG d   1      10.280   7.970  -0.274  0.00  0.00     0.024 H 
ATOM     50  H   LIG d   1       8.711   8.418  -0.985  0.00  0.00     0.024 H 
ENDBRANCH   1  47
BRANCH   9  51
ATOM     51  C   LIG d   1      11.701   7.220  -4.802  0.00  0.00    -0.059 C 
ATOM     52  H   LIG d   1      12.013   7.760  -3.907  0.00  0.00     0.024 H 
ATOM     53  H   LIG d   1      12.164   6.234  -4.810  0.00  0.00     0.024 H 
ATOM     54  H   LIG d   1      12.012   7.775  -5.686  0.00  0.00     0.024 H 
ENDBRANCH   9  51
BRANCH   6  55
ATOM     55  N   LIG d   1       9.633  12.804  -2.163  0.00  0.00    -0.327 N 
ATOM     56  H   LIG d   1      10.085  12.933  -1.314  0.00  0.00     0.148 HD
BRANCH  55  57
ATOM     57  C   LIG d   1       8.922  13.920  -2.792  0.00  0.00    -0.001 C 
ATOM     58  H   LIG d   1       9.471  14.251  -3.673  0.00  0.00     0.043 H 
ATOM     59  H   LIG d   1       7.924  13.595  -3.085  0.00  0.00     0.043 H 
ATOM     60  H   LIG d   1       8.842  14.744  -2.083  0.00  0.00     0.043 H 
ENDBRANCH  55  57
ENDBRANCH   6  55
TORSDOF 12
ENDMDL
MODEL 3
REMARK VINA RESULT:      -5.1      4.570      8.346
REMARK  12 active torsions:
REMARK  status: ('A' for Active; 'I' for Inactive)
REMARK    1  A    between atoms: C_1  and  C_2 
REMARK    2  A    between atoms: C_7  and  N_9 
REMARK    3  A    between atoms: N_9  and  C_10 
REMARK    4  A    between atoms: C_12  and  C_32 
REMARK    5  A    between atoms: C_15  and  O_31 
REMARK    6  A    between atoms: C_17  and  C_21 
REMARK    7  A    between atoms: C_21  and  C_23 
REMARK    8  A    between atoms: C_21  and  C_24 
REMARK       I    between atoms: C_24  and  N_26 
REMARK    9  A    between atoms: N_26  and  C_27 
REMARK   10  A    between atoms: C_27  and  C_28 
REMARK   11  A    between atoms: C_28  and  O_29 
REMARK   12  A    between atoms: O_29  and  C_30 
ROOT
ATOM      1  C   LIG d   1      10.150   7.219  -6.311  0.00  0.00     0.005 C 
ATOM      2  H   LIG d   1      11.220   7.426  -6.307  0.00  0.00     0.036 H 
ATOM      3  C   LIG d   1       9.772   6.524  -7.610  0.00  0.00     0.057 A 
ATOM      4  C   LIG d   1       9.580   5.181  -7.633  0.00  0.00     0.015 A 
ATOM      5  S   LIG d   1       9.175   4.874  -9.331  0.00  0.00    -0.057 SA
ATOM      6  C   LIG d   1       9.287   6.520  -9.877  0.00  0.00     0.158 A 
ATOM      7  N   LIG d   1       9.611   7.157  -8.771  0.00  0.00    -0.229 NA
ATOM      8  C   LIG d   1       9.688   4.228  -6.496  0.00  0.00    -0.014 C 
ATOM      9  C   LIG d   1      10.407   4.922  -5.323  0.00  0.00    -0.022 C 
ATOM     10  C   LIG d   1       9.801   6.314  -5.123  0.00  0.00    -0.001 C 
ATOM     11  H   LIG d   1       8.718   6.235  -5.029  0.00  0.00     0.034 H 
ATOM     12  C   LIG d   1      10.380   6.964  -3.863  0.00  0.00     0.063 C 
ATOM     13  H   LIG d   1      11.456   7.090  -3.984  0.00  0.00     0.060 H 
ATOM     14  C   LIG d   1      10.108   6.088  -2.643  0.00  0.00    -0.004 C 
ATOM     15  H   LIG d   1       9.033   5.945  -2.527  0.00  0.00     0.033 H 
ATOM     16  C   LIG d   1      10.790   4.731  -2.849  0.00  0.00    -0.047 C 
ATOM     17  C   LIG d   1      10.179   4.061  -4.077  0.00  0.00    -0.047 C 
ATOM     18  H   LIG d   1       8.690   3.920  -6.182  0.00  0.00     0.032 H 
ATOM     19  H   LIG d   1      10.258   3.352  -6.807  0.00  0.00     0.032 H 
ATOM     20  H   LIG d   1      10.629   4.104  -1.972  0.00  0.00     0.027 H 
ATOM     21  H   LIG d   1      11.860   4.874  -3.005  0.00  0.00     0.027 H 
ATOM     22  H   LIG d   1       9.108   3.929  -3.921  0.00  0.00     0.027 H 
ATOM     23  H   LIG d   1      10.643   3.085  -4.224  0.00  0.00     0.027 H 
ENDROOT
BRANCH  14  24
ATOM     24  C   LIG d   1      10.678   6.759  -1.391  0.00  0.00     0.038 C 
ATOM     25  H   LIG d   1      11.692   7.102  -1.594  0.00  0.00     0.040 H 
BRANCH  24  26
ATOM     26  C   LIG d   1      10.699   5.753  -0.239  0.00  0.00    -0.054 C 
ATOM     27  H   LIG d   1       9.710   5.308  -0.126  0.00  0.00     0.024 H 
ATOM     28  H   LIG d   1      11.427   4.971  -0.453  0.00  0.00     0.024 H 
ATOM     29  H   LIG d   1      10.975   6.263   0.684  0.00  0.00     0.024 H 
ENDBRANCH  24  26
BRANCH  24  30
ATOM     30  C   LIG d   1       9.814   7.935  -1.015  0.00  0.00     0.216 C 
ATOM     31  O   LIG d   1       8.616   7.793  -0.889  0.00  0.00    -0.276 OA
ATOM     32  N   LIG d   1      10.373   9.146  -0.820  0.00  0.00    -0.313 N 
ATOM     33  H   LIG d   1      11.331   9.260  -0.920  0.00  0.00     0.149 HD
BRANCH  32  34
ATOM     34  C   LIG d   1       9.534  10.290  -0.454  0.00  0.00     0.035 C 
ATOM     35  H   LIG d   1       8.484  10.018  -0.559  0.00  0.00     0.048 H 
ATOM     36  H   LIG d   1       9.735  10.572   0.580  0.00  0.00     0.048 H 
BRANCH  34  37
ATOM     37  C   LIG d   1       9.850  11.470  -1.375  0.00  0.00     0.063 C 
ATOM     38  H   LIG d   1       9.222  12.319  -1.106  0.00  0.00     0.058 H 
ATOM     39  H   LIG d   1      10.900  11.745  -1.266  0.00  0.00     0.058 H 
BRANCH  37  40
ATOM     40  O   LIG d   1       9.593  11.098  -2.731  0.00  0.00    -0.381 OA
BRANCH  40  41
ATOM     41  C   LIG d   1       8.427  11.708  -3.290  0.00  0.00     0.036 C 
ATOM     42  H   LIG d   1       7.645  11.756  -2.533  0.00  0.00     0.052 H 
ATOM     43  H   LIG d   1       8.671  12.717  -3.624  0.00  0.00     0.052 H 
ATOM     44  H   LIG d   1       8.079  11.119  -4.137  0.00  0.00     0.052 H 
ENDBRANCH  40  41
ENDBRANCH  37  40
ENDBRANCH  34  37
ENDBRANCH  32  34
ENDBRANCH  24  30
ENDBRANCH  14  24
BRANCH  12  45
ATOM     45  O   LIG d   1       9.773   8.244  -3.670  0.00  0.00    -0.391 OA
ATOM     46  H   LIG d   1       9.520   8.688  -4.490  0.00  0.00     0.210 HD
ENDBRANCH  12  45
BRANCH   1  47
ATOM     47  C   LIG d   1       9.376   8.534  -6.194  0.00  0.00    -0.057 C 
ATOM     48  H   LIG d   1       8.372   8.333  -5.820  0.00  0.00     0.024 H 
ATOM     49  H   LIG d   1       9.894   9.200  -5.503  0.00  0.00     0.024 H 
ATOM     50  H   LIG d   1       9.312   9.007  -7.173  0.00  0.00     0.024 H 
ENDBRANCH   1  47
BRANCH   9  51
ATOM     51  C   LIG d   1      11.902   5.043  -5.625  0.00  0.00    -0.059 C 
ATOM     52  H   LIG d   1      12.457   4.347  -4.995  0.00  0.00     0.024 H 
ATOM     53  H   LIG d   1      12.082   4.806  -6.673  0.00  0.00     0.024 H 
ATOM     54  H   LIG d   1      12.233   6.060  -5.420  0.00  0.00     0.024 H 
ENDBRANCH   9  51
BRANCH   6  55
ATOM     55  N   LIG d   1       9.086   7.031 -11.151  0.00  0.00    -0.327 N 
ATOM     56  H   LIG d   1       8.908   7.977 -11.271  0.00  0.00     0.148 HD
BRANCH  55  57
ATOM     57  C   LIG d   1       9.143   6.142 -12.314  0.00  0.00    -0.001 C 
ATOM     58  H   LIG d   1       8.912   6.709 -13.216  0.00  0.00     0.043 H 
ATOM     59  H   LIG d   1      10.143   5.717 -12.397  0.00  0.00     0.043 H 
ATOM     60  H   LIG d   1       8.414   5.340 -12.194  0.00  0.00     0.043 H 
ENDBRANCH  55  57
ENDBRANCH   6  55
TORSDOF 12
ENDMDL
MODEL 4
REMARK VINA RESULT:      -5.1      9.858     12.842
REMARK  12 active torsions:
REMARK  status: ('A' for Active; 'I' for Inactive)
REMARK    1  A    between atoms: C_1  and  C_2 
REMARK    2  A    between atoms: C_7  and  N_9 
REMARK    3  A    between atoms: N_9  and  C_10 
REMARK    4  A    between atoms: C_12  and  C_32 
REMARK    5  A    between atoms: C_15  and  O_31 
REMARK    6  A    between atoms: C_17  and  C_21 
REMARK    7  A    between atoms: C_21  and  C_23 
REMARK    8  A    between atoms: C_21  and  C_24 
REMARK       I    between atoms: C_24  and  N_26 
REMARK    9  A    between atoms: N_26  and  C_27 
REMARK   10  A    between atoms: C_27  and  C_28 
REMARK   11  A    between atoms: C_28  and  O_29 
REMARK   12  A    between atoms: O_29  and  C_30 
ROOT
ATOM      1  C   LIG d   1       4.495  -2.762  -7.708  0.00  0.00     0.005 C 
ATOM      2  H   LIG d   1       5.276  -2.691  -8.465  0.00  0.00     0.036 H 
ATOM      3  C   LIG d   1       4.922  -1.999  -6.464  0.00  0.00     0.057 A 
ATOM      4  C   LIG d   1       4.426  -0.760  -6.220  0.00  0.00     0.015 A 
ATOM      5  S   LIG d   1       5.217  -0.315  -4.697  0.00  0.00    -0.057 SA
ATOM      6  C   LIG d   1       6.131  -1.779  -4.497  0.00  0.00     0.158 A 
ATOM      7  N   LIG d   1       5.781  -2.472  -5.562  0.00  0.00    -0.229 NA
ATOM      8  C   LIG d   1       3.457   0.009  -7.046  0.00  0.00    -0.014 C 
ATOM      9  C   LIG d   1       3.346  -0.648  -8.435  0.00  0.00    -0.022 C 
ATOM     10  C   LIG d   1       3.195  -2.161  -8.257  0.00  0.00    -0.001 C 
ATOM     11  H   LIG d   1       2.375  -2.373  -7.571  0.00  0.00     0.034 H 
ATOM     12  C   LIG d   1       2.917  -2.825  -9.610  0.00  0.00     0.063 C 
ATOM     13  H   LIG d   1       3.764  -2.657 -10.276  0.00  0.00     0.060 H 
ATOM     14  C   LIG d   1       1.656  -2.237 -10.238  0.00  0.00    -0.004 C 
ATOM     15  H   LIG d   1       0.809  -2.389  -9.569  0.00  0.00     0.033 H 
ATOM     16  C   LIG d   1       1.872  -0.737 -10.466  0.00  0.00    -0.047 C 
ATOM     17  C   LIG d   1       2.101  -0.067  -9.114  0.00  0.00    -0.047 C 
ATOM     18  H   LIG d   1       2.480   0.005  -6.561  0.00  0.00     0.032 H 
ATOM     19  H   LIG d   1       3.805   1.037  -7.154  0.00  0.00     0.032 H 
ATOM     20  H   LIG d   1       0.989  -0.309 -10.942  0.00  0.00     0.027 H 
ATOM     21  H   LIG d   1       2.743  -0.582 -11.103  0.00  0.00     0.027 H 
ATOM     22  H   LIG d   1       1.232  -0.235  -8.476  0.00  0.00     0.027 H 
ATOM     23  H   LIG d   1       2.237   1.004  -9.260  0.00  0.00     0.027 H 
ENDROOT
BRANCH  14  24
ATOM     24  C   LIG d   1       1.383  -2.922 -11.579  0.00  0.00     0.038 C 
ATOM     25  H   LIG d   1       2.156  -3.666 -11.770  0.00  0.00     0.040 H 
BRANCH  24  26
ATOM     26  C   LIG d   1       1.393  -1.877 -12.696  0.00  0.00    -0.054 C 
ATOM     27  H   LIG d   1       0.368  -1.593 -12.938  0.00  0.00     0.024 H 
ATOM     28  H   LIG d   1       1.944  -0.997 -12.366  0.00  0.00     0.024 H 
ATOM     29  H   LIG d   1       1.873  -2.295 -13.581  0.00  0.00     0.024 H 
ENDBRANCH  24  26
BRANCH  24  30
ATOM     30  C   LIG d   1       0.036  -3.596 -11.534  0.00  0.00     0.216 C 
ATOM     31  O   LIG d   1      -0.725  -3.494 -12.473  0.00  0.00    -0.276 OA
ATOM     32  N   LIG d   1      -0.324  -4.311 -10.450  0.00  0.00    -0.313 N 
ATOM     33  H   LIG d   1       0.285  -4.392  -9.699  0.00  0.00     0.149 HD
BRANCH  32  34
ATOM     34  C   LIG d   1      -1.633  -4.967 -10.405  0.00  0.00     0.035 C 
ATOM     35  H   LIG d   1      -2.410  -4.216 -10.259  0.00  0.00     0.048 H 
ATOM     36  H   LIG d   1      -1.808  -5.492 -11.344  0.00  0.00     0.048 H 
BRANCH  34  37
ATOM     37  C   LIG d   1      -1.664  -5.966  -9.247  0.00  0.00     0.063 C 
ATOM     38  H   LIG d   1      -1.371  -6.951  -9.610  0.00  0.00     0.058 H 
ATOM     39  H   LIG d   1      -0.972  -5.643  -8.470  0.00  0.00     0.058 H 
BRANCH  37  40
ATOM     40  O   LIG d   1      -2.988  -6.031  -8.710  0.00  0.00    -0.381 OA
BRANCH  40  41
ATOM     41  C   LIG d   1      -3.932  -5.202  -9.391  0.00  0.00     0.036 C 
ATOM     42  H   LIG d   1      -4.389  -4.513  -8.680  0.00  0.00     0.052 H 
ATOM     43  H   LIG d   1      -3.422  -4.635 -10.170  0.00  0.00     0.052 H 
ATOM     44  H   LIG d   1      -4.704  -5.824  -9.841  0.00  0.00     0.052 H 
ENDBRANCH  40  41
ENDBRANCH  37  40
ENDBRANCH  34  37
ENDBRANCH  32  34
ENDBRANCH  24  30
ENDBRANCH  14  24
BRANCH  12  45
ATOM     45  O   LIG d   1       2.739  -4.230  -9.419  0.00  0.00    -0.391 OA
ATOM     46  H   LIG d   1       3.074  -4.772 -10.146  0.00  0.00     0.210 HD
ENDBRANCH  12  45
BRANCH   1  47
ATOM     47  C   LIG d   1       4.265  -4.232  -7.350  0.00  0.00    -0.057 C 
ATOM     48  H   LIG d   1       5.216  -4.694  -7.082  0.00  0.00     0.024 H 
ATOM     49  H   LIG d   1       3.579  -4.297  -6.505  0.00  0.00     0.024 H 
ATOM     50  H   LIG d   1       3.837  -4.752  -8.206  0.00  0.00     0.024 H 
ENDBRANCH   1  47
BRANCH   9  51
ATOM     51  C   LIG d   1       4.598  -0.342  -9.260  0.00  0.00    -0.059 C 
ATOM     52  H   LIG d   1       4.927   0.677  -9.055  0.00  0.00     0.024 H 
ATOM     53  H   LIG d   1       5.389  -1.040  -8.991  0.00  0.00     0.024 H 
ATOM     54  H   LIG d   1       4.368  -0.442 -10.320  0.00  0.00     0.024 H 
ENDBRANCH   9  51
BRANCH   6  55
ATOM     55  N   LIG d   1       7.004  -2.129  -3.478  0.00  0.00    -0.327 N 
ATOM     56  H   LIG d   1       6.904  -1.734  -2.597  0.00  0.00     0.148 HD
BRANCH  55  57
ATOM     57  C   LIG d   1       8.077  -3.095  -3.731  0.00  0.00    -0.001 C 
ATOM     58  H   LIG d   1       8.255  -3.166  -4.804  0.00  0.00     0.043 H 
ATOM     59  H   LIG d   1       8.987  -2.765  -3.231  0.00  0.00     0.043 H 
ATOM     60  H   LIG d   1       7.783  -4.072  -3.345  0.00  0.00     0.043 H 
ENDBRANCH  55  57
ENDBRANCH   6  55
TORSDOF 12
ENDMDL
MODEL 5
REMARK VINA RESULT:      -5.0      7.659     13.075
REMARK  12 active torsions:
REMARK  status: ('A' for Active; 'I' for Inactive)
REMARK    1  A    between atoms: C_1  and  C_2 
REMARK    2  A    between atoms: C_7  and  N_9 
REMARK    3  A    between atoms: N_9  and  C_10 
REMARK    4  A    between atoms: C_12  and  C_32 
REMARK    5  A    between atoms: C_15  and  O_31 
REMARK    6  A    between atoms: C_17  and  C_21 
REMARK    7  A    between atoms: C_21  and  C_23 
REMARK    8  A    between atoms: C_21  and  C_24 
REMARK       I    between atoms: C_24  and  N_26 
REMARK    9  A    between atoms: N_26  and  C_27 
REMARK   10  A    between atoms: C_27  and  C_28 
REMARK   11  A    between atoms: C_28  and  O_29 
REMARK   12  A    between atoms: O_29  and  C_30 
ROOT
ATOM      1  C   LIG d   1       3.932  -2.238 -10.251  0.00  0.00     0.005 C 
ATOM      2  H   LIG d   1       2.920  -2.615 -10.100  0.00  0.00     0.036 H 
ATOM      3  C   LIG d   1       4.129  -1.884 -11.717  0.00  0.00     0.057 A 
ATOM      4  C   LIG d   1       4.065  -0.591 -12.120  0.00  0.00     0.015 A 
ATOM      5  S   LIG d   1       4.348  -0.711 -13.866  0.00  0.00    -0.057 SA
ATOM      6  C   LIG d   1       4.529  -2.439 -13.933  0.00  0.00     0.158 A 
ATOM      7  N   LIG d   1       4.367  -2.783 -12.671  0.00  0.00    -0.229 NA
ATOM      8  C   LIG d   1       3.818   0.612 -11.280  0.00  0.00    -0.014 C 
ATOM      9  C   LIG d   1       3.281   0.165  -9.907  0.00  0.00    -0.022 C 
ATOM     10  C   LIG d   1       4.145  -0.988  -9.388  0.00  0.00    -0.001 C 
ATOM     11  H   LIG d   1       5.196  -0.702  -9.411  0.00  0.00     0.034 H 
ATOM     12  C   LIG d   1       3.740  -1.345  -7.954  0.00  0.00     0.063 C 
ATOM     13  H   LIG d   1       2.703  -1.682  -7.944  0.00  0.00     0.060 H 
ATOM     14  C   LIG d   1       3.883  -0.126  -7.046  0.00  0.00    -0.004 C 
ATOM     15  H   LIG d   1       4.915   0.225  -7.064  0.00  0.00     0.033 H 
ATOM     16  C   LIG d   1       2.952   0.980  -7.554  0.00  0.00    -0.047 C 
ATOM     17  C   LIG d   1       3.385   1.370  -8.966  0.00  0.00    -0.047 C 
ATOM     18  H   LIG d   1       4.750   1.162 -11.147  0.00  0.00     0.032 H 
ATOM     19  H   LIG d   1       3.083   1.254 -11.769  0.00  0.00     0.032 H 
ATOM     20  H   LIG d   1       3.022   1.848  -6.898  0.00  0.00     0.027 H 
ATOM     21  H   LIG d   1       1.924   0.618  -7.574  0.00  0.00     0.027 H 
ATOM     22  H   LIG d   1       4.416   1.721  -8.943  0.00  0.00     0.027 H 
ATOM     23  H   LIG d   1       2.742   2.170  -9.332  0.00  0.00     0.027 H 
ENDROOT
BRANCH  14  24
ATOM     24  C   LIG d   1       3.492  -0.502  -5.615  0.00  0.00     0.038 C 
ATOM     25  H   LIG d   1       3.014  -1.482  -5.616  0.00  0.00     0.040 H 
BRANCH  24  26
ATOM     26  C   LIG d   1       2.519   0.540  -5.061  0.00  0.00    -0.054 C 
ATOM     27  H   LIG d   1       1.582   0.495  -5.617  0.00  0.00     0.024 H 
ATOM     28  H   LIG d   1       2.326   0.334  -4.009  0.00  0.00     0.024 H 
ATOM     29  H   LIG d   1       2.954   1.534  -5.163  0.00  0.00     0.024 H 
ENDBRANCH  24  26
BRANCH  24  30
ATOM     30  C   LIG d   1       4.726  -0.546  -4.751  0.00  0.00     0.216 C 
ATOM     31  O   LIG d   1       5.332  -1.587  -4.611  0.00  0.00    -0.276 OA
ATOM     32  N   LIG d   1       5.156   0.572  -4.134  0.00  0.00    -0.313 N 
ATOM     33  H   LIG d   1       4.672   1.405  -4.246  0.00  0.00     0.149 HD
BRANCH  32  34
ATOM     34  C   LIG d   1       6.356   0.530  -3.294  0.00  0.00     0.035 C 
ATOM     35  H   LIG d   1       6.201   1.146  -2.409  0.00  0.00     0.048 H 
ATOM     36  H   LIG d   1       6.552  -0.498  -2.991  0.00  0.00     0.048 H 
BRANCH  34  37
ATOM     37  C   LIG d   1       7.551   1.066  -4.086  0.00  0.00     0.063 C 
ATOM     38  H   LIG d   1       8.316   0.293  -4.156  0.00  0.00     0.058 H 
ATOM     39  H   LIG d   1       7.226   1.349  -5.087  0.00  0.00     0.058 H 
BRANCH  37  40
ATOM     40  O   LIG d   1       8.090   2.209  -3.418  0.00  0.00    -0.381 OA
BRANCH  40  41
ATOM     41  C   LIG d   1       9.497   2.381  -3.605  0.00  0.00     0.036 C 
ATOM     42  H   LIG d   1       9.697   3.403  -3.925  0.00  0.00     0.052 H 
ATOM     43  H   LIG d   1      10.014   2.188  -2.665  0.00  0.00     0.052 H 
ATOM     44  H   LIG d   1       9.850   1.686  -4.365  0.00  0.00     0.052 H 
ENDBRANCH  40  41
ENDBRANCH  37  40
ENDBRANCH  34  37
ENDBRANCH  32  34
ENDBRANCH  24  30
ENDBRANCH  14  24
BRANCH  12  45
ATOM     45  O   LIG d   1       4.582  -2.394  -7.472  0.00  0.00    -0.391 OA
ATOM     46  H   LIG d   1       4.198  -3.277  -7.555  0.00  0.00     0.210 HD
ENDBRANCH  12  45
BRANCH   1  47
ATOM     47  C   LIG d   1       4.942  -3.313  -9.846  0.00  0.00    -0.057 C 
ATOM     48  H   LIG d   1       4.464  -4.028  -9.176  0.00  0.00     0.024 H 
ATOM     49  H   LIG d   1       5.297  -3.832 -10.737  0.00  0.00     0.024 H 
ATOM     50  H   LIG d   1       5.786  -2.847  -9.337  0.00  0.00     0.024 H 
ENDBRANCH   1  47
BRANCH   9  51
ATOM     51  C   LIG d   1       1.826  -0.290 -10.037  0.00  0.00    -0.059 C 
ATOM     52  H   LIG d   1       1.486  -0.132 -11.061  0.00  0.00     0.024 H 
ATOM     53  H   LIG d   1       1.753  -1.348  -9.788  0.00  0.00     0.024 H 
ATOM     54  H   LIG d   1       1.203   0.288  -9.355  0.00  0.00     0.024 H 
ENDBRANCH   9  51
BRANCH   6  55
ATOM     55  N   LIG d   1       4.780  -3.247 -15.031  0.00  0.00    -0.327 N 
ATOM     56  H   LIG d   1       4.786  -4.212 -14.932  0.00  0.00     0.148 HD
BRANCH  55  57
ATOM     57  C   LIG d   1       5.036  -2.643 -16.341  0.00  0.00    -0.001 C 
ATOM     58  H   LIG d   1       5.431  -3.400 -17.019  0.00  0.00     0.043 H 
ATOM     59  H   LIG d   1       4.106  -2.243 -16.745  0.00  0.00     0.043 H 
ATOM     60  H   LIG d   1       5.762  -1.837 -16.234  0.00  0.00     0.043 H 
ENDBRANCH  55  57
ENDBRANCH   6  55
TORSDOF 12
ENDMDL
MODEL 6
REMARK VINA RESULT:      -4.9      8.448     10.105
REMARK  12 active torsions:
REMARK  status: ('A' for Active; 'I' for Inactive)
REMARK    1  A    between atoms: C_1  and  C_2 
REMARK    2  A    between atoms: C_7  and  N_9 
REMARK    3  A    between atoms: N_9  and  C_10 
REMARK    4  A    between atoms: C_12  and  C_32 
REMARK    5  A    between atoms: C_15  and  O_31 
REMARK    6  A    between atoms: C_17  and  C_21 
REMARK    7  A    between atoms: C_21  and  C_23 
REMARK    8  A    between atoms: C_21  and  C_24 
REMARK       I    between atoms: C_24  and  N_26 
REMARK    9  A    between atoms: N_26  and  C_27 
REMARK   10  A    between atoms: C_27  and  C_28 
REMARK   11  A    between atoms: C_28  and  O_29 
REMARK   12  A    between atoms: O_29  and  C_30 
ROOT
ATOM      1  C   LIG d   1       8.371  -0.919  -5.278  0.00  0.00     0.005 C 
ATOM      2  H   LIG d   1       8.356  -0.272  -4.400  0.00  0.00     0.036 H 
ATOM      3  C   LIG d   1       9.371  -2.045  -5.060  0.00  0.00     0.057 A 
ATOM      4  C   LIG d   1       8.938  -3.281  -4.707  0.00  0.00     0.015 A 
ATOM      5  S   LIG d   1      10.448  -4.200  -4.576  0.00  0.00    -0.057 SA
ATOM      6  C   LIG d   1      11.525  -2.901  -4.993  0.00  0.00     0.158 A 
ATOM      7  N   LIG d   1      10.689  -1.902  -5.193  0.00  0.00    -0.229 NA
ATOM      8  C   LIG d   1       7.535  -3.726  -4.491  0.00  0.00    -0.014 C 
ATOM      9  C   LIG d   1       6.626  -2.487  -4.375  0.00  0.00    -0.022 C 
ATOM     10  C   LIG d   1       6.973  -1.509  -5.501  0.00  0.00    -0.001 C 
ATOM     11  H   LIG d   1       6.943  -2.025  -6.461  0.00  0.00     0.034 H 
ATOM     12  C   LIG d   1       5.979  -0.344  -5.512  0.00  0.00     0.063 C 
ATOM     13  H   LIG d   1       6.050   0.201  -4.571  0.00  0.00     0.060 H 
ATOM     14  C   LIG d   1       4.554  -0.867  -5.685  0.00  0.00    -0.004 C 
ATOM     15  H   LIG d   1       4.481  -1.428  -6.617  0.00  0.00     0.033 H 
ATOM     16  C   LIG d   1       4.219  -1.784  -4.504  0.00  0.00    -0.047 C 
ATOM     17  C   LIG d   1       5.180  -2.970  -4.520  0.00  0.00    -0.047 C 
ATOM     18  H   LIG d   1       7.212  -4.337  -5.335  0.00  0.00     0.032 H 
ATOM     19  H   LIG d   1       7.475  -4.311  -3.573  0.00  0.00     0.032 H 
ATOM     20  H   LIG d   1       3.194  -2.142  -4.598  0.00  0.00     0.027 H 
ATOM     21  H   LIG d   1       4.331  -1.236  -3.567  0.00  0.00     0.027 H 
ATOM     22  H   LIG d   1       5.072  -3.508  -5.462  0.00  0.00     0.027 H 
ATOM     23  H   LIG d   1       4.939  -3.640  -3.695  0.00  0.00     0.027 H 
ENDROOT
BRANCH  14  24
ATOM     24  C   LIG d   1       3.575   0.309  -5.711  0.00  0.00     0.038 C 
ATOM     25  H   LIG d   1       4.103   1.226  -5.452  0.00  0.00     0.040 H 
BRANCH  24  26
ATOM     26  C   LIG d   1       2.455   0.061  -4.700  0.00  0.00    -0.054 C 
ATOM     27  H   LIG d   1       2.868  -0.409  -3.807  0.00  0.00     0.024 H 
ATOM     28  H   LIG d   1       1.994   1.011  -4.429  0.00  0.00     0.024 H 
ATOM     29  H   LIG d   1       1.704  -0.593  -5.141  0.00  0.00     0.024 H 
ENDBRANCH  24  26
BRANCH  24  30
ATOM     30  C   LIG d   1       2.985   0.441  -7.091  0.00  0.00     0.216 C 
ATOM     31  O   LIG d   1       2.880   1.535  -7.604  0.00  0.00    -0.276 OA
ATOM     32  N   LIG d   1       2.574  -0.657  -7.756  0.00  0.00    -0.313 N 
ATOM     33  H   LIG d   1       2.659  -1.533  -7.347  0.00  0.00     0.149 HD
BRANCH  32  34
ATOM     34  C   LIG d   1       2.001  -0.530  -9.099  0.00  0.00     0.035 C 
ATOM     35  H   LIG d   1       1.158  -1.213  -9.199  0.00  0.00     0.048 H 
ATOM     36  H   LIG d   1       1.660   0.494  -9.252  0.00  0.00     0.048 H 
BRANCH  34  37
ATOM     37  C   LIG d   1       3.065  -0.875 -10.142  0.00  0.00     0.063 C 
ATOM     38  H   LIG d   1       4.043  -0.919  -9.663  0.00  0.00     0.058 H 
ATOM     39  H   LIG d   1       2.835  -1.841 -10.591  0.00  0.00     0.058 H 
BRANCH  37  40
ATOM     40  O   LIG d   1       3.079   0.131 -11.159  0.00  0.00    -0.381 OA
BRANCH  40  41
ATOM     41  C   LIG d   1       4.038   1.168 -10.937  0.00  0.00     0.036 C 
ATOM     42  H   LIG d   1       4.788   1.142 -11.727  0.00  0.00     0.052 H 
ATOM     43  H   LIG d   1       3.535   2.135 -10.946  0.00  0.00     0.052 H 
ATOM     44  H   LIG d   1       4.519   1.017  -9.972  0.00  0.00     0.052 H 
ENDBRANCH  40  41
ENDBRANCH  37  40
ENDBRANCH  34  37
ENDBRANCH  32  34
ENDBRANCH  24  30
ENDBRANCH  14  24
BRANCH  12  45
ATOM     45  O   LIG d   1       6.293   0.536  -6.594  0.00  0.00    -0.391 OA
ATOM     46  H   LIG d   1       5.806   1.371  -6.576  0.00  0.00     0.210 HD
ENDBRANCH  12  45
BRANCH   1  47
ATOM     47  C   LIG d   1       8.782  -0.103  -6.505  0.00  0.00    -0.057 C 
ATOM     48  H   LIG d   1       8.430   0.923  -6.394  0.00  0.00     0.024 H 
ATOM     49  H   LIG d   1       9.868  -0.106  -6.597  0.00  0.00     0.024 H 
ATOM     50  H   LIG d   1       8.341  -0.544  -7.399  0.00  0.00     0.024 H 
ENDBRANCH   1  47
BRANCH   9  51
ATOM     51  C   LIG d   1       6.832  -1.813  -3.017  0.00  0.00    -0.059 C 
ATOM     52  H   LIG d   1       7.552  -1.000  -3.120  0.00  0.00     0.024 H 
ATOM     53  H   LIG d   1       5.883  -1.415  -2.661  0.00  0.00     0.024 H 
ATOM     54  H   LIG d   1       7.211  -2.543  -2.302  0.00  0.00     0.024 H 
ENDBRANCH   9  51
BRANCH   6  55
ATOM     55  N   LIG d   1      12.908  -2.912  -5.090  0.00  0.00    -0.327 N 
ATOM     56  H   LIG d   1      13.340  -3.410  -5.803  0.00  0.00     0.148 HD
BRANCH  55  57
ATOM     57  C   LIG d   1      13.717  -2.173  -4.119  0.00  0.00    -0.001 C 
ATOM     58  H   LIG d   1      13.197  -1.258  -3.834  0.00  0.00     0.043 H 
ATOM     59  H   LIG d   1      13.878  -2.790  -3.235  0.00  0.00     0.043 H 
ATOM     60  H   LIG d   1      14.679  -1.919  -4.566  0.00  0.00     0.043 H 
ENDBRANCH  55  57
ENDBRANCH   6  55
TORSDOF 12
ENDMDL
MODEL 7
REMARK VINA RESULT:      -4.6      6.242      9.385
REMARK  12 active torsions:
REMARK  status: ('A' for Active; 'I' for Inactive)
REMARK    1  A    between atoms: C_1  and  C_2 
REMARK    2  A    between atoms: C_7  and  N_9 
REMARK    3  A    between atoms: N_9  and  C_10 
REMARK    4  A    between atoms: C_12  and  C_32 
REMARK    5  A    between atoms: C_15  and  O_31 
REMARK    6  A    between atoms: C_17  and  C_21 
REMARK    7  A    between atoms: C_21  and  C_23 
REMARK    8  A    between atoms: C_21  and  C_24 
REMARK       I    between atoms: C_24  and  N_26 
REMARK    9  A    between atoms: N_26  and  C_27 
REMARK   10  A    between atoms: C_27  and  C_28 
REMARK   11  A    between atoms: C_28  and  O_29 
REMARK   12  A    between atoms: O_29  and  C_30 
ROOT
ATOM      1  C   LIG d   1       9.767   9.987  -7.434  0.00  0.00     0.005 C 
ATOM      2  H   LIG d   1       8.861  10.501  -7.757  0.00  0.00     0.036 H 
ATOM      3  C   LIG d   1      10.696   9.800  -8.624  0.00  0.00     0.057 A 
ATOM      4  C   LIG d   1      11.759  10.625  -8.795  0.00  0.00     0.015 A 
ATOM      5  S   LIG d   1      12.496  10.008 -10.285  0.00  0.00    -0.057 SA
ATOM      6  C   LIG d   1      11.361   8.722 -10.566  0.00  0.00     0.158 A 
ATOM      7  N   LIG d   1      10.537   8.851  -9.546  0.00  0.00    -0.229 NA
ATOM      8  C   LIG d   1      12.177  11.760  -7.929  0.00  0.00    -0.014 C 
ATOM      9  C   LIG d   1      11.024  12.114  -6.971  0.00  0.00    -0.022 C 
ATOM     10  C   LIG d   1      10.472  10.824  -6.359  0.00  0.00    -0.001 C 
ATOM     11  H   LIG d   1      11.285  10.246  -5.921  0.00  0.00     0.034 H 
ATOM     12  C   LIG d   1       9.436  11.154  -5.280  0.00  0.00     0.063 C 
ATOM     13  H   LIG d   1       8.599  11.685  -5.733  0.00  0.00     0.060 H 
ATOM     14  C   LIG d   1      10.062  12.029  -4.196  0.00  0.00    -0.004 C 
ATOM     15  H   LIG d   1      10.910  11.508  -3.751  0.00  0.00     0.033 H 
ATOM     16  C   LIG d   1      10.536  13.339  -4.834  0.00  0.00    -0.047 C 
ATOM     17  C   LIG d   1      11.604  13.015  -5.876  0.00  0.00    -0.047 C 
ATOM     18  H   LIG d   1      13.057  11.472  -7.351  0.00  0.00     0.032 H 
ATOM     19  H   LIG d   1      12.417  12.624  -8.550  0.00  0.00     0.032 H 
ATOM     20  H   LIG d   1      10.959  13.987  -4.066  0.00  0.00     0.027 H 
ATOM     21  H   LIG d   1       9.697  13.842  -5.315  0.00  0.00     0.027 H 
ATOM     22  H   LIG d   1      12.436  12.503  -5.392  0.00  0.00     0.027 H 
ATOM     23  H   LIG d   1      11.964  13.940  -6.324  0.00  0.00     0.027 H 
ENDROOT
BRANCH  14  24
ATOM     24  C   LIG d   1       9.019  12.335  -3.118  0.00  0.00     0.038 C 
ATOM     25  H   LIG d   1       8.026  12.098  -3.497  0.00  0.00     0.040 H 
BRANCH  24  26
ATOM     26  C   LIG d   1       9.086  13.819  -2.753  0.00  0.00    -0.054 C 
ATOM     27  H   LIG d   1       8.755  13.955  -1.723  0.00  0.00     0.024 H 
ATOM     28  H   LIG d   1      10.112  14.172  -2.853  0.00  0.00     0.024 H 
ATOM     29  H   LIG d   1       8.439  14.388  -3.420  0.00  0.00     0.024 H 
ENDBRANCH  24  26
BRANCH  24  30
ATOM     30  C   LIG d   1       9.303  11.503  -1.895  0.00  0.00     0.216 C 
ATOM     31  O   LIG d   1      10.188  11.828  -1.132  0.00  0.00    -0.276 OA
ATOM     32  N   LIG d   1       8.574  10.397  -1.649  0.00  0.00    -0.313 N 
ATOM     33  H   LIG d   1       7.865  10.137  -2.258  0.00  0.00     0.149 HD
BRANCH  32  34
ATOM     34  C   LIG d   1       8.849   9.587  -0.458  0.00  0.00     0.035 C 
ATOM     35  H   LIG d   1       9.314  10.211   0.304  0.00  0.00     0.048 H 
ATOM     36  H   LIG d   1       7.915   9.178  -0.073  0.00  0.00     0.048 H 
BRANCH  34  37
ATOM     37  C   LIG d   1       9.794   8.442  -0.827  0.00  0.00     0.063 C 
ATOM     38  H   LIG d   1      10.422   8.746  -1.664  0.00  0.00     0.058 H 
ATOM     39  H   LIG d   1      10.421   8.198   0.030  0.00  0.00     0.058 H 
BRANCH  37  40
ATOM     40  O   LIG d   1       9.027   7.294  -1.200  0.00  0.00    -0.381 OA
BRANCH  40  41
ATOM     41  C   LIG d   1       9.461   6.675  -2.413  0.00  0.00     0.036 C 
ATOM     42  H   LIG d   1       9.772   5.652  -2.206  0.00  0.00     0.052 H 
ATOM     43  H   LIG d   1       8.639   6.666  -3.130  0.00  0.00     0.052 H 
ATOM     44  H   LIG d   1      10.298   7.234  -2.828  0.00  0.00     0.052 H 
ENDBRANCH  40  41
ENDBRANCH  37  40
ENDBRANCH  34  37
ENDBRANCH  32  34
ENDBRANCH  24  30
ENDBRANCH  14  24
BRANCH  12  45
ATOM     45  O   LIG d   1       8.963   9.940  -4.692  0.00  0.00    -0.391 OA
ATOM     46  H   LIG d   1       8.586  10.051  -3.809  0.00  0.00     0.210 HD
ENDBRANCH  12  45
BRANCH   1  47
ATOM     47  C   LIG d   1       9.399   8.620  -6.855  0.00  0.00    -0.057 C 
ATOM     48  H   LIG d   1       9.804   8.531  -5.847  0.00  0.00     0.024 H 
ATOM     49  H   LIG d   1       8.314   8.520  -6.820  0.00  0.00     0.024 H 
ATOM     50  H   LIG d   1       9.816   7.834  -7.485  0.00  0.00     0.024 H 
ENDBRANCH   1  47
BRANCH   9  51
ATOM     51  C   LIG d   1       9.917  12.845  -7.734  0.00  0.00    -0.059 C 
ATOM     52  H   LIG d   1       8.966  12.338  -7.568  0.00  0.00     0.024 H 
ATOM     53  H   LIG d   1       9.848  13.872  -7.379  0.00  0.00     0.024 H 
ATOM     54  H   LIG d   1      10.147  12.843  -8.799  0.00  0.00     0.024 H 
ENDBRANCH   9  51
BRANCH   6  55
ATOM     55  N   LIG d   1      11.332   7.797 -11.599  0.00  0.00    -0.327 N 
ATOM     56  H   LIG d   1      12.132   7.296 -11.824  0.00  0.00     0.148 HD
BRANCH  55  57
ATOM     57  C   LIG d   1      10.093   7.575 -12.348  0.00  0.00    -0.001 C 
ATOM     58  H   LIG d   1      10.334   7.276 -13.369  0.00  0.00     0.043 H 
ATOM     59  H   LIG d   1       9.512   6.789 -11.866  0.00  0.00     0.043 H 
ATOM     60  H   LIG d   1       9.511   8.497 -12.368  0.00  0.00     0.043 H 
ENDBRANCH  55  57
ENDBRANCH   6  55
TORSDOF 12
ENDMDL
MODEL 8
REMARK VINA RESULT:      -4.6      5.692      7.459
REMARK  12 active torsions:
REMARK  status: ('A' for Active; 'I' for Inactive)
REMARK    1  A    between atoms: C_1  and  C_2 
REMARK    2  A    between atoms: C_7  and  N_9 
REMARK    3  A    between atoms: N_9  and  C_10 
REMARK    4  A    between atoms: C_12  and  C_32 
REMARK    5  A    between atoms: C_15  and  O_31 
REMARK    6  A    between atoms: C_17  and  C_21 
REMARK    7  A    between atoms: C_21  and  C_23 
REMARK    8  A    between atoms: C_21  and  C_24 
REMARK       I    between atoms: C_24  and  N_26 
REMARK    9  A    between atoms: N_26  and  C_27 
REMARK   10  A    between atoms: C_27  and  C_28 
REMARK   11  A    between atoms: C_28  and  O_29 
REMARK   12  A    between atoms: O_29  and  C_30 
ROOT
ATOM      1  C   LIG d   1       9.501   9.433  -5.175  0.00  0.00     0.005 C 
ATOM      2  H   LIG d   1       8.464   9.142  -5.002  0.00  0.00     0.036 H 
ATOM      3  C   LIG d   1      10.226   9.541  -3.842  0.00  0.00     0.057 A 
ATOM      4  C   LIG d   1      11.042   8.540  -3.427  0.00  0.00     0.015 A 
ATOM      5  S   LIG d   1      11.621   9.132  -1.860  0.00  0.00    -0.057 SA
ATOM      6  C   LIG d   1      10.755  10.640  -1.870  0.00  0.00     0.158 A 
ATOM      7  N   LIG d   1      10.114  10.583  -3.019  0.00  0.00    -0.229 NA
ATOM      8  C   LIG d   1      11.354   7.269  -4.135  0.00  0.00    -0.014 C 
ATOM      9  C   LIG d   1      10.337   7.065  -5.274  0.00  0.00    -0.022 C 
ATOM     10  C   LIG d   1      10.188   8.377  -6.049  0.00  0.00    -0.001 C 
ATOM     11  H   LIG d   1      11.170   8.739  -6.356  0.00  0.00     0.034 H 
ATOM     12  C   LIG d   1       9.311   8.162  -7.286  0.00  0.00     0.063 C 
ATOM     13  H   LIG d   1       8.314   7.852  -6.972  0.00  0.00     0.060 H 
ATOM     14  C   LIG d   1       9.915   7.083  -8.182  0.00  0.00    -0.004 C 
ATOM     15  H   LIG d   1      10.919   7.381  -8.486  0.00  0.00     0.033 H 
ATOM     16  C   LIG d   1       9.982   5.769  -7.396  0.00  0.00    -0.047 C 
ATOM     17  C   LIG d   1      10.894   5.969  -6.189  0.00  0.00    -0.047 C 
ATOM     18  H   LIG d   1      12.362   7.321  -4.550  0.00  0.00     0.032 H 
ATOM     19  H   LIG d   1      11.292   6.436  -3.435  0.00  0.00     0.032 H 
ATOM     20  H   LIG d   1      10.385   4.982  -8.033  0.00  0.00     0.027 H 
ATOM     21  H   LIG d   1       8.983   5.491  -7.057  0.00  0.00     0.027 H 
ATOM     22  H   LIG d   1      11.888   6.258  -6.532  0.00  0.00     0.027 H 
ATOM     23  H   LIG d   1      10.966   5.036  -5.632  0.00  0.00     0.027 H 
ENDROOT
BRANCH  14  24
ATOM     24  C   LIG d   1       9.036   6.892  -9.420  0.00  0.00     0.038 C 
ATOM     25  H   LIG d   1       8.147   7.515  -9.333  0.00  0.00     0.040 H 
BRANCH  24  26
ATOM     26  C   LIG d   1       8.623   5.424  -9.530  0.00  0.00    -0.054 C 
ATOM     27  H   LIG d   1       8.347   5.199 -10.561  0.00  0.00     0.024 H 
ATOM     28  H   LIG d   1       9.456   4.788  -9.231  0.00  0.00     0.024 H 
ATOM     29  H   LIG d   1       7.771   5.235  -8.877  0.00  0.00     0.024 H 
ENDBRANCH  24  26
BRANCH  24  30
ATOM     30  C   LIG d   1       9.810   7.289 -10.651  0.00  0.00     0.216 C 
ATOM     31  O   LIG d   1      10.479   6.466 -11.239  0.00  0.00    -0.276 OA
ATOM     32  N   LIG d   1       9.758   8.560 -11.098  0.00  0.00    -0.313 N 
ATOM     33  H   LIG d   1       9.223   9.218 -10.628  0.00  0.00     0.149 HD
BRANCH  32  34
ATOM     34  C   LIG d   1      10.510   8.947 -12.295  0.00  0.00     0.035 C 
ATOM     35  H   LIG d   1      11.040   9.879 -12.104  0.00  0.00     0.048 H 
ATOM     36  H   LIG d   1      11.228   8.164 -12.542  0.00  0.00     0.048 H 
BRANCH  34  37
ATOM     37  C   LIG d   1       9.542   9.139 -13.464  0.00  0.00     0.063 C 
ATOM     38  H   LIG d   1       8.653   8.530 -13.304  0.00  0.00     0.058 H 
ATOM     39  H   LIG d   1       9.257  10.189 -13.531  0.00  0.00     0.058 H 
BRANCH  37  40
ATOM     40  O   LIG d   1      10.180   8.740 -14.680  0.00  0.00    -0.381 OA
BRANCH  40  41
ATOM     41  C   LIG d   1      10.680   7.401 -14.661  0.00  0.00     0.036 C 
ATOM     42  H   LIG d   1      11.211   7.199 -15.591  0.00  0.00     0.052 H 
ATOM     43  H   LIG d   1      11.364   7.281 -13.820  0.00  0.00     0.052 H 
ATOM     44  H   LIG d   1       9.850   6.704 -14.557  0.00  0.00     0.052 H 
ENDBRANCH  40  41
ENDBRANCH  37  40
ENDBRANCH  34  37
ENDBRANCH  32  34
ENDBRANCH  24  30
ENDBRANCH  14  24
BRANCH  12  45
ATOM     45  O   LIG d   1       9.217   9.385  -8.018  0.00  0.00    -0.391 OA
ATOM     46  H   LIG d   1      10.054   9.860  -8.102  0.00  0.00     0.210 HD
ENDBRANCH  12  45
BRANCH   1  47
ATOM     47  C   LIG d   1       9.539  10.787  -5.886  0.00  0.00    -0.057 C 
ATOM     48  H   LIG d   1       8.587  10.961  -6.388  0.00  0.00     0.024 H 
ATOM     49  H   LIG d   1       9.714  11.577  -5.156  0.00  0.00     0.024 H 
ATOM     50  H   LIG d   1      10.343  10.788  -6.622  0.00  0.00     0.024 H 
ENDBRANCH   1  47
BRANCH   9  51
ATOM     51  C   LIG d   1       8.984   6.643  -4.697  0.00  0.00    -0.059 C 
ATOM     52  H   LIG d   1       8.669   5.706  -5.157  0.00  0.00     0.024 H 
ATOM     53  H   LIG d   1       9.076   6.506  -3.620  0.00  0.00     0.024 H 
ATOM     54  H   LIG d   1       8.244   7.415  -4.904  0.00  0.00     0.024 H 
ENDBRANCH   9  51
BRANCH   6  55
ATOM     55  N   LIG d   1      10.744  11.644  -0.913  0.00  0.00    -0.327 N 
ATOM     56  H   LIG d   1      10.908  12.564  -1.174  0.00  0.00     0.148 HD
BRANCH  55  57
ATOM     57  C   LIG d   1      10.482  11.315   0.490  0.00  0.00    -0.001 C 
ATOM     58  H   LIG d   1      11.396  11.442   1.070  0.00  0.00     0.043 H 
ATOM     59  H   LIG d   1       9.709  11.977   0.880  0.00  0.00     0.043 H 
ATOM     60  H   LIG d   1      10.146  10.281   0.564  0.00  0.00     0.043 H 
ENDBRANCH  55  57
ENDBRANCH   6  55
TORSDOF 12
ENDMDL
MODEL 9
REMARK VINA RESULT:      -4.5      9.668     15.238
REMARK  12 active torsions:
REMARK  status: ('A' for Active; 'I' for Inactive)
REMARK    1  A    between atoms: C_1  and  C_2 
REMARK    2  A    between atoms: C_7  and  N_9 
REMARK    3  A    between atoms: N_9  and  C_10 
REMARK    4  A    between atoms: C_12  and  C_32 
REMARK    5  A    between atoms: C_15  and  O_31 
REMARK    6  A    between atoms: C_17  and  C_21 
REMARK    7  A    between atoms: C_21  and  C_23 
REMARK    8  A    between atoms: C_21  and  C_24 
REMARK       I    between atoms: C_24  and  N_26 
REMARK    9  A    between atoms: N_26  and  C_27 
REMARK   10  A    between atoms: C_27  and  C_28 
REMARK   11  A    between atoms: C_28  and  O_29 
REMARK   12  A    between atoms: O_29  and  C_30 
ROOT
ATOM      1  C   LIG d   1       2.082  -3.929 -10.860  0.00  0.00     0.005 C 
ATOM      2  H   LIG d   1       1.028  -3.679 -10.737  0.00  0.00     0.036 H 
ATOM      3  C   LIG d   1       2.284  -4.632 -12.194  0.00  0.00     0.057 A 
ATOM      4  C   LIG d   1       2.779  -3.950 -13.256  0.00  0.00     0.015 A 
ATOM      5  S   LIG d   1       2.815  -5.182 -14.530  0.00  0.00    -0.057 SA
ATOM      6  C   LIG d   1       2.182  -6.491 -13.577  0.00  0.00     0.158 A 
ATOM      7  N   LIG d   1       1.997  -5.916 -12.406  0.00  0.00    -0.229 NA
ATOM      8  C   LIG d   1       3.185  -2.519 -13.309  0.00  0.00    -0.014 C 
ATOM      9  C   LIG d   1       2.632  -1.793 -12.067  0.00  0.00    -0.022 C 
ATOM     10  C   LIG d   1       2.919  -2.643 -10.827  0.00  0.00    -0.001 C 
ATOM     11  H   LIG d   1       3.978  -2.898 -10.789  0.00  0.00     0.034 H 
ATOM     12  C   LIG d   1       2.529  -1.875  -9.560  0.00  0.00     0.063 C 
ATOM     13  H   LIG d   1       1.458  -1.670  -9.577  0.00  0.00     0.060 H 
ATOM     14  C   LIG d   1       3.294  -0.555  -9.486  0.00  0.00    -0.004 C 
ATOM     15  H   LIG d   1       4.366  -0.754  -9.486  0.00  0.00     0.033 H 
ATOM     16  C   LIG d   1       2.928   0.296 -10.706  0.00  0.00    -0.047 C 
ATOM     17  C   LIG d   1       3.359  -0.448 -11.967  0.00  0.00    -0.047 C 
ATOM     18  H   LIG d   1       4.274  -2.449 -13.318  0.00  0.00     0.032 H 
ATOM     19  H   LIG d   1       2.783  -2.059 -14.212  0.00  0.00     0.032 H 
ATOM     20  H   LIG d   1       3.444   1.255 -10.652  0.00  0.00     0.027 H 
ATOM     21  H   LIG d   1       1.850   0.463 -10.731  0.00  0.00     0.027 H 
ATOM     22  H   LIG d   1       4.435  -0.622 -11.934  0.00  0.00     0.027 H 
ATOM     23  H   LIG d   1       3.121   0.156 -12.842  0.00  0.00     0.027 H 
ENDROOT
BRANCH  14  24
ATOM     24  C   LIG d   1       2.907   0.193  -8.209  0.00  0.00     0.038 C 
ATOM     25  H   LIG d   1       1.943  -0.171  -7.854  0.00  0.00     0.040 H 
BRANCH  24  26
ATOM     26  C   LIG d   1       2.811   1.690  -8.504  0.00  0.00    -0.054 C 
ATOM     27  H   LIG d   1       3.778   2.160  -8.320  0.00  0.00     0.024 H 
ATOM     28  H   LIG d   1       2.528   1.838  -9.545  0.00  0.00     0.024 H 
ATOM     29  H   LIG d   1       2.060   2.142  -7.856  0.00  0.00     0.024 H 
ENDBRANCH  24  26
BRANCH  24  30
ATOM     30  C   LIG d   1       3.953  -0.045  -7.151  0.00  0.00     0.216 C 
ATOM     31  O   LIG d   1       5.044   0.477  -7.248  0.00  0.00    -0.276 OA
ATOM     32  N   LIG d   1       3.678  -0.840  -6.097  0.00  0.00    -0.313 N 
ATOM     33  H   LIG d   1       2.807  -1.257  -6.019  0.00  0.00     0.149 HD
BRANCH  32  34
ATOM     34  C   LIG d   1       4.696  -1.071  -5.068  0.00  0.00     0.035 C 
ATOM     35  H   LIG d   1       4.945  -2.131  -5.037  0.00  0.00     0.048 H 
ATOM     36  H   LIG d   1       5.589  -0.494  -5.305  0.00  0.00     0.048 H 
BRANCH  34  37
ATOM     37  C   LIG d   1       4.152  -0.634  -3.706  0.00  0.00     0.063 C 
ATOM     38  H   LIG d   1       3.262  -1.216  -3.468  0.00  0.00     0.058 H 
ATOM     39  H   LIG d   1       4.911  -0.799  -2.942  0.00  0.00     0.058 H 
BRANCH  37  40
ATOM     40  O   LIG d   1       3.814   0.754  -3.752  0.00  0.00    -0.381 OA
BRANCH  40  41
ATOM     41  C   LIG d   1       3.950   1.427  -2.498  0.00  0.00     0.036 C 
ATOM     42  H   LIG d   1       3.169   2.181  -2.405  0.00  0.00     0.052 H 
ATOM     43  H   LIG d   1       3.854   0.704  -1.687  0.00  0.00     0.052 H 
ATOM     44  H   LIG d   1       4.927   1.905  -2.445  0.00  0.00     0.052 H 
ENDBRANCH  40  41
ENDBRANCH  37  40
ENDBRANCH  34  37
ENDBRANCH  32  34
ENDBRANCH  24  30
ENDBRANCH  14  24
BRANCH  12  45
ATOM     45  O   LIG d   1       2.841  -2.666  -8.412  0.00  0.00    -0.391 OA
ATOM     46  H   LIG d   1       2.227  -3.396  -8.258  0.00  0.00     0.210 HD
ENDBRANCH  12  45
BRANCH   1  47
ATOM     47  C   LIG d   1       2.523  -4.854  -9.725  0.00  0.00    -0.057 C 
ATOM     48  H   LIG d   1       2.849  -5.808 -10.139  0.00  0.00     0.024 H 
ATOM     49  H   LIG d   1       3.348  -4.393  -9.181  0.00  0.00     0.024 H 
ATOM     50  H   LIG d   1       1.688  -5.019  -9.045  0.00  0.00     0.024 H 
ENDBRANCH   1  47
BRANCH   9  51
ATOM     51  C   LIG d   1       1.125  -1.578 -12.216  0.00  0.00    -0.059 C 
ATOM     52  H   LIG d   1       0.782  -0.875 -11.456  0.00  0.00     0.024 H 
ATOM     53  H   LIG d   1       0.911  -1.176 -13.206  0.00  0.00     0.024 H 
ATOM     54  H   LIG d   1       0.608  -2.529 -12.091  0.00  0.00     0.024 H 
ENDBRANCH   9  51
BRANCH   6  55
ATOM     55  N   LIG d   1       1.936  -7.803 -13.952  0.00  0.00    -0.327 N 
ATOM     56  H   LIG d   1       2.633  -8.324 -14.381  0.00  0.00     0.148 HD
BRANCH  55  57
ATOM     57  C   LIG d   1       0.623  -8.402 -13.701  0.00  0.00    -0.001 C 
ATOM     58  H   LIG d   1       0.727  -9.484 -13.618  0.00  0.00     0.043 H 
ATOM     59  H   LIG d   1       0.213  -8.004 -12.774  0.00  0.00     0.043 H 
ATOM     60  H   LIG d   1      -0.048  -8.165 -14.527  0.00  0.00     0.043 H 
ENDBRANCH  55  57
ENDBRANCH   6  55
TORSDOF 12
ENDMDL
MODEL 10
REMARK VINA RESULT:      -4.4      6.159     11.566
REMARK  12 active torsions:
REMARK  status: ('A' for Active; 'I' for Inactive)
REMARK    1  A    between atoms: C_1  and  C_2 
REMARK    2  A    between atoms: C_7  and  N_9 
REMARK    3  A    between atoms: N_9  and  C_10 
REMARK    4  A    between atoms: C_12  and  C_32 
REMARK    5  A    between atoms: C_15  and  O_31 
REMARK    6  A    between atoms: C_17  and  C_21 
REMARK    7  A    between atoms: C_21  and  C_23 
REMARK    8  A    between atoms: C_21  and  C_24 
REMARK       I    between atoms: C_24  and  N_26 
REMARK    9  A    between atoms: N_26  and  C_27 
REMARK   10  A    between atoms: C_27  and  C_28 
REMARK   11  A    between atoms: C_28  and  O_29 
REMARK   12  A    between atoms: O_29  and  C_30 
ROOT
ATOM      1  C   LIG d   1       6.030  -0.686  -9.152  0.00  0.00     0.005 C 
ATOM      2  H   LIG d   1       6.334  -1.729  -9.057  0.00  0.00     0.036 H 
ATOM      3  C   LIG d   1       5.011  -0.555 -10.274  0.00  0.00     0.057 A 
ATOM      4  C   LIG d   1       3.690  -0.450  -9.986  0.00  0.00     0.015 A 
ATOM      5  S   LIG d   1       2.949  -0.330 -11.592  0.00  0.00    -0.057 SA
ATOM      6  C   LIG d   1       4.421  -0.424 -12.512  0.00  0.00     0.158 A 
ATOM      7  N   LIG d   1       5.332  -0.536 -11.567  0.00  0.00    -0.229 NA
ATOM      8  C   LIG d   1       3.050  -0.440  -8.643  0.00  0.00    -0.014 C 
ATOM      9  C   LIG d   1       4.070  -0.928  -7.596  0.00  0.00    -0.022 C 
ATOM     10  C   LIG d   1       5.404  -0.215  -7.833  0.00  0.00    -0.001 C 
ATOM     11  H   LIG d   1       5.246   0.863  -7.868  0.00  0.00     0.034 H 
ATOM     12  C   LIG d   1       6.389  -0.553  -6.710  0.00  0.00     0.063 C 
ATOM     13  H   LIG d   1       6.586  -1.626  -6.713  0.00  0.00     0.060 H 
ATOM     14  C   LIG d   1       5.807  -0.151  -5.357  0.00  0.00    -0.004 C 
ATOM     15  H   LIG d   1       5.593   0.918  -5.354  0.00  0.00     0.033 H 
ATOM     16  C   LIG d   1       4.512  -0.937  -5.124  0.00  0.00    -0.047 C 
ATOM     17  C   LIG d   1       3.513  -0.564  -6.216  0.00  0.00    -0.047 C 
ATOM     18  H   LIG d   1       2.732   0.574  -8.398  0.00  0.00     0.032 H 
ATOM     19  H   LIG d   1       2.184  -1.103  -8.646  0.00  0.00     0.032 H 
ATOM     20  H   LIG d   1       4.100  -0.682  -4.148  0.00  0.00     0.027 H 
ATOM     21  H   LIG d   1       4.717  -2.008  -5.166  0.00  0.00     0.027 H 
ATOM     22  H   LIG d   1       3.319   0.508  -6.177  0.00  0.00     0.027 H 
ATOM     23  H   LIG d   1       2.580  -1.103  -6.051  0.00  0.00     0.027 H 
ENDROOT
BRANCH  14  24
ATOM     24  C   LIG d   1       6.809  -0.481  -4.248  0.00  0.00     0.038 C 
ATOM     25  H   LIG d   1       7.595  -1.120  -4.648  0.00  0.00     0.040 H 
BRANCH  24  26
ATOM     26  C   LIG d   1       6.089  -1.206  -3.110  0.00  0.00    -0.054 C 
ATOM     27  H   LIG d   1       6.790  -1.864  -2.597  0.00  0.00     0.024 H 
ATOM     28  H   LIG d   1       5.696  -0.474  -2.404  0.00  0.00     0.024 H 
ATOM     29  H   LIG d   1       5.268  -1.796  -3.516  0.00  0.00     0.024 H 
ENDBRANCH  24  26
BRANCH  24  30
ATOM     30  C   LIG d   1       7.417   0.795  -3.725  0.00  0.00     0.216 C 
ATOM     31  O   LIG d   1       6.749   1.556  -3.057  0.00  0.00    -0.276 OA
ATOM     32  N   LIG d   1       8.702   1.092  -4.002  0.00  0.00    -0.313 N 
ATOM     33  H   LIG d   1       9.236   0.484  -4.536  0.00  0.00     0.149 HD
BRANCH  32  34
ATOM     34  C   LIG d   1       9.294   2.333  -3.494  0.00  0.00     0.035 C 
ATOM     35  H   LIG d   1       8.528   2.917  -2.985  0.00  0.00     0.048 H 
ATOM     36  H   LIG d   1      10.093   2.093  -2.793  0.00  0.00     0.048 H 
BRANCH  34  37
ATOM     37  C   LIG d   1       9.863   3.142  -4.661  0.00  0.00     0.063 C 
ATOM     38  H   LIG d   1      10.816   2.713  -4.969  0.00  0.00     0.058 H 
ATOM     39  H   LIG d   1       9.164   3.116  -5.496  0.00  0.00     0.058 H 
BRANCH  37  40
ATOM     40  O   LIG d   1      10.062   4.496  -4.248  0.00  0.00    -0.381 OA
BRANCH  40  41
ATOM     41  C   LIG d   1       9.962   4.694  -2.836  0.00  0.00     0.036 C 
ATOM     42  H   LIG d   1       9.927   5.762  -2.621  0.00  0.00     0.052 H 
ATOM     43  H   LIG d   1       9.053   4.219  -2.466  0.00  0.00     0.052 H 
ATOM     44  H   LIG d   1      10.828   4.253  -2.345  0.00  0.00     0.052 H 
ENDBRANCH  40  41
ENDBRANCH  37  40
ENDBRANCH  34  37
ENDBRANCH  32  34
ENDBRANCH  24  30
ENDBRANCH  14  24
BRANCH  12  45
ATOM     45  O   LIG d   1       7.613   0.152  -6.925  0.00  0.00    -0.391 OA
ATOM     46  H   LIG d   1       7.573   1.090  -6.696  0.00  0.00     0.210 HD
ENDBRANCH  12  45
BRANCH   1  47
ATOM     47  C   LIG d   1       7.254   0.174  -9.471  0.00  0.00    -0.057 C 
ATOM     48  H   LIG d   1       7.918   0.197  -8.607  0.00  0.00     0.024 H 
ATOM     49  H   LIG d   1       7.784  -0.250 -10.324  0.00  0.00     0.024 H 
ATOM     50  H   LIG d   1       6.933   1.188  -9.710  0.00  0.00     0.024 H 
ENDBRANCH   1  47
BRANCH   9  51
ATOM     51  C   LIG d   1       4.259  -2.441  -7.715  0.00  0.00    -0.059 C 
ATOM     52  H   LIG d   1       5.301  -2.660  -7.953  0.00  0.00     0.024 H 
ATOM     53  H   LIG d   1       3.994  -2.916  -6.771  0.00  0.00     0.024 H 
ATOM     54  H   LIG d   1       3.618  -2.826  -8.508  0.00  0.00     0.024 H 
ENDBRANCH   9  51
BRANCH   6  55
ATOM     55  N   LIG d   1       4.592  -0.390 -13.888  0.00  0.00    -0.327 N 
ATOM     56  H   LIG d   1       3.860  -0.110 -14.461  0.00  0.00     0.148 HD
BRANCH  55  57
ATOM     57  C   LIG d   1       5.876  -0.777 -14.477  0.00  0.00    -0.001 C 
ATOM     58  H   LIG d   1       6.451  -1.351 -13.750  0.00  0.00     0.043 H 
ATOM     59  H   LIG d   1       5.701  -1.384 -15.364  0.00  0.00     0.043 H 
ATOM     60  H   LIG d   1       6.433   0.119 -14.753  0.00  0.00     0.043 H 
ENDBRANCH  55  57
ENDBRANCH   6  55
TORSDOF 12
ENDMDL
