MODEL 1
REMARK VINA RESULT:      -5.3      0.000      0.000
REMARK  14 active torsions:
REMARK  status: ('A' for Active; 'I' for Inactive)
REMARK    1  A    between atoms: C_1  and  C_2 
REMARK    2  A    between atoms: C_2  and  O_3 
REMARK    3  A    between atoms: O_3  and  C_4 
REMARK    4  A    between atoms: C_4  and  C_6 
REMARK    5  A    between atoms: C_6  and  C_8 
REMARK    6  A    between atoms: C_6  and  O_9 
REMARK    7  A    between atoms: O_9  and  C_10 
REMARK    8  A    between atoms: C_18  and  C_27 
REMARK    9  A    between atoms: C_19  and  C_20 
REMARK   10  A    between atoms: C_20  and  O_22 
REMARK   11  A    between atoms: O_22  and  C_23 
REMARK   12  A    between atoms: C_23  and  C_24 
REMARK   13  A    between atoms: C_24  and  O_25 
REMARK   14  A    between atoms: O_25  and  C_26 
ROOT
ATOM      1  C   LIG d   1       5.882  -1.102  -5.235  0.00  0.00     0.136 A 
ATOM      2  C   LIG d   1       5.577  -2.394  -5.624  0.00  0.00    -0.007 A 
ATOM      3  C   LIG d   1       6.450  -3.430  -5.313  0.00  0.00     0.038 A 
ATOM      4  C   LIG d   1       7.629  -3.173  -4.599  0.00  0.00     0.137 A 
ATOM      5  C   LIG d   1       7.920  -1.870  -4.211  0.00  0.00    -0.001 A 
ATOM      6  C   LIG d   1       7.053  -0.845  -4.527  0.00  0.00     0.063 A 
ATOM      7 BR   LIG d   1       7.458   0.922  -3.993  0.00  0.00    -0.046 Br
ATOM      8  O   LIG d   1       8.273  -4.348  -4.436  0.00  0.00    -0.459 OA
ATOM      9  C   LIG d   1       7.595  -5.357  -4.994  0.00  0.00     0.117 A 
ATOM     10  C   LIG d   1       6.452  -4.886  -5.563  0.00  0.00     0.107 A 
ATOM     11  H   LIG d   1       4.666  -2.596  -6.169  0.00  0.00     0.066 H 
ATOM     12  H   LIG d   1       8.826  -1.661  -3.660  0.00  0.00     0.067 H 
ENDROOT
BRANCH   1  13
ATOM     13  O   LIG d   1       5.036  -0.082  -5.540  0.00  0.00    -0.477 OA
BRANCH  13  14
ATOM     14  C   LIG d   1       3.638  -0.329  -5.373  0.00  0.00     0.193 C 
ATOM     15  H   LIG d   1       3.467  -1.400  -5.275  0.00  0.00     0.085 H 
BRANCH  14  16
ATOM     16  C   LIG d   1       3.149   0.375  -4.133  0.00  0.00     0.348 C 
ATOM     17  O   LIG d   1       3.239   1.577  -4.045  0.00  0.00    -0.247 OA
BRANCH  16  18
ATOM     18  O   LIG d   1       2.620  -0.335  -3.125  0.00  0.00    -0.462 OA
BRANCH  18  19
ATOM     19  C   LIG d   1       3.289  -1.574  -2.768  0.00  0.00     0.090 C 
ATOM     20  H   LIG d   1       2.580  -2.240  -2.276  0.00  0.00     0.069 H 
ATOM     21  H   LIG d   1       3.672  -2.051  -3.669  0.00  0.00     0.069 H 
BRANCH  19  22
ATOM     22  C   LIG d   1       4.448  -1.273  -1.818  0.00  0.00    -0.031 C 
ATOM     23  H   LIG d   1       4.535  -0.195  -1.678  0.00  0.00     0.026 H 
ATOM     24  H   LIG d   1       4.263  -1.748  -0.854  0.00  0.00     0.026 H 
ATOM     25  H   LIG d   1       5.376  -1.660  -2.241  0.00  0.00     0.026 H 
ENDBRANCH  19  22
ENDBRANCH  18  19
ENDBRANCH  16  18
ENDBRANCH  14  16
BRANCH  14  26
ATOM     26  C   LIG d   1       2.879   0.200  -6.592  0.00  0.00    -0.017 C 
ATOM     27  H   LIG d   1       2.613  -0.632  -7.244  0.00  0.00     0.027 H 
ATOM     28  H   LIG d   1       1.972   0.708  -6.262  0.00  0.00     0.027 H 
ATOM     29  H   LIG d   1       3.511   0.901  -7.137  0.00  0.00     0.027 H 
ENDBRANCH  14  26
ENDBRANCH  13  14
ENDBRANCH   1  13
BRANCH  10  30
ATOM     30  C   LIG d   1       5.431  -5.664  -6.277  0.00  0.00     0.343 C 
ATOM     31  O   LIG d   1       5.280  -5.515  -7.474  0.00  0.00    -0.245 OA
BRANCH  30  32
ATOM     32  O   LIG d   1       4.661  -6.543  -5.604  0.00  0.00    -0.459 OA
BRANCH  32  33
ATOM     33  C   LIG d   1       4.751  -7.937  -6.002  0.00  0.00     0.116 C 
ATOM     34  H   LIG d   1       3.829  -8.233  -6.502  0.00  0.00     0.072 H 
ATOM     35  H   LIG d   1       5.591  -8.066  -6.684  0.00  0.00     0.072 H 
BRANCH  33  36
ATOM     36  C   LIG d   1       4.962  -8.808  -4.763  0.00  0.00     0.082 C 
ATOM     37  H   LIG d   1       5.733  -9.551  -4.968  0.00  0.00     0.059 H 
ATOM     38  H   LIG d   1       5.274  -8.182  -3.926  0.00  0.00     0.059 H 
BRANCH  36  39
ATOM     39  O   LIG d   1       3.740  -9.470  -4.432  0.00  0.00    -0.380 OA
BRANCH  39  40
ATOM     40  C   LIG d   1       3.775 -10.170  -3.186  0.00  0.00     0.037 C 
ATOM     41  H   LIG d   1       2.760 -10.293  -2.809  0.00  0.00     0.052 H 
ATOM     42  H   LIG d   1       4.230 -11.150  -3.333  0.00  0.00     0.052 H 
ATOM     43  H   LIG d   1       4.364  -9.601  -2.467  0.00  0.00     0.052 H 
ENDBRANCH  39  40
ENDBRANCH  36  39
ENDBRANCH  33  36
ENDBRANCH  32  33
ENDBRANCH  30  32
ENDBRANCH  10  30
BRANCH   9  44
ATOM     44  C   LIG d   1       8.033  -6.799  -4.995  0.00  0.00    -0.005 C 
ATOM     45  H   LIG d   1       7.182  -7.438  -4.757  0.00  0.00     0.031 H 
ATOM     46  H   LIG d   1       8.420  -7.060  -5.980  0.00  0.00     0.031 H 
ATOM     47  H   LIG d   1       8.815  -6.941  -4.249  0.00  0.00     0.031 H 
ENDBRANCH   9  44
TORSDOF 14
ENDMDL
MODEL 2
REMARK VINA RESULT:      -5.3      1.754      3.260
REMARK  14 active torsions:
REMARK  status: ('A' for Active; 'I' for Inactive)
REMARK    1  A    between atoms: C_1  and  C_2 
REMARK    2  A    between atoms: C_2  and  O_3 
REMARK    3  A    between atoms: O_3  and  C_4 
REMARK    4  A    between atoms: C_4  and  C_6 
REMARK    5  A    between atoms: C_6  and  C_8 
REMARK    6  A    between atoms: C_6  and  O_9 
REMARK    7  A    between atoms: O_9  and  C_10 
REMARK    8  A    between atoms: C_18  and  C_27 
REMARK    9  A    between atoms: C_19  and  C_20 
REMARK   10  A    between atoms: C_20  and  O_22 
REMARK   11  A    between atoms: O_22  and  C_23 
REMARK   12  A    between atoms: C_23  and  C_24 
REMARK   13  A    between atoms: C_24  and  O_25 
REMARK   14  A    between atoms: O_25  and  C_26 
ROOT
ATOM      1  C   LIG d   1       5.446  -0.888  -5.133  0.00  0.00     0.136 A 
ATOM      2  C   LIG d   1       4.989  -2.110  -5.594  0.00  0.00    -0.007 A 
ATOM      3  C   LIG d   1       5.798  -3.234  -5.476  0.00  0.00     0.038 A 
ATOM      4  C   LIG d   1       7.065  -3.137  -4.883  0.00  0.00     0.137 A 
ATOM      5  C   LIG d   1       7.507  -1.904  -4.419  0.00  0.00    -0.001 A 
ATOM      6  C   LIG d   1       6.703  -0.790  -4.545  0.00  0.00     0.063 A 
ATOM      7 BR   LIG d   1       7.314   0.883  -3.911  0.00  0.00    -0.046 Br
ATOM      8  O   LIG d   1       7.619  -4.368  -4.896  0.00  0.00    -0.459 OA
ATOM      9  C   LIG d   1       6.800  -5.265  -5.457  0.00  0.00     0.117 A 
ATOM     10  C   LIG d   1       5.647  -4.656  -5.848  0.00  0.00     0.107 A 
ATOM     11  H   LIG d   1       4.012  -2.189  -6.047  0.00  0.00     0.066 H 
ATOM     12  H   LIG d   1       8.482  -1.817  -3.961  0.00  0.00     0.067 H 
ENDROOT
BRANCH   1  13
ATOM     13  O   LIG d   1       4.663   0.218  -5.250  0.00  0.00    -0.477 OA
BRANCH  13  14
ATOM     14  C   LIG d   1       3.400   0.191  -4.582  0.00  0.00     0.193 C 
ATOM     15  H   LIG d   1       3.162  -0.832  -4.294  0.00  0.00     0.085 H 
BRANCH  14  16
ATOM     16  C   LIG d   1       3.466   1.058  -3.350  0.00  0.00     0.348 C 
ATOM     17  O   LIG d   1       3.636   2.250  -3.458  0.00  0.00    -0.247 OA
BRANCH  16  18
ATOM     18  O   LIG d   1       3.343   0.505  -2.134  0.00  0.00    -0.462 OA
BRANCH  18  19
ATOM     19  C   LIG d   1       4.458  -0.294  -1.656  0.00  0.00     0.090 C 
ATOM     20  H   LIG d   1       5.368   0.008  -2.173  0.00  0.00     0.069 H 
ATOM     21  H   LIG d   1       4.580  -0.143  -0.584  0.00  0.00     0.069 H 
BRANCH  19  22
ATOM     22  C   LIG d   1       4.181  -1.773  -1.934  0.00  0.00    -0.031 C 
ATOM     23  H   LIG d   1       4.189  -2.327  -0.995  0.00  0.00     0.026 H 
ATOM     24  H   LIG d   1       3.205  -1.878  -2.408  0.00  0.00     0.026 H 
ATOM     25  H   LIG d   1       4.951  -2.169  -2.596  0.00  0.00     0.026 H 
ENDBRANCH  19  22
ENDBRANCH  18  19
ENDBRANCH  16  18
ENDBRANCH  14  16
BRANCH  14  26
ATOM     26  C   LIG d   1       2.315   0.723  -5.521  0.00  0.00    -0.017 C 
ATOM     27  H   LIG d   1       1.479   0.024  -5.542  0.00  0.00     0.027 H 
ATOM     28  H   LIG d   1       1.970   1.693  -5.163  0.00  0.00     0.027 H 
ATOM     29  H   LIG d   1       2.725   0.829  -6.525  0.00  0.00     0.027 H 
ENDBRANCH  14  26
ENDBRANCH  13  14
ENDBRANCH   1  13
BRANCH  10  30
ATOM     30  C   LIG d   1       4.492  -5.282  -6.505  0.00  0.00     0.343 C 
ATOM     31  O   LIG d   1       3.526  -5.617  -5.848  0.00  0.00    -0.245 OA
BRANCH  30  32
ATOM     32  O   LIG d   1       4.505  -5.487  -7.839  0.00  0.00    -0.459 OA
BRANCH  32  33
ATOM     33  C   LIG d   1       3.517  -4.769  -8.624  0.00  0.00     0.116 C 
ATOM     34  H   LIG d   1       3.272  -5.345  -9.515  0.00  0.00     0.072 H 
ATOM     35  H   LIG d   1       2.616  -4.621  -8.027  0.00  0.00     0.072 H 
BRANCH  33  36
ATOM     36  C   LIG d   1       4.084  -3.408  -9.035  0.00  0.00     0.082 C 
ATOM     37  H   LIG d   1       4.996  -3.210  -8.472  0.00  0.00     0.059 H 
ATOM     38  H   LIG d   1       4.309  -3.416 -10.102  0.00  0.00     0.059 H 
BRANCH  36  39
ATOM     39  O   LIG d   1       3.122  -2.389  -8.759  0.00  0.00    -0.380 OA
BRANCH  39  40
ATOM     40  C   LIG d   1       2.167  -2.190  -9.804  0.00  0.00     0.037 C 
ATOM     41  H   LIG d   1       2.178  -1.145 -10.112  0.00  0.00     0.052 H 
ATOM     42  H   LIG d   1       2.424  -2.823 -10.654  0.00  0.00     0.052 H 
ATOM     43  H   LIG d   1       1.174  -2.453  -9.443  0.00  0.00     0.052 H 
ENDBRANCH  39  40
ENDBRANCH  36  39
ENDBRANCH  33  36
ENDBRANCH  32  33
ENDBRANCH  30  32
ENDBRANCH  10  30
BRANCH   9  44
ATOM     44  C   LIG d   1       7.109  -6.730  -5.632  0.00  0.00    -0.005 C 
ATOM     45  H   LIG d   1       7.676  -6.875  -6.552  0.00  0.00     0.031 H 
ATOM     46  H   LIG d   1       7.697  -7.080  -4.785  0.00  0.00     0.031 H 
ATOM     47  H   LIG d   1       6.177  -7.293  -5.686  0.00  0.00     0.031 H 
ENDBRANCH   9  44
TORSDOF 14
ENDMDL
MODEL 3
REMARK VINA RESULT:      -5.2      2.785      6.949
REMARK  14 active torsions:
REMARK  status: ('A' for Active; 'I' for Inactive)
REMARK    1  A    between atoms: C_1  and  C_2 
REMARK    2  A    between atoms: C_2  and  O_3 
REMARK    3  A    between atoms: O_3  and  C_4 
REMARK    4  A    between atoms: C_4  and  C_6 
REMARK    5  A    between atoms: C_6  and  C_8 
REMARK    6  A    between atoms: C_6  and  O_9 
REMARK    7  A    between atoms: O_9  and  C_10 
REMARK    8  A    between atoms: C_18  and  C_27 
REMARK    9  A    between atoms: C_19  and  C_20 
REMARK   10  A    between atoms: C_20  and  O_22 
REMARK   11  A    between atoms: O_22  and  C_23 
REMARK   12  A    between atoms: C_23  and  C_24 
REMARK   13  A    between atoms: C_24  and  O_25 
REMARK   14  A    between atoms: O_25  and  C_26 
ROOT
ATOM      1  C   LIG d   1       3.855  -1.812  -7.583  0.00  0.00     0.136 A 
ATOM      2  C   LIG d   1       4.324  -1.807  -6.282  0.00  0.00    -0.007 A 
ATOM      3  C   LIG d   1       3.962  -0.774  -5.425  0.00  0.00     0.038 A 
ATOM      4  C   LIG d   1       3.116   0.252  -5.870  0.00  0.00     0.137 A 
ATOM      5  C   LIG d   1       2.649   0.230  -7.179  0.00  0.00    -0.001 A 
ATOM      6  C   LIG d   1       3.016  -0.794  -8.026  0.00  0.00     0.063 A 
ATOM      7 BR   LIG d   1       2.375  -0.814  -9.804  0.00  0.00    -0.046 Br
ATOM      8  O   LIG d   1       2.930   1.105  -4.840  0.00  0.00    -0.459 OA
ATOM      9  C   LIG d   1       3.596   0.706  -3.751  0.00  0.00     0.117 A 
ATOM     10  C   LIG d   1       4.266  -0.449  -4.016  0.00  0.00     0.107 A 
ATOM     11  H   LIG d   1       4.971  -2.599  -5.935  0.00  0.00     0.066 H 
ATOM     12  H   LIG d   1       1.997   1.016  -7.533  0.00  0.00     0.067 H 
ENDROOT
BRANCH   1  13
ATOM     13  O   LIG d   1       4.209  -2.816  -8.430  0.00  0.00    -0.477 OA
BRANCH  13  14
ATOM     14  C   LIG d   1       4.804  -3.977  -7.845  0.00  0.00     0.193 C 
ATOM     15  H   LIG d   1       5.310  -3.700  -6.921  0.00  0.00     0.085 H 
BRANCH  14  16
ATOM     16  C   LIG d   1       3.732  -4.993  -7.547  0.00  0.00     0.348 C 
ATOM     17  O   LIG d   1       3.122  -5.511  -8.452  0.00  0.00    -0.247 OA
BRANCH  16  18
ATOM     18  O   LIG d   1       3.450  -5.317  -6.275  0.00  0.00    -0.462 OA
BRANCH  18  19
ATOM     19  C   LIG d   1       4.566  -5.714  -5.433  0.00  0.00     0.090 C 
ATOM     20  H   LIG d   1       5.415  -5.057  -5.623  0.00  0.00     0.069 H 
ATOM     21  H   LIG d   1       4.274  -5.639  -4.386  0.00  0.00     0.069 H 
BRANCH  19  22
ATOM     22  C   LIG d   1       4.957  -7.158  -5.751  0.00  0.00    -0.031 C 
ATOM     23  H   LIG d   1       5.511  -7.187  -6.689  0.00  0.00     0.026 H 
ATOM     24  H   LIG d   1       5.583  -7.550  -4.949  0.00  0.00     0.026 H 
ATOM     25  H   LIG d   1       4.057  -7.767  -5.841  0.00  0.00     0.026 H 
ENDBRANCH  19  22
ENDBRANCH  18  19
ENDBRANCH  16  18
ENDBRANCH  14  16
BRANCH  14  26
ATOM     26  C   LIG d   1       5.817  -4.577  -8.822  0.00  0.00    -0.017 C 
ATOM     27  H   LIG d   1       5.363  -5.418  -9.346  0.00  0.00     0.027 H 
ATOM     28  H   LIG d   1       6.118  -3.818  -9.544  0.00  0.00     0.027 H 
ATOM     29  H   LIG d   1       6.692  -4.923  -8.271  0.00  0.00     0.027 H 
ENDBRANCH  14  26
ENDBRANCH  13  14
ENDBRANCH   1  13
BRANCH  10  30
ATOM     30  C   LIG d   1       5.115  -1.215  -3.094  0.00  0.00     0.343 C 
ATOM     31  O   LIG d   1       4.611  -1.851  -2.190  0.00  0.00    -0.245 OA
BRANCH  30  32
ATOM     32  O   LIG d   1       6.455  -1.210  -3.251  0.00  0.00    -0.459 OA
BRANCH  32  33
ATOM     33  C   LIG d   1       7.087   0.078  -3.472  0.00  0.00     0.116 C 
ATOM     34  H   LIG d   1       6.335   0.866  -3.427  0.00  0.00     0.072 H 
ATOM     35  H   LIG d   1       7.839   0.251  -2.702  0.00  0.00     0.072 H 
BRANCH  33  36
ATOM     36  C   LIG d   1       7.755   0.088  -4.849  0.00  0.00     0.082 C 
ATOM     37  H   LIG d   1       8.779   0.449  -4.752  0.00  0.00     0.059 H 
ATOM     38  H   LIG d   1       7.761  -0.923  -5.257  0.00  0.00     0.059 H 
BRANCH  36  39
ATOM     39  O   LIG d   1       7.027   0.951  -5.725  0.00  0.00    -0.380 OA
BRANCH  39  40
ATOM     40  C   LIG d   1       7.075   0.559  -7.099  0.00  0.00     0.037 C 
ATOM     41  H   LIG d   1       6.280   1.063  -7.648  0.00  0.00     0.052 H 
ATOM     42  H   LIG d   1       8.042   0.837  -7.521  0.00  0.00     0.052 H 
ATOM     43  H   LIG d   1       6.942  -0.519  -7.174  0.00  0.00     0.052 H 
ENDBRANCH  39  40
ENDBRANCH  36  39
ENDBRANCH  33  36
ENDBRANCH  32  33
ENDBRANCH  30  32
ENDBRANCH  10  30
BRANCH   9  44
ATOM     44  C   LIG d   1       3.606   1.428  -2.428  0.00  0.00    -0.005 C 
ATOM     45  H   LIG d   1       3.947   2.453  -2.576  0.00  0.00     0.031 H 
ATOM     46  H   LIG d   1       2.598   1.437  -2.012  0.00  0.00     0.031 H 
ATOM     47  H   LIG d   1       4.278   0.916  -1.740  0.00  0.00     0.031 H 
ENDBRANCH   9  44
TORSDOF 14
ENDMDL
MODEL 4
REMARK VINA RESULT:      -5.0      5.038      9.062
REMARK  14 active torsions:
REMARK  status: ('A' for Active; 'I' for Inactive)
REMARK    1  A    between atoms: C_1  and  C_2 
REMARK    2  A    between atoms: C_2  and  O_3 
REMARK    3  A    between atoms: O_3  and  C_4 
REMARK    4  A    between atoms: C_4  and  C_6 
REMARK    5  A    between atoms: C_6  and  C_8 
REMARK    6  A    between atoms: C_6  and  O_9 
REMARK    7  A    between atoms: O_9  and  C_10 
REMARK    8  A    between atoms: C_18  and  C_27 
REMARK    9  A    between atoms: C_19  and  C_20 
REMARK   10  A    between atoms: C_20  and  O_22 
REMARK   11  A    between atoms: O_22  and  C_23 
REMARK   12  A    between atoms: C_23  and  C_24 
REMARK   13  A    between atoms: C_24  and  O_25 
REMARK   14  A    between atoms: O_25  and  C_26 
ROOT
ATOM      1  C   LIG d   1       7.227   0.541  -3.835  0.00  0.00     0.136 A 
ATOM      2  C   LIG d   1       7.769   1.810  -3.738  0.00  0.00    -0.007 A 
ATOM      3  C   LIG d   1       8.843   2.163  -4.548  0.00  0.00     0.038 A 
ATOM      4  C   LIG d   1       9.367   1.245  -5.469  0.00  0.00     0.137 A 
ATOM      5  C   LIG d   1       8.807  -0.024  -5.560  0.00  0.00    -0.001 A 
ATOM      6  C   LIG d   1       7.747  -0.371  -4.749  0.00  0.00     0.063 A 
ATOM      7 BR   LIG d   1       6.993  -2.100  -4.880  0.00  0.00    -0.046 Br
ATOM      8  O   LIG d   1      10.384   1.850  -6.118  0.00  0.00    -0.459 OA
ATOM      9  C   LIG d   1      10.561   3.103  -5.683  0.00  0.00     0.117 A 
ATOM     10  C   LIG d   1       9.653   3.388  -4.710  0.00  0.00     0.107 A 
ATOM     11  H   LIG d   1       7.364   2.521  -3.033  0.00  0.00     0.066 H 
ATOM     12  H   LIG d   1       9.203  -0.740  -6.266  0.00  0.00     0.067 H 
ENDROOT
BRANCH   1  13
ATOM     13  O   LIG d   1       6.181   0.187  -3.042  0.00  0.00    -0.477 OA
BRANCH  13  14
ATOM     14  C   LIG d   1       5.122   1.137  -2.903  0.00  0.00     0.193 C 
ATOM     15  H   LIG d   1       5.476   2.123  -3.200  0.00  0.00     0.085 H 
BRANCH  14  16
ATOM     16  C   LIG d   1       3.966   0.731  -3.782  0.00  0.00     0.348 C 
ATOM     17  O   LIG d   1       3.210   1.571  -4.211  0.00  0.00    -0.247 OA
BRANCH  16  18
ATOM     18  O   LIG d   1       3.774  -0.562  -4.082  0.00  0.00    -0.462 OA
BRANCH  18  19
ATOM     19  C   LIG d   1       2.963  -1.340  -3.161  0.00  0.00     0.090 C 
ATOM     20  H   LIG d   1       2.472  -0.670  -2.455  0.00  0.00     0.069 H 
ATOM     21  H   LIG d   1       2.210  -1.895  -3.720  0.00  0.00     0.069 H 
BRANCH  19  22
ATOM     22  C   LIG d   1       3.856  -2.319  -2.398  0.00  0.00    -0.031 C 
ATOM     23  H   LIG d   1       4.621  -2.712  -3.067  0.00  0.00     0.026 H 
ATOM     24  H   LIG d   1       4.335  -1.802  -1.565  0.00  0.00     0.026 H 
ATOM     25  H   LIG d   1       3.251  -3.141  -2.015  0.00  0.00     0.026 H 
ENDBRANCH  19  22
ENDBRANCH  18  19
ENDBRANCH  16  18
ENDBRANCH  14  16
BRANCH  14  26
ATOM     26  C   LIG d   1       4.663   1.177  -1.444  0.00  0.00    -0.017 C 
ATOM     27  H   LIG d   1       5.283   1.879  -0.887  0.00  0.00     0.027 H 
ATOM     28  H   LIG d   1       3.621   1.498  -1.400  0.00  0.00     0.027 H 
ATOM     29  H   LIG d   1       4.756   0.184  -1.006  0.00  0.00     0.027 H 
ENDBRANCH  14  26
ENDBRANCH  13  14
ENDBRANCH   1  13
BRANCH  10  30
ATOM     30  C   LIG d   1       9.508   4.650  -3.973  0.00  0.00     0.343 C 
ATOM     31  O   LIG d   1       9.153   5.656  -4.554  0.00  0.00    -0.245 OA
BRANCH  30  32
ATOM     32  O   LIG d   1       9.771   4.691  -2.651  0.00  0.00    -0.459 OA
BRANCH  32  33
ATOM     33  C   LIG d   1      10.878   5.529  -2.226  0.00  0.00     0.116 C 
ATOM     34  H   LIG d   1      11.777   4.922  -2.125  0.00  0.00     0.072 H 
ATOM     35  H   LIG d   1      11.048   6.310  -2.967  0.00  0.00     0.072 H 
BRANCH  33  36
ATOM     36  C   LIG d   1      10.543   6.171  -0.877  0.00  0.00     0.082 C 
ATOM     37  H   LIG d   1      10.396   5.390  -0.130  0.00  0.00     0.059 H 
ATOM     38  H   LIG d   1      11.363   6.819  -0.569  0.00  0.00     0.059 H 
BRANCH  36  39
ATOM     39  O   LIG d   1       9.347   6.942  -1.001  0.00  0.00    -0.380 OA
BRANCH  39  40
ATOM     40  C   LIG d   1       9.571   8.316  -1.326  0.00  0.00     0.037 C 
ATOM     41  H   LIG d   1      10.254   8.754  -0.598  0.00  0.00     0.052 H 
ATOM     42  H   LIG d   1      10.009   8.386  -2.322  0.00  0.00     0.052 H 
ATOM     43  H   LIG d   1       8.624   8.853  -1.306  0.00  0.00     0.052 H 
ENDBRANCH  39  40
ENDBRANCH  36  39
ENDBRANCH  33  36
ENDBRANCH  32  33
ENDBRANCH  30  32
ENDBRANCH  10  30
BRANCH   9  44
ATOM     44  C   LIG d   1      11.612   4.056  -6.193  0.00  0.00    -0.005 C 
ATOM     45  H   LIG d   1      11.473   4.212  -7.263  0.00  0.00     0.031 H 
ATOM     46  H   LIG d   1      11.520   5.009  -5.673  0.00  0.00     0.031 H 
ATOM     47  H   LIG d   1      12.601   3.637  -6.011  0.00  0.00     0.031 H 
ENDBRANCH   9  44
TORSDOF 14
ENDMDL
MODEL 5
REMARK VINA RESULT:      -4.9      7.677     10.445
REMARK  14 active torsions:
REMARK  status: ('A' for Active; 'I' for Inactive)
REMARK    1  A    between atoms: C_1  and  C_2 
REMARK    2  A    between atoms: C_2  and  O_3 
REMARK    3  A    between atoms: O_3  and  C_4 
REMARK    4  A    between atoms: C_4  and  C_6 
REMARK    5  A    between atoms: C_6  and  C_8 
REMARK    6  A    between atoms: C_6  and  O_9 
REMARK    7  A    between atoms: O_9  and  C_10 
REMARK    8  A    between atoms: C_18  and  C_27 
REMARK    9  A    between atoms: C_19  and  C_20 
REMARK   10  A    between atoms: C_20  and  O_22 
REMARK   11  A    between atoms: O_22  and  C_23 
REMARK   12  A    between atoms: C_23  and  C_24 
REMARK   13  A    between atoms: C_24  and  O_25 
REMARK   14  A    between atoms: O_25  and  C_26 
ROOT
ATOM      1  C   LIG d   1      10.074   6.423  -1.644  0.00  0.00     0.136 A 
ATOM      2  C   LIG d   1       9.867   5.146  -2.133  0.00  0.00    -0.007 A 
ATOM      3  C   LIG d   1       9.749   4.947  -3.504  0.00  0.00     0.038 A 
ATOM      4  C   LIG d   1       9.850   6.030  -4.389  0.00  0.00     0.137 A 
ATOM      5  C   LIG d   1      10.064   7.306  -3.882  0.00  0.00    -0.001 A 
ATOM      6  C   LIG d   1      10.174   7.499  -2.521  0.00  0.00     0.063 A 
ATOM      7 BR   LIG d   1      10.465   9.239  -1.842  0.00  0.00    -0.046 Br
ATOM      8  O   LIG d   1       9.705   5.549  -5.642  0.00  0.00    -0.459 OA
ATOM      9  C   LIG d   1       9.516   4.225  -5.638  0.00  0.00     0.117 A 
ATOM     10  C   LIG d   1       9.527   3.761  -4.358  0.00  0.00     0.107 A 
ATOM     11  H   LIG d   1       9.794   4.309  -1.454  0.00  0.00     0.066 H 
ATOM     12  H   LIG d   1      10.143   8.148  -4.555  0.00  0.00     0.067 H 
ENDROOT
BRANCH   1  13
ATOM     13  O   LIG d   1      10.185   6.628  -0.304  0.00  0.00    -0.477 OA
BRANCH  13  14
ATOM     14  C   LIG d   1      11.170   5.858   0.389  0.00  0.00     0.193 C 
ATOM     15  H   LIG d   1      11.075   4.809   0.110  0.00  0.00     0.085 H 
BRANCH  14  16
ATOM     16  C   LIG d   1      12.545   6.354   0.021  0.00  0.00     0.348 C 
ATOM     17  O   LIG d   1      12.894   7.464   0.346  0.00  0.00    -0.247 OA
BRANCH  16  18
ATOM     18  O   LIG d   1      13.378   5.564  -0.674  0.00  0.00    -0.462 OA
BRANCH  18  19
ATOM     19  C   LIG d   1      14.070   6.166  -1.801  0.00  0.00     0.090 C 
ATOM     20  H   LIG d   1      14.000   7.251  -1.732  0.00  0.00     0.069 H 
ATOM     21  H   LIG d   1      15.118   5.867  -1.784  0.00  0.00     0.069 H 
BRANCH  19  22
ATOM     22  C   LIG d   1      13.427   5.694  -3.106  0.00  0.00    -0.031 C 
ATOM     23  H   LIG d   1      14.117   5.036  -3.635  0.00  0.00     0.026 H 
ATOM     24  H   LIG d   1      12.508   5.151  -2.883  0.00  0.00     0.026 H 
ATOM     25  H   LIG d   1      13.196   6.557  -3.730  0.00  0.00     0.026 H 
ENDBRANCH  19  22
ENDBRANCH  18  19
ENDBRANCH  16  18
ENDBRANCH  14  16
BRANCH  14  26
ATOM     26  C   LIG d   1      10.963   6.005   1.898  0.00  0.00    -0.017 C 
ATOM     27  H   LIG d   1      11.305   6.990   2.217  0.00  0.00     0.027 H 
ATOM     28  H   LIG d   1       9.903   5.896   2.131  0.00  0.00     0.027 H 
ATOM     29  H   LIG d   1      11.532   5.236   2.420  0.00  0.00     0.027 H 
ENDBRANCH  14  26
ENDBRANCH  13  14
ENDBRANCH   1  13
BRANCH  10  30
ATOM     30  C   LIG d   1       9.353   2.371  -3.916  0.00  0.00     0.343 C 
ATOM     31  O   LIG d   1      10.299   1.608  -3.923  0.00  0.00    -0.245 OA
BRANCH  30  32
ATOM     32  O   LIG d   1       8.143   1.942  -3.504  0.00  0.00    -0.459 OA
BRANCH  32  33
ATOM     33  C   LIG d   1       7.658   0.697  -4.072  0.00  0.00     0.116 C 
ATOM     34  H   LIG d   1       7.439   0.840  -5.129  0.00  0.00     0.072 H 
ATOM     35  H   LIG d   1       8.419  -0.075  -3.959  0.00  0.00     0.072 H 
BRANCH  33  36
ATOM     36  C   LIG d   1       6.384   0.266  -3.341  0.00  0.00     0.082 C 
ATOM     37  H   LIG d   1       5.657  -0.103  -4.065  0.00  0.00     0.059 H 
ATOM     38  H   LIG d   1       6.623  -0.525  -2.629  0.00  0.00     0.059 H 
BRANCH  36  39
ATOM     39  O   LIG d   1       5.834   1.385  -2.643  0.00  0.00    -0.380 OA
BRANCH  39  40
ATOM     40  C   LIG d   1       4.643   1.085  -1.911  0.00  0.00     0.037 C 
ATOM     41  H   LIG d   1       4.601   1.706  -1.016  0.00  0.00     0.052 H 
ATOM     42  H   LIG d   1       3.772   1.289  -2.535  0.00  0.00     0.052 H 
ATOM     43  H   LIG d   1       4.647   0.034  -1.625  0.00  0.00     0.052 H 
ENDBRANCH  39  40
ENDBRANCH  36  39
ENDBRANCH  33  36
ENDBRANCH  32  33
ENDBRANCH  30  32
ENDBRANCH  10  30
BRANCH   9  44
ATOM     44  C   LIG d   1       9.318   3.374  -6.866  0.00  0.00    -0.005 C 
ATOM     45  H   LIG d   1      10.289   3.080  -7.265  0.00  0.00     0.031 H 
ATOM     46  H   LIG d   1       8.749   2.483  -6.602  0.00  0.00     0.031 H 
ATOM     47  H   LIG d   1       8.772   3.943  -7.618  0.00  0.00     0.031 H 
ENDBRANCH   9  44
TORSDOF 14
ENDMDL
MODEL 6
REMARK VINA RESULT:      -4.9      4.045      7.236
REMARK  14 active torsions:
REMARK  status: ('A' for Active; 'I' for Inactive)
REMARK    1  A    between atoms: C_1  and  C_2 
REMARK    2  A    between atoms: C_2  and  O_3 
REMARK    3  A    between atoms: O_3  and  C_4 
REMARK    4  A    between atoms: C_4  and  C_6 
REMARK    5  A    between atoms: C_6  and  C_8 
REMARK    6  A    between atoms: C_6  and  O_9 
REMARK    7  A    between atoms: O_9  and  C_10 
REMARK    8  A    between atoms: C_18  and  C_27 
REMARK    9  A    between atoms: C_19  and  C_20 
REMARK   10  A    between atoms: C_20  and  O_22 
REMARK   11  A    between atoms: O_22  and  C_23 
REMARK   12  A    between atoms: C_23  and  C_24 
REMARK   13  A    between atoms: C_24  and  O_25 
REMARK   14  A    between atoms: O_25  and  C_26 
ROOT
ATOM      1  C   LIG d   1       8.706   0.905  -4.669  0.00  0.00     0.136 A 
ATOM      2  C   LIG d   1       7.514   1.093  -3.993  0.00  0.00    -0.007 A 
ATOM      3  C   LIG d   1       6.729  -0.007  -3.666  0.00  0.00     0.038 A 
ATOM      4  C   LIG d   1       7.144  -1.302  -4.008  0.00  0.00     0.137 A 
ATOM      5  C   LIG d   1       8.347  -1.475  -4.683  0.00  0.00    -0.001 A 
ATOM      6  C   LIG d   1       9.119  -0.380  -5.010  0.00  0.00     0.063 A 
ATOM      7 BR   LIG d   1      10.753  -0.627  -5.928  0.00  0.00    -0.046 Br
ATOM      8  O   LIG d   1       6.203  -2.163  -3.568  0.00  0.00    -0.459 OA
ATOM      9  C   LIG d   1       5.200  -1.521  -2.961  0.00  0.00     0.117 A 
ATOM     10  C   LIG d   1       5.436  -0.180  -2.972  0.00  0.00     0.107 A 
ATOM     11  H   LIG d   1       7.194   2.088  -3.723  0.00  0.00     0.066 H 
ATOM     12  H   LIG d   1       8.677  -2.468  -4.952  0.00  0.00     0.067 H 
ENDROOT
BRANCH   1  13
ATOM     13  O   LIG d   1       9.477   1.975  -4.998  0.00  0.00    -0.477 OA
BRANCH  13  14
ATOM     14  C   LIG d   1       9.485   3.073  -4.082  0.00  0.00     0.193 C 
ATOM     15  H   LIG d   1       8.706   2.929  -3.335  0.00  0.00     0.085 H 
BRANCH  14  16
ATOM     16  C   LIG d   1      10.828   3.149  -3.401  0.00  0.00     0.348 C 
ATOM     17  O   LIG d   1      11.440   2.135  -3.158  0.00  0.00    -0.247 OA
BRANCH  16  18
ATOM     18  O   LIG d   1      11.340   4.341  -3.059  0.00  0.00    -0.462 OA
BRANCH  18  19
ATOM     19  C   LIG d   1      11.223   4.734  -1.666  0.00  0.00     0.090 C 
ATOM     20  H   LIG d   1      10.804   3.909  -1.090  0.00  0.00     0.069 H 
ATOM     21  H   LIG d   1      12.208   4.987  -1.276  0.00  0.00     0.069 H 
BRANCH  19  22
ATOM     22  C   LIG d   1      10.303   5.951  -1.555  0.00  0.00    -0.031 C 
ATOM     23  H   LIG d   1       9.936   6.038  -0.532  0.00  0.00     0.026 H 
ATOM     24  H   LIG d   1      10.858   6.852  -1.819  0.00  0.00     0.026 H 
ATOM     25  H   LIG d   1       9.459   5.832  -2.235  0.00  0.00     0.026 H 
ENDBRANCH  19  22
ENDBRANCH  18  19
ENDBRANCH  16  18
ENDBRANCH  14  16
BRANCH  14  26
ATOM     26  C   LIG d   1       9.227   4.374  -4.845  0.00  0.00    -0.017 C 
ATOM     27  H   LIG d   1       9.827   5.175  -4.412  0.00  0.00     0.027 H 
ATOM     28  H   LIG d   1       9.500   4.241  -5.892  0.00  0.00     0.027 H 
ATOM     29  H   LIG d   1       8.171   4.634  -4.774  0.00  0.00     0.027 H 
ENDBRANCH  14  26
ENDBRANCH  13  14
ENDBRANCH   1  13
BRANCH  10  30
ATOM     30  C   LIG d   1       4.582   0.876  -2.412  0.00  0.00     0.343 C 
ATOM     31  O   LIG d   1       4.706   1.205  -1.249  0.00  0.00    -0.245 OA
BRANCH  30  32
ATOM     32  O   LIG d   1       3.660   1.480  -3.190  0.00  0.00    -0.459 OA
BRANCH  32  33
ATOM     33  C   LIG d   1       2.895   0.630  -4.084  0.00  0.00     0.116 C 
ATOM     34  H   LIG d   1       3.511  -0.209  -4.405  0.00  0.00     0.072 H 
ATOM     35  H   LIG d   1       2.013   0.256  -3.564  0.00  0.00     0.072 H 
BRANCH  33  36
ATOM     36  C   LIG d   1       2.459   1.440  -5.307  0.00  0.00     0.082 C 
ATOM     37  H   LIG d   1       1.374   1.399  -5.402  0.00  0.00     0.059 H 
ATOM     38  H   LIG d   1       2.775   2.476  -5.188  0.00  0.00     0.059 H 
BRANCH  36  39
ATOM     39  O   LIG d   1       3.061   0.890  -6.481  0.00  0.00    -0.380 OA
BRANCH  39  40
ATOM     40  C   LIG d   1       3.775  -0.327  -6.253  0.00  0.00     0.037 C 
ATOM     41  H   LIG d   1       4.103  -0.366  -5.215  0.00  0.00     0.052 H 
ATOM     42  H   LIG d   1       3.122  -1.175  -6.461  0.00  0.00     0.052 H 
ATOM     43  H   LIG d   1       4.642  -0.367  -6.911  0.00  0.00     0.052 H 
ENDBRANCH  39  40
ENDBRANCH  36  39
ENDBRANCH  33  36
ENDBRANCH  32  33
ENDBRANCH  30  32
ENDBRANCH  10  30
BRANCH   9  44
ATOM     44  C   LIG d   1       3.988  -2.182  -2.356  0.00  0.00    -0.005 C 
ATOM     45  H   LIG d   1       3.980  -2.012  -1.279  0.00  0.00     0.031 H 
ATOM     46  H   LIG d   1       3.085  -1.758  -2.796  0.00  0.00     0.031 H 
ATOM     47  H   LIG d   1       4.021  -3.252  -2.556  0.00  0.00     0.031 H 
ENDBRANCH   9  44
TORSDOF 14
ENDMDL
MODEL 7
REMARK VINA RESULT:      -4.9      7.816     11.782
REMARK  14 active torsions:
REMARK  status: ('A' for Active; 'I' for Inactive)
REMARK    1  A    between atoms: C_1  and  C_2 
REMARK    2  A    between atoms: C_2  and  O_3 
REMARK    3  A    between atoms: O_3  and  C_4 
REMARK    4  A    between atoms: C_4  and  C_6 
REMARK    5  A    between atoms: C_6  and  C_8 
REMARK    6  A    between atoms: C_6  and  O_9 
REMARK    7  A    between atoms: O_9  and  C_10 
REMARK    8  A    between atoms: C_18  and  C_27 
REMARK    9  A    between atoms: C_19  and  C_20 
REMARK   10  A    between atoms: C_20  and  O_22 
REMARK   11  A    between atoms: O_22  and  C_23 
REMARK   12  A    between atoms: C_23  and  C_24 
REMARK   13  A    between atoms: C_24  and  O_25 
REMARK   14  A    between atoms: O_25  and  C_26 
ROOT
ATOM      1  C   LIG d   1       9.475   4.601  -5.427  0.00  0.00     0.136 A 
ATOM      2  C   LIG d   1       9.406   5.171  -4.169  0.00  0.00    -0.007 A 
ATOM      3  C   LIG d   1       9.765   6.503  -3.998  0.00  0.00     0.038 A 
ATOM      4  C   LIG d   1      10.183   7.271  -5.094  0.00  0.00     0.137 A 
ATOM      5  C   LIG d   1      10.241   6.685  -6.353  0.00  0.00    -0.001 A 
ATOM      6  C   LIG d   1       9.890   5.361  -6.516  0.00  0.00     0.063 A 
ATOM      7 BR   LIG d   1       9.974   4.575  -8.233  0.00  0.00    -0.046 Br
ATOM      8  O   LIG d   1      10.458   8.513  -4.643  0.00  0.00    -0.459 OA
ATOM      9  C   LIG d   1      10.249   8.610  -3.326  0.00  0.00     0.117 A 
ATOM     10  C   LIG d   1       9.817   7.415  -2.837  0.00  0.00     0.107 A 
ATOM     11  H   LIG d   1       9.079   4.584  -3.324  0.00  0.00     0.066 H 
ATOM     12  H   LIG d   1      10.563   7.267  -7.205  0.00  0.00     0.067 H 
ENDROOT
BRANCH   1  13
ATOM     13  O   LIG d   1       9.131   3.297  -5.602  0.00  0.00    -0.477 OA
BRANCH  13  14
ATOM     14  C   LIG d   1       8.979   2.503  -4.423  0.00  0.00     0.193 C 
ATOM     15  H   LIG d   1       9.038   3.143  -3.544  0.00  0.00     0.085 H 
BRANCH  14  16
ATOM     16  C   LIG d   1       7.640   1.812  -4.453  0.00  0.00     0.348 C 
ATOM     17  O   LIG d   1       7.264   1.266  -5.464  0.00  0.00    -0.247 OA
BRANCH  16  18
ATOM     18  O   LIG d   1       6.862   1.808  -3.360  0.00  0.00    -0.462 OA
BRANCH  18  19
ATOM     19  C   LIG d   1       6.028   0.638  -3.147  0.00  0.00     0.090 C 
ATOM     20  H   LIG d   1       5.612   0.311  -4.100  0.00  0.00     0.069 H 
ATOM     21  H   LIG d   1       6.630  -0.163  -2.718  0.00  0.00     0.069 H 
BRANCH  19  22
ATOM     22  C   LIG d   1       4.891   0.991  -2.188  0.00  0.00    -0.031 C 
ATOM     23  H   LIG d   1       3.945   0.999  -2.731  0.00  0.00     0.026 H 
ATOM     24  H   LIG d   1       4.843   0.248  -1.391  0.00  0.00     0.026 H 
ATOM     25  H   LIG d   1       5.070   1.976  -1.756  0.00  0.00     0.026 H 
ENDBRANCH  19  22
ENDBRANCH  18  19
ENDBRANCH  16  18
ENDBRANCH  14  16
BRANCH  14  26
ATOM     26  C   LIG d   1      10.092   1.455  -4.368  0.00  0.00    -0.017 C 
ATOM     27  H   LIG d   1      10.942   1.856  -3.816  0.00  0.00     0.027 H 
ATOM     28  H   LIG d   1       9.723   0.560  -3.866  0.00  0.00     0.027 H 
ATOM     29  H   LIG d   1      10.403   1.202  -5.381  0.00  0.00     0.027 H 
ENDBRANCH  14  26
ENDBRANCH  13  14
ENDBRANCH   1  13
BRANCH  10  30
ATOM     30  C   LIG d   1       9.476   7.098  -1.444  0.00  0.00     0.343 C 
ATOM     31  O   LIG d   1       8.612   7.731  -0.870  0.00  0.00    -0.245 OA
BRANCH  30  32
ATOM     32  O   LIG d   1      10.122   6.102  -0.802  0.00  0.00    -0.459 OA
BRANCH  32  33
ATOM     33  C   LIG d   1      11.317   6.463  -0.063  0.00  0.00     0.116 C 
ATOM     34  H   LIG d   1      12.156   5.861  -0.410  0.00  0.00     0.072 H 
ATOM     35  H   LIG d   1      11.538   7.519  -0.221  0.00  0.00     0.072 H 
BRANCH  33  36
ATOM     36  C   LIG d   1      11.090   6.208   1.429  0.00  0.00     0.082 C 
ATOM     37  H   LIG d   1      10.042   5.961   1.599  0.00  0.00     0.059 H 
ATOM     38  H   LIG d   1      11.717   5.379   1.756  0.00  0.00     0.059 H 
BRANCH  36  39
ATOM     39  O   LIG d   1      11.428   7.382   2.170  0.00  0.00    -0.380 OA
BRANCH  39  40
ATOM     40  C   LIG d   1      11.516   8.567   1.374  0.00  0.00     0.037 C 
ATOM     41  H   LIG d   1      10.528   9.018   1.285  0.00  0.00     0.052 H 
ATOM     42  H   LIG d   1      12.196   9.274   1.850  0.00  0.00     0.052 H 
ATOM     43  H   LIG d   1      11.891   8.312   0.384  0.00  0.00     0.052 H 
ENDBRANCH  39  40
ENDBRANCH  36  39
ENDBRANCH  33  36
ENDBRANCH  32  33
ENDBRANCH  30  32
ENDBRANCH  10  30
BRANCH   9  44
ATOM     44  C   LIG d   1      10.460   9.857  -2.504  0.00  0.00    -0.005 C 
ATOM     45  H   LIG d   1      10.761  10.676  -3.157  0.00  0.00     0.031 H 
ATOM     46  H   LIG d   1       9.532  10.119  -1.997  0.00  0.00     0.031 H 
ATOM     47  H   LIG d   1      11.239   9.675  -1.764  0.00  0.00     0.031 H 
ENDBRANCH   9  44
TORSDOF 14
ENDMDL
MODEL 8
REMARK VINA RESULT:      -4.8      5.846      9.853
REMARK  14 active torsions:
REMARK  status: ('A' for Active; 'I' for Inactive)
REMARK    1  A    between atoms: C_1  and  C_2 
REMARK    2  A    between atoms: C_2  and  O_3 
REMARK    3  A    between atoms: O_3  and  C_4 
REMARK    4  A    between atoms: C_4  and  C_6 
REMARK    5  A    between atoms: C_6  and  C_8 
REMARK    6  A    between atoms: C_6  and  O_9 
REMARK    7  A    between atoms: O_9  and  C_10 
REMARK    8  A    between atoms: C_18  and  C_27 
REMARK    9  A    between atoms: C_19  and  C_20 
REMARK   10  A    between atoms: C_20  and  O_22 
REMARK   11  A    between atoms: O_22  and  C_23 
REMARK   12  A    between atoms: C_23  and  C_24 
REMARK   13  A    between atoms: C_24  and  O_25 
REMARK   14  A    between atoms: O_25  and  C_26 
ROOT
ATOM      1  C   LIG d   1       7.826   1.548  -5.386  0.00  0.00     0.136 A 
ATOM      2  C   LIG d   1       8.310   2.571  -4.592  0.00  0.00    -0.007 A 
ATOM      3  C   LIG d   1       9.408   3.311  -5.018  0.00  0.00     0.038 A 
ATOM      4  C   LIG d   1      10.015   3.032  -6.251  0.00  0.00     0.137 A 
ATOM      5  C   LIG d   1       9.512   2.004  -7.040  0.00  0.00    -0.001 A 
ATOM      6  C   LIG d   1       8.428   1.269  -6.609  0.00  0.00     0.063 A 
ATOM      7 BR   LIG d   1       7.752  -0.127  -7.690  0.00  0.00    -0.046 Br
ATOM      8  O   LIG d   1      11.038   3.898  -6.409  0.00  0.00    -0.459 OA
ATOM      9  C   LIG d   1      11.142   4.725  -5.363  0.00  0.00     0.117 A 
ATOM     10  C   LIG d   1      10.175   4.438  -4.449  0.00  0.00     0.107 A 
ATOM     11  H   LIG d   1       7.842   2.792  -3.644  0.00  0.00     0.066 H 
ATOM     12  H   LIG d   1       9.973   1.780  -7.992  0.00  0.00     0.067 H 
ENDROOT
BRANCH   1  13
ATOM     13  O   LIG d   1       6.756   0.816  -4.973  0.00  0.00    -0.477 OA
BRANCH  13  14
ATOM     14  C   LIG d   1       6.703   0.470  -3.587  0.00  0.00     0.193 C 
ATOM     15  H   LIG d   1       7.491   0.998  -3.051  0.00  0.00     0.085 H 
BRANCH  14  16
ATOM     16  C   LIG d   1       5.361   0.862  -3.024  0.00  0.00     0.348 C 
ATOM     17  O   LIG d   1       5.289   1.357  -1.923  0.00  0.00    -0.247 OA
BRANCH  16  18
ATOM     18  O   LIG d   1       4.246   0.656  -3.742  0.00  0.00    -0.462 OA
BRANCH  18  19
ATOM     19  C   LIG d   1       3.088   0.147  -3.030  0.00  0.00     0.090 C 
ATOM     20  H   LIG d   1       3.033   0.612  -2.046  0.00  0.00     0.069 H 
ATOM     21  H   LIG d   1       2.184   0.379  -3.593  0.00  0.00     0.069 H 
BRANCH  19  22
ATOM     22  C   LIG d   1       3.213  -1.369  -2.870  0.00  0.00    -0.031 C 
ATOM     23  H   LIG d   1       3.211  -1.840  -3.854  0.00  0.00     0.026 H 
ATOM     24  H   LIG d   1       4.146  -1.606  -2.358  0.00  0.00     0.026 H 
ATOM     25  H   LIG d   1       2.372  -1.744  -2.286  0.00  0.00     0.026 H 
ENDBRANCH  19  22
ENDBRANCH  18  19
ENDBRANCH  16  18
ENDBRANCH  14  16
BRANCH  14  26
ATOM     26  C   LIG d   1       6.900  -1.039  -3.430  0.00  0.00    -0.017 C 
ATOM     27  H   LIG d   1       6.548  -1.547  -4.328  0.00  0.00     0.027 H 
ATOM     28  H   LIG d   1       7.959  -1.253  -3.284  0.00  0.00     0.027 H 
ATOM     29  H   LIG d   1       6.334  -1.391  -2.568  0.00  0.00     0.027 H 
ENDBRANCH  14  26
ENDBRANCH  13  14
ENDBRANCH   1  13
BRANCH  10  30
ATOM     30  C   LIG d   1       9.942   5.109  -3.164  0.00  0.00     0.343 C 
ATOM     31  O   LIG d   1      10.273   4.569  -2.127  0.00  0.00    -0.245 OA
BRANCH  30  32
ATOM     32  O   LIG d   1       9.360   6.326  -3.135  0.00  0.00    -0.459 OA
BRANCH  32  33
ATOM     33  C   LIG d   1      10.104   7.396  -2.496  0.00  0.00     0.116 C 
ATOM     34  H   LIG d   1      11.097   7.039  -2.226  0.00  0.00     0.072 H 
ATOM     35  H   LIG d   1      10.194   8.237  -3.184  0.00  0.00     0.072 H 
BRANCH  33  36
ATOM     36  C   LIG d   1       9.364   7.848  -1.234  0.00  0.00     0.082 C 
ATOM     37  H   LIG d   1       9.449   8.930  -1.132  0.00  0.00     0.059 H 
ATOM     38  H   LIG d   1       8.313   7.571  -1.310  0.00  0.00     0.059 H 
BRANCH  36  39
ATOM     39  O   LIG d   1       9.942   7.215  -0.091  0.00  0.00    -0.380 OA
BRANCH  39  40
ATOM     40  C   LIG d   1      11.372   7.221  -0.084  0.00  0.00     0.037 C 
ATOM     41  H   LIG d   1      11.741   7.009  -1.087  0.00  0.00     0.052 H 
ATOM     42  H   LIG d   1      11.729   8.201   0.235  0.00  0.00     0.052 H 
ATOM     43  H   LIG d   1      11.734   6.460   0.606  0.00  0.00     0.052 H 
ENDBRANCH  39  40
ENDBRANCH  36  39
ENDBRANCH  33  36
ENDBRANCH  32  33
ENDBRANCH  30  32
ENDBRANCH  10  30
BRANCH   9  44
ATOM     44  C   LIG d   1      12.177   5.811  -5.217  0.00  0.00    -0.005 C 
ATOM     45  H   LIG d   1      13.146   5.436  -5.546  0.00  0.00     0.031 H 
ATOM     46  H   LIG d   1      11.893   6.668  -5.828  0.00  0.00     0.031 H 
ATOM     47  H   LIG d   1      12.239   6.115  -4.172  0.00  0.00     0.031 H 
ENDBRANCH   9  44
TORSDOF 14
ENDMDL
MODEL 9
REMARK VINA RESULT:      -4.8      3.120      6.686
REMARK  14 active torsions:
REMARK  status: ('A' for Active; 'I' for Inactive)
REMARK    1  A    between atoms: C_1  and  C_2 
REMARK    2  A    between atoms: C_2  and  O_3 
REMARK    3  A    between atoms: O_3  and  C_4 
REMARK    4  A    between atoms: C_4  and  C_6 
REMARK    5  A    between atoms: C_6  and  C_8 
REMARK    6  A    between atoms: C_6  and  O_9 
REMARK    7  A    between atoms: O_9  and  C_10 
REMARK    8  A    between atoms: C_18  and  C_27 
REMARK    9  A    between atoms: C_19  and  C_20 
REMARK   10  A    between atoms: C_20  and  O_22 
REMARK   11  A    between atoms: O_22  and  C_23 
REMARK   12  A    between atoms: C_23  and  C_24 
REMARK   13  A    between atoms: C_24  and  O_25 
REMARK   14  A    between atoms: O_25  and  C_26 
ROOT
ATOM      1  C   LIG d   1       4.715  -2.168  -5.105  0.00  0.00     0.136 A 
ATOM      2  C   LIG d   1       4.787  -1.780  -6.431  0.00  0.00    -0.007 A 
ATOM      3  C   LIG d   1       4.092  -0.653  -6.856  0.00  0.00     0.038 A 
ATOM      4  C   LIG d   1       3.332   0.096  -5.947  0.00  0.00     0.137 A 
ATOM      5  C   LIG d   1       3.274  -0.303  -4.617  0.00  0.00    -0.001 A 
ATOM      6  C   LIG d   1       3.960  -1.426  -4.202  0.00  0.00     0.063 A 
ATOM      7 BR   LIG d   1       3.874  -1.960  -2.391  0.00  0.00    -0.046 Br
ATOM      8  O   LIG d   1       2.779   1.124  -6.624  0.00  0.00    -0.459 OA
ATOM      9  C   LIG d   1       3.127   1.099  -7.916  0.00  0.00     0.117 A 
ATOM     10  C   LIG d   1       3.939   0.034  -8.155  0.00  0.00     0.107 A 
ATOM     11  H   LIG d   1       5.376  -2.351  -7.133  0.00  0.00     0.066 H 
ATOM     12  H   LIG d   1       2.690   0.266  -3.907  0.00  0.00     0.067 H 
ENDROOT
BRANCH   1  13
ATOM     13  O   LIG d   1       5.387  -3.272  -4.683  0.00  0.00    -0.477 OA
BRANCH  13  14
ATOM     14  C   LIG d   1       6.766  -3.369  -5.045  0.00  0.00     0.193 C 
ATOM     15  H   LIG d   1       6.949  -2.779  -5.942  0.00  0.00     0.085 H 
BRANCH  14  16
ATOM     16  C   LIG d   1       7.619  -2.848  -3.917  0.00  0.00     0.348 C 
ATOM     17  O   LIG d   1       8.517  -3.527  -3.475  0.00  0.00    -0.247 OA
BRANCH  16  18
ATOM     18  O   LIG d   1       7.377  -1.635  -3.398  0.00  0.00    -0.462 OA
BRANCH  18  19
ATOM     19  C   LIG d   1       7.664  -0.488  -4.242  0.00  0.00     0.090 C 
ATOM     20  H   LIG d   1       8.737  -0.298  -4.245  0.00  0.00     0.069 H 
ATOM     21  H   LIG d   1       7.327  -0.692  -5.259  0.00  0.00     0.069 H 
BRANCH  19  22
ATOM     22  C   LIG d   1       6.930   0.740  -3.700  0.00  0.00    -0.031 C 
ATOM     23  H   LIG d   1       6.390   0.471  -2.793  0.00  0.00     0.026 H 
ATOM     24  H   LIG d   1       7.653   1.524  -3.472  0.00  0.00     0.026 H 
ATOM     25  H   LIG d   1       6.225   1.103  -4.449  0.00  0.00     0.026 H 
ENDBRANCH  19  22
ENDBRANCH  18  19
ENDBRANCH  16  18
ENDBRANCH  14  16
BRANCH  14  26
ATOM     26  C   LIG d   1       7.119  -4.833  -5.317  0.00  0.00    -0.017 C 
ATOM     27  H   LIG d   1       6.371  -5.271  -5.978  0.00  0.00     0.027 H 
ATOM     28  H   LIG d   1       8.100  -4.888  -5.790  0.00  0.00     0.027 H 
ATOM     29  H   LIG d   1       7.138  -5.383  -4.376  0.00  0.00     0.027 H 
ENDBRANCH  14  26
ENDBRANCH  13  14
ENDBRANCH   1  13
BRANCH  10  30
ATOM     30  C   LIG d   1       4.539  -0.353  -9.439  0.00  0.00     0.343 C 
ATOM     31  O   LIG d   1       5.626   0.086  -9.759  0.00  0.00    -0.245 OA
BRANCH  30  32
ATOM     32  O   LIG d   1       3.883  -1.197 -10.262  0.00  0.00    -0.459 OA
BRANCH  32  33
ATOM     33  C   LIG d   1       3.174  -0.605 -11.382  0.00  0.00     0.116 C 
ATOM     34  H   LIG d   1       3.173   0.480 -11.280  0.00  0.00     0.072 H 
ATOM     35  H   LIG d   1       3.669  -0.882 -12.313  0.00  0.00     0.072 H 
BRANCH  33  36
ATOM     36  C   LIG d   1       1.732  -1.116 -11.400  0.00  0.00     0.082 C 
ATOM     37  H   LIG d   1       1.238  -0.841 -10.468  0.00  0.00     0.059 H 
ATOM     38  H   LIG d   1       1.198  -0.670 -12.239  0.00  0.00     0.059 H 
BRANCH  36  39
ATOM     39  O   LIG d   1       1.733  -2.538 -11.537  0.00  0.00    -0.380 OA
BRANCH  39  40
ATOM     40  C   LIG d   1       1.020  -3.223 -10.505  0.00  0.00     0.037 C 
ATOM     41  H   LIG d   1       1.210  -2.736  -9.548  0.00  0.00     0.052 H 
ATOM     42  H   LIG d   1      -0.049  -3.194 -10.721  0.00  0.00     0.052 H 
ATOM     43  H   LIG d   1       1.354  -4.259 -10.459  0.00  0.00     0.052 H 
ENDBRANCH  39  40
ENDBRANCH  36  39
ENDBRANCH  33  36
ENDBRANCH  32  33
ENDBRANCH  30  32
ENDBRANCH  10  30
BRANCH   9  44
ATOM     44  C   LIG d   1       2.683   2.101  -8.951  0.00  0.00    -0.005 C 
ATOM     45  H   LIG d   1       2.840   3.111  -8.572  0.00  0.00     0.031 H 
ATOM     46  H   LIG d   1       3.263   1.961  -9.863  0.00  0.00     0.031 H 
ATOM     47  H   LIG d   1       1.625   1.954  -9.168  0.00  0.00     0.031 H 
ENDBRANCH   9  44
TORSDOF 14
ENDMDL
