MODEL 1
REMARK VINA RESULT:      -6.9      0.000      0.000
REMARK  12 active torsions:
REMARK  status: ('A' for Active; 'I' for Inactive)
REMARK    1  A    between atoms: C_1  and  O_2 
REMARK    2  A    between atoms: O_2  and  C_3 
REMARK    3  A    between atoms: C_6  and  C_9 
REMARK    4  A    between atoms: C_9  and  N_10 
REMARK       I    between atoms: N_10  and  C_11 
REMARK    5  A    between atoms: C_11  and  C_13 
REMARK    6  A    between atoms: C_13  and  C_14 
REMARK    7  A    between atoms: C_16  and  O_33 
REMARK    8  A    between atoms: C_18  and  O_32 
REMARK    9  A    between atoms: C_20  and  C_23 
REMARK   10  A    between atoms: C_23  and  N_56 
REMARK   11  A    between atoms: C_24  and  C_25 
REMARK   12  A    between atoms: C_24  and  N_56 
ROOT
ATOM      1  C   LIG d   1       6.496  -0.346  -6.530  0.00  0.00     0.096 C 
ATOM      2  H   LIG d   1       7.217  -0.410  -7.345  0.00  0.00     0.063 H 
ATOM      3  C   LIG d   1       5.900  -1.739  -6.248  0.00  0.00     0.110 C 
ATOM      4  H   LIG d   1       6.052  -2.015  -5.205  0.00  0.00     0.065 H 
ATOM      5  C   LIG d   1       4.391  -1.575  -6.554  0.00  0.00     0.115 C 
ATOM      6  H   LIG d   1       3.827  -1.393  -5.640  0.00  0.00     0.065 H 
ATOM      7  C   LIG d   1       4.380  -0.324  -7.469  0.00  0.00     0.127 C 
ATOM      8  H   LIG d   1       4.626  -0.595  -8.496  0.00  0.00     0.068 H 
ATOM      9  O   LIG d   1       5.409   0.516  -6.904  0.00  0.00    -0.362 OA
ENDROOT
BRANCH   1  10
ATOM     10  C   LIG d   1       7.178   0.192  -5.270  0.00  0.00     0.053 C 
ATOM     11  H   LIG d   1       6.439   0.692  -4.643  0.00  0.00     0.038 H 
ATOM     12  H   LIG d   1       7.625  -0.634  -4.717  0.00  0.00     0.038 H 
BRANCH  10  13
ATOM     13  C   LIG d   1       8.251   1.175  -5.660  0.00  0.00     0.216 C 
ATOM     14  N   LIG d   1       8.197   2.445  -5.214  0.00  0.00    -0.311 N 
ATOM     15  H   LIG d   1       7.467   2.728  -4.641  0.00  0.00     0.149 HD
ATOM     16  O   LIG d   1       9.164   0.822  -6.376  0.00  0.00    -0.276 OA
BRANCH  14  17
ATOM     17  C   LIG d   1       9.241   3.400  -5.594  0.00  0.00     0.037 C 
ATOM     18  H   LIG d   1      10.157   2.861  -5.833  0.00  0.00     0.051 H 
ATOM     19  H   LIG d   1       8.915   3.967  -6.466  0.00  0.00     0.051 H 
BRANCH  17  20
ATOM     20  C   LIG d   1       9.499   4.345  -4.448  0.00  0.00    -0.030 A 
ATOM     21  C   LIG d   1       9.248   5.696  -4.597  0.00  0.00    -0.054 A 
ATOM     22  C   LIG d   1       9.486   6.563  -3.547  0.00  0.00    -0.020 A 
ATOM     23  H   LIG d   1       8.866   6.074  -5.533  0.00  0.00     0.062 H 
ATOM     24  C   LIG d   1       9.977   6.077  -2.345  0.00  0.00     0.120 A 
ATOM     25  H   LIG d   1       9.289   7.619  -3.664  0.00  0.00     0.065 H 
ATOM     26  C   LIG d   1      10.229   4.721  -2.199  0.00  0.00    -0.020 A 
ATOM     27  C   LIG d   1       9.985   3.857  -3.249  0.00  0.00    -0.054 A 
ATOM     28  H   LIG d   1      10.611   4.340  -1.263  0.00  0.00     0.065 H 
ATOM     29  H   LIG d   1      10.176   2.800  -3.133  0.00  0.00     0.062 H 
BRANCH  24  30
ATOM     30  O   LIG d   1      10.212   6.929  -1.312  0.00  0.00    -0.495 OA
BRANCH  30  31
ATOM     31  C   LIG d   1       9.324   8.040  -1.172  0.00  0.00     0.079 C 
ATOM     32  H   LIG d   1       9.850   8.868  -0.697  0.00  0.00     0.066 H 
ATOM     33  H   LIG d   1       8.972   8.349  -2.156  0.00  0.00     0.066 H 
ATOM     34  H   LIG d   1       8.473   7.749  -0.556  0.00  0.00     0.066 H 
ENDBRANCH  30  31
ENDBRANCH  24  30
ENDBRANCH  17  20
ENDBRANCH  14  17
ENDBRANCH  10  13
ENDBRANCH   1  10
BRANCH   3  35
ATOM     35  O   LIG d   1       6.482  -2.717  -7.113  0.00  0.00    -0.387 OA
ATOM     36  H   LIG d   1       5.872  -3.069  -7.776  0.00  0.00     0.210 HD
ENDBRANCH   3  35
BRANCH   7  37
ATOM     37  C   LIG d   1       3.020   0.375  -7.409  0.00  0.00    -0.004 C 
ATOM     38  H   LIG d   1       2.420   0.076  -8.268  0.00  0.00     0.084 H 
ATOM     39  H   LIG d   1       3.165   1.456  -7.424  0.00  0.00     0.084 H 
BRANCH  37  40
ATOM     40  N   LIG d   1       2.332  -0.015  -6.163  0.00  0.00     0.232 N 
ATOM     41  H   LIG d   1       2.806  -0.829  -5.755  0.00  0.00     0.202 HD
ATOM     42  H   LIG d   1       1.357  -0.258  -6.376  0.00  0.00     0.202 HD
BRANCH  40  43
ATOM     43  C   LIG d   1       2.355   1.097  -5.195  0.00  0.00    -0.008 C 
ATOM     44  H   LIG d   1       2.878   1.950  -5.629  0.00  0.00     0.087 H 
ATOM     45  H   LIG d   1       1.335   1.386  -4.944  0.00  0.00     0.087 H 
BRANCH  43  46
ATOM     46  C   LIG d   1       3.072   0.651  -3.947  0.00  0.00    -0.002 A 
ATOM     47  C   LIG d   1       3.097  -0.688  -3.607  0.00  0.00    -0.035 A 
ATOM     48  C   LIG d   1       3.756  -1.098  -2.461  0.00  0.00     0.041 A 
ATOM     49  H   LIG d   1       2.604  -1.415  -4.235  0.00  0.00     0.064 H 
ATOM     50  C   LIG d   1       4.389  -0.167  -1.656  0.00  0.00    -0.043 A 
ATOM     51 CL   LIG d   1       3.788  -2.781  -2.033  0.00  0.00    -0.084 Cl
ATOM     52  C   LIG d   1       4.362   1.172  -1.998  0.00  0.00    -0.060 A 
ATOM     53  H   LIG d   1       4.904  -0.487  -0.763  0.00  0.00     0.063 H 
ATOM     54  C   LIG d   1       3.709   1.580  -3.145  0.00  0.00    -0.053 A 
ATOM     55  H   LIG d   1       4.856   1.899  -1.370  0.00  0.00     0.062 H 
ATOM     56  H   LIG d   1       3.693   2.626  -3.415  0.00  0.00     0.062 H 
ENDBRANCH  43  46
ENDBRANCH  40  43
ENDBRANCH  37  40
ENDBRANCH   7  37
BRANCH   5  57
ATOM     57  O   LIG d   1       3.884  -2.718  -7.246  0.00  0.00    -0.386 OA
ATOM     58  H   LIG d   1       3.382  -3.325  -6.686  0.00  0.00     0.210 HD
ENDBRANCH   5  57
TORSDOF 12
ENDMDL
MODEL 2
REMARK VINA RESULT:      -6.8      3.228      5.449
REMARK  12 active torsions:
REMARK  status: ('A' for Active; 'I' for Inactive)
REMARK    1  A    between atoms: C_1  and  O_2 
REMARK    2  A    between atoms: O_2  and  C_3 
REMARK    3  A    between atoms: C_6  and  C_9 
REMARK    4  A    between atoms: C_9  and  N_10 
REMARK       I    between atoms: N_10  and  C_11 
REMARK    5  A    between atoms: C_11  and  C_13 
REMARK    6  A    between atoms: C_13  and  C_14 
REMARK    7  A    between atoms: C_16  and  O_33 
REMARK    8  A    between atoms: C_18  and  O_32 
REMARK    9  A    between atoms: C_20  and  C_23 
REMARK   10  A    between atoms: C_23  and  N_56 
REMARK   11  A    between atoms: C_24  and  C_25 
REMARK   12  A    between atoms: C_24  and  N_56 
ROOT
ATOM      1  C   LIG d   1       3.882  -3.713  -8.605  0.00  0.00     0.096 C 
ATOM      2  H   LIG d   1       4.897  -3.811  -8.993  0.00  0.00     0.063 H 
ATOM      3  C   LIG d   1       2.882  -3.625  -9.775  0.00  0.00     0.110 C 
ATOM      4  H   LIG d   1       2.127  -4.407  -9.690  0.00  0.00     0.065 H 
ATOM      5  C   LIG d   1       2.239  -2.226  -9.620  0.00  0.00     0.115 C 
ATOM      6  H   LIG d   1       1.285  -2.292  -9.100  0.00  0.00     0.065 H 
ATOM      7  C   LIG d   1       3.289  -1.480  -8.757  0.00  0.00     0.127 C 
ATOM      8  H   LIG d   1       4.105  -1.109  -9.378  0.00  0.00     0.068 H 
ATOM      9  O   LIG d   1       3.762  -2.497  -7.849  0.00  0.00    -0.362 OA
ENDROOT
BRANCH   1  10
ATOM     10  C   LIG d   1       3.543  -4.913  -7.719  0.00  0.00     0.053 C 
ATOM     11  H   LIG d   1       2.488  -4.877  -7.449  0.00  0.00     0.038 H 
ATOM     12  H   LIG d   1       3.749  -5.835  -8.263  0.00  0.00     0.038 H 
BRANCH  10  13
ATOM     13  C   LIG d   1       4.384  -4.868  -6.469  0.00  0.00     0.216 C 
ATOM     14  N   LIG d   1       5.620  -4.335  -6.508  0.00  0.00    -0.311 N 
ATOM     15  H   LIG d   1       5.971  -3.980  -7.340  0.00  0.00     0.149 HD
ATOM     16  O   LIG d   1       3.947  -5.311  -5.428  0.00  0.00    -0.276 OA
BRANCH  14  17
ATOM     17  C   LIG d   1       6.438  -4.291  -5.293  0.00  0.00     0.037 C 
ATOM     18  H   LIG d   1       5.905  -4.783  -4.479  0.00  0.00     0.051 H 
ATOM     19  H   LIG d   1       7.382  -4.805  -5.471  0.00  0.00     0.051 H 
BRANCH  17  20
ATOM     20  C   LIG d   1       6.709  -2.857  -4.920  0.00  0.00    -0.030 A 
ATOM     21  C   LIG d   1       6.453  -1.846  -5.829  0.00  0.00    -0.054 A 
ATOM     22  C   LIG d   1       6.702  -0.530  -5.487  0.00  0.00    -0.020 A 
ATOM     23  H   LIG d   1       6.059  -2.086  -6.804  0.00  0.00     0.062 H 
ATOM     24  C   LIG d   1       7.209  -0.224  -4.234  0.00  0.00     0.120 A 
ATOM     25  H   LIG d   1       6.502   0.258  -6.198  0.00  0.00     0.065 H 
ATOM     26  C   LIG d   1       7.465  -1.239  -3.324  0.00  0.00    -0.020 A 
ATOM     27  C   LIG d   1       7.210  -2.553  -3.667  0.00  0.00    -0.054 A 
ATOM     28  H   LIG d   1       7.860  -1.002  -2.347  0.00  0.00     0.065 H 
ATOM     29  H   LIG d   1       7.405  -3.344  -2.957  0.00  0.00     0.062 H 
BRANCH  24  30
ATOM     30  O   LIG d   1       7.455   1.070  -3.897  0.00  0.00    -0.495 OA
BRANCH  30  31
ATOM     31  C   LIG d   1       8.106   1.883  -4.876  0.00  0.00     0.079 C 
ATOM     32  H   LIG d   1       9.016   2.306  -4.449  0.00  0.00     0.066 H 
ATOM     33  H   LIG d   1       8.360   1.273  -5.743  0.00  0.00     0.066 H 
ATOM     34  H   LIG d   1       7.439   2.688  -5.182  0.00  0.00     0.066 H 
ENDBRANCH  30  31
ENDBRANCH  24  30
ENDBRANCH  17  20
ENDBRANCH  14  17
ENDBRANCH  10  13
ENDBRANCH   1  10
BRANCH   3  35
ATOM     35  O   LIG d   1       3.566  -3.727 -11.026  0.00  0.00    -0.387 OA
ATOM     36  H   LIG d   1       4.258  -4.402 -11.043  0.00  0.00     0.210 HD
ENDBRANCH   3  35
BRANCH   7  37
ATOM     37  C   LIG d   1       2.635  -0.331  -7.988  0.00  0.00    -0.004 C 
ATOM     38  H   LIG d   1       1.635  -0.629  -7.670  0.00  0.00     0.084 H 
ATOM     39  H   LIG d   1       2.566   0.546  -8.632  0.00  0.00     0.084 H 
BRANCH  37  40
ATOM     40  N   LIG d   1       3.456  -0.014  -6.804  0.00  0.00     0.232 N 
ATOM     41  H   LIG d   1       4.109   0.744  -7.038  0.00  0.00     0.202 HD
ATOM     42  H   LIG d   1       3.986  -0.847  -6.525  0.00  0.00     0.202 HD
BRANCH  40  43
ATOM     43  C   LIG d   1       2.597   0.415  -5.684  0.00  0.00    -0.008 C 
ATOM     44  H   LIG d   1       2.563   1.504  -5.643  0.00  0.00     0.087 H 
ATOM     45  H   LIG d   1       1.588   0.026  -5.827  0.00  0.00     0.087 H 
BRANCH  43  46
ATOM     46  C   LIG d   1       3.163  -0.119  -4.394  0.00  0.00    -0.002 A 
ATOM     47  C   LIG d   1       3.662   0.754  -3.446  0.00  0.00    -0.035 A 
ATOM     48  C   LIG d   1       4.182   0.264  -2.260  0.00  0.00     0.041 A 
ATOM     49  H   LIG d   1       3.645   1.818  -3.628  0.00  0.00     0.064 H 
ATOM     50  C   LIG d   1       4.203  -1.100  -2.026  0.00  0.00    -0.043 A 
ATOM     51 CL   LIG d   1       4.808   1.359  -1.068  0.00  0.00    -0.084 Cl
ATOM     52  C   LIG d   1       3.704  -1.972  -2.976  0.00  0.00    -0.060 A 
ATOM     53  H   LIG d   1       4.607  -1.483  -1.101  0.00  0.00     0.063 H 
ATOM     54  C   LIG d   1       3.180  -1.481  -4.157  0.00  0.00    -0.053 A 
ATOM     55  H   LIG d   1       3.720  -3.036  -2.794  0.00  0.00     0.062 H 
ATOM     56  H   LIG d   1       2.785  -2.162  -4.897  0.00  0.00     0.062 H 
ENDBRANCH  43  46
ENDBRANCH  40  43
ENDBRANCH  37  40
ENDBRANCH   7  37
BRANCH   5  57
ATOM     57  O   LIG d   1       2.082  -1.594 -10.892  0.00  0.00    -0.386 OA
ATOM     58  H   LIG d   1       2.368  -2.137 -11.639  0.00  0.00     0.210 HD
ENDBRANCH   5  57
TORSDOF 12
ENDMDL
MODEL 3
REMARK VINA RESULT:      -6.7      4.195      8.557
REMARK  12 active torsions:
REMARK  status: ('A' for Active; 'I' for Inactive)
REMARK    1  A    between atoms: C_1  and  O_2 
REMARK    2  A    between atoms: O_2  and  C_3 
REMARK    3  A    between atoms: C_6  and  C_9 
REMARK    4  A    between atoms: C_9  and  N_10 
REMARK       I    between atoms: N_10  and  C_11 
REMARK    5  A    between atoms: C_11  and  C_13 
REMARK    6  A    between atoms: C_13  and  C_14 
REMARK    7  A    between atoms: C_16  and  O_33 
REMARK    8  A    between atoms: C_18  and  O_32 
REMARK    9  A    between atoms: C_20  and  C_23 
REMARK   10  A    between atoms: C_23  and  N_56 
REMARK   11  A    between atoms: C_24  and  C_25 
REMARK   12  A    between atoms: C_24  and  N_56 
ROOT
ATOM      1  C   LIG d   1       6.050  -1.016  -3.422  0.00  0.00     0.096 C 
ATOM      2  H   LIG d   1       6.321  -0.902  -2.373  0.00  0.00     0.063 H 
ATOM      3  C   LIG d   1       7.000  -2.022  -4.101  0.00  0.00     0.110 C 
ATOM      4  H   LIG d   1       6.433  -2.835  -4.555  0.00  0.00     0.065 H 
ATOM      5  C   LIG d   1       7.722  -1.188  -5.187  0.00  0.00     0.115 C 
ATOM      6  H   LIG d   1       7.246  -1.320  -6.159  0.00  0.00     0.065 H 
ATOM      7  C   LIG d   1       7.526   0.259  -4.668  0.00  0.00     0.127 C 
ATOM      8  H   LIG d   1       8.265   0.497  -3.902  0.00  0.00     0.068 H 
ATOM      9  O   LIG d   1       6.198   0.239  -4.105  0.00  0.00    -0.362 OA
ENDROOT
BRANCH   1  10
ATOM     10  C   LIG d   1       4.605  -1.505  -3.539  0.00  0.00     0.053 C 
ATOM     11  H   LIG d   1       4.599  -2.542  -3.876  0.00  0.00     0.038 H 
ATOM     12  H   LIG d   1       4.119  -1.436  -2.565  0.00  0.00     0.038 H 
BRANCH  10  13
ATOM     13  C   LIG d   1       3.863  -0.649  -4.532  0.00  0.00     0.216 C 
ATOM     14  N   LIG d   1       4.041  -0.842  -5.853  0.00  0.00    -0.311 N 
ATOM     15  H   LIG d   1       4.648  -1.532  -6.166  0.00  0.00     0.149 HD
ATOM     16  O   LIG d   1       3.104   0.213  -4.142  0.00  0.00    -0.276 OA
BRANCH  14  17
ATOM     17  C   LIG d   1       3.320  -0.010  -6.819  0.00  0.00     0.037 C 
ATOM     18  H   LIG d   1       2.417   0.386  -6.355  0.00  0.00     0.051 H 
ATOM     19  H   LIG d   1       3.957   0.816  -7.136  0.00  0.00     0.051 H 
BRANCH  17  20
ATOM     20  C   LIG d   1       2.943  -0.842  -8.019  0.00  0.00    -0.030 A 
ATOM     21  C   LIG d   1       1.870  -0.471  -8.807  0.00  0.00    -0.054 A 
ATOM     22  C   LIG d   1       1.524  -1.233  -9.907  0.00  0.00    -0.020 A 
ATOM     23  H   LIG d   1       1.303   0.415  -8.564  0.00  0.00     0.062 H 
ATOM     24  C   LIG d   1       2.252  -2.371 -10.218  0.00  0.00     0.120 A 
ATOM     25  H   LIG d   1       0.685  -0.942 -10.522  0.00  0.00     0.065 H 
ATOM     26  C   LIG d   1       3.328  -2.741  -9.424  0.00  0.00    -0.020 A 
ATOM     27  C   LIG d   1       3.675  -1.973  -8.330  0.00  0.00    -0.054 A 
ATOM     28  H   LIG d   1       3.898  -3.627  -9.666  0.00  0.00     0.065 H 
ATOM     29  H   LIG d   1       4.516  -2.259  -7.715  0.00  0.00     0.062 H 
BRANCH  24  30
ATOM     30  O   LIG d   1       1.912  -3.122 -11.298  0.00  0.00    -0.495 OA
BRANCH  30  31
ATOM     31  C   LIG d   1       0.611  -3.712 -11.295  0.00  0.00     0.079 C 
ATOM     32  H   LIG d   1       0.200  -3.691 -12.304  0.00  0.00     0.066 H 
ATOM     33  H   LIG d   1       0.681  -4.744 -10.952  0.00  0.00     0.066 H 
ATOM     34  H   LIG d   1      -0.041  -3.151 -10.625  0.00  0.00     0.066 H 
ENDBRANCH  30  31
ENDBRANCH  24  30
ENDBRANCH  17  20
ENDBRANCH  14  17
ENDBRANCH  10  13
ENDBRANCH   1  10
BRANCH   3  35
ATOM     35  O   LIG d   1       7.942  -2.536  -3.157  0.00  0.00    -0.387 OA
ATOM     36  H   LIG d   1       7.537  -2.991  -2.406  0.00  0.00     0.210 HD
ENDBRANCH   3  35
BRANCH   7  37
ATOM     37  C   LIG d   1       7.609   1.261  -5.822  0.00  0.00    -0.004 C 
ATOM     38  H   LIG d   1       8.648   1.375  -6.131  0.00  0.00     0.084 H 
ATOM     39  H   LIG d   1       7.218   2.225  -5.496  0.00  0.00     0.084 H 
BRANCH  37  40
ATOM     40  N   LIG d   1       6.808   0.759  -6.955  0.00  0.00     0.232 N 
ATOM     41  H   LIG d   1       5.812   0.913  -6.760  0.00  0.00     0.202 HD
ATOM     42  H   LIG d   1       6.982  -0.246  -7.075  0.00  0.00     0.202 HD
BRANCH  40  43
ATOM     43  C   LIG d   1       7.176   1.467  -8.196  0.00  0.00    -0.008 C 
ATOM     44  H   LIG d   1       7.388   2.513  -7.972  0.00  0.00     0.087 H 
ATOM     45  H   LIG d   1       8.060   1.003  -8.634  0.00  0.00     0.087 H 
BRANCH  43  46
ATOM     46  C   LIG d   1       6.029   1.385  -9.170  0.00  0.00    -0.002 A 
ATOM     47  C   LIG d   1       6.002   0.382 -10.120  0.00  0.00    -0.035 A 
ATOM     48  C   LIG d   1       4.949   0.306 -11.015  0.00  0.00     0.041 A 
ATOM     49  H   LIG d   1       6.800  -0.343 -10.164  0.00  0.00     0.064 H 
ATOM     50  C   LIG d   1       3.925   1.235 -10.958  0.00  0.00    -0.043 A 
ATOM     51 CL   LIG d   1       4.912  -0.954 -12.209  0.00  0.00    -0.084 Cl
ATOM     52  C   LIG d   1       3.955   2.239 -10.008  0.00  0.00    -0.060 A 
ATOM     53  H   LIG d   1       3.103   1.176 -11.656  0.00  0.00     0.063 H 
ATOM     54  C   LIG d   1       5.004   2.310  -9.111  0.00  0.00    -0.053 A 
ATOM     55  H   LIG d   1       3.156   2.964  -9.963  0.00  0.00     0.062 H 
ATOM     56  H   LIG d   1       5.024   3.091  -8.365  0.00  0.00     0.062 H 
ENDBRANCH  43  46
ENDBRANCH  40  43
ENDBRANCH  37  40
ENDBRANCH   7  37
BRANCH   5  57
ATOM     57  O   LIG d   1       9.109  -1.525  -5.251  0.00  0.00    -0.386 OA
ATOM     58  H   LIG d   1       9.415  -1.765  -6.136  0.00  0.00     0.210 HD
ENDBRANCH   5  57
TORSDOF 12
ENDMDL
MODEL 4
REMARK VINA RESULT:      -6.7      3.441      7.945
REMARK  12 active torsions:
REMARK  status: ('A' for Active; 'I' for Inactive)
REMARK    1  A    between atoms: C_1  and  O_2 
REMARK    2  A    between atoms: O_2  and  C_3 
REMARK    3  A    between atoms: C_6  and  C_9 
REMARK    4  A    between atoms: C_9  and  N_10 
REMARK       I    between atoms: N_10  and  C_11 
REMARK    5  A    between atoms: C_11  and  C_13 
REMARK    6  A    between atoms: C_13  and  C_14 
REMARK    7  A    between atoms: C_16  and  O_33 
REMARK    8  A    between atoms: C_18  and  O_32 
REMARK    9  A    between atoms: C_20  and  C_23 
REMARK   10  A    between atoms: C_23  and  N_56 
REMARK   11  A    between atoms: C_24  and  C_25 
REMARK   12  A    between atoms: C_24  and  N_56 
ROOT
ATOM      1  C   LIG d   1       7.070   1.051  -8.136  0.00  0.00     0.096 C 
ATOM      2  H   LIG d   1       6.605   0.087  -8.345  0.00  0.00     0.063 H 
ATOM      3  C   LIG d   1       8.591   0.959  -8.372  0.00  0.00     0.110 C 
ATOM      4  H   LIG d   1       8.910   1.713  -9.093  0.00  0.00     0.065 H 
ATOM      5  C   LIG d   1       9.209   1.240  -6.982  0.00  0.00     0.115 C 
ATOM      6  H   LIG d   1       9.509   2.283  -6.892  0.00  0.00     0.065 H 
ATOM      7  C   LIG d   1       8.026   0.921  -6.031  0.00  0.00     0.127 C 
ATOM      8  H   LIG d   1       7.951  -0.152  -5.854  0.00  0.00     0.068 H 
ATOM      9  O   LIG d   1       6.873   1.399  -6.756  0.00  0.00    -0.362 OA
ENDROOT
BRANCH   1  10
ATOM     10  C   LIG d   1       6.467   2.130  -9.037  0.00  0.00     0.053 C 
ATOM     11  H   LIG d   1       6.631   3.110  -8.589  0.00  0.00     0.038 H 
ATOM     12  H   LIG d   1       6.944   2.093 -10.017  0.00  0.00     0.038 H 
BRANCH  10  13
ATOM     13  C   LIG d   1       4.987   1.888  -9.189  0.00  0.00     0.216 C 
ATOM     14  N   LIG d   1       4.279   1.382  -8.161  0.00  0.00    -0.311 N 
ATOM     15  H   LIG d   1       4.720   1.172  -7.323  0.00  0.00     0.149 HD
ATOM     16  O   LIG d   1       4.434   2.151 -10.235  0.00  0.00    -0.276 OA
BRANCH  14  17
ATOM     17  C   LIG d   1       2.840   1.147  -8.308  0.00  0.00     0.037 C 
ATOM     18  H   LIG d   1       2.357   1.233  -7.335  0.00  0.00     0.051 H 
ATOM     19  H   LIG d   1       2.418   1.885  -8.990  0.00  0.00     0.051 H 
BRANCH  17  20
ATOM     20  C   LIG d   1       2.610  -0.237  -8.861  0.00  0.00    -0.030 A 
ATOM     21  C   LIG d   1       3.357  -1.301  -8.390  0.00  0.00    -0.054 A 
ATOM     22  C   LIG d   1       3.147  -2.570  -8.897  0.00  0.00    -0.020 A 
ATOM     23  H   LIG d   1       4.103  -1.141  -7.627  0.00  0.00     0.062 H 
ATOM     24  C   LIG d   1       2.188  -2.774  -9.878  0.00  0.00     0.120 A 
ATOM     25  H   LIG d   1       3.731  -3.401  -8.529  0.00  0.00     0.065 H 
ATOM     26  C   LIG d   1       1.441  -1.704 -10.348  0.00  0.00    -0.020 A 
ATOM     27  C   LIG d   1       1.650  -0.439  -9.834  0.00  0.00    -0.054 A 
ATOM     28  H   LIG d   1       0.693  -1.862 -11.111  0.00  0.00     0.065 H 
ATOM     29  H   LIG d   1       1.065   0.394 -10.197  0.00  0.00     0.062 H 
BRANCH  24  30
ATOM     30  O   LIG d   1       1.981  -4.021 -10.377  0.00  0.00    -0.495 OA
BRANCH  30  31
ATOM     31  C   LIG d   1       0.631  -4.386 -10.674  0.00  0.00     0.079 C 
ATOM     32  H   LIG d   1       0.473  -5.433 -10.414  0.00  0.00     0.066 H 
ATOM     33  H   LIG d   1      -0.049  -3.760 -10.098  0.00  0.00     0.066 H 
ATOM     34  H   LIG d   1       0.443  -4.243 -11.738  0.00  0.00     0.066 H 
ENDBRANCH  30  31
ENDBRANCH  24  30
ENDBRANCH  17  20
ENDBRANCH  14  17
ENDBRANCH  10  13
ENDBRANCH   1  10
BRANCH   3  35
ATOM     35  O   LIG d   1       8.949  -0.348  -8.825  0.00  0.00    -0.387 OA
ATOM     36  H   LIG d   1       8.523  -1.065  -8.334  0.00  0.00     0.210 HD
ENDBRANCH   3  35
BRANCH   7  37
ATOM     37  C   LIG d   1       8.181   1.674  -4.708  0.00  0.00    -0.004 C 
ATOM     38  H   LIG d   1       8.289   2.740  -4.906  0.00  0.00     0.084 H 
ATOM     39  H   LIG d   1       9.066   1.310  -4.184  0.00  0.00     0.084 H 
BRANCH  37  40
ATOM     40  N   LIG d   1       6.984   1.443  -3.878  0.00  0.00     0.232 N 
ATOM     41  H   LIG d   1       6.143   1.598  -4.446  0.00  0.00     0.202 HD
ATOM     42  H   LIG d   1       6.988   2.097  -3.087  0.00  0.00     0.202 HD
BRANCH  40  43
ATOM     43  C   LIG d   1       6.975   0.059  -3.365  0.00  0.00    -0.008 C 
ATOM     44  H   LIG d   1       7.526  -0.588  -4.047  0.00  0.00     0.087 H 
ATOM     45  H   LIG d   1       7.443   0.031  -2.381  0.00  0.00     0.087 H 
BRANCH  43  46
ATOM     46  C   LIG d   1       5.550  -0.420  -3.258  0.00  0.00    -0.002 A 
ATOM     47  C   LIG d   1       4.569   0.152  -4.046  0.00  0.00    -0.035 A 
ATOM     48  C   LIG d   1       3.261  -0.288  -3.949  0.00  0.00     0.041 A 
ATOM     49  H   LIG d   1       4.823   0.941  -4.738  0.00  0.00     0.064 H 
ATOM     50  C   LIG d   1       2.936  -1.300  -3.062  0.00  0.00    -0.043 A 
ATOM     51 CL   LIG d   1       2.028   0.429  -4.938  0.00  0.00    -0.084 Cl
ATOM     52  C   LIG d   1       3.918  -1.869  -2.274  0.00  0.00    -0.060 A 
ATOM     53  H   LIG d   1       1.915  -1.644  -2.986  0.00  0.00     0.063 H 
ATOM     54  C   LIG d   1       5.226  -1.433  -2.377  0.00  0.00    -0.053 A 
ATOM     55  H   LIG d   1       3.665  -2.659  -1.582  0.00  0.00     0.062 H 
ATOM     56  H   LIG d   1       5.994  -1.883  -1.765  0.00  0.00     0.062 H 
ENDBRANCH  43  46
ENDBRANCH  40  43
ENDBRANCH  37  40
ENDBRANCH   7  37
BRANCH   5  57
ATOM     57  O   LIG d   1      10.314   0.370  -6.730  0.00  0.00    -0.386 OA
ATOM     58  H   LIG d   1      10.174  -0.540  -7.027  0.00  0.00     0.210 HD
ENDBRANCH   5  57
TORSDOF 12
ENDMDL
MODEL 5
REMARK VINA RESULT:      -6.6      4.367      8.199
REMARK  12 active torsions:
REMARK  status: ('A' for Active; 'I' for Inactive)
REMARK    1  A    between atoms: C_1  and  O_2 
REMARK    2  A    between atoms: O_2  and  C_3 
REMARK    3  A    between atoms: C_6  and  C_9 
REMARK    4  A    between atoms: C_9  and  N_10 
REMARK       I    between atoms: N_10  and  C_11 
REMARK    5  A    between atoms: C_11  and  C_13 
REMARK    6  A    between atoms: C_13  and  C_14 
REMARK    7  A    between atoms: C_16  and  O_33 
REMARK    8  A    between atoms: C_18  and  O_32 
REMARK    9  A    between atoms: C_20  and  C_23 
REMARK   10  A    between atoms: C_23  and  N_56 
REMARK   11  A    between atoms: C_24  and  C_25 
REMARK   12  A    between atoms: C_24  and  N_56 
ROOT
ATOM      1  C   LIG d   1       3.711  -0.261  -3.703  0.00  0.00     0.096 C 
ATOM      2  H   LIG d   1       3.656   0.071  -2.665  0.00  0.00     0.063 H 
ATOM      3  C   LIG d   1       4.091  -1.753  -3.755  0.00  0.00     0.110 C 
ATOM      4  H   LIG d   1       3.342  -2.318  -4.311  0.00  0.00     0.065 H 
ATOM      5  C   LIG d   1       5.450  -1.773  -4.496  0.00  0.00     0.115 C 
ATOM      6  H   LIG d   1       5.313  -1.998  -5.553  0.00  0.00     0.065 H 
ATOM      7  C   LIG d   1       5.946  -0.317  -4.301  0.00  0.00     0.127 C 
ATOM      8  H   LIG d   1       6.408  -0.195  -3.321  0.00  0.00     0.068 H 
ATOM      9  O   LIG d   1       4.738   0.466  -4.395  0.00  0.00    -0.362 OA
ENDROOT
BRANCH   1  10
ATOM     10  C   LIG d   1       2.363  -0.042  -4.393  0.00  0.00     0.053 C 
ATOM     11  H   LIG d   1       2.021  -0.982  -4.826  0.00  0.00     0.038 H 
ATOM     12  H   LIG d   1       1.633   0.308  -3.662  0.00  0.00     0.038 H 
BRANCH  10  13
ATOM     13  C   LIG d   1       2.517   0.987  -5.483  0.00  0.00     0.216 C 
ATOM     14  N   LIG d   1       2.860   0.603  -6.728  0.00  0.00    -0.311 N 
ATOM     15  H   LIG d   1       3.009  -0.336  -6.923  0.00  0.00     0.149 HD
ATOM     16  O   LIG d   1       2.331   2.160  -5.239  0.00  0.00    -0.276 OA
BRANCH  14  17
ATOM     17  C   LIG d   1       3.010   1.603  -7.788  0.00  0.00     0.037 C 
ATOM     18  H   LIG d   1       2.172   2.298  -7.752  0.00  0.00     0.051 H 
ATOM     19  H   LIG d   1       3.942   2.150  -7.642  0.00  0.00     0.051 H 
BRANCH  17  20
ATOM     20  C   LIG d   1       3.035   0.916  -9.129  0.00  0.00    -0.030 A 
ATOM     21  C   LIG d   1       2.184  -0.146  -9.377  0.00  0.00    -0.054 A 
ATOM     22  C   LIG d   1       2.206  -0.776 -10.606  0.00  0.00    -0.020 A 
ATOM     23  H   LIG d   1       1.502  -0.480  -8.610  0.00  0.00     0.062 H 
ATOM     24  C   LIG d   1       3.083  -0.346 -11.590  0.00  0.00     0.120 A 
ATOM     25  H   LIG d   1       1.541  -1.606 -10.799  0.00  0.00     0.065 H 
ATOM     26  C   LIG d   1       3.936   0.718 -11.338  0.00  0.00    -0.020 A 
ATOM     27  C   LIG d   1       3.907   1.350 -10.110  0.00  0.00    -0.054 A 
ATOM     28  H   LIG d   1       4.620   1.056 -12.104  0.00  0.00     0.065 H 
ATOM     29  H   LIG d   1       4.568   2.182  -9.915  0.00  0.00     0.062 H 
BRANCH  24  30
ATOM     30  O   LIG d   1       3.107  -0.966 -12.799  0.00  0.00    -0.495 OA
BRANCH  30  31
ATOM     31  C   LIG d   1       2.076  -1.923 -13.058  0.00  0.00     0.079 C 
ATOM     32  H   LIG d   1       1.823  -1.905 -14.118  0.00  0.00     0.066 H 
ATOM     33  H   LIG d   1       2.427  -2.917 -12.784  0.00  0.00     0.066 H 
ATOM     34  H   LIG d   1       1.193  -1.673 -12.469  0.00  0.00     0.066 H 
ENDBRANCH  30  31
ENDBRANCH  24  30
ENDBRANCH  17  20
ENDBRANCH  14  17
ENDBRANCH  10  13
ENDBRANCH   1  10
BRANCH   3  35
ATOM     35  O   LIG d   1       4.234  -2.280  -2.434  0.00  0.00    -0.387 OA
ATOM     36  H   LIG d   1       5.010  -1.949  -1.960  0.00  0.00     0.210 HD
ENDBRANCH   3  35
BRANCH   7  37
ATOM     37  C   LIG d   1       6.928   0.069  -5.409  0.00  0.00    -0.004 C 
ATOM     38  H   LIG d   1       7.630  -0.748  -5.574  0.00  0.00     0.084 H 
ATOM     39  H   LIG d   1       7.476   0.965  -5.114  0.00  0.00     0.084 H 
BRANCH  37  40
ATOM     40  N   LIG d   1       6.176   0.335  -6.650  0.00  0.00     0.232 N 
ATOM     41  H   LIG d   1       5.853   1.310  -6.647  0.00  0.00     0.202 HD
ATOM     42  H   LIG d   1       5.366  -0.293  -6.697  0.00  0.00     0.202 HD
BRANCH  40  43
ATOM     43  C   LIG d   1       7.035   0.111  -7.828  0.00  0.00    -0.008 C 
ATOM     44  H   LIG d   1       7.123   1.035  -8.399  0.00  0.00     0.087 H 
ATOM     45  H   LIG d   1       8.025  -0.210  -7.503  0.00  0.00     0.087 H 
BRANCH  43  46
ATOM     46  C   LIG d   1       6.419  -0.957  -8.693  0.00  0.00    -0.002 A 
ATOM     47  C   LIG d   1       5.407  -1.753  -8.191  0.00  0.00    -0.035 A 
ATOM     48  C   LIG d   1       4.840  -2.734  -8.986  0.00  0.00     0.041 A 
ATOM     49  H   LIG d   1       5.057  -1.609  -7.180  0.00  0.00     0.064 H 
ATOM     50  C   LIG d   1       5.288  -2.918 -10.282  0.00  0.00    -0.043 A 
ATOM     51 CL   LIG d   1       3.568  -3.734  -8.357  0.00  0.00    -0.084 Cl
ATOM     52  C   LIG d   1       6.301  -2.122 -10.782  0.00  0.00    -0.060 A 
ATOM     53  H   LIG d   1       4.846  -3.683 -10.903  0.00  0.00     0.063 H 
ATOM     54  C   LIG d   1       6.862  -1.138  -9.990  0.00  0.00    -0.053 A 
ATOM     55  H   LIG d   1       6.651  -2.265 -11.794  0.00  0.00     0.062 H 
ATOM     56  H   LIG d   1       7.650  -0.512 -10.382  0.00  0.00     0.062 H 
ENDBRANCH  43  46
ENDBRANCH  40  43
ENDBRANCH  37  40
ENDBRANCH   7  37
BRANCH   5  57
ATOM     57  O   LIG d   1       6.348  -2.704  -3.889  0.00  0.00    -0.386 OA
ATOM     58  H   LIG d   1       5.920  -3.330  -3.290  0.00  0.00     0.210 HD
ENDBRANCH   5  57
TORSDOF 12
ENDMDL
MODEL 6
REMARK VINA RESULT:      -6.6      2.030      2.798
REMARK  12 active torsions:
REMARK  status: ('A' for Active; 'I' for Inactive)
REMARK    1  A    between atoms: C_1  and  O_2 
REMARK    2  A    between atoms: O_2  and  C_3 
REMARK    3  A    between atoms: C_6  and  C_9 
REMARK    4  A    between atoms: C_9  and  N_10 
REMARK       I    between atoms: N_10  and  C_11 
REMARK    5  A    between atoms: C_11  and  C_13 
REMARK    6  A    between atoms: C_13  and  C_14 
REMARK    7  A    between atoms: C_16  and  O_33 
REMARK    8  A    between atoms: C_18  and  O_32 
REMARK    9  A    between atoms: C_20  and  C_23 
REMARK   10  A    between atoms: C_23  and  N_56 
REMARK   11  A    between atoms: C_24  and  C_25 
REMARK   12  A    between atoms: C_24  and  N_56 
ROOT
ATOM      1  C   LIG d   1       6.786  -0.468  -5.688  0.00  0.00     0.096 C 
ATOM      2  H   LIG d   1       7.647  -0.024  -6.188  0.00  0.00     0.063 H 
ATOM      3  C   LIG d   1       6.647  -1.947  -6.099  0.00  0.00     0.110 C 
ATOM      4  H   LIG d   1       6.650  -2.588  -5.217  0.00  0.00     0.065 H 
ATOM      5  C   LIG d   1       5.278  -2.014  -6.818  0.00  0.00     0.115 C 
ATOM      6  H   LIG d   1       4.499  -2.359  -6.140  0.00  0.00     0.065 H 
ATOM      7  C   LIG d   1       5.049  -0.534  -7.217  0.00  0.00     0.127 C 
ATOM      8  H   LIG d   1       5.591  -0.291  -8.131  0.00  0.00     0.068 H 
ATOM      9  O   LIG d   1       5.583   0.204  -6.097  0.00  0.00    -0.362 OA
ENDROOT
BRANCH   1  10
ATOM     10  C   LIG d   1       6.951  -0.362  -4.170  0.00  0.00     0.053 C 
ATOM     11  H   LIG d   1       5.977  -0.470  -3.692  0.00  0.00     0.038 H 
ATOM     12  H   LIG d   1       7.618  -1.150  -3.822  0.00  0.00     0.038 H 
BRANCH  10  13
ATOM     13  C   LIG d   1       7.536   0.982  -3.821  0.00  0.00     0.216 C 
ATOM     14  N   LIG d   1       8.862   1.190  -3.935  0.00  0.00    -0.311 N 
ATOM     15  H   LIG d   1       9.441   0.474  -4.241  0.00  0.00     0.149 HD
ATOM     16  O   LIG d   1       6.812   1.877  -3.439  0.00  0.00    -0.276 OA
BRANCH  14  17
ATOM     17  C   LIG d   1       9.431   2.496  -3.595  0.00  0.00     0.037 C 
ATOM     18  H   LIG d   1       8.765   3.014  -2.905  0.00  0.00     0.051 H 
ATOM     19  H   LIG d   1      10.404   2.358  -3.125  0.00  0.00     0.051 H 
BRANCH  17  20
ATOM     20  C   LIG d   1       9.590   3.318  -4.849  0.00  0.00    -0.030 A 
ATOM     21  C   LIG d   1       9.554   4.698  -4.780  0.00  0.00    -0.054 A 
ATOM     22  C   LIG d   1       9.700   5.452  -5.929  0.00  0.00    -0.020 A 
ATOM     23  H   LIG d   1       9.413   5.187  -3.827  0.00  0.00     0.062 H 
ATOM     24  C   LIG d   1       9.881   4.823  -7.151  0.00  0.00     0.120 A 
ATOM     25  H   LIG d   1       9.672   6.530  -5.873  0.00  0.00     0.065 H 
ATOM     26  C   LIG d   1       9.916   3.438  -7.218  0.00  0.00    -0.020 A 
ATOM     27  C   LIG d   1       9.776   2.688  -6.066  0.00  0.00    -0.054 A 
ATOM     28  H   LIG d   1      10.058   2.946  -8.169  0.00  0.00     0.065 H 
ATOM     29  H   LIG d   1       9.808   1.610  -6.117  0.00  0.00     0.062 H 
BRANCH  24  30
ATOM     30  O   LIG d   1      10.024   5.563  -8.282  0.00  0.00    -0.495 OA
BRANCH  30  31
ATOM     31  C   LIG d   1       8.987   5.461  -9.260  0.00  0.00     0.079 C 
ATOM     32  H   LIG d   1       9.259   4.708 -10.000  0.00  0.00     0.066 H 
ATOM     33  H   LIG d   1       8.056   5.172  -8.773  0.00  0.00     0.066 H 
ATOM     34  H   LIG d   1       8.856   6.424  -9.753  0.00  0.00     0.066 H 
ENDBRANCH  30  31
ENDBRANCH  24  30
ENDBRANCH  17  20
ENDBRANCH  14  17
ENDBRANCH  10  13
ENDBRANCH   1  10
BRANCH   3  35
ATOM     35  O   LIG d   1       7.700  -2.319  -6.990  0.00  0.00    -0.387 OA
ATOM     36  H   LIG d   1       8.507  -1.796  -6.887  0.00  0.00     0.210 HD
ENDBRANCH   3  35
BRANCH   7  37
ATOM     37  C   LIG d   1       3.555  -0.248  -7.387  0.00  0.00    -0.004 C 
ATOM     38  H   LIG d   1       2.978  -1.083  -6.992  0.00  0.00     0.084 H 
ATOM     39  H   LIG d   1       3.328  -0.116  -8.445  0.00  0.00     0.084 H 
BRANCH  37  40
ATOM     40  N   LIG d   1       3.212   0.984  -6.650  0.00  0.00     0.232 N 
ATOM     41  H   LIG d   1       2.862   1.687  -7.311  0.00  0.00     0.202 HD
ATOM     42  H   LIG d   1       4.051   1.343  -6.180  0.00  0.00     0.202 HD
BRANCH  40  43
ATOM     43  C   LIG d   1       2.172   0.704  -5.642  0.00  0.00    -0.008 C 
ATOM     44  H   LIG d   1       1.493   1.554  -5.569  0.00  0.00     0.087 H 
ATOM     45  H   LIG d   1       1.611  -0.185  -5.932  0.00  0.00     0.087 H 
BRANCH  43  46
ATOM     46  C   LIG d   1       2.829   0.469  -4.306  0.00  0.00    -0.002 A 
ATOM     47  C   LIG d   1       3.025  -0.821  -3.850  0.00  0.00    -0.035 A 
ATOM     48  C   LIG d   1       3.628  -1.036  -2.624  0.00  0.00     0.041 A 
ATOM     49  H   LIG d   1       2.708  -1.660  -4.451  0.00  0.00     0.064 H 
ATOM     50  C   LIG d   1       4.034   0.040  -1.854  0.00  0.00    -0.043 A 
ATOM     51 CL   LIG d   1       3.875  -2.656  -2.050  0.00  0.00    -0.084 Cl
ATOM     52  C   LIG d   1       3.837   1.329  -2.311  0.00  0.00    -0.060 A 
ATOM     53  H   LIG d   1       4.506  -0.128  -0.898  0.00  0.00     0.063 H 
ATOM     54  C   LIG d   1       3.240   1.543  -3.539  0.00  0.00    -0.053 A 
ATOM     55  H   LIG d   1       4.154   2.169  -1.712  0.00  0.00     0.062 H 
ATOM     56  H   LIG d   1       3.090   2.551  -3.899  0.00  0.00     0.062 H 
ENDBRANCH  43  46
ENDBRANCH  40  43
ENDBRANCH  37  40
ENDBRANCH   7  37
BRANCH   5  57
ATOM     57  O   LIG d   1       5.351  -2.849  -7.975  0.00  0.00    -0.386 OA
ATOM     58  H   LIG d   1       6.015  -3.549  -7.914  0.00  0.00     0.210 HD
ENDBRANCH   5  57
TORSDOF 12
ENDMDL
MODEL 7
REMARK VINA RESULT:      -6.6      3.949      5.345
REMARK  12 active torsions:
REMARK  status: ('A' for Active; 'I' for Inactive)
REMARK    1  A    between atoms: C_1  and  O_2 
REMARK    2  A    between atoms: O_2  and  C_3 
REMARK    3  A    between atoms: C_6  and  C_9 
REMARK    4  A    between atoms: C_9  and  N_10 
REMARK       I    between atoms: N_10  and  C_11 
REMARK    5  A    between atoms: C_11  and  C_13 
REMARK    6  A    between atoms: C_13  and  C_14 
REMARK    7  A    between atoms: C_16  and  O_33 
REMARK    8  A    between atoms: C_18  and  O_32 
REMARK    9  A    between atoms: C_20  and  C_23 
REMARK   10  A    between atoms: C_23  and  N_56 
REMARK   11  A    between atoms: C_24  and  C_25 
REMARK   12  A    between atoms: C_24  and  N_56 
ROOT
ATOM      1  C   LIG d   1       2.580   0.622  -8.773  0.00  0.00     0.096 C 
ATOM      2  H   LIG d   1       1.672   0.862  -8.218  0.00  0.00     0.063 H 
ATOM      3  C   LIG d   1       2.257  -0.387  -9.892  0.00  0.00     0.110 C 
ATOM      4  H   LIG d   1       2.566   0.007 -10.861  0.00  0.00     0.065 H 
ATOM      5  C   LIG d   1       3.088  -1.640  -9.524  0.00  0.00     0.115 C 
ATOM      6  H   LIG d   1       4.026  -1.662 -10.078  0.00  0.00     0.065 H 
ATOM      7  C   LIG d   1       3.345  -1.425  -8.010  0.00  0.00     0.127 C 
ATOM      8  H   LIG d   1       2.483  -1.743  -7.423  0.00  0.00     0.068 H 
ATOM      9  O   LIG d   1       3.537   0.001  -7.900  0.00  0.00    -0.362 OA
ENDROOT
BRANCH   1  10
ATOM     10  C   LIG d   1       3.175   1.896  -9.377  0.00  0.00     0.053 C 
ATOM     11  H   LIG d   1       2.670   2.123 -10.315  0.00  0.00     0.038 H 
ATOM     12  H   LIG d   1       3.040   2.725  -8.681  0.00  0.00     0.038 H 
BRANCH  10  13
ATOM     13  C   LIG d   1       4.645   1.691  -9.634  0.00  0.00     0.216 C 
ATOM     14  N   LIG d   1       5.547   2.028  -8.692  0.00  0.00    -0.311 N 
ATOM     15  H   LIG d   1       5.251   2.403  -7.848  0.00  0.00     0.149 HD
ATOM     16  O   LIG d   1       5.016   1.222 -10.689  0.00  0.00    -0.276 OA
BRANCH  14  17
ATOM     17  C   LIG d   1       6.977   1.829  -8.942  0.00  0.00     0.037 C 
ATOM     18  H   LIG d   1       7.113   1.339  -9.906  0.00  0.00     0.051 H 
ATOM     19  H   LIG d   1       7.483   2.795  -8.951  0.00  0.00     0.051 H 
BRANCH  17  20
ATOM     20  C   LIG d   1       7.563   0.965  -7.855  0.00  0.00    -0.030 A 
ATOM     21  C   LIG d   1       7.949   1.532  -6.654  0.00  0.00    -0.054 A 
ATOM     22  C   LIG d   1       8.486   0.740  -5.657  0.00  0.00    -0.020 A 
ATOM     23  H   LIG d   1       7.829   2.593  -6.496  0.00  0.00     0.062 H 
ATOM     24  C   LIG d   1       8.640  -0.623  -5.862  0.00  0.00     0.120 A 
ATOM     25  H   LIG d   1       8.787   1.184  -4.720  0.00  0.00     0.065 H 
ATOM     26  C   LIG d   1       8.253  -1.189  -7.068  0.00  0.00    -0.020 A 
ATOM     27  C   LIG d   1       7.710  -0.395  -8.060  0.00  0.00    -0.054 A 
ATOM     28  H   LIG d   1       8.371  -2.251  -7.229  0.00  0.00     0.065 H 
ATOM     29  H   LIG d   1       7.404  -0.836  -8.997  0.00  0.00     0.062 H 
BRANCH  24  30
ATOM     30  O   LIG d   1       9.169  -1.403  -4.882  0.00  0.00    -0.495 OA
BRANCH  30  31
ATOM     31  C   LIG d   1       9.049  -2.818  -5.043  0.00  0.00     0.079 C 
ATOM     32  H   LIG d   1       8.952  -3.055  -6.103  0.00  0.00     0.066 H 
ATOM     33  H   LIG d   1       9.936  -3.305  -4.641  0.00  0.00     0.066 H 
ATOM     34  H   LIG d   1       8.167  -3.171  -4.509  0.00  0.00     0.066 H 
ENDBRANCH  30  31
ENDBRANCH  24  30
ENDBRANCH  17  20
ENDBRANCH  14  17
ENDBRANCH  10  13
ENDBRANCH   1  10
BRANCH   3  35
ATOM     35  O   LIG d   1       0.862  -0.696  -9.900  0.00  0.00    -0.387 OA
ATOM     36  H   LIG d   1       0.646  -1.549  -9.499  0.00  0.00     0.210 HD
ENDBRANCH   3  35
BRANCH   7  37
ATOM     37  C   LIG d   1       4.603  -2.175  -7.566  0.00  0.00    -0.004 C 
ATOM     38  H   LIG d   1       5.352  -1.459  -7.227  0.00  0.00     0.084 H 
ATOM     39  H   LIG d   1       5.000  -2.748  -8.404  0.00  0.00     0.084 H 
BRANCH  37  40
ATOM     40  N   LIG d   1       4.255  -3.088  -6.461  0.00  0.00     0.232 N 
ATOM     41  H   LIG d   1       4.075  -4.025  -6.841  0.00  0.00     0.202 HD
ATOM     42  H   LIG d   1       3.413  -2.743  -5.987  0.00  0.00     0.202 HD
BRANCH  40  43
ATOM     43  C   LIG d   1       5.363  -3.162  -5.490  0.00  0.00    -0.008 C 
ATOM     44  H   LIG d   1       5.499  -4.194  -5.166  0.00  0.00     0.087 H 
ATOM     45  H   LIG d   1       6.282  -2.804  -5.955  0.00  0.00     0.087 H 
BRANCH  43  46
ATOM     46  C   LIG d   1       5.035  -2.301  -4.298  0.00  0.00    -0.002 A 
ATOM     47  C   LIG d   1       5.562  -1.027  -4.201  0.00  0.00    -0.035 A 
ATOM     48  C   LIG d   1       5.259  -0.236  -3.107  0.00  0.00     0.041 A 
ATOM     49  H   LIG d   1       6.209  -0.649  -4.978  0.00  0.00     0.064 H 
ATOM     50  C   LIG d   1       4.430  -0.720  -2.110  0.00  0.00    -0.043 A 
ATOM     51 CL   LIG d   1       5.921   1.365  -2.983  0.00  0.00    -0.084 Cl
ATOM     52  C   LIG d   1       3.904  -1.995  -2.209  0.00  0.00    -0.060 A 
ATOM     53  H   LIG d   1       4.193  -0.103  -1.257  0.00  0.00     0.063 H 
ATOM     54  C   LIG d   1       4.202  -2.782  -3.305  0.00  0.00    -0.053 A 
ATOM     55  H   LIG d   1       3.257  -2.374  -1.432  0.00  0.00     0.062 H 
ATOM     56  H   LIG d   1       3.786  -3.776  -3.385  0.00  0.00     0.062 H 
ENDBRANCH  43  46
ENDBRANCH  40  43
ENDBRANCH  37  40
ENDBRANCH   7  37
BRANCH   5  57
ATOM     57  O   LIG d   1       2.336  -2.834  -9.749  0.00  0.00    -0.386 OA
ATOM     58  H   LIG d   1       1.416  -2.780  -9.459  0.00  0.00     0.210 HD
ENDBRANCH   5  57
TORSDOF 12
ENDMDL
MODEL 8
REMARK VINA RESULT:      -6.4      2.991      6.483
REMARK  12 active torsions:
REMARK  status: ('A' for Active; 'I' for Inactive)
REMARK    1  A    between atoms: C_1  and  O_2 
REMARK    2  A    between atoms: O_2  and  C_3 
REMARK    3  A    between atoms: C_6  and  C_9 
REMARK    4  A    between atoms: C_9  and  N_10 
REMARK       I    between atoms: N_10  and  C_11 
REMARK    5  A    between atoms: C_11  and  C_13 
REMARK    6  A    between atoms: C_13  and  C_14 
REMARK    7  A    between atoms: C_16  and  O_33 
REMARK    8  A    between atoms: C_18  and  O_32 
REMARK    9  A    between atoms: C_20  and  C_23 
REMARK   10  A    between atoms: C_23  and  N_56 
REMARK   11  A    between atoms: C_24  and  C_25 
REMARK   12  A    between atoms: C_24  and  N_56 
ROOT
ATOM      1  C   LIG d   1       9.813   2.531  -5.405  0.00  0.00     0.096 C 
ATOM      2  H   LIG d   1      10.741   2.599  -4.837  0.00  0.00     0.063 H 
ATOM      3  C   LIG d   1       8.616   2.862  -4.491  0.00  0.00     0.110 C 
ATOM      4  H   LIG d   1       8.033   3.683  -4.909  0.00  0.00     0.065 H 
ATOM      5  C   LIG d   1       7.784   1.558  -4.469  0.00  0.00     0.115 C 
ATOM      6  H   LIG d   1       6.965   1.607  -5.187  0.00  0.00     0.065 H 
ATOM      7  C   LIG d   1       8.831   0.498  -4.896  0.00  0.00     0.127 C 
ATOM      8  H   LIG d   1       9.445   0.198  -4.047  0.00  0.00     0.068 H 
ATOM      9  O   LIG d   1       9.628   1.189  -5.881  0.00  0.00    -0.362 OA
ENDROOT
BRANCH   1  10
ATOM     10  C   LIG d   1       9.850   3.503  -6.586  0.00  0.00     0.053 C 
ATOM     11  H   LIG d   1       9.201   4.353  -6.377  0.00  0.00     0.038 H 
ATOM     12  H   LIG d   1      10.872   3.853  -6.736  0.00  0.00     0.038 H 
BRANCH  10  13
ATOM     13  C   LIG d   1       9.372   2.800  -7.831  0.00  0.00     0.216 C 
ATOM     14  N   LIG d   1       8.079   2.440  -7.946  0.00  0.00    -0.311 N 
ATOM     15  H   LIG d   1       7.455   2.632  -7.229  0.00  0.00     0.149 HD
ATOM     16  O   LIG d   1      10.152   2.559  -8.728  0.00  0.00    -0.276 OA
BRANCH  14  17
ATOM     17  C   LIG d   1       7.615   1.756  -9.156  0.00  0.00     0.037 C 
ATOM     18  H   LIG d   1       7.630   2.451  -9.995  0.00  0.00     0.051 H 
ATOM     19  H   LIG d   1       8.271   0.912  -9.372  0.00  0.00     0.051 H 
BRANCH  17  20
ATOM     20  C   LIG d   1       6.208   1.257  -8.944  0.00  0.00    -0.030 A 
ATOM     21  C   LIG d   1       5.136   2.104  -9.158  0.00  0.00    -0.054 A 
ATOM     22  C   LIG d   1       3.846   1.648  -8.964  0.00  0.00    -0.020 A 
ATOM     23  H   LIG d   1       5.307   3.120  -9.479  0.00  0.00     0.062 H 
ATOM     24  C   LIG d   1       3.628   0.342  -8.551  0.00  0.00     0.120 A 
ATOM     25  H   LIG d   1       3.009   2.310  -9.132  0.00  0.00     0.065 H 
ATOM     26  C   LIG d   1       4.705  -0.504  -8.336  0.00  0.00    -0.020 A 
ATOM     27  C   LIG d   1       5.993  -0.047  -8.538  0.00  0.00    -0.054 A 
ATOM     28  H   LIG d   1       4.537  -1.523  -8.016  0.00  0.00     0.065 H 
ATOM     29  H   LIG d   1       6.832  -0.707  -8.375  0.00  0.00     0.062 H 
BRANCH  24  30
ATOM     30  O   LIG d   1       2.359  -0.108  -8.359  0.00  0.00    -0.495 OA
BRANCH  30  31
ATOM     31  C   LIG d   1       1.665  -0.603  -9.506  0.00  0.00     0.079 C 
ATOM     32  H   LIG d   1       0.656  -0.190  -9.525  0.00  0.00     0.066 H 
ATOM     33  H   LIG d   1       2.197  -0.305 -10.409  0.00  0.00     0.066 H 
ATOM     34  H   LIG d   1       1.612  -1.690  -9.457  0.00  0.00     0.066 H 
ENDBRANCH  30  31
ENDBRANCH  24  30
ENDBRANCH  17  20
ENDBRANCH  14  17
ENDBRANCH  10  13
ENDBRANCH   1  10
BRANCH   3  35
ATOM     35  O   LIG d   1       9.067   3.190  -3.175  0.00  0.00    -0.387 OA
ATOM     36  H   LIG d   1       9.371   4.104  -3.080  0.00  0.00     0.210 HD
ENDBRANCH   3  35
BRANCH   7  37
ATOM     37  C   LIG d   1       8.142  -0.719  -5.517  0.00  0.00    -0.004 C 
ATOM     38  H   LIG d   1       8.875  -1.312  -6.064  0.00  0.00     0.084 H 
ATOM     39  H   LIG d   1       7.360  -0.387  -6.200  0.00  0.00     0.084 H 
BRANCH  37  40
ATOM     40  N   LIG d   1       7.546  -1.537  -4.443  0.00  0.00     0.232 N 
ATOM     41  H   LIG d   1       7.241  -0.922  -3.679  0.00  0.00     0.202 HD
ATOM     42  H   LIG d   1       8.248  -2.198  -4.090  0.00  0.00     0.202 HD
BRANCH  40  43
ATOM     43  C   LIG d   1       6.385  -2.288  -4.955  0.00  0.00    -0.008 C 
ATOM     44  H   LIG d   1       6.304  -2.148  -6.033  0.00  0.00     0.087 H 
ATOM     45  H   LIG d   1       6.509  -3.349  -4.736  0.00  0.00     0.087 H 
BRANCH  43  46
ATOM     46  C   LIG d   1       5.133  -1.780  -4.287  0.00  0.00    -0.002 A 
ATOM     47  C   LIG d   1       4.405  -0.761  -4.870  0.00  0.00    -0.035 A 
ATOM     48  C   LIG d   1       3.255  -0.295  -4.257  0.00  0.00     0.041 A 
ATOM     49  H   LIG d   1       4.731  -0.329  -5.805  0.00  0.00     0.064 H 
ATOM     50  C   LIG d   1       2.837  -0.848  -3.059  0.00  0.00    -0.043 A 
ATOM     51 CL   LIG d   1       2.339   0.986  -4.989  0.00  0.00    -0.084 Cl
ATOM     52  C   LIG d   1       3.567  -1.867  -2.477  0.00  0.00    -0.060 A 
ATOM     53  H   LIG d   1       1.940  -0.485  -2.581  0.00  0.00     0.063 H 
ATOM     54  C   LIG d   1       4.712  -2.336  -3.094  0.00  0.00    -0.053 A 
ATOM     55  H   LIG d   1       3.241  -2.300  -1.543  0.00  0.00     0.062 H 
ATOM     56  H   LIG d   1       5.280  -3.136  -2.641  0.00  0.00     0.062 H 
ENDBRANCH  43  46
ENDBRANCH  40  43
ENDBRANCH  37  40
ENDBRANCH   7  37
BRANCH   5  57
ATOM     57  O   LIG d   1       7.292   1.289  -3.155  0.00  0.00    -0.386 OA
ATOM     58  H   LIG d   1       7.882   1.581  -2.447  0.00  0.00     0.210 HD
ENDBRANCH   5  57
TORSDOF 12
ENDMDL
MODEL 9
REMARK VINA RESULT:      -6.3      4.227      5.840
REMARK  12 active torsions:
REMARK  status: ('A' for Active; 'I' for Inactive)
REMARK    1  A    between atoms: C_1  and  O_2 
REMARK    2  A    between atoms: O_2  and  C_3 
REMARK    3  A    between atoms: C_6  and  C_9 
REMARK    4  A    between atoms: C_9  and  N_10 
REMARK       I    between atoms: N_10  and  C_11 
REMARK    5  A    between atoms: C_11  and  C_13 
REMARK    6  A    between atoms: C_13  and  C_14 
REMARK    7  A    between atoms: C_16  and  O_33 
REMARK    8  A    between atoms: C_18  and  O_32 
REMARK    9  A    between atoms: C_20  and  C_23 
REMARK   10  A    between atoms: C_23  and  N_56 
REMARK   11  A    between atoms: C_24  and  C_25 
REMARK   12  A    between atoms: C_24  and  N_56 
ROOT
ATOM      1  C   LIG d   1       5.400   1.272  -9.787  0.00  0.00     0.096 C 
ATOM      2  H   LIG d   1       5.340   2.240 -10.286  0.00  0.00     0.063 H 
ATOM      3  C   LIG d   1       4.696   0.199 -10.641  0.00  0.00     0.110 C 
ATOM      4  H   LIG d   1       5.380  -0.620 -10.865  0.00  0.00     0.065 H 
ATOM      5  C   LIG d   1       3.531  -0.292  -9.749  0.00  0.00     0.115 C 
ATOM      6  H   LIG d   1       3.803  -1.206  -9.222  0.00  0.00     0.065 H 
ATOM      7  C   LIG d   1       3.363   0.888  -8.757  0.00  0.00     0.127 C 
ATOM      8  H   LIG d   1       2.771   1.687  -9.204  0.00  0.00     0.068 H 
ATOM      9  O   LIG d   1       4.718   1.328  -8.524  0.00  0.00    -0.362 OA
ENDROOT
BRANCH   1  10
ATOM     10  C   LIG d   1       6.865   0.886  -9.571  0.00  0.00     0.053 C 
ATOM     11  H   LIG d   1       7.030  -0.129  -9.932  0.00  0.00     0.038 H 
ATOM     12  H   LIG d   1       7.507   1.576 -10.120  0.00  0.00     0.038 H 
BRANCH  10  13
ATOM     13  C   LIG d   1       7.192   0.957  -8.102  0.00  0.00     0.216 C 
ATOM     14  N   LIG d   1       7.115  -0.152  -7.341  0.00  0.00    -0.311 N 
ATOM     15  H   LIG d   1       6.849  -0.996  -7.737  0.00  0.00     0.149 HD
ATOM     16  O   LIG d   1       7.525   2.012  -7.605  0.00  0.00    -0.276 OA
BRANCH  14  17
ATOM     17  C   LIG d   1       7.433  -0.083  -5.912  0.00  0.00     0.037 C 
ATOM     18  H   LIG d   1       8.291   0.572  -5.762  0.00  0.00     0.051 H 
ATOM     19  H   LIG d   1       6.575   0.312  -5.367  0.00  0.00     0.051 H 
BRANCH  17  20
ATOM     20  C   LIG d   1       7.761  -1.463  -5.402  0.00  0.00    -0.030 A 
ATOM     21  C   LIG d   1       7.698  -1.732  -4.047  0.00  0.00    -0.054 A 
ATOM     22  C   LIG d   1       7.999  -2.996  -3.579  0.00  0.00    -0.020 A 
ATOM     23  H   LIG d   1       7.413  -0.953  -3.356  0.00  0.00     0.062 H 
ATOM     24  C   LIG d   1       8.365  -3.996  -4.468  0.00  0.00     0.120 A 
ATOM     25  H   LIG d   1       7.950  -3.205  -2.520  0.00  0.00     0.065 H 
ATOM     26  C   LIG d   1       8.428  -3.723  -5.827  0.00  0.00    -0.020 A 
ATOM     27  C   LIG d   1       8.121  -2.459  -6.291  0.00  0.00    -0.054 A 
ATOM     28  H   LIG d   1       8.712  -4.500  -6.521  0.00  0.00     0.065 H 
ATOM     29  H   LIG d   1       8.165  -2.247  -7.350  0.00  0.00     0.062 H 
BRANCH  24  30
ATOM     30  O   LIG d   1       8.662  -5.240  -4.009  0.00  0.00    -0.495 OA
BRANCH  30  31
ATOM     31  C   LIG d   1       9.585  -5.326  -2.920  0.00  0.00     0.079 C 
ATOM     32  H   LIG d   1       9.154  -5.939  -2.128  0.00  0.00     0.066 H 
ATOM     33  H   LIG d   1      10.513  -5.779  -3.266  0.00  0.00     0.066 H 
ATOM     34  H   LIG d   1       9.788  -4.326  -2.536  0.00  0.00     0.066 H 
ENDBRANCH  30  31
ENDBRANCH  24  30
ENDBRANCH  17  20
ENDBRANCH  14  17
ENDBRANCH  10  13
ENDBRANCH   1  10
BRANCH   3  35
ATOM     35  O   LIG d   1       4.193   0.772 -11.850  0.00  0.00    -0.387 OA
ATOM     36  H   LIG d   1       3.353   1.239 -11.744  0.00  0.00     0.210 HD
ENDBRANCH   3  35
BRANCH   7  37
ATOM     37  C   LIG d   1       2.721   0.408  -7.454  0.00  0.00    -0.004 C 
ATOM     38  H   LIG d   1       2.273  -0.573  -7.609  0.00  0.00     0.084 H 
ATOM     39  H   LIG d   1       1.950   1.115  -7.146  0.00  0.00     0.084 H 
BRANCH  37  40
ATOM     40  N   LIG d   1       3.758   0.319  -6.408  0.00  0.00     0.232 N 
ATOM     41  H   LIG d   1       3.442   0.829  -5.574  0.00  0.00     0.202 HD
ATOM     42  H   LIG d   1       4.628   0.738  -6.757  0.00  0.00     0.202 HD
BRANCH  40  43
ATOM     43  C   LIG d   1       4.005  -1.090  -6.051  0.00  0.00    -0.008 C 
ATOM     44  H   LIG d   1       3.177  -1.708  -6.400  0.00  0.00     0.087 H 
ATOM     45  H   LIG d   1       4.932  -1.429  -6.515  0.00  0.00     0.087 H 
BRANCH  43  46
ATOM     46  C   LIG d   1       4.122  -1.207  -4.553  0.00  0.00    -0.002 A 
ATOM     47  C   LIG d   1       4.279  -0.071  -3.782  0.00  0.00    -0.035 A 
ATOM     48  C   LIG d   1       4.387  -0.178  -2.407  0.00  0.00     0.041 A 
ATOM     49  H   LIG d   1       4.318   0.900  -4.252  0.00  0.00     0.064 H 
ATOM     50  C   LIG d   1       4.337  -1.423  -1.804  0.00  0.00    -0.043 A 
ATOM     51 CL   LIG d   1       4.584   1.248  -1.437  0.00  0.00    -0.084 Cl
ATOM     52  C   LIG d   1       4.181  -2.558  -2.576  0.00  0.00    -0.060 A 
ATOM     53  H   LIG d   1       4.420  -1.507  -0.731  0.00  0.00     0.063 H 
ATOM     54  C   LIG d   1       4.068  -2.450  -3.950  0.00  0.00    -0.053 A 
ATOM     55  H   LIG d   1       4.142  -3.530  -2.107  0.00  0.00     0.062 H 
ATOM     56  H   LIG d   1       3.940  -3.337  -4.553  0.00  0.00     0.062 H 
ENDBRANCH  43  46
ENDBRANCH  40  43
ENDBRANCH  37  40
ENDBRANCH   7  37
BRANCH   5  57
ATOM     57  O   LIG d   1       2.344  -0.483 -10.520  0.00  0.00    -0.386 OA
ATOM     58  H   LIG d   1       2.132   0.255 -11.107  0.00  0.00     0.210 HD
ENDBRANCH   5  57
TORSDOF 12
ENDMDL
