MODEL 1
REMARK VINA RESULT:      -6.4      0.000      0.000
REMARK  14 active torsions:
REMARK  status: ('A' for Active; 'I' for Inactive)
REMARK    1  A    between atoms: C_1  and  C_2 
REMARK    2  A    between atoms: C_4  and  C_26 
REMARK    3  A    between atoms: C_6  and  C_23 
REMARK    4  A    between atoms: C_9  and  C_11 
REMARK    5  A    between atoms: C_11  and  C_12 
REMARK       I    between atoms: C_12  and  N_14 
REMARK    6  A    between atoms: N_14  and  C_15 
REMARK    7  A    between atoms: C_15  and  C_16 
REMARK    8  A    between atoms: C_16  and  N_17 
REMARK    9  A    between atoms: C_23  and  C_24 
REMARK   10  A    between atoms: C_23  and  C_25 
REMARK   11  A    between atoms: C_26  and  N_27 
REMARK       I    between atoms: N_27  and  C_28 
REMARK       I    between atoms: C_28  and  N_30 
REMARK   12  A    between atoms: N_30  and  C_31 
REMARK   13  A    between atoms: C_31  and  C_32 
REMARK   14  A    between atoms: C_31  and  C_33 
ROOT
ATOM      1  C   LIG d   1       6.930  -3.191  -4.198  0.00  0.00    -0.073 C 
ATOM      2  C   LIG d   1       7.341  -1.994  -3.931  0.00  0.00    -0.080 C 
ATOM      3  C   LIG d   1       6.435  -0.859  -3.550  0.00  0.00    -0.004 C 
ATOM      4  H   LIG d   1       6.507  -0.717  -2.462  0.00  0.00     0.036 H 
ATOM      5  C   LIG d   1       4.990  -1.188  -3.930  0.00  0.00    -0.030 C 
ATOM      6  H   LIG d   1       4.873  -1.158  -5.023  0.00  0.00     0.031 H 
ATOM      7  C   LIG d   1       4.656  -2.588  -3.399  0.00  0.00    -0.042 C 
ATOM      8  C   LIG d   1       5.490  -3.612  -4.173  0.00  0.00    -0.012 C 
ATOM      9  H   LIG d   1       5.429  -4.589  -3.674  0.00  0.00     0.035 H 
ATOM     10  H   LIG d   1       8.414  -1.757  -3.978  0.00  0.00     0.058 H 
ATOM     11  H   LIG d   1       4.897  -2.641  -2.327  0.00  0.00     0.027 H 
ATOM     12  H   LIG d   1       3.584  -2.789  -3.545  0.00  0.00     0.027 H 
ENDROOT
BRANCH   8  13
ATOM     13  C   LIG d   1       4.966  -3.712  -5.608  0.00  0.00     0.030 C 
ATOM     14  H   LIG d   1       4.129  -3.010  -5.742  0.00  0.00     0.036 H 
ATOM     15  H   LIG d   1       5.773  -3.458  -6.311  0.00  0.00     0.036 H 
BRANCH  13  16
ATOM     16  C   LIG d   1       4.493  -5.118  -5.873  0.00  0.00     0.214 C 
ATOM     17  O   LIG d   1       3.363  -5.313  -6.268  0.00  0.00    -0.276 OA
ATOM     18  N   LIG d   1       5.327  -6.158  -5.673  0.00  0.00    -0.314 N 
ATOM     19  H   LIG d   1       6.351  -5.980  -5.315  0.00  0.00     0.149 HD
BRANCH  18  20
ATOM     20  C   LIG d   1       4.867  -7.525  -5.932  0.00  0.00     0.024 C 
ATOM     21  H   LIG d   1       3.884  -7.676  -5.462  0.00  0.00     0.047 H 
ATOM     22  H   LIG d   1       4.785  -7.684  -7.017  0.00  0.00     0.047 H 
BRANCH  20  23
ATOM     23  C   LIG d   1       5.870  -8.520  -5.345  0.00  0.00     0.015 C 
ATOM     24  H   LIG d   1       6.658  -8.726  -6.085  0.00  0.00     0.044 H 
ATOM     25  H   LIG d   1       6.323  -8.092  -4.438  0.00  0.00     0.044 H 
BRANCH  23  26
ATOM     26  N   LIG d   1       5.179  -9.769  -5.004  0.00  0.00    -0.296 N 
ATOM     27  C   LIG d   1       4.207  -9.556  -3.923  0.00  0.00     0.022 C 
ATOM     28  C   LIG d   1       3.553 -10.893  -3.558  0.00  0.00     0.060 C 
ATOM     29  H   LIG d   1       4.722  -9.146  -3.041  0.00  0.00     0.045 H 
ATOM     30  H   LIG d   1       3.435  -8.848  -4.258  0.00  0.00     0.045 H 
ATOM     31  O   LIG d   1       2.950 -11.456  -4.726  0.00  0.00    -0.377 OA
ATOM     32  H   LIG d   1       2.784 -10.730  -2.790  0.00  0.00     0.057 H 
ATOM     33  H   LIG d   1       4.317 -11.582  -3.171  0.00  0.00     0.057 H 
ATOM     34  C   LIG d   1       3.869 -11.677  -5.799  0.00  0.00     0.060 C 
ATOM     35  C   LIG d   1       4.524 -10.349  -6.186  0.00  0.00     0.022 C 
ATOM     36  H   LIG d   1       3.330 -12.087  -6.667  0.00  0.00     0.057 H 
ATOM     37  H   LIG d   1       4.644 -12.390  -5.479  0.00  0.00     0.057 H 
ATOM     38  H   LIG d   1       3.758  -9.654  -6.558  0.00  0.00     0.045 H 
ATOM     39  H   LIG d   1       5.275 -10.523  -6.971  0.00  0.00     0.045 H 
ENDBRANCH  23  26
ENDBRANCH  20  23
ENDBRANCH  18  20
ENDBRANCH  13  16
ENDBRANCH   8  13
BRANCH   1  40
ATOM     40  C   LIG d   1       7.963  -4.229  -4.556  0.00  0.00    -0.043 C 
ATOM     41  H   LIG d   1       7.501  -5.226  -4.539  0.00  0.00     0.027 H 
ATOM     42  H   LIG d   1       8.786  -4.193  -3.827  0.00  0.00     0.027 H 
ATOM     43  H   LIG d   1       8.355  -4.024  -5.564  0.00  0.00     0.027 H 
ENDBRANCH   1  40
BRANCH   5  44
ATOM     44  C   LIG d   1       4.043  -0.162  -3.306  0.00  0.00    -0.043 C 
ATOM     45  H   LIG d   1       4.167   0.806  -3.813  0.00  0.00     0.030 H 
BRANCH  44  46
ATOM     46  C   LIG d   1       2.597  -0.639  -3.463  0.00  0.00    -0.062 C 
ATOM     47  H   LIG d   1       2.220  -0.344  -4.453  0.00  0.00     0.023 H 
ATOM     48  H   LIG d   1       1.974  -0.182  -2.681  0.00  0.00     0.023 H 
ATOM     49  H   LIG d   1       2.561  -1.734  -3.369  0.00  0.00     0.023 H 
ENDBRANCH  44  46
BRANCH  44  50
ATOM     50  C   LIG d   1       4.369  -0.005  -1.820  0.00  0.00    -0.062 C 
ATOM     51  H   LIG d   1       5.455   0.124  -1.694  0.00  0.00     0.023 H 
ATOM     52  H   LIG d   1       4.041  -0.903  -1.275  0.00  0.00     0.023 H 
ATOM     53  H   LIG d   1       3.847   0.877  -1.420  0.00  0.00     0.023 H 
ENDBRANCH  44  50
ENDBRANCH   5  44
BRANCH   3  54
ATOM     54  C   LIG d   1       6.875   0.410  -4.283  0.00  0.00     0.020 C 
ATOM     55  H   LIG d   1       7.084   0.171  -5.336  0.00  0.00     0.047 H 
ATOM     56  H   LIG d   1       6.074   1.161  -4.230  0.00  0.00     0.047 H 
BRANCH  54  57
ATOM     57  N   LIG d   1       8.087   0.942  -3.654  0.00  0.00    -0.299 N 
ATOM     58  C   LIG d   1       8.548   2.159  -4.001  0.00  0.00     0.300 C 
ATOM     59  O   LIG d   1       7.960   2.816  -4.838  0.00  0.00    -0.253 OA
ATOM     60  N   LIG d   1       9.663   2.648  -3.423  0.00  0.00    -0.297 N 
ATOM     61  H   LIG d   1      10.196   2.053  -2.666  0.00  0.00     0.150 HD
ATOM     62  H   LIG d   1       8.620   0.347  -2.896  0.00  0.00     0.150 HD
BRANCH  60  63
ATOM     63  C   LIG d   1      10.164   3.972  -3.802  0.00  0.00     0.019 C 
ATOM     64  H   LIG d   1       9.578   4.305  -4.670  0.00  0.00     0.049 H 
BRANCH  63  65
ATOM     65  C   LIG d   1       9.986   4.939  -2.629  0.00  0.00    -0.047 C 
ATOM     66  H   LIG d   1       9.295   5.743  -2.918  0.00  0.00     0.025 H 
ATOM     67  H   LIG d   1      10.961   5.373  -2.361  0.00  0.00     0.025 H 
ATOM     68  H   LIG d   1       9.576   4.396  -1.765  0.00  0.00     0.025 H 
ENDBRANCH  63  65
BRANCH  63  69
ATOM     69  C   LIG d   1      11.648   3.871  -4.158  0.00  0.00    -0.047 C 
ATOM     70  H   LIG d   1      12.255   4.172  -3.291  0.00  0.00     0.025 H 
ATOM     71  H   LIG d   1      11.868   4.536  -5.006  0.00  0.00     0.025 H 
ATOM     72  H   LIG d   1      11.891   2.834  -4.433  0.00  0.00     0.025 H 
ENDBRANCH  63  69
ENDBRANCH  60  63
ENDBRANCH  54  57
ENDBRANCH   3  54
TORSDOF 14
ENDMDL
MODEL 2
REMARK VINA RESULT:      -6.4      7.242      9.916
REMARK  14 active torsions:
REMARK  status: ('A' for Active; 'I' for Inactive)
REMARK    1  A    between atoms: C_1  and  C_2 
REMARK    2  A    between atoms: C_4  and  C_26 
REMARK    3  A    between atoms: C_6  and  C_23 
REMARK    4  A    between atoms: C_9  and  C_11 
REMARK    5  A    between atoms: C_11  and  C_12 
REMARK       I    between atoms: C_12  and  N_14 
REMARK    6  A    between atoms: N_14  and  C_15 
REMARK    7  A    between atoms: C_15  and  C_16 
REMARK    8  A    between atoms: C_16  and  N_17 
REMARK    9  A    between atoms: C_23  and  C_24 
REMARK   10  A    between atoms: C_23  and  C_25 
REMARK   11  A    between atoms: C_26  and  N_27 
REMARK       I    between atoms: N_27  and  C_28 
REMARK       I    between atoms: C_28  and  N_30 
REMARK   12  A    between atoms: N_30  and  C_31 
REMARK   13  A    between atoms: C_31  and  C_32 
REMARK   14  A    between atoms: C_31  and  C_33 
ROOT
ATOM      1  C   LIG d   1       3.536   1.336  -9.937  0.00  0.00    -0.073 C 
ATOM      2  C   LIG d   1       3.856   0.930 -11.123  0.00  0.00    -0.080 C 
ATOM      3  C   LIG d   1       3.268  -0.282 -11.786  0.00  0.00    -0.004 C 
ATOM      4  H   LIG d   1       2.521   0.060 -12.517  0.00  0.00     0.036 H 
ATOM      5  C   LIG d   1       2.593  -1.176 -10.744  0.00  0.00    -0.030 C 
ATOM      6  H   LIG d   1       3.356  -1.662 -10.117  0.00  0.00     0.031 H 
ATOM      7  C   LIG d   1       1.671  -0.306  -9.881  0.00  0.00    -0.042 C 
ATOM      8  C   LIG d   1       2.538   0.646  -9.054  0.00  0.00    -0.012 C 
ATOM      9  H   LIG d   1       1.903   1.416  -8.592  0.00  0.00     0.035 H 
ATOM     10  H   LIG d   1       4.603   1.484 -11.711  0.00  0.00     0.058 H 
ATOM     11  H   LIG d   1       0.996   0.270 -10.531  0.00  0.00     0.027 H 
ATOM     12  H   LIG d   1       1.078  -0.949  -9.215  0.00  0.00     0.027 H 
ENDROOT
BRANCH   8  13
ATOM     13  C   LIG d   1       3.278  -0.150  -7.976  0.00  0.00     0.030 C 
ATOM     14  H   LIG d   1       2.986  -1.208  -8.036  0.00  0.00     0.036 H 
ATOM     15  H   LIG d   1       4.363  -0.060  -8.136  0.00  0.00     0.036 H 
BRANCH  13  16
ATOM     16  C   LIG d   1       2.925   0.395  -6.617  0.00  0.00     0.214 C 
ATOM     17  O   LIG d   1       2.744   1.585  -6.469  0.00  0.00    -0.276 OA
ATOM     18  N   LIG d   1       2.807  -0.441  -5.566  0.00  0.00    -0.314 N 
ATOM     19  H   LIG d   1       2.970  -1.519  -5.701  0.00  0.00     0.149 HD
BRANCH  18  20
ATOM     20  C   LIG d   1       2.462   0.090  -4.244  0.00  0.00     0.024 C 
ATOM     21  H   LIG d   1       2.736   1.153  -4.193  0.00  0.00     0.047 H 
ATOM     22  H   LIG d   1       1.380  -0.021  -4.076  0.00  0.00     0.047 H 
BRANCH  20  23
ATOM     23  C   LIG d   1       3.226  -0.685  -3.169  0.00  0.00     0.015 C 
ATOM     24  H   LIG d   1       3.269  -0.087  -2.247  0.00  0.00     0.044 H 
ATOM     25  H   LIG d   1       2.711  -1.635  -2.966  0.00  0.00     0.044 H 
BRANCH  23  26
ATOM     26  N   LIG d   1       4.591  -0.959  -3.639  0.00  0.00    -0.296 N 
ATOM     27  C   LIG d   1       5.572  -0.141  -2.913  0.00  0.00     0.022 C 
ATOM     28  C   LIG d   1       6.971  -0.413  -3.474  0.00  0.00     0.060 C 
ATOM     29  H   LIG d   1       5.326   0.924  -3.037  0.00  0.00     0.045 H 
ATOM     30  H   LIG d   1       5.547  -0.400  -1.844  0.00  0.00     0.045 H 
ATOM     31  O   LIG d   1       7.254  -1.811  -3.377  0.00  0.00    -0.377 OA
ATOM     32  H   LIG d   1       7.716   0.153  -2.896  0.00  0.00     0.057 H 
ATOM     33  H   LIG d   1       7.012  -0.102  -4.528  0.00  0.00     0.057 H 
ATOM     34  C   LIG d   1       6.317  -2.637  -4.074  0.00  0.00     0.060 C 
ATOM     35  C   LIG d   1       4.913  -2.388  -3.519  0.00  0.00     0.022 C 
ATOM     36  H   LIG d   1       6.585  -3.695  -3.935  0.00  0.00     0.057 H 
ATOM     37  H   LIG d   1       6.337  -2.392  -5.146  0.00  0.00     0.057 H 
ATOM     38  H   LIG d   1       4.877  -2.684  -2.460  0.00  0.00     0.045 H 
ATOM     39  H   LIG d   1       4.181  -2.978  -4.090  0.00  0.00     0.045 H 
ENDBRANCH  23  26
ENDBRANCH  20  23
ENDBRANCH  18  20
ENDBRANCH  13  16
ENDBRANCH   8  13
BRANCH   1  40
ATOM     40  C   LIG d   1       4.206   2.578  -9.410  0.00  0.00    -0.043 C 
ATOM     41  H   LIG d   1       3.995   2.681  -8.336  0.00  0.00     0.027 H 
ATOM     42  H   LIG d   1       3.821   3.458  -9.947  0.00  0.00     0.027 H 
ATOM     43  H   LIG d   1       5.294   2.502  -9.563  0.00  0.00     0.027 H 
ENDBRANCH   1  40
BRANCH   5  44
ATOM     44  C   LIG d   1       1.772  -2.260 -11.444  0.00  0.00    -0.043 C 
ATOM     45  H   LIG d   1       2.423  -2.833 -12.121  0.00  0.00     0.030 H 
BRANCH  44  46
ATOM     46  C   LIG d   1       1.169  -3.200 -10.398  0.00  0.00    -0.062 C 
ATOM     47  H   LIG d   1       0.605  -3.997 -10.904  0.00  0.00     0.023 H 
ATOM     48  H   LIG d   1       0.494  -2.632  -9.741  0.00  0.00     0.023 H 
ATOM     49  H   LIG d   1       1.976  -3.646  -9.798  0.00  0.00     0.023 H 
ENDBRANCH  44  46
BRANCH  44  50
ATOM     50  C   LIG d   1       0.647  -1.606 -12.250  0.00  0.00    -0.062 C 
ATOM     51  H   LIG d   1       0.510  -2.151 -13.196  0.00  0.00     0.023 H 
ATOM     52  H   LIG d   1       0.910  -0.559 -12.465  0.00  0.00     0.023 H 
ATOM     53  H   LIG d   1      -0.286  -1.638 -11.670  0.00  0.00     0.023 H 
ENDBRANCH  44  50
ENDBRANCH   5  44
BRANCH   3  54
ATOM     54  C   LIG d   1       4.379  -1.067 -12.486  0.00  0.00     0.020 C 
ATOM     55  H   LIG d   1       5.167  -1.314 -11.760  0.00  0.00     0.047 H 
ATOM     56  H   LIG d   1       3.963  -1.995 -12.906  0.00  0.00     0.047 H 
BRANCH  54  57
ATOM     57  N   LIG d   1       4.947  -0.253 -13.564  0.00  0.00    -0.299 N 
ATOM     58  C   LIG d   1       4.400  -0.288 -14.795  0.00  0.00     0.300 C 
ATOM     59  O   LIG d   1       3.436  -0.997 -15.011  0.00  0.00    -0.253 OA
ATOM     60  N   LIG d   1       4.922   0.459 -15.787  0.00  0.00    -0.297 N 
ATOM     61  H   LIG d   1       5.796   1.100 -15.591  0.00  0.00     0.150 HD
ATOM     62  H   LIG d   1       5.820   0.388 -13.368  0.00  0.00     0.150 HD
BRANCH  60  63
ATOM     63  C   LIG d   1       4.328   0.420 -17.125  0.00  0.00     0.019 C 
ATOM     64  H   LIG d   1       3.688  -0.473 -17.170  0.00  0.00     0.049 H 
BRANCH  63  65
ATOM     65  C   LIG d   1       3.501   1.687 -17.352  0.00  0.00    -0.047 C 
ATOM     66  H   LIG d   1       4.100   2.570 -17.086  0.00  0.00     0.025 H 
ATOM     67  H   LIG d   1       2.598   1.654 -16.724  0.00  0.00     0.025 H 
ATOM     68  H   LIG d   1       3.208   1.750 -18.411  0.00  0.00     0.025 H 
ENDBRANCH  63  65
BRANCH  63  69
ATOM     69  C   LIG d   1       5.439   0.342 -18.174  0.00  0.00    -0.047 C 
ATOM     70  H   LIG d   1       6.131  -0.474 -17.916  0.00  0.00     0.025 H 
ATOM     71  H   LIG d   1       5.989   1.294 -18.197  0.00  0.00     0.025 H 
ATOM     72  H   LIG d   1       4.997   0.150 -19.163  0.00  0.00     0.025 H 
ENDBRANCH  63  69
ENDBRANCH  60  63
ENDBRANCH  54  57
ENDBRANCH   3  54
TORSDOF 14
ENDMDL
MODEL 3
REMARK VINA RESULT:      -6.2      1.183      1.551
REMARK  14 active torsions:
REMARK  status: ('A' for Active; 'I' for Inactive)
REMARK    1  A    between atoms: C_1  and  C_2 
REMARK    2  A    between atoms: C_4  and  C_26 
REMARK    3  A    between atoms: C_6  and  C_23 
REMARK    4  A    between atoms: C_9  and  C_11 
REMARK    5  A    between atoms: C_11  and  C_12 
REMARK       I    between atoms: C_12  and  N_14 
REMARK    6  A    between atoms: N_14  and  C_15 
REMARK    7  A    between atoms: C_15  and  C_16 
REMARK    8  A    between atoms: C_16  and  N_17 
REMARK    9  A    between atoms: C_23  and  C_24 
REMARK   10  A    between atoms: C_23  and  C_25 
REMARK   11  A    between atoms: C_26  and  N_27 
REMARK       I    between atoms: N_27  and  C_28 
REMARK       I    between atoms: C_28  and  N_30 
REMARK   12  A    between atoms: N_30  and  C_31 
REMARK   13  A    between atoms: C_31  and  C_32 
REMARK   14  A    between atoms: C_31  and  C_33 
ROOT
ATOM      1  C   LIG d   1       6.650  -3.140  -4.458  0.00  0.00    -0.073 C 
ATOM      2  C   LIG d   1       7.138  -2.011  -4.058  0.00  0.00    -0.080 C 
ATOM      3  C   LIG d   1       6.309  -0.873  -3.537  0.00  0.00    -0.004 C 
ATOM      4  H   LIG d   1       6.394  -0.865  -2.441  0.00  0.00     0.036 H 
ATOM      5  C   LIG d   1       4.844  -1.063  -3.937  0.00  0.00    -0.030 C 
ATOM      6  H   LIG d   1       4.726  -0.897  -5.018  0.00  0.00     0.031 H 
ATOM      7  C   LIG d   1       4.422  -2.490  -3.570  0.00  0.00    -0.042 C 
ATOM      8  C   LIG d   1       5.185  -3.468  -4.467  0.00  0.00    -0.012 C 
ATOM      9  H   LIG d   1       5.063  -4.491  -4.085  0.00  0.00     0.035 H 
ATOM     10  H   LIG d   1       8.224  -1.840  -4.088  0.00  0.00     0.058 H 
ATOM     11  H   LIG d   1       4.662  -2.684  -2.514  0.00  0.00     0.027 H 
ATOM     12  H   LIG d   1       3.339  -2.604  -3.726  0.00  0.00     0.027 H 
ENDROOT
BRANCH   8  13
ATOM     13  C   LIG d   1       4.651  -3.365  -5.898  0.00  0.00     0.030 C 
ATOM     14  H   LIG d   1       3.721  -2.778  -5.900  0.00  0.00     0.036 H 
ATOM     15  H   LIG d   1       5.399  -2.869  -6.533  0.00  0.00     0.036 H 
BRANCH  13  16
ATOM     16  C   LIG d   1       4.377  -4.747  -6.432  0.00  0.00     0.214 C 
ATOM     17  O   LIG d   1       3.499  -5.424  -5.940  0.00  0.00    -0.276 OA
ATOM     18  N   LIG d   1       5.106  -5.230  -7.458  0.00  0.00    -0.314 N 
ATOM     19  H   LIG d   1       5.901  -4.616  -7.903  0.00  0.00     0.149 HD
BRANCH  18  20
ATOM     20  C   LIG d   1       4.839  -6.574  -7.977  0.00  0.00     0.024 C 
ATOM     21  H   LIG d   1       4.075  -7.062  -7.355  0.00  0.00     0.047 H 
ATOM     22  H   LIG d   1       4.477  -6.501  -9.014  0.00  0.00     0.047 H 
BRANCH  20  23
ATOM     23  C   LIG d   1       6.127  -7.399  -7.944  0.00  0.00     0.015 C 
ATOM     24  H   LIG d   1       6.232  -7.952  -8.889  0.00  0.00     0.044 H 
ATOM     25  H   LIG d   1       6.988  -6.728  -7.814  0.00  0.00     0.044 H 
BRANCH  23  26
ATOM     26  N   LIG d   1       6.072  -8.348  -6.824  0.00  0.00    -0.296 N 
ATOM     27  C   LIG d   1       6.686  -7.776  -5.618  0.00  0.00     0.022 C 
ATOM     28  C   LIG d   1       6.662  -8.818  -4.496  0.00  0.00     0.060 C 
ATOM     29  H   LIG d   1       7.727  -7.493  -5.835  0.00  0.00     0.045 H 
ATOM     30  H   LIG d   1       6.122  -6.885  -5.306  0.00  0.00     0.045 H 
ATOM     31  O   LIG d   1       5.313  -9.236  -4.270  0.00  0.00    -0.377 OA
ATOM     32  H   LIG d   1       7.067  -8.376  -3.574  0.00  0.00     0.057 H 
ATOM     33  H   LIG d   1       7.272  -9.686  -4.785  0.00  0.00     0.057 H 
ATOM     34  C   LIG d   1       4.684  -9.799  -5.426  0.00  0.00     0.060 C 
ATOM     35  C   LIG d   1       4.689  -8.766  -6.556  0.00  0.00     0.022 C 
ATOM     36  H   LIG d   1       3.646 -10.073  -5.183  0.00  0.00     0.057 H 
ATOM     37  H   LIG d   1       5.235 -10.695  -5.744  0.00  0.00     0.057 H 
ATOM     38  H   LIG d   1       4.092  -7.892  -6.260  0.00  0.00     0.045 H 
ATOM     39  H   LIG d   1       4.258  -9.214  -7.464  0.00  0.00     0.045 H 
ENDBRANCH  23  26
ENDBRANCH  20  23
ENDBRANCH  18  20
ENDBRANCH  13  16
ENDBRANCH   8  13
BRANCH   1  40
ATOM     40  C   LIG d   1       7.611  -4.193  -4.946  0.00  0.00    -0.043 C 
ATOM     41  H   LIG d   1       8.607  -4.007  -4.518  0.00  0.00     0.027 H 
ATOM     42  H   LIG d   1       7.671  -4.155  -6.044  0.00  0.00     0.027 H 
ATOM     43  H   LIG d   1       7.258  -5.187  -4.632  0.00  0.00     0.027 H 
ENDBRANCH   1  40
BRANCH   5  44
ATOM     44  C   LIG d   1       3.968  -0.057  -3.188  0.00  0.00    -0.043 C 
ATOM     45  H   LIG d   1       4.034   0.925  -3.679  0.00  0.00     0.030 H 
BRANCH  44  46
ATOM     46  C   LIG d   1       2.515  -0.538  -3.201  0.00  0.00    -0.062 C 
ATOM     47  H   LIG d   1       2.186  -0.679  -4.241  0.00  0.00     0.023 H 
ATOM     48  H   LIG d   1       1.876   0.213  -2.713  0.00  0.00     0.023 H 
ATOM     49  H   LIG d   1       2.440  -1.491  -2.660  0.00  0.00     0.023 H 
ENDBRANCH  44  46
BRANCH  44  50
ATOM     50  C   LIG d   1       4.452   0.062  -1.741  0.00  0.00    -0.062 C 
ATOM     51  H   LIG d   1       5.388  -0.503  -1.620  0.00  0.00     0.023 H 
ATOM     52  H   LIG d   1       3.687  -0.346  -1.063  0.00  0.00     0.023 H 
ATOM     53  H   LIG d   1       4.630   1.120  -1.500  0.00  0.00     0.023 H 
ENDBRANCH  44  50
ENDBRANCH   5  44
BRANCH   3  54
ATOM     54  C   LIG d   1       6.828   0.442  -4.122  0.00  0.00     0.020 C 
ATOM     55  H   LIG d   1       6.943   0.339  -5.211  0.00  0.00     0.047 H 
ATOM     56  H   LIG d   1       6.113   1.249  -3.903  0.00  0.00     0.047 H 
BRANCH  54  57
ATOM     57  N   LIG d   1       8.127   0.764  -3.523  0.00  0.00    -0.299 N 
ATOM     58  C   LIG d   1       8.729   1.934  -3.808  0.00  0.00     0.300 C 
ATOM     59  O   LIG d   1       8.196   2.724  -4.565  0.00  0.00    -0.253 OA
ATOM     60  N   LIG d   1       9.923   2.231  -3.258  0.00  0.00    -0.297 N 
ATOM     61  H   LIG d   1      10.405   1.516  -2.574  0.00  0.00     0.150 HD
ATOM     62  H   LIG d   1       8.608   0.049  -2.838  0.00  0.00     0.150 HD
BRANCH  60  63
ATOM     63  C   LIG d   1      10.578   3.503  -3.569  0.00  0.00     0.019 C 
ATOM     64  H   LIG d   1      10.105   3.897  -4.480  0.00  0.00     0.049 H 
BRANCH  63  65
ATOM     65  C   LIG d   1      10.388   4.473  -2.401  0.00  0.00    -0.047 C 
ATOM     66  H   LIG d   1      11.319   4.532  -1.818  0.00  0.00     0.025 H 
ATOM     67  H   LIG d   1       9.574   4.115  -1.755  0.00  0.00     0.025 H 
ATOM     68  H   LIG d   1      10.136   5.471  -2.790  0.00  0.00     0.025 H 
ENDBRANCH  63  65
BRANCH  63  69
ATOM     69  C   LIG d   1      12.072   3.265  -3.796  0.00  0.00    -0.047 C 
ATOM     70  H   LIG d   1      12.488   4.089  -4.395  0.00  0.00     0.025 H 
ATOM     71  H   LIG d   1      12.215   2.315  -4.332  0.00  0.00     0.025 H 
ATOM     72  H   LIG d   1      12.589   3.220  -2.826  0.00  0.00     0.025 H 
ENDBRANCH  63  69
ENDBRANCH  60  63
ENDBRANCH  54  57
ENDBRANCH   3  54
TORSDOF 14
ENDMDL
MODEL 4
REMARK VINA RESULT:      -6.0      4.376     10.346
REMARK  14 active torsions:
REMARK  status: ('A' for Active; 'I' for Inactive)
REMARK    1  A    between atoms: C_1  and  C_2 
REMARK    2  A    between atoms: C_4  and  C_26 
REMARK    3  A    between atoms: C_6  and  C_23 
REMARK    4  A    between atoms: C_9  and  C_11 
REMARK    5  A    between atoms: C_11  and  C_12 
REMARK       I    between atoms: C_12  and  N_14 
REMARK    6  A    between atoms: N_14  and  C_15 
REMARK    7  A    between atoms: C_15  and  C_16 
REMARK    8  A    between atoms: C_16  and  N_17 
REMARK    9  A    between atoms: C_23  and  C_24 
REMARK   10  A    between atoms: C_23  and  C_25 
REMARK   11  A    between atoms: C_26  and  N_27 
REMARK       I    between atoms: N_27  and  C_28 
REMARK       I    between atoms: C_28  and  N_30 
REMARK   12  A    between atoms: N_30  and  C_31 
REMARK   13  A    between atoms: C_31  and  C_32 
REMARK   14  A    between atoms: C_31  and  C_33 
ROOT
ATOM      1  C   LIG d   1       5.345  -0.149  -2.687  0.00  0.00    -0.073 C 
ATOM      2  C   LIG d   1       4.727  -1.188  -3.147  0.00  0.00    -0.080 C 
ATOM      3  C   LIG d   1       5.352  -2.202  -4.062  0.00  0.00    -0.004 C 
ATOM      4  H   LIG d   1       5.605  -3.089  -3.464  0.00  0.00     0.036 H 
ATOM      5  C   LIG d   1       6.622  -1.629  -4.694  0.00  0.00    -0.030 C 
ATOM      6  H   LIG d   1       6.358  -0.855  -5.430  0.00  0.00     0.031 H 
ATOM      7  C   LIG d   1       7.490  -1.030  -3.580  0.00  0.00    -0.042 C 
ATOM      8  C   LIG d   1       6.770   0.194  -3.009  0.00  0.00    -0.012 C 
ATOM      9  H   LIG d   1       7.263   0.511  -2.080  0.00  0.00     0.035 H 
ATOM     10  H   LIG d   1       3.678  -1.371  -2.872  0.00  0.00     0.058 H 
ATOM     11  H   LIG d   1       7.641  -1.780  -2.789  0.00  0.00     0.027 H 
ATOM     12  H   LIG d   1       8.465  -0.734  -3.995  0.00  0.00     0.027 H 
ENDROOT
BRANCH   8  13
ATOM     13  C   LIG d   1       6.798   1.325  -4.040  0.00  0.00     0.030 C 
ATOM     14  H   LIG d   1       6.302   0.992  -4.963  0.00  0.00     0.036 H 
ATOM     15  H   LIG d   1       6.271   2.202  -3.636  0.00  0.00     0.036 H 
BRANCH  13  16
ATOM     16  C   LIG d   1       8.228   1.694  -4.342  0.00  0.00     0.214 C 
ATOM     17  O   LIG d   1       8.646   1.620  -5.477  0.00  0.00    -0.276 OA
ATOM     18  N   LIG d   1       9.040   2.108  -3.349  0.00  0.00    -0.314 N 
ATOM     19  H   LIG d   1       8.660   2.175  -2.320  0.00  0.00     0.149 HD
BRANCH  18  20
ATOM     20  C   LIG d   1      10.430   2.468  -3.642  0.00  0.00     0.024 C 
ATOM     21  H   LIG d   1      11.058   1.566  -3.606  0.00  0.00     0.047 H 
ATOM     22  H   LIG d   1      10.488   2.917  -4.645  0.00  0.00     0.047 H 
BRANCH  20  23
ATOM     23  C   LIG d   1      10.926   3.475  -2.603  0.00  0.00     0.015 C 
ATOM     24  H   LIG d   1      10.794   3.056  -1.594  0.00  0.00     0.044 H 
ATOM     25  H   LIG d   1      11.991   3.686  -2.776  0.00  0.00     0.044 H 
BRANCH  23  26
ATOM     26  N   LIG d   1      10.155   4.720  -2.720  0.00  0.00    -0.296 N 
ATOM     27  C   LIG d   1      10.430   5.618  -1.590  0.00  0.00     0.022 C 
ATOM     28  C   LIG d   1       9.563   6.874  -1.720  0.00  0.00     0.060 C 
ATOM     29  H   LIG d   1      10.194   5.105  -0.646  0.00  0.00     0.045 H 
ATOM     30  H   LIG d   1      11.493   5.902  -1.597  0.00  0.00     0.045 H 
ATOM     31  O   LIG d   1       9.821   7.496  -2.982  0.00  0.00    -0.377 OA
ATOM     32  H   LIG d   1       9.806   7.576  -0.909  0.00  0.00     0.057 H 
ATOM     33  H   LIG d   1       8.500   6.597  -1.658  0.00  0.00     0.057 H 
ATOM     34  C   LIG d   1       9.562   6.648  -4.105  0.00  0.00     0.060 C 
ATOM     35  C   LIG d   1      10.430   5.391  -3.998  0.00  0.00     0.022 C 
ATOM     36  H   LIG d   1       9.806   7.184  -5.034  0.00  0.00     0.057 H 
ATOM     37  H   LIG d   1       8.500   6.363  -4.113  0.00  0.00     0.057 H 
ATOM     38  H   LIG d   1      11.492   5.671  -4.045  0.00  0.00     0.045 H 
ATOM     39  H   LIG d   1      10.193   4.710  -4.828  0.00  0.00     0.045 H 
ENDBRANCH  23  26
ENDBRANCH  20  23
ENDBRANCH  18  20
ENDBRANCH  13  16
ENDBRANCH   8  13
BRANCH   1  40
ATOM     40  C   LIG d   1       4.587   0.774  -1.768  0.00  0.00    -0.043 C 
ATOM     41  H   LIG d   1       4.909   1.810  -1.943  0.00  0.00     0.027 H 
ATOM     42  H   LIG d   1       4.790   0.498  -0.722  0.00  0.00     0.027 H 
ATOM     43  H   LIG d   1       3.508   0.686  -1.968  0.00  0.00     0.027 H 
ENDBRANCH   1  40
BRANCH   5  44
ATOM     44  C   LIG d   1       7.393  -2.741  -5.407  0.00  0.00    -0.043 C 
ATOM     45  H   LIG d   1       6.721  -3.267  -6.101  0.00  0.00     0.030 H 
BRANCH  44  46
ATOM     46  C   LIG d   1       8.560  -2.132  -6.189  0.00  0.00    -0.062 C 
ATOM     47  H   LIG d   1       9.293  -1.713  -5.484  0.00  0.00     0.023 H 
ATOM     48  H   LIG d   1       8.184  -1.335  -6.846  0.00  0.00     0.023 H 
ATOM     49  H   LIG d   1       9.040  -2.913  -6.796  0.00  0.00     0.023 H 
ENDBRANCH  44  46
BRANCH  44  50
ATOM     50  C   LIG d   1       7.934  -3.730  -4.372  0.00  0.00    -0.062 C 
ATOM     51  H   LIG d   1       8.981  -3.971  -4.608  0.00  0.00     0.023 H 
ATOM     52  H   LIG d   1       7.332  -4.651  -4.394  0.00  0.00     0.023 H 
ATOM     53  H   LIG d   1       7.879  -3.280  -3.370  0.00  0.00     0.023 H 
ENDBRANCH  44  50
ENDBRANCH   5  44
BRANCH   3  54
ATOM     54  C   LIG d   1       4.358  -2.569  -5.166  0.00  0.00     0.020 C 
ATOM     55  H   LIG d   1       4.897  -3.030  -6.007  0.00  0.00     0.047 H 
ATOM     56  H   LIG d   1       3.617  -3.281  -4.771  0.00  0.00     0.047 H 
BRANCH  54  57
ATOM     57  N   LIG d   1       3.674  -1.359  -5.630  0.00  0.00    -0.299 N 
ATOM     58  C   LIG d   1       3.794  -0.966  -6.912  0.00  0.00     0.300 C 
ATOM     59  O   LIG d   1       4.472  -1.615  -7.686  0.00  0.00    -0.253 OA
ATOM     60  N   LIG d   1       3.166   0.147  -7.339  0.00  0.00    -0.297 N 
ATOM     61  H   LIG d   1       2.553   0.735  -6.639  0.00  0.00     0.150 HD
ATOM     62  H   LIG d   1       3.060  -0.772  -4.929  0.00  0.00     0.150 HD
BRANCH  60  63
ATOM     63  C   LIG d   1       3.298   0.575  -8.734  0.00  0.00     0.019 C 
ATOM     64  H   LIG d   1       4.261   0.193  -9.101  0.00  0.00     0.049 H 
BRANCH  63  65
ATOM     65  C   LIG d   1       2.143  -0.002  -9.555  0.00  0.00    -0.047 C 
ATOM     66  H   LIG d   1       2.276  -1.088  -9.665  0.00  0.00     0.025 H 
ATOM     67  H   LIG d   1       2.130   0.468 -10.550  0.00  0.00     0.025 H 
ATOM     68  H   LIG d   1       1.191   0.201  -9.042  0.00  0.00     0.025 H 
ENDBRANCH  63  65
BRANCH  63  69
ATOM     69  C   LIG d   1       3.261   2.102  -8.805  0.00  0.00    -0.047 C 
ATOM     70  H   LIG d   1       2.477   2.482  -8.132  0.00  0.00     0.025 H 
ATOM     71  H   LIG d   1       3.041   2.417  -9.836  0.00  0.00     0.025 H 
ATOM     72  H   LIG d   1       4.236   2.509  -8.497  0.00  0.00     0.025 H 
ENDBRANCH  63  69
ENDBRANCH  60  63
ENDBRANCH  54  57
ENDBRANCH   3  54
TORSDOF 14
ENDMDL
MODEL 5
REMARK VINA RESULT:      -6.0      5.041     10.207
REMARK  14 active torsions:
REMARK  status: ('A' for Active; 'I' for Inactive)
REMARK    1  A    between atoms: C_1  and  C_2 
REMARK    2  A    between atoms: C_4  and  C_26 
REMARK    3  A    between atoms: C_6  and  C_23 
REMARK    4  A    between atoms: C_9  and  C_11 
REMARK    5  A    between atoms: C_11  and  C_12 
REMARK       I    between atoms: C_12  and  N_14 
REMARK    6  A    between atoms: N_14  and  C_15 
REMARK    7  A    between atoms: C_15  and  C_16 
REMARK    8  A    between atoms: C_16  and  N_17 
REMARK    9  A    between atoms: C_23  and  C_24 
REMARK   10  A    between atoms: C_23  and  C_25 
REMARK   11  A    between atoms: C_26  and  N_27 
REMARK       I    between atoms: N_27  and  C_28 
REMARK       I    between atoms: C_28  and  N_30 
REMARK   12  A    between atoms: N_30  and  C_31 
REMARK   13  A    between atoms: C_31  and  C_32 
REMARK   14  A    between atoms: C_31  and  C_33 
ROOT
ATOM      1  C   LIG d   1       4.122  -4.410 -10.102  0.00  0.00    -0.073 C 
ATOM      2  C   LIG d   1       3.238  -3.995 -10.951  0.00  0.00    -0.080 C 
ATOM      3  C   LIG d   1       2.564  -2.656 -10.877  0.00  0.00    -0.004 C 
ATOM      4  H   LIG d   1       3.034  -1.998 -11.622  0.00  0.00     0.036 H 
ATOM      5  C   LIG d   1       2.736  -2.056  -9.481  0.00  0.00    -0.030 C 
ATOM      6  H   LIG d   1       2.122  -2.611  -8.755  0.00  0.00     0.031 H 
ATOM      7  C   LIG d   1       4.218  -2.139  -9.096  0.00  0.00    -0.042 C 
ATOM      8  C   LIG d   1       4.591  -3.613  -8.920  0.00  0.00    -0.012 C 
ATOM      9  H   LIG d   1       5.684  -3.712  -8.854  0.00  0.00     0.035 H 
ATOM     10  H   LIG d   1       2.938  -4.639 -11.791  0.00  0.00     0.058 H 
ATOM     11  H   LIG d   1       4.830  -1.690  -9.892  0.00  0.00     0.027 H 
ATOM     12  H   LIG d   1       4.384  -1.594  -8.155  0.00  0.00     0.027 H 
ENDROOT
BRANCH   8  13
ATOM     13  C   LIG d   1       3.930  -4.155  -7.650  0.00  0.00     0.030 C 
ATOM     14  H   LIG d   1       2.915  -3.742  -7.561  0.00  0.00     0.036 H 
ATOM     15  H   LIG d   1       3.876  -5.252  -7.704  0.00  0.00     0.036 H 
BRANCH  13  16
ATOM     16  C   LIG d   1       4.745  -3.752  -6.448  0.00  0.00     0.214 C 
ATOM     17  O   LIG d   1       5.953  -3.857  -6.472  0.00  0.00    -0.276 OA
ATOM     18  N   LIG d   1       4.132  -3.273  -5.347  0.00  0.00    -0.314 N 
ATOM     19  H   LIG d   1       3.037  -3.177  -5.327  0.00  0.00     0.149 HD
BRANCH  18  20
ATOM     20  C   LIG d   1       4.926  -2.881  -4.180  0.00  0.00     0.024 C 
ATOM     21  H   LIG d   1       5.476  -3.753  -3.801  0.00  0.00     0.047 H 
ATOM     22  H   LIG d   1       5.637  -2.093  -4.468  0.00  0.00     0.047 H 
BRANCH  20  23
ATOM     23  C   LIG d   1       3.995  -2.352  -3.086  0.00  0.00     0.015 C 
ATOM     24  H   LIG d   1       2.962  -2.327  -3.464  0.00  0.00     0.044 H 
ATOM     25  H   LIG d   1       4.048  -3.012  -2.209  0.00  0.00     0.044 H 
BRANCH  23  26
ATOM     26  N   LIG d   1       4.410  -0.995  -2.704  0.00  0.00    -0.296 N 
ATOM     27  C   LIG d   1       5.521  -0.528  -3.544  0.00  0.00     0.022 C 
ATOM     28  C   LIG d   1       5.961   0.862  -3.074  0.00  0.00     0.060 C 
ATOM     29  H   LIG d   1       6.365  -1.228  -3.460  0.00  0.00     0.045 H 
ATOM     30  H   LIG d   1       5.192  -0.476  -4.592  0.00  0.00     0.045 H 
ATOM     31  O   LIG d   1       4.840   1.750  -3.116  0.00  0.00    -0.377 OA
ATOM     32  H   LIG d   1       6.753   1.241  -3.735  0.00  0.00     0.057 H 
ATOM     33  H   LIG d   1       6.341   0.799  -2.044  0.00  0.00     0.057 H 
ATOM     34  C   LIG d   1       3.739   1.324  -2.308  0.00  0.00     0.060 C 
ATOM     35  C   LIG d   1       3.278  -0.060  -2.771  0.00  0.00     0.022 C 
ATOM     36  H   LIG d   1       2.910   2.040  -2.409  0.00  0.00     0.057 H 
ATOM     37  H   LIG d   1       4.053   1.274  -1.255  0.00  0.00     0.057 H 
ATOM     38  H   LIG d   1       2.912  -0.000  -3.806  0.00  0.00     0.045 H 
ATOM     39  H   LIG d   1       2.469  -0.417  -2.116  0.00  0.00     0.045 H 
ENDBRANCH  23  26
ENDBRANCH  20  23
ENDBRANCH  18  20
ENDBRANCH  13  16
ENDBRANCH   8  13
BRANCH   1  40
ATOM     40  C   LIG d   1       4.720  -5.776 -10.315  0.00  0.00    -0.043 C 
ATOM     41  H   LIG d   1       5.595  -5.696 -10.974  0.00  0.00     0.027 H 
ATOM     42  H   LIG d   1       3.971  -6.436 -10.778  0.00  0.00     0.027 H 
ATOM     43  H   LIG d   1       5.029  -6.197  -9.345  0.00  0.00     0.027 H 
ENDBRANCH   1  40
BRANCH   5  44
ATOM     44  C   LIG d   1       2.286  -0.594  -9.485  0.00  0.00    -0.043 C 
ATOM     45  H   LIG d   1       1.224  -0.538  -9.763  0.00  0.00     0.030 H 
BRANCH  44  46
ATOM     46  C   LIG d   1       2.482   0.005  -8.090  0.00  0.00    -0.062 C 
ATOM     47  H   LIG d   1       2.363   1.097  -8.141  0.00  0.00     0.023 H 
ATOM     48  H   LIG d   1       3.491  -0.238  -7.726  0.00  0.00     0.023 H 
ATOM     49  H   LIG d   1       1.733  -0.415  -7.404  0.00  0.00     0.023 H 
ENDBRANCH  44  46
BRANCH  44  50
ATOM     50  C   LIG d   1       3.121   0.192 -10.499  0.00  0.00    -0.062 C 
ATOM     51  H   LIG d   1       4.172  -0.123 -10.431  0.00  0.00     0.023 H 
ATOM     52  H   LIG d   1       3.046   1.268 -10.281  0.00  0.00     0.023 H 
ATOM     53  H   LIG d   1       2.744  -0.003 -11.514  0.00  0.00     0.023 H 
ENDBRANCH  44  50
ENDBRANCH   5  44
BRANCH   3  54
ATOM     54  C   LIG d   1       1.072  -2.822 -11.177  0.00  0.00     0.020 C 
ATOM     55  H   LIG d   1       0.579  -1.840 -11.139  0.00  0.00     0.047 H 
ATOM     56  H   LIG d   1       0.946  -3.257 -12.180  0.00  0.00     0.047 H 
BRANCH  54  57
ATOM     57  N   LIG d   1       0.470  -3.711 -10.180  0.00  0.00    -0.299 N 
ATOM     58  C   LIG d   1      -0.578  -4.489 -10.515  0.00  0.00     0.300 C 
ATOM     59  O   LIG d   1      -1.025  -4.452 -11.646  0.00  0.00    -0.253 OA
ATOM     60  N   LIG d   1      -1.132  -5.306  -9.599  0.00  0.00    -0.297 N 
ATOM     61  H   LIG d   1      -0.729  -5.338  -8.575  0.00  0.00     0.150 HD
ATOM     62  H   LIG d   1       0.874  -3.743  -9.157  0.00  0.00     0.150 HD
BRANCH  60  63
ATOM     63  C   LIG d   1      -2.272  -6.150  -9.964  0.00  0.00     0.019 C 
ATOM     64  H   LIG d   1      -2.286  -6.221 -11.061  0.00  0.00     0.049 H 
BRANCH  63  65
ATOM     65  C   LIG d   1      -2.101  -7.536  -9.337  0.00  0.00    -0.047 C 
ATOM     66  H   LIG d   1      -2.161  -7.454  -8.242  0.00  0.00     0.025 H 
ATOM     67  H   LIG d   1      -1.120  -7.948  -9.620  0.00  0.00     0.025 H 
ATOM     68  H   LIG d   1      -2.897  -8.204  -9.699  0.00  0.00     0.025 H 
ENDBRANCH  63  65
BRANCH  63  69
ATOM     69  C   LIG d   1      -3.564  -5.515  -9.447  0.00  0.00    -0.047 C 
ATOM     70  H   LIG d   1      -3.788  -4.610 -10.033  0.00  0.00     0.025 H 
ATOM     71  H   LIG d   1      -3.441  -5.243  -8.388  0.00  0.00     0.025 H 
ATOM     72  H   LIG d   1      -4.392  -6.231  -9.548  0.00  0.00     0.025 H 
ENDBRANCH  63  69
ENDBRANCH  60  63
ENDBRANCH  54  57
ENDBRANCH   3  54
TORSDOF 14
ENDMDL
MODEL 6
REMARK VINA RESULT:      -6.0      5.442      8.481
REMARK  14 active torsions:
REMARK  status: ('A' for Active; 'I' for Inactive)
REMARK    1  A    between atoms: C_1  and  C_2 
REMARK    2  A    between atoms: C_4  and  C_26 
REMARK    3  A    between atoms: C_6  and  C_23 
REMARK    4  A    between atoms: C_9  and  C_11 
REMARK    5  A    between atoms: C_11  and  C_12 
REMARK       I    between atoms: C_12  and  N_14 
REMARK    6  A    between atoms: N_14  and  C_15 
REMARK    7  A    between atoms: C_15  and  C_16 
REMARK    8  A    between atoms: C_16  and  N_17 
REMARK    9  A    between atoms: C_23  and  C_24 
REMARK   10  A    between atoms: C_23  and  C_25 
REMARK   11  A    between atoms: C_26  and  N_27 
REMARK       I    between atoms: N_27  and  C_28 
REMARK       I    between atoms: C_28  and  N_30 
REMARK   12  A    between atoms: N_30  and  C_31 
REMARK   13  A    between atoms: C_31  and  C_32 
REMARK   14  A    between atoms: C_31  and  C_33 
ROOT
ATOM      1  C   LIG d   1       3.546   1.532  -9.784  0.00  0.00    -0.073 C 
ATOM      2  C   LIG d   1       3.885   1.169 -10.979  0.00  0.00    -0.080 C 
ATOM      3  C   LIG d   1       3.365  -0.061 -11.665  0.00  0.00    -0.004 C 
ATOM      4  H   LIG d   1       2.598   0.253 -12.388  0.00  0.00     0.036 H 
ATOM      5  C   LIG d   1       2.745  -1.013 -10.640  0.00  0.00    -0.030 C 
ATOM      6  H   LIG d   1       3.536  -1.467 -10.023  0.00  0.00     0.031 H 
ATOM      7  C   LIG d   1       1.778  -0.214  -9.758  0.00  0.00    -0.042 C 
ATOM      8  C   LIG d   1       2.591   0.769  -8.913  0.00  0.00    -0.012 C 
ATOM      9  H   LIG d   1       1.914   1.492  -8.435  0.00  0.00     0.035 H 
ATOM     10  H   LIG d   1       4.598   1.776 -11.556  0.00  0.00     0.058 H 
ATOM     11  H   LIG d   1       1.069   0.336 -10.395  0.00  0.00     0.027 H 
ATOM     12  H   LIG d   1       1.223  -0.903  -9.104  0.00  0.00     0.027 H 
ENDROOT
BRANCH   8  13
ATOM     13  C   LIG d   1       3.379  -0.004  -7.853  0.00  0.00     0.030 C 
ATOM     14  H   LIG d   1       3.193  -1.082  -7.973  0.00  0.00     0.036 H 
ATOM     15  H   LIG d   1       4.453   0.198  -7.975  0.00  0.00     0.036 H 
BRANCH  13  16
ATOM     16  C   LIG d   1       2.938   0.434  -6.480  0.00  0.00     0.214 C 
ATOM     17  O   LIG d   1       2.676   1.599  -6.271  0.00  0.00    -0.276 OA
ATOM     18  N   LIG d   1       2.833  -0.470  -5.486  0.00  0.00    -0.314 N 
ATOM     19  H   LIG d   1       3.069  -1.527  -5.677  0.00  0.00     0.149 HD
BRANCH  18  20
ATOM     20  C   LIG d   1       2.403  -0.044  -4.152  0.00  0.00     0.024 C 
ATOM     21  H   LIG d   1       2.557   1.040  -4.046  0.00  0.00     0.047 H 
ATOM     22  H   LIG d   1       1.337  -0.280  -4.017  0.00  0.00     0.047 H 
BRANCH  20  23
ATOM     23  C   LIG d   1       3.226  -0.781  -3.092  0.00  0.00     0.015 C 
ATOM     24  H   LIG d   1       3.288  -0.164  -2.183  0.00  0.00     0.044 H 
ATOM     25  H   LIG d   1       2.742  -1.739  -2.853  0.00  0.00     0.044 H 
BRANCH  23  26
ATOM     26  N   LIG d   1       4.578  -1.030  -3.608  0.00  0.00    -0.296 N 
ATOM     27  C   LIG d   1       5.578  -0.250  -2.866  0.00  0.00     0.022 C 
ATOM     28  C   LIG d   1       6.963  -0.493  -3.474  0.00  0.00     0.060 C 
ATOM     29  H   LIG d   1       5.331   0.820  -2.931  0.00  0.00     0.045 H 
ATOM     30  H   LIG d   1       5.578  -0.562  -1.811  0.00  0.00     0.045 H 
ATOM     31  O   LIG d   1       7.246  -1.895  -3.454  0.00  0.00    -0.377 OA
ATOM     32  H   LIG d   1       7.722   0.043  -2.887  0.00  0.00     0.057 H 
ATOM     33  H   LIG d   1       6.978  -0.130  -4.512  0.00  0.00     0.057 H 
ATOM     34  C   LIG d   1       6.291  -2.685  -4.169  0.00  0.00     0.060 C 
ATOM     35  C   LIG d   1       4.901  -2.464  -3.568  0.00  0.00     0.022 C 
ATOM     36  H   LIG d   1       6.561  -3.749  -4.089  0.00  0.00     0.057 H 
ATOM     37  H   LIG d   1       6.286  -2.386  -5.228  0.00  0.00     0.057 H 
ATOM     38  H   LIG d   1       4.890  -2.813  -2.525  0.00  0.00     0.045 H 
ATOM     39  H   LIG d   1       4.155  -3.024  -4.150  0.00  0.00     0.045 H 
ENDBRANCH  23  26
ENDBRANCH  20  23
ENDBRANCH  18  20
ENDBRANCH  13  16
ENDBRANCH   8  13
BRANCH   1  40
ATOM     40  C   LIG d   1       4.146   2.799  -9.233  0.00  0.00    -0.043 C 
ATOM     41  H   LIG d   1       4.787   2.558  -8.373  0.00  0.00     0.027 H 
ATOM     42  H   LIG d   1       3.341   3.477  -8.913  0.00  0.00     0.027 H 
ATOM     43  H   LIG d   1       4.749   3.289 -10.013  0.00  0.00     0.027 H 
ENDBRANCH   1  40
BRANCH   5  44
ATOM     44  C   LIG d   1       1.985  -2.127 -11.360  0.00  0.00    -0.043 C 
ATOM     45  H   LIG d   1       2.648  -2.608 -12.095  0.00  0.00     0.030 H 
BRANCH  44  46
ATOM     46  C   LIG d   1       1.514  -3.167 -10.340  0.00  0.00    -0.062 C 
ATOM     47  H   LIG d   1       0.616  -3.674 -10.722  0.00  0.00     0.023 H 
ATOM     48  H   LIG d   1       1.277  -2.666  -9.390  0.00  0.00     0.023 H 
ATOM     49  H   LIG d   1       2.311  -3.906 -10.176  0.00  0.00     0.023 H 
ENDBRANCH  44  46
BRANCH  44  50
ATOM     50  C   LIG d   1       0.772  -1.534 -12.080  0.00  0.00    -0.062 C 
ATOM     51  H   LIG d   1       1.004  -0.508 -12.403  0.00  0.00     0.023 H 
ATOM     52  H   LIG d   1      -0.090  -1.517 -11.395  0.00  0.00     0.023 H 
ATOM     53  H   LIG d   1       0.529  -2.148 -12.959  0.00  0.00     0.023 H 
ENDBRANCH  44  50
ENDBRANCH   5  44
BRANCH   3  54
ATOM     54  C   LIG d   1       4.517  -0.768 -12.382  0.00  0.00     0.020 C 
ATOM     55  H   LIG d   1       4.286  -1.838 -12.480  0.00  0.00     0.047 H 
ATOM     56  H   LIG d   1       4.651  -0.328 -13.381  0.00  0.00     0.047 H 
BRANCH  54  57
ATOM     57  N   LIG d   1       5.749  -0.603 -11.606  0.00  0.00    -0.299 N 
ATOM     58  C   LIG d   1       6.299  -1.663 -10.981  0.00  0.00     0.300 C 
ATOM     59  O   LIG d   1       5.771  -2.756 -11.060  0.00  0.00    -0.253 OA
ATOM     60  N   LIG d   1       7.431  -1.512 -10.267  0.00  0.00    -0.297 N 
ATOM     61  H   LIG d   1       7.908  -0.523 -10.195  0.00  0.00     0.150 HD
ATOM     62  H   LIG d   1       6.226   0.386 -11.534  0.00  0.00     0.150 HD
BRANCH  60  63
ATOM     63  C   LIG d   1       8.028  -2.665  -9.588  0.00  0.00     0.019 C 
ATOM     64  H   LIG d   1       7.566  -3.567 -10.012  0.00  0.00     0.049 H 
BRANCH  63  65
ATOM     65  C   LIG d   1       9.540  -2.671  -9.827  0.00  0.00    -0.047 C 
ATOM     66  H   LIG d   1      10.056  -2.320  -8.922  0.00  0.00     0.025 H 
ATOM     67  H   LIG d   1       9.781  -2.004 -10.668  0.00  0.00     0.025 H 
ATOM     68  H   LIG d   1       9.870  -3.693 -10.064  0.00  0.00     0.025 H 
ENDBRANCH  63  65
BRANCH  63  69
ATOM     69  C   LIG d   1       7.751  -2.571  -8.086  0.00  0.00    -0.047 C 
ATOM     70  H   LIG d   1       8.543  -3.097  -7.533  0.00  0.00     0.025 H 
ATOM     71  H   LIG d   1       6.779  -3.035  -7.863  0.00  0.00     0.025 H 
ATOM     72  H   LIG d   1       7.731  -1.514  -7.781  0.00  0.00     0.025 H 
ENDBRANCH  63  69
ENDBRANCH  60  63
ENDBRANCH  54  57
ENDBRANCH   3  54
TORSDOF 14
ENDMDL
MODEL 7
REMARK VINA RESULT:      -5.9      2.677      3.313
REMARK  14 active torsions:
REMARK  status: ('A' for Active; 'I' for Inactive)
REMARK    1  A    between atoms: C_1  and  C_2 
REMARK    2  A    between atoms: C_4  and  C_26 
REMARK    3  A    between atoms: C_6  and  C_23 
REMARK    4  A    between atoms: C_9  and  C_11 
REMARK    5  A    between atoms: C_11  and  C_12 
REMARK       I    between atoms: C_12  and  N_14 
REMARK    6  A    between atoms: N_14  and  C_15 
REMARK    7  A    between atoms: C_15  and  C_16 
REMARK    8  A    between atoms: C_16  and  N_17 
REMARK    9  A    between atoms: C_23  and  C_24 
REMARK   10  A    between atoms: C_23  and  C_25 
REMARK   11  A    between atoms: C_26  and  N_27 
REMARK       I    between atoms: N_27  and  C_28 
REMARK       I    between atoms: C_28  and  N_30 
REMARK   12  A    between atoms: N_30  and  C_31 
REMARK   13  A    between atoms: C_31  and  C_32 
REMARK   14  A    between atoms: C_31  and  C_33 
ROOT
ATOM      1  C   LIG d   1       6.675  -3.160  -4.573  0.00  0.00    -0.073 C 
ATOM      2  C   LIG d   1       7.171  -2.041  -4.154  0.00  0.00    -0.080 C 
ATOM      3  C   LIG d   1       6.351  -0.913  -3.596  0.00  0.00    -0.004 C 
ATOM      4  H   LIG d   1       6.450  -0.930  -2.501  0.00  0.00     0.036 H 
ATOM      5  C   LIG d   1       4.881  -1.091  -3.981  0.00  0.00    -0.030 C 
ATOM      6  H   LIG d   1       4.749  -0.900  -5.057  0.00  0.00     0.031 H 
ATOM      7  C   LIG d   1       4.460  -2.526  -3.640  0.00  0.00    -0.042 C 
ATOM      8  C   LIG d   1       5.210  -3.484  -4.569  0.00  0.00    -0.012 C 
ATOM      9  H   LIG d   1       5.090  -4.516  -4.209  0.00  0.00     0.035 H 
ATOM     10  H   LIG d   1       8.257  -1.871  -4.194  0.00  0.00     0.058 H 
ATOM     11  H   LIG d   1       4.714  -2.743  -2.592  0.00  0.00     0.027 H 
ATOM     12  H   LIG d   1       3.375  -2.634  -3.785  0.00  0.00     0.027 H 
ENDROOT
BRANCH   8  13
ATOM     13  C   LIG d   1       4.657  -3.348  -5.990  0.00  0.00     0.030 C 
ATOM     14  H   LIG d   1       3.755  -2.720  -5.974  0.00  0.00     0.036 H 
ATOM     15  H   LIG d   1       5.416  -2.883  -6.636  0.00  0.00     0.036 H 
BRANCH  13  16
ATOM     16  C   LIG d   1       4.311  -4.713  -6.527  0.00  0.00     0.214 C 
ATOM     17  O   LIG d   1       3.507  -5.408  -5.942  0.00  0.00    -0.276 OA
ATOM     18  N   LIG d   1       4.893  -5.160  -7.657  0.00  0.00    -0.314 N 
ATOM     19  H   LIG d   1       5.621  -4.529  -8.187  0.00  0.00     0.149 HD
BRANCH  18  20
ATOM     20  C   LIG d   1       4.555  -6.487  -8.179  0.00  0.00     0.024 C 
ATOM     21  H   LIG d   1       5.306  -7.216  -7.841  0.00  0.00     0.047 H 
ATOM     22  H   LIG d   1       3.562  -6.784  -7.811  0.00  0.00     0.047 H 
BRANCH  20  23
ATOM     23  C   LIG d   1       4.540  -6.444  -9.709  0.00  0.00     0.015 C 
ATOM     24  H   LIG d   1       4.848  -5.444 -10.050  0.00  0.00     0.044 H 
ATOM     25  H   LIG d   1       5.237  -7.197 -10.104  0.00  0.00     0.044 H 
BRANCH  23  26
ATOM     26  N   LIG d   1       3.183  -6.730 -10.193  0.00  0.00    -0.296 N 
ATOM     27  C   LIG d   1       2.729  -8.052  -9.739  0.00  0.00     0.022 C 
ATOM     28  C   LIG d   1       1.339  -8.335 -10.315  0.00  0.00     0.060 C 
ATOM     29  H   LIG d   1       3.435  -8.822 -10.086  0.00  0.00     0.045 H 
ATOM     30  H   LIG d   1       2.684  -8.067  -8.640  0.00  0.00     0.045 H 
ATOM     31  O   LIG d   1       0.444  -7.291  -9.921  0.00  0.00    -0.377 OA
ATOM     32  H   LIG d   1       0.970  -9.297  -9.931  0.00  0.00     0.057 H 
ATOM     33  H   LIG d   1       1.396  -8.375 -11.412  0.00  0.00     0.057 H 
ATOM     34  C   LIG d   1       0.857  -5.989 -10.348  0.00  0.00     0.060 C 
ATOM     35  C   LIG d   1       2.241  -5.683  -9.772  0.00  0.00     0.022 C 
ATOM     36  H   LIG d   1       0.136  -5.239  -9.988  0.00  0.00     0.057 H 
ATOM     37  H   LIG d   1       0.900  -5.959 -11.446  0.00  0.00     0.057 H 
ATOM     38  H   LIG d   1       2.187  -5.659  -8.674  0.00  0.00     0.045 H 
ATOM     39  H   LIG d   1       2.588  -4.708 -10.144  0.00  0.00     0.045 H 
ENDBRANCH  23  26
ENDBRANCH  20  23
ENDBRANCH  18  20
ENDBRANCH  13  16
ENDBRANCH   8  13
BRANCH   1  40
ATOM     40  C   LIG d   1       7.628  -4.203  -5.096  0.00  0.00    -0.043 C 
ATOM     41  H   LIG d   1       7.068  -4.955  -5.671  0.00  0.00     0.027 H 
ATOM     42  H   LIG d   1       8.137  -4.691  -4.252  0.00  0.00     0.027 H 
ATOM     43  H   LIG d   1       8.374  -3.725  -5.748  0.00  0.00     0.027 H 
ENDBRANCH   1  40
BRANCH   5  44
ATOM     44  C   LIG d   1       4.017  -0.101  -3.198  0.00  0.00    -0.043 C 
ATOM     45  H   LIG d   1       4.085   0.893  -3.664  0.00  0.00     0.030 H 
BRANCH  44  46
ATOM     46  C   LIG d   1       2.561  -0.573  -3.212  0.00  0.00    -0.062 C 
ATOM     47  H   LIG d   1       2.062  -0.246  -2.288  0.00  0.00     0.023 H 
ATOM     48  H   LIG d   1       2.532  -1.670  -3.277  0.00  0.00     0.023 H 
ATOM     49  H   LIG d   1       2.044  -0.140  -4.080  0.00  0.00     0.023 H 
ENDBRANCH  44  46
BRANCH  44  50
ATOM     50  C   LIG d   1       4.514  -0.023  -1.753  0.00  0.00    -0.062 C 
ATOM     51  H   LIG d   1       4.796  -1.029  -1.408  0.00  0.00     0.023 H 
ATOM     52  H   LIG d   1       3.713   0.374  -1.110  0.00  0.00     0.023 H 
ATOM     53  H   LIG d   1       5.389   0.641  -1.701  0.00  0.00     0.023 H 
ENDBRANCH  44  50
ENDBRANCH   5  44
BRANCH   3  54
ATOM     54  C   LIG d   1       6.865   0.414  -4.159  0.00  0.00     0.020 C 
ATOM     55  H   LIG d   1       6.972   0.333  -5.250  0.00  0.00     0.047 H 
ATOM     56  H   LIG d   1       6.151   1.215  -3.918  0.00  0.00     0.047 H 
BRANCH  54  57
ATOM     57  N   LIG d   1       8.168   0.724  -3.562  0.00  0.00    -0.299 N 
ATOM     58  C   LIG d   1       8.756   1.911  -3.808  0.00  0.00     0.300 C 
ATOM     59  O   LIG d   1       8.206   2.725  -4.526  0.00  0.00    -0.253 OA
ATOM     60  N   LIG d   1       9.953   2.197  -3.260  0.00  0.00    -0.297 N 
ATOM     61  H   LIG d   1      10.451   1.461  -2.611  0.00  0.00     0.150 HD
ATOM     62  H   LIG d   1       8.665  -0.012  -2.913  0.00  0.00     0.150 HD
BRANCH  60  63
ATOM     63  C   LIG d   1      10.592   3.488  -3.528  0.00  0.00     0.019 C 
ATOM     64  H   LIG d   1      10.136   3.893  -4.443  0.00  0.00     0.049 H 
BRANCH  63  65
ATOM     65  C   LIG d   1      10.355   4.430  -2.346  0.00  0.00    -0.047 C 
ATOM     66  H   LIG d   1      10.784   3.990  -1.434  0.00  0.00     0.025 H 
ATOM     67  H   LIG d   1       9.273   4.578  -2.206  0.00  0.00     0.025 H 
ATOM     68  H   LIG d   1      10.834   5.399  -2.546  0.00  0.00     0.025 H 
ENDBRANCH  63  65
BRANCH  63  69
ATOM     69  C   LIG d   1      12.096   3.282  -3.721  0.00  0.00    -0.047 C 
ATOM     70  H   LIG d   1      12.290   2.938  -4.748  0.00  0.00     0.025 H 
ATOM     71  H   LIG d   1      12.457   2.526  -3.008  0.00  0.00     0.025 H 
ATOM     72  H   LIG d   1      12.622   4.232  -3.546  0.00  0.00     0.025 H 
ENDBRANCH  63  69
ENDBRANCH  60  63
ENDBRANCH  54  57
ENDBRANCH   3  54
TORSDOF 14
ENDMDL
MODEL 8
REMARK VINA RESULT:      -5.7      3.983      4.758
REMARK  14 active torsions:
REMARK  status: ('A' for Active; 'I' for Inactive)
REMARK    1  A    between atoms: C_1  and  C_2 
REMARK    2  A    between atoms: C_4  and  C_26 
REMARK    3  A    between atoms: C_6  and  C_23 
REMARK    4  A    between atoms: C_9  and  C_11 
REMARK    5  A    between atoms: C_11  and  C_12 
REMARK       I    between atoms: C_12  and  N_14 
REMARK    6  A    between atoms: N_14  and  C_15 
REMARK    7  A    between atoms: C_15  and  C_16 
REMARK    8  A    between atoms: C_16  and  N_17 
REMARK    9  A    between atoms: C_23  and  C_24 
REMARK   10  A    between atoms: C_23  and  C_25 
REMARK   11  A    between atoms: C_26  and  N_27 
REMARK       I    between atoms: N_27  and  C_28 
REMARK       I    between atoms: C_28  and  N_30 
REMARK   12  A    between atoms: N_30  and  C_31 
REMARK   13  A    between atoms: C_31  and  C_32 
REMARK   14  A    between atoms: C_31  and  C_33 
ROOT
ATOM      1  C   LIG d   1       6.125  -0.839  -6.544  0.00  0.00    -0.073 C 
ATOM      2  C   LIG d   1       6.931  -0.438  -5.615  0.00  0.00    -0.080 C 
ATOM      3  C   LIG d   1       6.575  -0.389  -4.157  0.00  0.00    -0.004 C 
ATOM      4  H   LIG d   1       7.044  -1.253  -3.664  0.00  0.00     0.036 H 
ATOM      5  C   LIG d   1       5.057  -0.460  -3.983  0.00  0.00    -0.030 C 
ATOM      6  H   LIG d   1       4.597   0.482  -4.316  0.00  0.00     0.031 H 
ATOM      7  C   LIG d   1       4.528  -1.634  -4.815  0.00  0.00    -0.042 C 
ATOM      8  C   LIG d   1       4.720  -1.303  -6.297  0.00  0.00    -0.012 C 
ATOM      9  H   LIG d   1       4.547  -2.205  -6.901  0.00  0.00     0.035 H 
ATOM     10  H   LIG d   1       7.947  -0.105  -5.873  0.00  0.00     0.058 H 
ATOM     11  H   LIG d   1       5.086  -2.547  -4.559  0.00  0.00     0.027 H 
ATOM     12  H   LIG d   1       3.460  -1.785  -4.599  0.00  0.00     0.027 H 
ENDROOT
BRANCH   8  13
ATOM     13  C   LIG d   1       3.742  -0.197  -6.700  0.00  0.00     0.030 C 
ATOM     14  H   LIG d   1       3.023  -0.029  -5.885  0.00  0.00     0.036 H 
ATOM     15  H   LIG d   1       4.299   0.732  -6.894  0.00  0.00     0.036 H 
BRANCH  13  16
ATOM     16  C   LIG d   1       3.004  -0.608  -7.947  0.00  0.00     0.214 C 
ATOM     17  O   LIG d   1       2.313   0.196  -8.536  0.00  0.00    -0.276 OA
ATOM     18  N   LIG d   1       3.114  -1.870  -8.410  0.00  0.00    -0.314 N 
ATOM     19  H   LIG d   1       3.741  -2.598  -7.876  0.00  0.00     0.149 HD
BRANCH  18  20
ATOM     20  C   LIG d   1       2.396  -2.269  -9.624  0.00  0.00     0.024 C 
ATOM     21  H   LIG d   1       1.488  -2.823  -9.347  0.00  0.00     0.047 H 
ATOM     22  H   LIG d   1       2.120  -1.372 -10.198  0.00  0.00     0.047 H 
BRANCH  20  23
ATOM     23  C   LIG d   1       3.298  -3.163 -10.477  0.00  0.00     0.015 C 
ATOM     24  H   LIG d   1       3.416  -2.717 -11.476  0.00  0.00     0.044 H 
ATOM     25  H   LIG d   1       4.284  -3.253  -9.998  0.00  0.00     0.044 H 
BRANCH  23  26
ATOM     26  N   LIG d   1       2.691  -4.494 -10.603  0.00  0.00    -0.296 N 
ATOM     27  C   LIG d   1       3.243  -5.422  -9.606  0.00  0.00     0.022 C 
ATOM     28  C   LIG d   1       2.628  -6.809  -9.812  0.00  0.00     0.060 C 
ATOM     29  H   LIG d   1       4.335  -5.482  -9.726  0.00  0.00     0.045 H 
ATOM     30  H   LIG d   1       3.005  -5.059  -8.596  0.00  0.00     0.045 H 
ATOM     31  O   LIG d   1       1.204  -6.710  -9.729  0.00  0.00    -0.377 OA
ATOM     32  H   LIG d   1       2.994  -7.493  -9.032  0.00  0.00     0.057 H 
ATOM     33  H   LIG d   1       2.913  -7.196 -10.801  0.00  0.00     0.057 H 
ATOM     34  C   LIG d   1       0.633  -5.815 -10.687  0.00  0.00     0.060 C 
ATOM     35  C   LIG d   1       1.227  -4.418 -10.490  0.00  0.00     0.022 C 
ATOM     36  H   LIG d   1      -0.458  -5.773 -10.547  0.00  0.00     0.057 H 
ATOM     37  H   LIG d   1       0.858  -6.170 -11.703  0.00  0.00     0.057 H 
ATOM     38  H   LIG d   1       0.956  -4.039  -9.494  0.00  0.00     0.045 H 
ATOM     39  H   LIG d   1       0.835  -3.739 -11.261  0.00  0.00     0.045 H 
ENDBRANCH  23  26
ENDBRANCH  20  23
ENDBRANCH  18  20
ENDBRANCH  13  16
ENDBRANCH   8  13
BRANCH   1  40
ATOM     40  C   LIG d   1       6.630  -0.842  -7.964  0.00  0.00    -0.043 C 
ATOM     41  H   LIG d   1       7.431  -1.587  -8.067  0.00  0.00     0.027 H 
ATOM     42  H   LIG d   1       7.022   0.155  -8.216  0.00  0.00     0.027 H 
ATOM     43  H   LIG d   1       5.805  -1.095  -8.647  0.00  0.00     0.027 H 
ENDBRANCH   1  40
BRANCH   5  44
ATOM     44  C   LIG d   1       4.714  -0.679  -2.508  0.00  0.00    -0.043 C 
ATOM     45  H   LIG d   1       5.643  -0.749  -1.922  0.00  0.00     0.030 H 
BRANCH  44  46
ATOM     46  C   LIG d   1       3.877   0.497  -1.999  0.00  0.00    -0.062 C 
ATOM     47  H   LIG d   1       3.248   0.162  -1.161  0.00  0.00     0.023 H 
ATOM     48  H   LIG d   1       3.238   0.871  -2.812  0.00  0.00     0.023 H 
ATOM     49  H   LIG d   1       4.545   1.301  -1.658  0.00  0.00     0.023 H 
ENDBRANCH  44  46
BRANCH  44  50
ATOM     50  C   LIG d   1       3.916  -1.976  -2.357  0.00  0.00    -0.062 C 
ATOM     51  H   LIG d   1       3.425  -1.992  -1.373  0.00  0.00     0.023 H 
ATOM     52  H   LIG d   1       4.596  -2.837  -2.442  0.00  0.00     0.023 H 
ATOM     53  H   LIG d   1       3.154  -2.031  -3.148  0.00  0.00     0.023 H 
ENDBRANCH  44  50
ENDBRANCH   5  44
BRANCH   3  54
ATOM     54  C   LIG d   1       7.095   0.917  -3.552  0.00  0.00     0.020 C 
ATOM     55  H   LIG d   1       6.279   1.422  -3.014  0.00  0.00     0.047 H 
ATOM     56  H   LIG d   1       7.915   0.697  -2.853  0.00  0.00     0.047 H 
BRANCH  54  57
ATOM     57  N   LIG d   1       7.585   1.790  -4.623  0.00  0.00    -0.299 N 
ATOM     58  C   LIG d   1       8.537   2.707  -4.362  0.00  0.00     0.300 C 
ATOM     59  O   LIG d   1       8.988   2.812  -3.237  0.00  0.00    -0.253 OA
ATOM     60  N   LIG d   1       8.988   3.510  -5.345  0.00  0.00    -0.297 N 
ATOM     61  H   LIG d   1       8.580   3.415  -6.363  0.00  0.00     0.150 HD
ATOM     62  H   LIG d   1       7.177   1.694  -5.640  0.00  0.00     0.150 HD
BRANCH  60  63
ATOM     63  C   LIG d   1      10.022   4.507  -5.061  0.00  0.00     0.019 C 
ATOM     64  H   LIG d   1      10.510   4.211  -4.121  0.00  0.00     0.049 H 
BRANCH  63  65
ATOM     65  C   LIG d   1      11.035   4.534  -6.208  0.00  0.00    -0.047 C 
ATOM     66  H   LIG d   1      10.673   3.900  -7.031  0.00  0.00     0.025 H 
ATOM     67  H   LIG d   1      12.003   4.152  -5.851  0.00  0.00     0.025 H 
ATOM     68  H   LIG d   1      11.157   5.566  -6.567  0.00  0.00     0.025 H 
ENDBRANCH  63  65
BRANCH  63  69
ATOM     69  C   LIG d   1       9.375   5.886  -4.921  0.00  0.00    -0.047 C 
ATOM     70  H   LIG d   1      10.160   6.657  -4.870  0.00  0.00     0.025 H 
ATOM     71  H   LIG d   1       8.772   5.918  -4.002  0.00  0.00     0.025 H 
ATOM     72  H   LIG d   1       8.729   6.079  -5.791  0.00  0.00     0.025 H 
ENDBRANCH  63  69
ENDBRANCH  60  63
ENDBRANCH  54  57
ENDBRANCH   3  54
TORSDOF 14
ENDMDL
MODEL 9
REMARK VINA RESULT:      -5.6      6.123     12.654
REMARK  14 active torsions:
REMARK  status: ('A' for Active; 'I' for Inactive)
REMARK    1  A    between atoms: C_1  and  C_2 
REMARK    2  A    between atoms: C_4  and  C_26 
REMARK    3  A    between atoms: C_6  and  C_23 
REMARK    4  A    between atoms: C_9  and  C_11 
REMARK    5  A    between atoms: C_11  and  C_12 
REMARK       I    between atoms: C_12  and  N_14 
REMARK    6  A    between atoms: N_14  and  C_15 
REMARK    7  A    between atoms: C_15  and  C_16 
REMARK    8  A    between atoms: C_16  and  N_17 
REMARK    9  A    between atoms: C_23  and  C_24 
REMARK   10  A    between atoms: C_23  and  C_25 
REMARK   11  A    between atoms: C_26  and  N_27 
REMARK       I    between atoms: N_27  and  C_28 
REMARK       I    between atoms: C_28  and  N_30 
REMARK   12  A    between atoms: N_30  and  C_31 
REMARK   13  A    between atoms: C_31  and  C_32 
REMARK   14  A    between atoms: C_31  and  C_33 
ROOT
ATOM      1  C   LIG d   1      10.127   4.191  -3.835  0.00  0.00    -0.073 C 
ATOM      2  C   LIG d   1       9.757   2.991  -4.143  0.00  0.00    -0.080 C 
ATOM      3  C   LIG d   1       9.599   2.494  -5.551  0.00  0.00    -0.004 C 
ATOM      4  H   LIG d   1      10.477   1.878  -5.795  0.00  0.00     0.036 H 
ATOM      5  C   LIG d   1       9.516   3.675  -6.520  0.00  0.00    -0.030 C 
ATOM      6  H   LIG d   1       8.553   4.193  -6.399  0.00  0.00     0.031 H 
ATOM      7  C   LIG d   1      10.676   4.632  -6.219  0.00  0.00    -0.042 C 
ATOM      8  C   LIG d   1      10.441   5.259  -4.842  0.00  0.00    -0.012 C 
ATOM      9  H   LIG d   1      11.353   5.779  -4.514  0.00  0.00     0.035 H 
ATOM     10  H   LIG d   1       9.536   2.262  -3.349  0.00  0.00     0.058 H 
ATOM     11  H   LIG d   1      11.623   4.073  -6.220  0.00  0.00     0.027 H 
ATOM     12  H   LIG d   1      10.712   5.417  -6.988  0.00  0.00     0.027 H 
ENDROOT
BRANCH   8  13
ATOM     13  C   LIG d   1       9.269   6.239  -4.925  0.00  0.00     0.030 C 
ATOM     14  H   LIG d   1       8.881   6.261  -5.954  0.00  0.00     0.036 H 
ATOM     15  H   LIG d   1       8.471   5.915  -4.240  0.00  0.00     0.036 H 
BRANCH  13  16
ATOM     16  C   LIG d   1       9.737   7.617  -4.533  0.00  0.00     0.214 C 
ATOM     17  O   LIG d   1      10.139   8.384  -5.382  0.00  0.00    -0.276 OA
ATOM     18  N   LIG d   1       9.707   7.996  -3.240  0.00  0.00    -0.314 N 
ATOM     19  H   LIG d   1       9.342   7.300  -2.472  0.00  0.00     0.149 HD
BRANCH  18  20
ATOM     20  C   LIG d   1      10.162   9.336  -2.860  0.00  0.00     0.024 C 
ATOM     21  H   LIG d   1      10.282   9.952  -3.762  0.00  0.00     0.047 H 
ATOM     22  H   LIG d   1       9.420   9.800  -2.193  0.00  0.00     0.047 H 
BRANCH  20  23
ATOM     23  C   LIG d   1      11.504   9.231  -2.133  0.00  0.00     0.015 C 
ATOM     24  H   LIG d   1      12.322   9.245  -2.869  0.00  0.00     0.044 H 
ATOM     25  H   LIG d   1      11.616  10.082  -1.445  0.00  0.00     0.044 H 
BRANCH  23  26
ATOM     26  N   LIG d   1      11.552   7.977  -1.371  0.00  0.00    -0.296 N 
ATOM     27  C   LIG d   1      12.927   7.464  -1.284  0.00  0.00     0.022 C 
ATOM     28  C   LIG d   1      12.923   6.128  -0.535  0.00  0.00     0.060 C 
ATOM     29  H   LIG d   1      13.329   7.317  -2.297  0.00  0.00     0.045 H 
ATOM     30  H   LIG d   1      13.554   8.188  -0.743  0.00  0.00     0.045 H 
ATOM     31  O   LIG d   1      12.331   6.312   0.753  0.00  0.00    -0.377 OA
ATOM     32  H   LIG d   1      13.955   5.769  -0.417  0.00  0.00     0.057 H 
ATOM     33  H   LIG d   1      12.341   5.389  -1.105  0.00  0.00     0.057 H 
ATOM     34  C   LIG d   1      10.990   6.810   0.705  0.00  0.00     0.060 C 
ATOM     35  C   LIG d   1      10.976   8.152  -0.030  0.00  0.00     0.022 C 
ATOM     36  H   LIG d   1      10.613   6.948   1.729  0.00  0.00     0.057 H 
ATOM     37  H   LIG d   1      10.350   6.092   0.172  0.00  0.00     0.057 H 
ATOM     38  H   LIG d   1      11.571   8.887   0.532  0.00  0.00     0.045 H 
ATOM     39  H   LIG d   1       9.940   8.511  -0.120  0.00  0.00     0.045 H 
ENDBRANCH  23  26
ENDBRANCH  20  23
ENDBRANCH  18  20
ENDBRANCH  13  16
ENDBRANCH   8  13
BRANCH   1  40
ATOM     40  C   LIG d   1      10.251   4.540  -2.375  0.00  0.00    -0.043 C 
ATOM     41  H   LIG d   1       9.367   5.111  -2.058  0.00  0.00     0.027 H 
ATOM     42  H   LIG d   1      11.155   5.147  -2.218  0.00  0.00     0.027 H 
ATOM     43  H   LIG d   1      10.322   3.616  -1.781  0.00  0.00     0.027 H 
ENDBRANCH   1  40
BRANCH   5  44
ATOM     44  C   LIG d   1       9.624   3.172  -7.961  0.00  0.00    -0.043 C 
ATOM     45  H   LIG d   1       9.057   2.235  -8.066  0.00  0.00     0.030 H 
BRANCH  44  46
ATOM     46  C   LIG d   1       9.052   4.225  -8.913  0.00  0.00    -0.062 C 
ATOM     47  H   LIG d   1       8.531   3.724  -9.742  0.00  0.00     0.023 H 
ATOM     48  H   LIG d   1       9.871   4.841  -9.312  0.00  0.00     0.023 H 
ATOM     49  H   LIG d   1       8.343   4.865  -8.368  0.00  0.00     0.023 H 
ENDBRANCH  44  46
BRANCH  44  50
ATOM     50  C   LIG d   1      11.094   2.920  -8.303  0.00  0.00    -0.062 C 
ATOM     51  H   LIG d   1      11.187   1.961  -8.835  0.00  0.00     0.023 H 
ATOM     52  H   LIG d   1      11.686   2.885  -7.376  0.00  0.00     0.023 H 
ATOM     53  H   LIG d   1      11.466   3.732  -8.945  0.00  0.00     0.023 H 
ENDBRANCH  44  50
ENDBRANCH   5  44
BRANCH   3  54
ATOM     54  C   LIG d   1       8.318   1.662  -5.655  0.00  0.00     0.020 C 
ATOM     55  H   LIG d   1       7.690   2.055  -6.467  0.00  0.00     0.047 H 
ATOM     56  H   LIG d   1       8.578   0.614  -5.866  0.00  0.00     0.047 H 
BRANCH  54  57
ATOM     57  N   LIG d   1       7.584   1.737  -4.389  0.00  0.00    -0.299 N 
ATOM     58  C   LIG d   1       6.426   1.065  -4.240  0.00  0.00     0.300 C 
ATOM     59  O   LIG d   1       5.990   0.395  -5.157  0.00  0.00    -0.253 OA
ATOM     60  N   LIG d   1       5.750   1.134  -3.077  0.00  0.00    -0.297 N 
ATOM     61  H   LIG d   1       6.144   1.740  -2.247  0.00  0.00     0.150 HD
ATOM     62  H   LIG d   1       7.978   2.343  -3.559  0.00  0.00     0.150 HD
BRANCH  60  63
ATOM     63  C   LIG d   1       4.491   0.403  -2.916  0.00  0.00     0.019 C 
ATOM     64  H   LIG d   1       4.240  -0.032  -3.894  0.00  0.00     0.049 H 
BRANCH  63  65
ATOM     65  C   LIG d   1       4.671  -0.698  -1.868  0.00  0.00    -0.047 C 
ATOM     66  H   LIG d   1       4.806  -1.666  -2.372  0.00  0.00     0.025 H 
ATOM     67  H   LIG d   1       3.779  -0.742  -1.225  0.00  0.00     0.025 H 
ATOM     68  H   LIG d   1       5.556  -0.479  -1.253  0.00  0.00     0.025 H 
ENDBRANCH  63  65
BRANCH  63  69
ATOM     69  C   LIG d   1       3.396   1.368  -2.458  0.00  0.00    -0.047 C 
ATOM     70  H   LIG d   1       3.837   2.357  -2.263  0.00  0.00     0.025 H 
ATOM     71  H   LIG d   1       2.933   0.986  -1.535  0.00  0.00     0.025 H 
ATOM     72  H   LIG d   1       2.631   1.456  -3.243  0.00  0.00     0.025 H 
ENDBRANCH  63  69
ENDBRANCH  60  63
ENDBRANCH  54  57
ENDBRANCH   3  54
TORSDOF 14
ENDMDL
