MODEL 1
REMARK VINA RESULT:      -5.3      0.000      0.000
REMARK  4 active torsions:
REMARK  status: ('A' for Active; 'I' for Inactive)
REMARK    1  A    between atoms: C_1  and  C_2 
REMARK    2  A    between atoms: C_2  and  C_3 
REMARK    3  A    between atoms: C_3  and  C_12 
REMARK    4  A    between atoms: C_12  and  C_13 
ROOT
ATOM      1  C   LIG d   1       3.851   0.093  -3.777  0.00  0.00     0.124 A 
ATOM      2  C   LIG d   1       4.977  -0.355  -4.690  0.00  0.00     0.232 A 
ATOM      3  O   LIG d   1       4.797  -1.185  -5.554  0.00  0.00    -0.274 OA
ATOM      4  N   LIG d   1       6.189   0.211  -4.497  0.00  0.00    -0.283 N 
ATOM      5  C   LIG d   1       6.392   1.141  -3.527  0.00  0.00     0.043 A 
ATOM      6  O   LIG d   1       7.629   1.654  -3.404  0.00  0.00    -0.851 OA
ATOM      7  N   LIG d   1       5.470   1.577  -2.703  0.00  0.00    -0.180 NA
ATOM      8  C   LIG d   1       4.210   1.138  -2.737  0.00  0.00     0.252 A 
ATOM      9  O   LIG d   1       3.376   1.560  -1.959  0.00  0.00    -0.273 OA
ATOM     10  H   LIG d   1       6.932  -0.053  -5.063  0.00  0.00     0.155 HD
ENDROOT
BRANCH   1  11
ATOM     11  C   LIG d   1       2.726   0.656  -4.648  0.00  0.00    -0.033 C 
ATOM     12  H   LIG d   1       3.059   0.702  -5.685  0.00  0.00     0.028 H 
ATOM     13  H   LIG d   1       2.467   1.657  -4.305  0.00  0.00     0.028 H 
BRANCH  11  14
ATOM     14  C   LIG d   1       1.499  -0.252  -4.546  0.00  0.00    -0.064 C 
ATOM     15  H   LIG d   1       1.796  -1.220  -4.143  0.00  0.00     0.023 H 
ATOM     16  H   LIG d   1       0.762   0.206  -3.887  0.00  0.00     0.023 H 
ATOM     17  H   LIG d   1       1.066  -0.390  -5.537  0.00  0.00     0.023 H 
ENDBRANCH  11  14
ENDBRANCH   1  11
BRANCH   1  18
ATOM     18  C   LIG d   1       3.314  -1.140  -3.048  0.00  0.00    -0.033 C 
ATOM     19  H   LIG d   1       2.418  -0.870  -2.489  0.00  0.00     0.028 H 
ATOM     20  H   LIG d   1       3.070  -1.914  -3.775  0.00  0.00     0.028 H 
BRANCH  18  21
ATOM     21  C   LIG d   1       4.378  -1.665  -2.082  0.00  0.00    -0.064 C 
ATOM     22  H   LIG d   1       4.544  -0.934  -1.291  0.00  0.00     0.023 H 
ATOM     23  H   LIG d   1       4.038  -2.604  -1.644  0.00  0.00     0.023 H 
ATOM     24  H   LIG d   1       5.309  -1.833  -2.624  0.00  0.00     0.023 H 
ENDBRANCH  18  21
ENDBRANCH   1  18
TORSDOF 4
ENDMDL
MODEL 2
REMARK VINA RESULT:      -5.1      2.017      3.350
REMARK  4 active torsions:
REMARK  status: ('A' for Active; 'I' for Inactive)
REMARK    1  A    between atoms: C_1  and  C_2 
REMARK    2  A    between atoms: C_2  and  C_3 
REMARK    3  A    between atoms: C_3  and  C_12 
REMARK    4  A    between atoms: C_12  and  C_13 
ROOT
ATOM      1  C   LIG d   1       5.166  -0.681  -3.132  0.00  0.00     0.124 A 
ATOM      2  C   LIG d   1       4.024  -1.606  -3.508  0.00  0.00     0.232 A 
ATOM      3  O   LIG d   1       3.575  -2.409  -2.719  0.00  0.00    -0.274 OA
ATOM      4  N   LIG d   1       3.528  -1.496  -4.761  0.00  0.00    -0.283 N 
ATOM      5  C   LIG d   1       4.031  -0.595  -5.646  0.00  0.00     0.043 A 
ATOM      6  O   LIG d   1       3.479  -0.551  -6.871  0.00  0.00    -0.851 OA
ATOM      7  N   LIG d   1       5.014   0.234  -5.393  0.00  0.00    -0.180 NA
ATOM      8  C   LIG d   1       5.634   0.277  -4.212  0.00  0.00     0.252 A 
ATOM      9  O   LIG d   1       6.543   1.057  -4.007  0.00  0.00    -0.273 OA
ATOM     10  H   LIG d   1       2.797  -2.072  -5.035  0.00  0.00     0.155 HD
ENDROOT
BRANCH   1  11
ATOM     11  C   LIG d   1       4.732   0.144  -1.919  0.00  0.00    -0.033 C 
ATOM     12  H   LIG d   1       5.581   0.719  -1.549  0.00  0.00     0.028 H 
ATOM     13  H   LIG d   1       4.375  -0.523  -1.135  0.00  0.00     0.028 H 
BRANCH  11  14
ATOM     14  C   LIG d   1       3.608   1.098  -2.328  0.00  0.00    -0.064 C 
ATOM     15  H   LIG d   1       4.025   2.084  -2.534  0.00  0.00     0.023 H 
ATOM     16  H   LIG d   1       3.114   0.718  -3.222  0.00  0.00     0.023 H 
ATOM     17  H   LIG d   1       2.883   1.174  -1.517  0.00  0.00     0.023 H 
ENDBRANCH  11  14
ENDBRANCH   1  11
BRANCH   1  18
ATOM     18  C   LIG d   1       6.357  -1.546  -2.715  0.00  0.00    -0.033 C 
ATOM     19  H   LIG d   1       7.166  -0.906  -2.362  0.00  0.00     0.028 H 
ATOM     20  H   LIG d   1       6.053  -2.221  -1.915  0.00  0.00     0.028 H 
BRANCH  18  21
ATOM     21  C   LIG d   1       6.840  -2.363  -3.915  0.00  0.00    -0.064 C 
ATOM     22  H   LIG d   1       6.275  -2.075  -4.801  0.00  0.00     0.023 H 
ATOM     23  H   LIG d   1       7.900  -2.172  -4.081  0.00  0.00     0.023 H 
ATOM     24  H   LIG d   1       6.689  -3.424  -3.716  0.00  0.00     0.023 H 
ENDBRANCH  18  21
ENDBRANCH   1  18
TORSDOF 4
ENDMDL
MODEL 3
REMARK VINA RESULT:      -5.0      1.656      2.980
REMARK  4 active torsions:
REMARK  status: ('A' for Active; 'I' for Inactive)
REMARK    1  A    between atoms: C_1  and  C_2 
REMARK    2  A    between atoms: C_2  and  C_3 
REMARK    3  A    between atoms: C_3  and  C_12 
REMARK    4  A    between atoms: C_12  and  C_13 
ROOT
ATOM      1  C   LIG d   1       5.281  -0.340  -3.168  0.00  0.00     0.124 A 
ATOM      2  C   LIG d   1       4.867  -0.604  -4.604  0.00  0.00     0.232 A 
ATOM      3  O   LIG d   1       5.379  -1.488  -5.256  0.00  0.00    -0.274 OA
ATOM      4  N   LIG d   1       3.906   0.191  -5.124  0.00  0.00    -0.283 N 
ATOM      5  C   LIG d   1       3.333   1.183  -4.393  0.00  0.00     0.043 A 
ATOM      6  O   LIG d   1       2.383   1.927  -4.988  0.00  0.00    -0.851 OA
ATOM      7  N   LIG d   1       3.638   1.469  -3.151  0.00  0.00    -0.180 NA
ATOM      8  C   LIG d   1       4.563   0.797  -2.463  0.00  0.00     0.252 A 
ATOM      9  O   LIG d   1       4.825   1.085  -1.312  0.00  0.00    -0.273 OA
ATOM     10  H   LIG d   1       3.618   0.051  -6.040  0.00  0.00     0.155 HD
ENDROOT
BRANCH   1  11
ATOM     11  C   LIG d   1       5.049  -1.620  -2.363  0.00  0.00    -0.033 C 
ATOM     12  H   LIG d   1       5.338  -1.454  -1.325  0.00  0.00     0.028 H 
ATOM     13  H   LIG d   1       5.650  -2.426  -2.783  0.00  0.00     0.028 H 
BRANCH  11  14
ATOM     14  C   LIG d   1       3.569  -2.001  -2.425  0.00  0.00    -0.064 C 
ATOM     15  H   LIG d   1       2.965  -1.173  -2.053  0.00  0.00     0.023 H 
ATOM     16  H   LIG d   1       3.292  -2.219  -3.457  0.00  0.00     0.023 H 
ATOM     17  H   LIG d   1       3.395  -2.883  -1.809  0.00  0.00     0.023 H 
ENDBRANCH  11  14
ENDBRANCH   1  11
BRANCH   1  18
ATOM     18  C   LIG d   1       6.780  -0.037  -3.155  0.00  0.00    -0.033 C 
ATOM     19  H   LIG d   1       7.137  -0.012  -2.126  0.00  0.00     0.028 H 
ATOM     20  H   LIG d   1       7.312  -0.813  -3.705  0.00  0.00     0.028 H 
BRANCH  18  21
ATOM     21  C   LIG d   1       7.032   1.320  -3.816  0.00  0.00    -0.064 C 
ATOM     22  H   LIG d   1       8.029   1.329  -4.257  0.00  0.00     0.023 H 
ATOM     23  H   LIG d   1       6.287   1.488  -4.595  0.00  0.00     0.023 H 
ATOM     24  H   LIG d   1       6.959   2.108  -3.067  0.00  0.00     0.023 H 
ENDBRANCH  18  21
ENDBRANCH   1  18
TORSDOF 4
ENDMDL
MODEL 4
REMARK VINA RESULT:      -5.0      0.569      3.106
REMARK  4 active torsions:
REMARK  status: ('A' for Active; 'I' for Inactive)
REMARK    1  A    between atoms: C_1  and  C_2 
REMARK    2  A    between atoms: C_2  and  C_3 
REMARK    3  A    between atoms: C_3  and  C_12 
REMARK    4  A    between atoms: C_12  and  C_13 
ROOT
ATOM      1  C   LIG d   1       3.563  -0.220  -3.674  0.00  0.00     0.124 A 
ATOM      2  C   LIG d   1       3.938   0.982  -2.827  0.00  0.00     0.232 A 
ATOM      3  O   LIG d   1       3.175   1.436  -2.002  0.00  0.00    -0.274 OA
ATOM      4  N   LIG d   1       5.158   1.525  -3.033  0.00  0.00    -0.283 N 
ATOM      5  C   LIG d   1       6.014   1.017  -3.959  0.00  0.00     0.043 A 
ATOM      6  O   LIG d   1       7.208   1.618  -4.099  0.00  0.00    -0.851 OA
ATOM      7  N   LIG d   1       5.761  -0.016  -4.724  0.00  0.00    -0.180 NA
ATOM      8  C   LIG d   1       4.609  -0.688  -4.669  0.00  0.00     0.252 A 
ATOM      9  O   LIG d   1       4.402  -1.643  -5.393  0.00  0.00    -0.273 OA
ATOM     10  H   LIG d   1       5.429   2.296  -2.510  0.00  0.00     0.155 HD
ENDROOT
BRANCH   1  11
ATOM     11  C   LIG d   1       3.247  -1.385  -2.734  0.00  0.00    -0.033 C 
ATOM     12  H   LIG d   1       2.976  -2.262  -3.321  0.00  0.00     0.028 H 
ATOM     13  H   LIG d   1       2.415  -1.111  -2.085  0.00  0.00     0.028 H 
BRANCH  11  14
ATOM     14  C   LIG d   1       4.477  -1.701  -1.880  0.00  0.00    -0.064 C 
ATOM     15  H   LIG d   1       5.337  -1.154  -2.267  0.00  0.00     0.023 H 
ATOM     16  H   LIG d   1       4.290  -1.402  -0.849  0.00  0.00     0.023 H 
ATOM     17  H   LIG d   1       4.679  -2.771  -1.918  0.00  0.00     0.023 H 
ENDBRANCH  11  14
ENDBRANCH   1  11
BRANCH   1  18
ATOM     18  C   LIG d   1       2.289   0.124  -4.447  0.00  0.00    -0.033 C 
ATOM     19  H   LIG d   1       1.963  -0.747  -5.016  0.00  0.00     0.028 H 
ATOM     20  H   LIG d   1       1.508   0.416  -3.747  0.00  0.00     0.028 H 
BRANCH  18  21
ATOM     21  C   LIG d   1       2.572   1.282  -5.407  0.00  0.00    -0.064 C 
ATOM     22  H   LIG d   1       1.659   1.542  -5.942  0.00  0.00     0.023 H 
ATOM     23  H   LIG d   1       2.919   2.146  -4.839  0.00  0.00     0.023 H 
ATOM     24  H   LIG d   1       3.340   0.984  -6.120  0.00  0.00     0.023 H 
ENDBRANCH  18  21
ENDBRANCH   1  18
TORSDOF 4
ENDMDL
MODEL 5
REMARK VINA RESULT:      -5.0      2.432      3.755
REMARK  4 active torsions:
REMARK  status: ('A' for Active; 'I' for Inactive)
REMARK    1  A    between atoms: C_1  and  C_2 
REMARK    2  A    between atoms: C_2  and  C_3 
REMARK    3  A    between atoms: C_3  and  C_12 
REMARK    4  A    between atoms: C_12  and  C_13 
ROOT
ATOM      1  C   LIG d   1       4.398  -0.543  -3.634  0.00  0.00     0.124 A 
ATOM      2  C   LIG d   1       4.420  -0.701  -5.143  0.00  0.00     0.232 A 
ATOM      3  O   LIG d   1       4.447   0.262  -5.878  0.00  0.00    -0.274 OA
ATOM      4  N   LIG d   1       4.408  -1.961  -5.631  0.00  0.00    -0.283 N 
ATOM      5  C   LIG d   1       4.378  -3.041  -4.806  0.00  0.00     0.043 A 
ATOM      6  O   LIG d   1       4.369  -4.260  -5.375  0.00  0.00    -0.851 OA
ATOM      7  N   LIG d   1       4.358  -2.983  -3.497  0.00  0.00    -0.180 NA
ATOM      8  C   LIG d   1       4.365  -1.829  -2.828  0.00  0.00     0.252 A 
ATOM      9  O   LIG d   1       4.345  -1.806  -1.613  0.00  0.00    -0.273 OA
ATOM     10  H   LIG d   1       4.421  -2.098  -6.591  0.00  0.00     0.155 HD
ENDROOT
BRANCH   1  11
ATOM     11  C   LIG d   1       5.641   0.247  -3.219  0.00  0.00    -0.033 C 
ATOM     12  H   LIG d   1       5.598   0.456  -2.150  0.00  0.00     0.028 H 
ATOM     13  H   LIG d   1       5.675   1.186  -3.771  0.00  0.00     0.028 H 
BRANCH  11  14
ATOM     14  C   LIG d   1       6.894  -0.574  -3.529  0.00  0.00    -0.064 C 
ATOM     15  H   LIG d   1       7.730   0.099  -3.722  0.00  0.00     0.023 H 
ATOM     16  H   LIG d   1       7.130  -1.213  -2.679  0.00  0.00     0.023 H 
ATOM     17  H   LIG d   1       6.715  -1.191  -4.410  0.00  0.00     0.023 H 
ENDBRANCH  11  14
ENDBRANCH   1  11
BRANCH   1  18
ATOM     18  C   LIG d   1       3.166   0.283  -3.262  0.00  0.00    -0.033 C 
ATOM     19  H   LIG d   1       2.657   0.605  -4.171  0.00  0.00     0.028 H 
ATOM     20  H   LIG d   1       2.489  -0.324  -2.662  0.00  0.00     0.028 H 
BRANCH  18  21
ATOM     21  C   LIG d   1       3.598   1.511  -2.458  0.00  0.00    -0.064 C 
ATOM     22  H   LIG d   1       3.649   1.253  -1.400  0.00  0.00     0.023 H 
ATOM     23  H   LIG d   1       4.580   1.841  -2.800  0.00  0.00     0.023 H 
ATOM     24  H   LIG d   1       2.874   2.313  -2.602  0.00  0.00     0.023 H 
ENDBRANCH  18  21
ENDBRANCH   1  18
TORSDOF 4
ENDMDL
MODEL 6
REMARK VINA RESULT:      -4.8      1.910      3.108
REMARK  4 active torsions:
REMARK  status: ('A' for Active; 'I' for Inactive)
REMARK    1  A    between atoms: C_1  and  C_2 
REMARK    2  A    between atoms: C_2  and  C_3 
REMARK    3  A    between atoms: C_3  and  C_12 
REMARK    4  A    between atoms: C_12  and  C_13 
ROOT
ATOM      1  C   LIG d   1       4.816  -0.143  -3.673  0.00  0.00     0.124 A 
ATOM      2  C   LIG d   1       6.172  -0.495  -4.257  0.00  0.00     0.232 A 
ATOM      3  O   LIG d   1       7.147  -0.636  -3.551  0.00  0.00    -0.274 OA
ATOM      4  N   LIG d   1       6.246  -0.641  -5.598  0.00  0.00    -0.283 N 
ATOM      5  C   LIG d   1       5.154  -0.482  -6.391  0.00  0.00     0.043 A 
ATOM      6  O   LIG d   1       5.316  -0.647  -7.716  0.00  0.00    -0.851 OA
ATOM      7  N   LIG d   1       3.954  -0.180  -5.960  0.00  0.00    -0.180 NA
ATOM      8  C   LIG d   1       3.679   0.006  -4.667  0.00  0.00     0.252 A 
ATOM      9  O   LIG d   1       2.556   0.286  -4.296  0.00  0.00    -0.273 OA
ATOM     10  H   LIG d   1       7.099  -0.865  -6.005  0.00  0.00     0.155 HD
ENDROOT
BRANCH   1  11
ATOM     11  C   LIG d   1       4.433  -1.233  -2.671  0.00  0.00    -0.033 C 
ATOM     12  H   LIG d   1       3.473  -0.987  -2.217  0.00  0.00     0.028 H 
ATOM     13  H   LIG d   1       5.196  -1.298  -1.895  0.00  0.00     0.028 H 
BRANCH  11  14
ATOM     14  C   LIG d   1       4.326  -2.577  -3.394  0.00  0.00    -0.064 C 
ATOM     15  H   LIG d   1       3.332  -2.677  -3.831  0.00  0.00     0.023 H 
ATOM     16  H   LIG d   1       5.077  -2.627  -4.183  0.00  0.00     0.023 H 
ATOM     17  H   LIG d   1       4.492  -3.386  -2.683  0.00  0.00     0.023 H 
ENDBRANCH  11  14
ENDBRANCH   1  11
BRANCH   1  18
ATOM     18  C   LIG d   1       4.957   1.174  -2.909  0.00  0.00    -0.033 C 
ATOM     19  H   LIG d   1       5.987   1.524  -2.974  0.00  0.00     0.028 H 
ATOM     20  H   LIG d   1       4.292   1.919  -3.345  0.00  0.00     0.028 H 
BRANCH  18  21
ATOM     21  C   LIG d   1       4.584   0.956  -1.441  0.00  0.00    -0.064 C 
ATOM     22  H   LIG d   1       5.402   0.449  -0.930  0.00  0.00     0.023 H 
ATOM     23  H   LIG d   1       4.399   1.920  -0.967  0.00  0.00     0.023 H 
ATOM     24  H   LIG d   1       3.684   0.344  -1.384  0.00  0.00     0.023 H 
ENDBRANCH  18  21
ENDBRANCH   1  18
TORSDOF 4
ENDMDL
MODEL 7
REMARK VINA RESULT:      -4.7      2.112      3.307
REMARK  4 active torsions:
REMARK  status: ('A' for Active; 'I' for Inactive)
REMARK    1  A    between atoms: C_1  and  C_2 
REMARK    2  A    between atoms: C_2  and  C_3 
REMARK    3  A    between atoms: C_3  and  C_12 
REMARK    4  A    between atoms: C_12  and  C_13 
ROOT
ATOM      1  C   LIG d   1       5.054  -0.440  -3.302  0.00  0.00     0.124 A 
ATOM      2  C   LIG d   1       6.410   0.177  -3.592  0.00  0.00     0.232 A 
ATOM      3  O   LIG d   1       6.559   1.379  -3.646  0.00  0.00    -0.274 OA
ATOM      4  N   LIG d   1       7.443  -0.671  -3.788  0.00  0.00    -0.283 N 
ATOM      5  C   LIG d   1       7.277  -2.019  -3.729  0.00  0.00     0.043 A 
ATOM      6  O   LIG d   1       8.359  -2.790  -3.936  0.00  0.00    -0.851 OA
ATOM      7  N   LIG d   1       6.140  -2.622  -3.484  0.00  0.00    -0.180 NA
ATOM      8  C   LIG d   1       5.004  -1.956  -3.263  0.00  0.00     0.252 A 
ATOM      9  O   LIG d   1       3.964  -2.543  -3.039  0.00  0.00    -0.273 OA
ATOM     10  H   LIG d   1       8.324  -0.310  -3.976  0.00  0.00     0.155 HD
ENDROOT
BRANCH   1  11
ATOM     11  C   LIG d   1       4.570   0.087  -1.950  0.00  0.00    -0.033 C 
ATOM     12  H   LIG d   1       5.423   0.450  -1.376  0.00  0.00     0.028 H 
ATOM     13  H   LIG d   1       4.079  -0.716  -1.402  0.00  0.00     0.028 H 
BRANCH  11  14
ATOM     14  C   LIG d   1       3.580   1.233  -2.173  0.00  0.00    -0.064 C 
ATOM     15  H   LIG d   1       2.567   0.833  -2.219  0.00  0.00     0.023 H 
ATOM     16  H   LIG d   1       3.654   1.943  -1.350  0.00  0.00     0.023 H 
ATOM     17  H   LIG d   1       3.815   1.737  -3.111  0.00  0.00     0.023 H 
ENDBRANCH  11  14
ENDBRANCH   1  11
BRANCH   1  18
ATOM     18  C   LIG d   1       4.076   0.041  -4.375  0.00  0.00    -0.033 C 
ATOM     19  H   LIG d   1       3.072  -0.305  -4.134  0.00  0.00     0.028 H 
ATOM     20  H   LIG d   1       4.086   1.130  -4.413  0.00  0.00     0.028 H 
BRANCH  18  21
ATOM     21  C   LIG d   1       4.496  -0.519  -5.736  0.00  0.00    -0.064 C 
ATOM     22  H   LIG d   1       5.395  -0.007  -6.078  0.00  0.00     0.023 H 
ATOM     23  H   LIG d   1       4.698  -1.587  -5.641  0.00  0.00     0.023 H 
ATOM     24  H   LIG d   1       3.693  -0.364  -6.456  0.00  0.00     0.023 H 
ENDBRANCH  18  21
ENDBRANCH   1  18
TORSDOF 4
ENDMDL
MODEL 8
REMARK VINA RESULT:      -4.6      2.066      2.889
REMARK  4 active torsions:
REMARK  status: ('A' for Active; 'I' for Inactive)
REMARK    1  A    between atoms: C_1  and  C_2 
REMARK    2  A    between atoms: C_2  and  C_3 
REMARK    3  A    between atoms: C_3  and  C_12 
REMARK    4  A    between atoms: C_12  and  C_13 
ROOT
ATOM      1  C   LIG d   1       4.979  -0.394  -3.315  0.00  0.00     0.124 A 
ATOM      2  C   LIG d   1       4.929  -1.908  -3.231  0.00  0.00     0.232 A 
ATOM      3  O   LIG d   1       3.910  -2.491  -2.928  0.00  0.00    -0.274 OA
ATOM      4  N   LIG d   1       6.070  -2.579  -3.506  0.00  0.00    -0.283 N 
ATOM      5  C   LIG d   1       7.213  -1.927  -3.844  0.00  0.00     0.043 A 
ATOM      6  O   LIG d   1       8.302  -2.671  -4.102  0.00  0.00    -0.851 OA
ATOM      7  N   LIG d   1       7.332  -0.625  -3.937  0.00  0.00    -0.180 NA
ATOM      8  C   LIG d   1       6.316   0.209  -3.704  0.00  0.00     0.252 A 
ATOM      9  O   LIG d   1       6.457   1.413  -3.798  0.00  0.00    -0.273 OA
ATOM     10  H   LIG d   1       6.073  -3.549  -3.460  0.00  0.00     0.155 HD
ENDROOT
BRANCH   1  11
ATOM     11  C   LIG d   1       3.937   0.060  -4.338  0.00  0.00    -0.033 C 
ATOM     12  H   LIG d   1       3.936   1.149  -4.396  0.00  0.00     0.028 H 
ATOM     13  H   LIG d   1       2.951  -0.288  -4.031  0.00  0.00     0.028 H 
BRANCH  11  14
ATOM     14  C   LIG d   1       4.280  -0.524  -5.711  0.00  0.00    -0.064 C 
ATOM     15  H   LIG d   1       4.046  -1.589  -5.720  0.00  0.00     0.023 H 
ATOM     16  H   LIG d   1       3.696  -0.016  -6.478  0.00  0.00     0.023 H 
ATOM     17  H   LIG d   1       5.342  -0.383  -5.909  0.00  0.00     0.023 H 
ENDBRANCH  11  14
ENDBRANCH   1  11
BRANCH   1  18
ATOM     18  C   LIG d   1       4.581   0.170  -1.950  0.00  0.00    -0.033 C 
ATOM     19  H   LIG d   1       4.087  -0.607  -1.366  0.00  0.00     0.028 H 
ATOM     20  H   LIG d   1       5.472   0.509  -1.424  0.00  0.00     0.028 H 
BRANCH  18  21
ATOM     21  C   LIG d   1       3.624   1.348  -2.145  0.00  0.00    -0.064 C 
ATOM     22  H   LIG d   1       3.434   1.490  -3.208  0.00  0.00     0.023 H 
ATOM     23  H   LIG d   1       2.684   1.140  -1.632  0.00  0.00     0.023 H 
ATOM     24  H   LIG d   1       4.072   2.251  -1.731  0.00  0.00     0.023 H 
ENDBRANCH  18  21
ENDBRANCH   1  18
TORSDOF 4
ENDMDL
MODEL 9
REMARK VINA RESULT:      -4.5      1.932      3.461
REMARK  4 active torsions:
REMARK  status: ('A' for Active; 'I' for Inactive)
REMARK    1  A    between atoms: C_1  and  C_2 
REMARK    2  A    between atoms: C_2  and  C_3 
REMARK    3  A    between atoms: C_3  and  C_12 
REMARK    4  A    between atoms: C_12  and  C_13 
ROOT
ATOM      1  C   LIG d   1       5.245  -1.172  -4.424  0.00  0.00     0.124 A 
ATOM      2  C   LIG d   1       4.407  -1.577  -3.225  0.00  0.00     0.232 A 
ATOM      3  O   LIG d   1       3.839  -2.647  -3.183  0.00  0.00    -0.274 OA
ATOM      4  N   LIG d   1       4.320  -0.693  -2.207  0.00  0.00    -0.283 N 
ATOM      5  C   LIG d   1       4.956   0.508  -2.253  0.00  0.00     0.043 A 
ATOM      6  O   LIG d   1       4.817   1.328  -1.197  0.00  0.00    -0.851 OA
ATOM      7  N   LIG d   1       5.695   0.925  -3.252  0.00  0.00    -0.180 NA
ATOM      8  C   LIG d   1       5.902   0.194  -4.349  0.00  0.00     0.252 A 
ATOM      9  O   LIG d   1       6.592   0.607  -5.260  0.00  0.00    -0.273 OA
ATOM     10  H   LIG d   1       3.792  -0.919  -1.425  0.00  0.00     0.155 HD
ENDROOT
BRANCH   1  11
ATOM     11  C   LIG d   1       6.344  -2.219  -4.611  0.00  0.00    -0.033 C 
ATOM     12  H   LIG d   1       6.910  -1.993  -5.515  0.00  0.00     0.028 H 
ATOM     13  H   LIG d   1       5.892  -3.207  -4.704  0.00  0.00     0.028 H 
BRANCH  11  14
ATOM     14  C   LIG d   1       7.282  -2.198  -3.402  0.00  0.00    -0.064 C 
ATOM     15  H   LIG d   1       8.295  -1.971  -3.733  0.00  0.00     0.023 H 
ATOM     16  H   LIG d   1       6.949  -1.435  -2.698  0.00  0.00     0.023 H 
ATOM     17  H   LIG d   1       7.268  -3.173  -2.916  0.00  0.00     0.023 H 
ENDBRANCH  11  14
ENDBRANCH   1  11
BRANCH   1  18
ATOM     18  C   LIG d   1       4.346  -1.202  -5.661  0.00  0.00    -0.033 C 
ATOM     19  H   LIG d   1       4.947  -1.019  -6.551  0.00  0.00     0.028 H 
ATOM     20  H   LIG d   1       3.868  -2.178  -5.739  0.00  0.00     0.028 H 
BRANCH  18  21
ATOM     21  C   LIG d   1       3.273  -0.118  -5.538  0.00  0.00    -0.064 C 
ATOM     22  H   LIG d   1       3.289   0.298  -4.530  0.00  0.00     0.023 H 
ATOM     23  H   LIG d   1       3.473   0.674  -6.261  0.00  0.00     0.023 H 
ATOM     24  H   LIG d   1       2.293  -0.553  -5.736  0.00  0.00     0.023 H 
ENDBRANCH  18  21
ENDBRANCH   1  18
TORSDOF 4
ENDMDL
MODEL 10
REMARK VINA RESULT:      -4.5      1.982      3.206
REMARK  4 active torsions:
REMARK  status: ('A' for Active; 'I' for Inactive)
REMARK    1  A    between atoms: C_1  and  C_2 
REMARK    2  A    between atoms: C_2  and  C_3 
REMARK    3  A    between atoms: C_3  and  C_12 
REMARK    4  A    between atoms: C_12  and  C_13 
ROOT
ATOM      1  C   LIG d   1       5.569  -1.231  -3.931  0.00  0.00     0.124 A 
ATOM      2  C   LIG d   1       5.898   0.249  -3.996  0.00  0.00     0.232 A 
ATOM      3  O   LIG d   1       6.852   0.658  -4.621  0.00  0.00    -0.274 OA
ATOM      4  N   LIG d   1       5.082   1.091  -3.324  0.00  0.00    -0.283 N 
ATOM      5  C   LIG d   1       4.012   0.634  -2.622  0.00  0.00     0.043 A 
ATOM      6  O   LIG d   1       3.252   1.541  -1.983  0.00  0.00    -0.851 OA
ATOM      7  N   LIG d   1       3.666  -0.626  -2.521  0.00  0.00    -0.180 NA
ATOM      8  C   LIG d   1       4.348  -1.609  -3.113  0.00  0.00     0.252 A 
ATOM      9  O   LIG d   1       4.003  -2.769  -3.001  0.00  0.00    -0.273 OA
ATOM     10  H   LIG d   1       5.264   2.045  -3.344  0.00  0.00     0.155 HD
ENDROOT
BRANCH   1  11
ATOM     11  C   LIG d   1       5.359  -1.735  -5.360  0.00  0.00    -0.033 C 
ATOM     12  H   LIG d   1       5.103  -2.794  -5.337  0.00  0.00     0.028 H 
ATOM     13  H   LIG d   1       6.276  -1.595  -5.932  0.00  0.00     0.028 H 
BRANCH  11  14
ATOM     14  C   LIG d   1       4.223  -0.948  -6.017  0.00  0.00    -0.064 C 
ATOM     15  H   LIG d   1       4.642  -0.179  -6.666  0.00  0.00     0.023 H 
ATOM     16  H   LIG d   1       3.606  -1.626  -6.607  0.00  0.00     0.023 H 
ATOM     17  H   LIG d   1       3.613  -0.479  -5.245  0.00  0.00     0.023 H 
ENDBRANCH  11  14
ENDBRANCH   1  11
BRANCH   1  18
ATOM     18  C   LIG d   1       6.779  -1.960  -3.344  0.00  0.00    -0.033 C 
ATOM     19  H   LIG d   1       7.575  -1.242  -3.148  0.00  0.00     0.028 H 
ATOM     20  H   LIG d   1       6.492  -2.449  -2.414  0.00  0.00     0.028 H 
BRANCH  18  21
ATOM     21  C   LIG d   1       7.274  -3.011  -4.341  0.00  0.00    -0.064 C 
ATOM     22  H   LIG d   1       8.067  -2.584  -4.955  0.00  0.00     0.023 H 
ATOM     23  H   LIG d   1       7.659  -3.873  -3.796  0.00  0.00     0.023 H 
ATOM     24  H   LIG d   1       6.447  -3.323  -4.979  0.00  0.00     0.023 H 
ENDBRANCH  18  21
ENDBRANCH   1  18
TORSDOF 4
ENDMDL
