MODEL 1
REMARK VINA RESULT:      -5.1      0.000      0.000
REMARK  7 active torsions:
REMARK  status: ('A' for Active; 'I' for Inactive)
REMARK    1  A    between atoms: C_1  and  C_2 
REMARK    2  A    between atoms: C_2  and  C_3 
REMARK    3  A    between atoms: C_2  and  N_29 
REMARK    4  A    between atoms: C_4  and  C_5 
REMARK    5  A    between atoms: C_4  and  N_29 
REMARK    6  A    between atoms: C_5  and  C_7 
REMARK    7  A    between atoms: C_5  and  O_15 
ROOT
ATOM      1  C   LIG d   1       4.070  -0.573  -4.732  0.00  0.00    -0.003 C 
ATOM      2  H   LIG d   1       3.634  -1.267  -4.015  0.00  0.00     0.084 H 
ATOM      3  H   LIG d   1       4.564  -1.132  -5.526  0.00  0.00     0.084 H 
ENDROOT
BRANCH   1   4
ATOM      4  C   LIG d   1       2.966   0.299  -5.334  0.00  0.00     0.120 C 
ATOM      5  H   LIG d   1       3.087   1.327  -4.991  0.00  0.00     0.070 H 
BRANCH   4   6
ATOM      6  C   LIG d   1       3.056   0.257  -6.837  0.00  0.00    -0.013 A 
ATOM      7  C   LIG d   1       3.440  -0.909  -7.474  0.00  0.00    -0.036 A 
ATOM      8  C   LIG d   1       3.523  -0.948  -8.854  0.00  0.00     0.060 A 
ATOM      9  H   LIG d   1       3.671  -1.790  -6.893  0.00  0.00     0.064 H 
ATOM     10  C   LIG d   1       3.220   0.180  -9.597  0.00  0.00     0.059 A 
ATOM     11 CL   LIG d   1       4.004  -2.412  -9.654  0.00  0.00    -0.082 Cl
ATOM     12  C   LIG d   1       2.836   1.345  -8.959  0.00  0.00    -0.042 A 
ATOM     13 CL   LIG d   1       3.323   0.132 -11.329  0.00  0.00    -0.082 Cl
ATOM     14  C   LIG d   1       2.754   1.383  -7.580  0.00  0.00    -0.054 A 
ATOM     15  H   LIG d   1       2.600   2.226  -9.537  0.00  0.00     0.063 H 
ATOM     16  H   LIG d   1       2.454   2.293  -7.081  0.00  0.00     0.062 H 
ENDBRANCH   4   6
BRANCH   4  17
ATOM     17  O   LIG d   1       1.690  -0.194  -4.919  0.00  0.00    -0.382 OA
ATOM     18  H   LIG d   1       0.988   0.471  -4.932  0.00  0.00     0.210 HD
ENDBRANCH   4  17
ENDBRANCH   1   4
BRANCH   1  19
ATOM     19  N   LIG d   1       5.051   0.293  -4.050  0.00  0.00     0.231 N 
ATOM     20  H   LIG d   1       5.963   0.203  -4.514  0.00  0.00     0.202 HD
ATOM     21  H   LIG d   1       4.735   1.268  -4.101  0.00  0.00     0.202 HD
BRANCH  19  22
ATOM     22  C   LIG d   1       5.186  -0.103  -2.635  0.00  0.00    -0.028 C 
ATOM     23  H   LIG d   1       6.241  -0.167  -2.370  0.00  0.00     0.085 H 
BRANCH  22  24
ATOM     24  C   LIG d   1       4.500   0.937  -1.747  0.00  0.00    -0.022 C 
ATOM     25  H   LIG d   1       3.690   1.411  -2.302  0.00  0.00     0.028 H 
ATOM     26  H   LIG d   1       4.096   0.448  -0.861  0.00  0.00     0.028 H 
ATOM     27  H   LIG d   1       5.225   1.694  -1.445  0.00  0.00     0.028 H 
ENDBRANCH  22  24
BRANCH  22  28
ATOM     28  C   LIG d   1       4.524  -1.466  -2.430  0.00  0.00    -0.022 C 
ATOM     29  H   LIG d   1       4.640  -1.775  -1.392  0.00  0.00     0.028 H 
ATOM     30  H   LIG d   1       3.463  -1.394  -2.672  0.00  0.00     0.028 H 
ATOM     31  H   LIG d   1       4.995  -2.201  -3.084  0.00  0.00     0.028 H 
ENDBRANCH  22  28
ENDBRANCH  19  22
ENDBRANCH   1  19
TORSDOF 7
ENDMDL
MODEL 2
REMARK VINA RESULT:      -5.1      3.507      5.794
REMARK  7 active torsions:
REMARK  status: ('A' for Active; 'I' for Inactive)
REMARK    1  A    between atoms: C_1  and  C_2 
REMARK    2  A    between atoms: C_2  and  C_3 
REMARK    3  A    between atoms: C_2  and  N_29 
REMARK    4  A    between atoms: C_4  and  C_5 
REMARK    5  A    between atoms: C_4  and  N_29 
REMARK    6  A    between atoms: C_5  and  C_7 
REMARK    7  A    between atoms: C_5  and  O_15 
ROOT
ATOM      1  C   LIG d   1       4.754  -0.284  -8.168  0.00  0.00    -0.003 C 
ATOM      2  H   LIG d   1       5.716  -0.653  -7.814  0.00  0.00     0.084 H 
ATOM      3  H   LIG d   1       4.596  -0.608  -9.197  0.00  0.00     0.084 H 
ENDROOT
BRANCH   1   4
ATOM      4  C   LIG d   1       3.638  -0.840  -7.281  0.00  0.00     0.120 C 
ATOM      5  H   LIG d   1       3.641  -1.929  -7.332  0.00  0.00     0.070 H 
BRANCH   4   6
ATOM      6  C   LIG d   1       3.863  -0.403  -5.858  0.00  0.00    -0.013 A 
ATOM      7  C   LIG d   1       5.071  -0.666  -5.237  0.00  0.00    -0.036 A 
ATOM      8  C   LIG d   1       5.279  -0.264  -3.930  0.00  0.00     0.060 A 
ATOM      9  H   LIG d   1       5.853  -1.180  -5.776  0.00  0.00     0.064 H 
ATOM     10  C   LIG d   1       4.277   0.401  -3.243  0.00  0.00     0.059 A 
ATOM     11 CL   LIG d   1       6.795  -0.594  -3.151  0.00  0.00    -0.082 Cl
ATOM     12  C   LIG d   1       3.070   0.663  -3.865  0.00  0.00    -0.042 A 
ATOM     13 CL   LIG d   1       4.537   0.905  -1.602  0.00  0.00    -0.082 Cl
ATOM     14  C   LIG d   1       2.863   0.261  -5.171  0.00  0.00    -0.054 A 
ATOM     15  H   LIG d   1       2.288   1.182  -3.331  0.00  0.00     0.063 H 
ATOM     16  H   LIG d   1       1.921   0.466  -5.657  0.00  0.00     0.062 H 
ENDBRANCH   4   6
BRANCH   4  17
ATOM     17  O   LIG d   1       2.376  -0.346  -7.737  0.00  0.00    -0.382 OA
ATOM     18  H   LIG d   1       2.089   0.466  -7.296  0.00  0.00     0.210 HD
ENDBRANCH   4  17
ENDBRANCH   1   4
BRANCH   1  19
ATOM     19  N   LIG d   1       4.734   1.190  -8.103  0.00  0.00     0.231 N 
ATOM     20  H   LIG d   1       3.872   1.497  -7.636  0.00  0.00     0.202 HD
ATOM     21  H   LIG d   1       5.548   1.516  -7.569  0.00  0.00     0.202 HD
BRANCH  19  22
ATOM     22  C   LIG d   1       4.782   1.763  -9.462  0.00  0.00    -0.028 C 
ATOM     23  H   LIG d   1       5.641   2.427  -9.552  0.00  0.00     0.085 H 
BRANCH  22  24
ATOM     24  C   LIG d   1       4.900   0.634 -10.488  0.00  0.00    -0.022 C 
ATOM     25  H   LIG d   1       4.279   0.864 -11.354  0.00  0.00     0.028 H 
ATOM     26  H   LIG d   1       5.939   0.536 -10.802  0.00  0.00     0.028 H 
ATOM     27  H   LIG d   1       4.567  -0.302 -10.039  0.00  0.00     0.028 H 
ENDBRANCH  22  24
BRANCH  22  28
ATOM     28  C   LIG d   1       3.497   2.552  -9.718  0.00  0.00    -0.022 C 
ATOM     29  H   LIG d   1       3.355   2.680 -10.791  0.00  0.00     0.028 H 
ATOM     30  H   LIG d   1       2.648   2.009  -9.301  0.00  0.00     0.028 H 
ATOM     31  H   LIG d   1       3.570   3.530  -9.241  0.00  0.00     0.028 H 
ENDBRANCH  22  28
ENDBRANCH  19  22
ENDBRANCH   1  19
TORSDOF 7
ENDMDL
MODEL 3
REMARK VINA RESULT:      -5.1      1.758      2.070
REMARK  7 active torsions:
REMARK  status: ('A' for Active; 'I' for Inactive)
REMARK    1  A    between atoms: C_1  and  C_2 
REMARK    2  A    between atoms: C_2  and  C_3 
REMARK    3  A    between atoms: C_2  and  N_29 
REMARK    4  A    between atoms: C_4  and  C_5 
REMARK    5  A    between atoms: C_4  and  N_29 
REMARK    6  A    between atoms: C_5  and  C_7 
REMARK    7  A    between atoms: C_5  and  O_15 
ROOT
ATOM      1  C   LIG d   1       3.577   0.083  -4.928  0.00  0.00    -0.003 C 
ATOM      2  H   LIG d   1       4.211   0.548  -4.174  0.00  0.00     0.084 H 
ATOM      3  H   LIG d   1       2.940   0.840  -5.385  0.00  0.00     0.084 H 
ENDROOT
BRANCH   1   4
ATOM      4  C   LIG d   1       4.454  -0.563  -6.004  0.00  0.00     0.120 C 
ATOM      5  H   LIG d   1       4.744  -1.564  -5.683  0.00  0.00     0.070 H 
BRANCH   4   6
ATOM      6  C   LIG d   1       3.682  -0.653  -7.294  0.00  0.00    -0.013 A 
ATOM      7  C   LIG d   1       3.637  -1.846  -7.991  0.00  0.00    -0.036 A 
ATOM      8  C   LIG d   1       2.927  -1.929  -9.175  0.00  0.00     0.060 A 
ATOM      9  H   LIG d   1       4.152  -2.714  -7.607  0.00  0.00     0.064 H 
ATOM     10  C   LIG d   1       2.263  -0.817  -9.663  0.00  0.00     0.059 A 
ATOM     11 CL   LIG d   1       2.870  -3.428 -10.050  0.00  0.00    -0.082 Cl
ATOM     12  C   LIG d   1       2.308   0.376  -8.965  0.00  0.00    -0.042 A 
ATOM     13 CL   LIG d   1       1.372  -0.920 -11.149  0.00  0.00    -0.082 Cl
ATOM     14  C   LIG d   1       3.018   0.458  -7.781  0.00  0.00    -0.054 A 
ATOM     15  H   LIG d   1       1.790   1.244  -9.344  0.00  0.00     0.063 H 
ATOM     16  H   LIG d   1       3.054   1.390  -7.236  0.00  0.00     0.062 H 
ENDBRANCH   4   6
BRANCH   4  17
ATOM     17  O   LIG d   1       5.625   0.232  -6.204  0.00  0.00    -0.382 OA
ATOM     18  H   LIG d   1       6.216   0.261  -5.438  0.00  0.00     0.210 HD
ENDBRANCH   4  17
ENDBRANCH   1   4
BRANCH   1  19
ATOM     19  N   LIG d   1       2.740  -0.957  -4.300  0.00  0.00     0.231 N 
ATOM     20  H   LIG d   1       1.752  -0.772  -4.514  0.00  0.00     0.202 HD
ATOM     21  H   LIG d   1       3.005  -1.876  -4.672  0.00  0.00     0.202 HD
BRANCH  19  22
ATOM     22  C   LIG d   1       2.929  -0.951  -2.837  0.00  0.00    -0.028 C 
ATOM     23  H   LIG d   1       1.968  -1.082  -2.341  0.00  0.00     0.085 H 
BRANCH  22  24
ATOM     24  C   LIG d   1       3.867  -2.091  -2.438  0.00  0.00    -0.022 C 
ATOM     25  H   LIG d   1       4.878  -1.866  -2.779  0.00  0.00     0.028 H 
ATOM     26  H   LIG d   1       3.865  -2.202  -1.355  0.00  0.00     0.028 H 
ATOM     27  H   LIG d   1       3.527  -3.020  -2.899  0.00  0.00     0.028 H 
ENDBRANCH  22  24
BRANCH  22  28
ATOM     28  C   LIG d   1       3.543   0.386  -2.416  0.00  0.00    -0.022 C 
ATOM     29  H   LIG d   1       3.034   0.756  -1.526  0.00  0.00     0.028 H 
ATOM     30  H   LIG d   1       4.602   0.246  -2.198  0.00  0.00     0.028 H 
ATOM     31  H   LIG d   1       3.431   1.108  -3.226  0.00  0.00     0.028 H 
ENDBRANCH  22  28
ENDBRANCH  19  22
ENDBRANCH   1  19
TORSDOF 7
ENDMDL
MODEL 4
REMARK VINA RESULT:      -5.0      3.394      6.118
REMARK  7 active torsions:
REMARK  status: ('A' for Active; 'I' for Inactive)
REMARK    1  A    between atoms: C_1  and  C_2 
REMARK    2  A    between atoms: C_2  and  C_3 
REMARK    3  A    between atoms: C_2  and  N_29 
REMARK    4  A    between atoms: C_4  and  C_5 
REMARK    5  A    between atoms: C_4  and  N_29 
REMARK    6  A    between atoms: C_5  and  C_7 
REMARK    7  A    between atoms: C_5  and  O_15 
ROOT
ATOM      1  C   LIG d   1       2.538  -0.440  -8.341  0.00  0.00    -0.003 C 
ATOM      2  H   LIG d   1       3.325  -1.179  -8.485  0.00  0.00     0.084 H 
ATOM      3  H   LIG d   1       1.641  -0.933  -7.967  0.00  0.00     0.084 H 
ENDROOT
BRANCH   1   4
ATOM      4  C   LIG d   1       3.003   0.610  -7.330  0.00  0.00     0.120 C 
ATOM      5  H   LIG d   1       2.236   1.379  -7.226  0.00  0.00     0.070 H 
BRANCH   4   6
ATOM      6  C   LIG d   1       3.239  -0.047  -5.996  0.00  0.00    -0.013 A 
ATOM      7  C   LIG d   1       4.235  -0.997  -5.860  0.00  0.00    -0.036 A 
ATOM      8  C   LIG d   1       4.453  -1.601  -4.635  0.00  0.00     0.060 A 
ATOM      9  H   LIG d   1       4.846  -1.263  -6.710  0.00  0.00     0.064 H 
ATOM     10  C   LIG d   1       3.672  -1.255  -3.545  0.00  0.00     0.059 A 
ATOM     11 CL   LIG d   1       5.703  -2.792  -4.464  0.00  0.00    -0.082 Cl
ATOM     12  C   LIG d   1       2.676  -0.305  -3.682  0.00  0.00    -0.042 A 
ATOM     13 CL   LIG d   1       3.944  -2.012  -2.007  0.00  0.00    -0.082 Cl
ATOM     14  C   LIG d   1       2.460   0.298  -4.907  0.00  0.00    -0.054 A 
ATOM     15  H   LIG d   1       2.068  -0.034  -2.833  0.00  0.00     0.063 H 
ATOM     16  H   LIG d   1       1.682   1.039  -5.014  0.00  0.00     0.062 H 
ENDBRANCH   4   6
BRANCH   4  17
ATOM     17  O   LIG d   1       4.217   1.208  -7.789  0.00  0.00    -0.382 OA
ATOM     18  H   LIG d   1       4.491   1.982  -7.277  0.00  0.00     0.210 HD
ENDBRANCH   4  17
ENDBRANCH   1   4
BRANCH   1  19
ATOM     19  N   LIG d   1       2.240   0.224  -9.625  0.00  0.00     0.231 N 
ATOM     20  H   LIG d   1       1.244   0.104  -9.846  0.00  0.00     0.202 HD
ATOM     21  H   LIG d   1       2.456   1.224  -9.547  0.00  0.00     0.202 HD
BRANCH  19  22
ATOM     22  C   LIG d   1       3.052  -0.367 -10.707  0.00  0.00    -0.028 C 
ATOM     23  H   LIG d   1       3.658  -1.181 -10.309  0.00  0.00     0.085 H 
BRANCH  22  24
ATOM     24  C   LIG d   1       2.130  -0.906 -11.802  0.00  0.00    -0.022 C 
ATOM     25  H   LIG d   1       1.915  -1.957 -11.610  0.00  0.00     0.028 H 
ATOM     26  H   LIG d   1       1.200  -0.339 -11.804  0.00  0.00     0.028 H 
ATOM     27  H   LIG d   1       2.619  -0.806 -12.771  0.00  0.00     0.028 H 
ENDBRANCH  22  24
BRANCH  22  28
ATOM     28  C   LIG d   1       3.965   0.711 -11.293  0.00  0.00    -0.022 C 
ATOM     29  H   LIG d   1       3.697   0.889 -12.334  0.00  0.00     0.028 H 
ATOM     30  H   LIG d   1       3.848   1.634 -10.724  0.00  0.00     0.028 H 
ATOM     31  H   LIG d   1       5.002   0.380 -11.236  0.00  0.00     0.028 H 
ENDBRANCH  22  28
ENDBRANCH  19  22
ENDBRANCH   1  19
TORSDOF 7
ENDMDL
MODEL 5
REMARK VINA RESULT:      -5.0      5.602      6.808
REMARK  7 active torsions:
REMARK  status: ('A' for Active; 'I' for Inactive)
REMARK    1  A    between atoms: C_1  and  C_2 
REMARK    2  A    between atoms: C_2  and  C_3 
REMARK    3  A    between atoms: C_2  and  N_29 
REMARK    4  A    between atoms: C_4  and  C_5 
REMARK    5  A    between atoms: C_4  and  N_29 
REMARK    6  A    between atoms: C_5  and  C_7 
REMARK    7  A    between atoms: C_5  and  O_15 
ROOT
ATOM      1  C   LIG d   1       8.431  -3.538  -3.943  0.00  0.00    -0.003 C 
ATOM      2  H   LIG d   1       7.446  -3.868  -3.616  0.00  0.00     0.084 H 
ATOM      3  H   LIG d   1       8.845  -4.264  -4.642  0.00  0.00     0.084 H 
ENDROOT
BRANCH   1   4
ATOM      4  C   LIG d   1       8.309  -2.177  -4.633  0.00  0.00     0.120 C 
ATOM      5  H   LIG d   1       8.056  -2.324  -5.684  0.00  0.00     0.070 H 
BRANCH   4   6
ATOM      6  C   LIG d   1       7.227  -1.371  -3.965  0.00  0.00    -0.013 A 
ATOM      7  C   LIG d   1       6.108  -2.004  -3.455  0.00  0.00    -0.036 A 
ATOM      8  C   LIG d   1       5.114  -1.264  -2.840  0.00  0.00     0.060 A 
ATOM      9  H   LIG d   1       6.014  -3.077  -3.532  0.00  0.00     0.064 H 
ATOM     10  C   LIG d   1       5.240   0.111  -2.737  0.00  0.00     0.059 A 
ATOM     11 CL   LIG d   1       3.710  -2.058  -2.199  0.00  0.00    -0.082 Cl
ATOM     12  C   LIG d   1       6.359   0.743  -3.247  0.00  0.00    -0.042 A 
ATOM     13 CL   LIG d   1       3.993   1.042  -1.966  0.00  0.00    -0.082 Cl
ATOM     14  C   LIG d   1       7.351   0.003  -3.861  0.00  0.00    -0.054 A 
ATOM     15  H   LIG d   1       6.458   1.815  -3.167  0.00  0.00     0.063 H 
ATOM     16  H   LIG d   1       8.225   0.496  -4.260  0.00  0.00     0.062 H 
ENDBRANCH   4   6
BRANCH   4  17
ATOM     17  O   LIG d   1       9.552  -1.480  -4.535  0.00  0.00    -0.382 OA
ATOM     18  H   LIG d   1      10.138  -1.816  -3.843  0.00  0.00     0.210 HD
ENDBRANCH   4  17
ENDBRANCH   1   4
BRANCH   1  19
ATOM     19  N   LIG d   1       9.324  -3.408  -2.775  0.00  0.00     0.231 N 
ATOM     20  H   LIG d   1       9.886  -2.554  -2.871  0.00  0.00     0.202 HD
ATOM     21  H   LIG d   1       8.758  -3.352  -1.920  0.00  0.00     0.202 HD
BRANCH  19  22
ATOM     22  C   LIG d   1      10.224  -4.574  -2.688  0.00  0.00    -0.028 C 
ATOM     23  H   LIG d   1      11.224  -4.247  -2.404  0.00  0.00     0.085 H 
BRANCH  22  24
ATOM     24  C   LIG d   1       9.692  -5.552  -1.638  0.00  0.00    -0.022 C 
ATOM     25  H   LIG d   1      10.468  -5.749  -0.899  0.00  0.00     0.028 H 
ATOM     26  H   LIG d   1       8.822  -5.118  -1.146  0.00  0.00     0.028 H 
ATOM     27  H   LIG d   1       9.407  -6.486  -2.123  0.00  0.00     0.028 H 
ENDBRANCH  22  24
BRANCH  22  28
ATOM     28  C   LIG d   1      10.280  -5.268  -4.050  0.00  0.00    -0.022 C 
ATOM     29  H   LIG d   1       9.953  -4.575  -4.824  0.00  0.00     0.028 H 
ATOM     30  H   LIG d   1      11.304  -5.584  -4.254  0.00  0.00     0.028 H 
ATOM     31  H   LIG d   1       9.626  -6.140  -4.041  0.00  0.00     0.028 H 
ENDBRANCH  22  28
ENDBRANCH  19  22
ENDBRANCH   1  19
TORSDOF 7
ENDMDL
MODEL 6
REMARK VINA RESULT:      -4.8      5.457      6.898
REMARK  7 active torsions:
REMARK  status: ('A' for Active; 'I' for Inactive)
REMARK    1  A    between atoms: C_1  and  C_2 
REMARK    2  A    between atoms: C_2  and  C_3 
REMARK    3  A    between atoms: C_2  and  N_29 
REMARK    4  A    between atoms: C_4  and  C_5 
REMARK    5  A    between atoms: C_4  and  N_29 
REMARK    6  A    between atoms: C_5  and  C_7 
REMARK    7  A    between atoms: C_5  and  O_15 
ROOT
ATOM      1  C   LIG d   1       8.963   2.108  -3.593  0.00  0.00    -0.003 C 
ATOM      2  H   LIG d   1       8.752   3.135  -3.890  0.00  0.00     0.084 H 
ATOM      3  H   LIG d   1       8.520   1.913  -2.617  0.00  0.00     0.084 H 
ENDROOT
BRANCH   1   4
ATOM      4  C   LIG d   1       8.369   1.146  -4.624  0.00  0.00     0.120 C 
ATOM      5  H   LIG d   1       9.146   0.468  -4.979  0.00  0.00     0.070 H 
BRANCH   4   6
ATOM      6  C   LIG d   1       7.261   0.349  -3.987  0.00  0.00    -0.013 A 
ATOM      7  C   LIG d   1       6.234   0.999  -3.326  0.00  0.00    -0.036 A 
ATOM      8  C   LIG d   1       5.217   0.267  -2.741  0.00  0.00     0.060 A 
ATOM      9  H   LIG d   1       6.225   2.077  -3.272  0.00  0.00     0.064 H 
ATOM     10  C   LIG d   1       5.227  -1.116  -2.817  0.00  0.00     0.059 A 
ATOM     11 CL   LIG d   1       3.927   1.082  -1.913  0.00  0.00    -0.082 Cl
ATOM     12  C   LIG d   1       6.254  -1.764  -3.478  0.00  0.00    -0.042 A 
ATOM     13 CL   LIG d   1       3.950  -2.035  -2.083  0.00  0.00    -0.082 Cl
ATOM     14  C   LIG d   1       7.271  -1.032  -4.062  0.00  0.00    -0.054 A 
ATOM     15  H   LIG d   1       6.263  -2.841  -3.538  0.00  0.00     0.063 H 
ATOM     16  H   LIG d   1       8.073  -1.538  -4.578  0.00  0.00     0.062 H 
ENDBRANCH   4   6
BRANCH   4  17
ATOM     17  O   LIG d   1       7.847   1.892  -5.726  0.00  0.00    -0.382 OA
ATOM     18  H   LIG d   1       8.325   1.754  -6.555  0.00  0.00     0.210 HD
ENDBRANCH   4  17
ENDBRANCH   1   4
BRANCH   1  19
ATOM     19  N   LIG d   1      10.423   1.902  -3.525  0.00  0.00     0.231 N 
ATOM     20  H   LIG d   1      10.646   1.323  -2.707  0.00  0.00     0.202 HD
ATOM     21  H   LIG d   1      10.738   1.425  -4.378  0.00  0.00     0.202 HD
BRANCH  19  22
ATOM     22  C   LIG d   1      11.117   3.199  -3.407  0.00  0.00    -0.028 C 
ATOM     23  H   LIG d   1      12.069   3.061  -2.895  0.00  0.00     0.085 H 
BRANCH  22  24
ATOM     24  C   LIG d   1      11.369   3.772  -4.804  0.00  0.00    -0.022 C 
ATOM     25  H   LIG d   1      10.765   4.669  -4.941  0.00  0.00     0.028 H 
ATOM     26  H   LIG d   1      12.424   4.024  -4.908  0.00  0.00     0.028 H 
ATOM     27  H   LIG d   1      11.096   3.031  -5.556  0.00  0.00     0.028 H 
ENDBRANCH  22  24
BRANCH  22  28
ATOM     28  C   LIG d   1      10.242   4.165  -2.608  0.00  0.00    -0.022 C 
ATOM     29  H   LIG d   1      10.768   5.111  -2.479  0.00  0.00     0.028 H 
ATOM     30  H   LIG d   1       9.309   4.339  -3.146  0.00  0.00     0.028 H 
ATOM     31  H   LIG d   1      10.022   3.734  -1.631  0.00  0.00     0.028 H 
ENDBRANCH  22  28
ENDBRANCH  19  22
ENDBRANCH   1  19
TORSDOF 7
ENDMDL
MODEL 7
REMARK VINA RESULT:      -4.8      1.913      2.212
REMARK  7 active torsions:
REMARK  status: ('A' for Active; 'I' for Inactive)
REMARK    1  A    between atoms: C_1  and  C_2 
REMARK    2  A    between atoms: C_2  and  C_3 
REMARK    3  A    between atoms: C_2  and  N_29 
REMARK    4  A    between atoms: C_4  and  C_5 
REMARK    5  A    between atoms: C_4  and  N_29 
REMARK    6  A    between atoms: C_5  and  C_7 
REMARK    7  A    between atoms: C_5  and  O_15 
ROOT
ATOM      1  C   LIG d   1       5.452  -0.951  -4.686  0.00  0.00    -0.003 C 
ATOM      2  H   LIG d   1       5.685  -1.753  -3.986  0.00  0.00     0.084 H 
ATOM      3  H   LIG d   1       6.303  -0.785  -5.346  0.00  0.00     0.084 H 
ENDROOT
BRANCH   1   4
ATOM      4  C   LIG d   1       4.229  -1.342  -5.519  0.00  0.00     0.120 C 
ATOM      5  H   LIG d   1       3.332  -1.278  -4.901  0.00  0.00     0.070 H 
BRANCH   4   6
ATOM      6  C   LIG d   1       4.099  -0.403  -6.690  0.00  0.00    -0.013 A 
ATOM      7  C   LIG d   1       5.169  -0.212  -7.544  0.00  0.00    -0.036 A 
ATOM      8  C   LIG d   1       5.050   0.649  -8.620  0.00  0.00     0.060 A 
ATOM      9  H   LIG d   1       6.096  -0.740  -7.374  0.00  0.00     0.064 H 
ATOM     10  C   LIG d   1       3.859   1.320  -8.840  0.00  0.00     0.059 A 
ATOM     11 CL   LIG d   1       6.393   0.889  -9.694  0.00  0.00    -0.082 Cl
ATOM     12  C   LIG d   1       2.789   1.128  -7.985  0.00  0.00    -0.042 A 
ATOM     13 CL   LIG d   1       3.708   2.402 -10.190  0.00  0.00    -0.082 Cl
ATOM     14  C   LIG d   1       2.910   0.267  -6.910  0.00  0.00    -0.054 A 
ATOM     15  H   LIG d   1       1.860   1.650  -8.156  0.00  0.00     0.063 H 
ATOM     16  H   LIG d   1       2.075   0.117  -6.242  0.00  0.00     0.062 H 
ENDBRANCH   4   6
BRANCH   4  17
ATOM     17  O   LIG d   1       4.384  -2.680  -5.995  0.00  0.00    -0.382 OA
ATOM     18  H   LIG d   1       5.269  -2.876  -6.335  0.00  0.00     0.210 HD
ENDBRANCH   4  17
ENDBRANCH   1   4
BRANCH   1  19
ATOM     19  N   LIG d   1       5.152   0.286  -3.939  0.00  0.00     0.231 N 
ATOM     20  H   LIG d   1       5.972   0.550  -3.379  0.00  0.00     0.202 HD
ATOM     21  H   LIG d   1       4.934   1.038  -4.603  0.00  0.00     0.202 HD
BRANCH  19  22
ATOM     22  C   LIG d   1       3.998   0.077  -3.044  0.00  0.00    -0.028 C 
ATOM     23  H   LIG d   1       3.154  -0.307  -3.616  0.00  0.00     0.085 H 
BRANCH  22  24
ATOM     24  C   LIG d   1       4.373  -0.929  -1.953  0.00  0.00    -0.022 C 
ATOM     25  H   LIG d   1       4.152  -1.938  -2.298  0.00  0.00     0.028 H 
ATOM     26  H   LIG d   1       5.437  -0.845  -1.733  0.00  0.00     0.028 H 
ATOM     27  H   LIG d   1       3.798  -0.718  -1.051  0.00  0.00     0.028 H 
ENDBRANCH  22  24
BRANCH  22  28
ATOM     28  C   LIG d   1       3.616   1.410  -2.400  0.00  0.00    -0.022 C 
ATOM     29  H   LIG d   1       4.479   2.075  -2.399  0.00  0.00     0.028 H 
ATOM     30  H   LIG d   1       2.805   1.868  -2.968  0.00  0.00     0.028 H 
ATOM     31  H   LIG d   1       3.288   1.238  -1.375  0.00  0.00     0.028 H 
ENDBRANCH  22  28
ENDBRANCH  19  22
ENDBRANCH   1  19
TORSDOF 7
ENDMDL
MODEL 8
REMARK VINA RESULT:      -4.7      1.992      2.649
REMARK  7 active torsions:
REMARK  status: ('A' for Active; 'I' for Inactive)
REMARK    1  A    between atoms: C_1  and  C_2 
REMARK    2  A    between atoms: C_2  and  C_3 
REMARK    3  A    between atoms: C_2  and  N_29 
REMARK    4  A    between atoms: C_4  and  C_5 
REMARK    5  A    between atoms: C_4  and  N_29 
REMARK    6  A    between atoms: C_5  and  C_7 
REMARK    7  A    between atoms: C_5  and  O_15 
ROOT
ATOM      1  C   LIG d   1       4.447  -2.009  -4.260  0.00  0.00    -0.003 C 
ATOM      2  H   LIG d   1       3.467  -1.552  -4.392  0.00  0.00     0.084 H 
ATOM      3  H   LIG d   1       4.340  -3.092  -4.210  0.00  0.00     0.084 H 
ENDROOT
BRANCH   1   4
ATOM      4  C   LIG d   1       5.344  -1.640  -5.444  0.00  0.00     0.120 C 
ATOM      5  H   LIG d   1       6.007  -2.476  -5.672  0.00  0.00     0.070 H 
BRANCH   4   6
ATOM      6  C   LIG d   1       4.489  -1.334  -6.646  0.00  0.00    -0.013 A 
ATOM      7  C   LIG d   1       4.050  -0.042  -6.871  0.00  0.00    -0.036 A 
ATOM      8  C   LIG d   1       3.265   0.239  -7.975  0.00  0.00     0.060 A 
ATOM      9  H   LIG d   1       4.324   0.747  -6.187  0.00  0.00     0.064 H 
ATOM     10  C   LIG d   1       2.919  -0.774  -8.853  0.00  0.00     0.059 A 
ATOM     11 CL   LIG d   1       2.714   1.860  -8.258  0.00  0.00    -0.082 Cl
ATOM     12  C   LIG d   1       3.359  -2.065  -8.627  0.00  0.00    -0.042 A 
ATOM     13 CL   LIG d   1       1.935  -0.422 -10.239  0.00  0.00    -0.082 Cl
ATOM     14  C   LIG d   1       4.143  -2.345  -7.524  0.00  0.00    -0.054 A 
ATOM     15  H   LIG d   1       3.091  -2.855  -9.311  0.00  0.00     0.063 H 
ATOM     16  H   LIG d   1       4.487  -3.353  -7.347  0.00  0.00     0.062 H 
ENDBRANCH   4   6
BRANCH   4  17
ATOM     17  O   LIG d   1       6.125  -0.490  -5.110  0.00  0.00    -0.382 OA
ATOM     18  H   LIG d   1       5.770   0.025  -4.372  0.00  0.00     0.210 HD
ENDBRANCH   4  17
ENDBRANCH   1   4
BRANCH   1  19
ATOM     19  N   LIG d   1       5.062  -1.512  -3.015  0.00  0.00     0.231 N 
ATOM     20  H   LIG d   1       5.457  -2.303  -2.492  0.00  0.00     0.202 HD
ATOM     21  H   LIG d   1       5.809  -0.847  -3.247  0.00  0.00     0.202 HD
BRANCH  19  22
ATOM     22  C   LIG d   1       4.051  -0.835  -2.180  0.00  0.00    -0.028 C 
ATOM     23  H   LIG d   1       3.871  -1.417  -1.276  0.00  0.00     0.085 H 
BRANCH  22  24
ATOM     24  C   LIG d   1       4.554   0.558  -1.796  0.00  0.00    -0.022 C 
ATOM     25  H   LIG d   1       4.139   1.295  -2.483  0.00  0.00     0.028 H 
ATOM     26  H   LIG d   1       4.241   0.790  -0.779  0.00  0.00     0.028 H 
ATOM     27  H   LIG d   1       5.643   0.579  -1.855  0.00  0.00     0.028 H 
ENDBRANCH  22  24
BRANCH  22  28
ATOM     28  C   LIG d   1       2.749  -0.708  -2.973  0.00  0.00    -0.022 C 
ATOM     29  H   LIG d   1       2.166  -1.622  -2.865  0.00  0.00     0.028 H 
ATOM     30  H   LIG d   1       2.175   0.137  -2.593  0.00  0.00     0.028 H 
ATOM     31  H   LIG d   1       2.980  -0.545  -4.026  0.00  0.00     0.028 H 
ENDBRANCH  22  28
ENDBRANCH  19  22
ENDBRANCH   1  19
TORSDOF 7
ENDMDL
MODEL 9
REMARK VINA RESULT:      -4.6      1.881      2.872
REMARK  7 active torsions:
REMARK  status: ('A' for Active; 'I' for Inactive)
REMARK    1  A    between atoms: C_1  and  C_2 
REMARK    2  A    between atoms: C_2  and  C_3 
REMARK    3  A    between atoms: C_2  and  N_29 
REMARK    4  A    between atoms: C_4  and  C_5 
REMARK    5  A    between atoms: C_4  and  N_29 
REMARK    6  A    between atoms: C_5  and  C_7 
REMARK    7  A    between atoms: C_5  and  O_15 
ROOT
ATOM      1  C   LIG d   1       2.693   0.334  -5.820  0.00  0.00    -0.003 C 
ATOM      2  H   LIG d   1       1.991   1.144  -5.623  0.00  0.00     0.084 H 
ATOM      3  H   LIG d   1       2.153  -0.610  -5.875  0.00  0.00     0.084 H 
ENDROOT
BRANCH   1   4
ATOM      4  C   LIG d   1       3.407   0.591  -7.150  0.00  0.00     0.120 C 
ATOM      5  H   LIG d   1       4.483   0.634  -6.982  0.00  0.00     0.070 H 
BRANCH   4   6
ATOM      6  C   LIG d   1       3.093  -0.525  -8.111  0.00  0.00    -0.013 A 
ATOM      7  C   LIG d   1       2.237  -0.301  -9.175  0.00  0.00    -0.036 A 
ATOM      8  C   LIG d   1       1.949  -1.325 -10.058  0.00  0.00     0.060 A 
ATOM      9  H   LIG d   1       1.799   0.676  -9.317  0.00  0.00     0.064 H 
ATOM     10  C   LIG d   1       2.518  -2.575  -9.877  0.00  0.00     0.059 A 
ATOM     11 CL   LIG d   1       0.876  -1.044 -11.394  0.00  0.00    -0.082 Cl
ATOM     12  C   LIG d   1       3.373  -2.797  -8.814  0.00  0.00    -0.042 A 
ATOM     13 CL   LIG d   1       2.157  -3.861 -10.986  0.00  0.00    -0.082 Cl
ATOM     14  C   LIG d   1       3.660  -1.773  -7.931  0.00  0.00    -0.054 A 
ATOM     15  H   LIG d   1       3.816  -3.771  -8.672  0.00  0.00     0.063 H 
ATOM     16  H   LIG d   1       4.328  -1.947  -7.101  0.00  0.00     0.062 H 
ENDBRANCH   4   6
BRANCH   4  17
ATOM     17  O   LIG d   1       2.960   1.833  -7.698  0.00  0.00    -0.382 OA
ATOM     18  H   LIG d   1       3.648   2.511  -7.748  0.00  0.00     0.210 HD
ENDBRANCH   4  17
ENDBRANCH   1   4
BRANCH   1  19
ATOM     19  N   LIG d   1       3.695   0.272  -4.739  0.00  0.00     0.231 N 
ATOM     20  H   LIG d   1       4.284  -0.560  -4.870  0.00  0.00     0.202 HD
ATOM     21  H   LIG d   1       4.280   1.115  -4.770  0.00  0.00     0.202 HD
BRANCH  19  22
ATOM     22  C   LIG d   1       3.026   0.190  -3.426  0.00  0.00    -0.028 C 
ATOM     23  H   LIG d   1       1.971   0.442  -3.534  0.00  0.00     0.085 H 
BRANCH  22  24
ATOM     24  C   LIG d   1       3.157  -1.230  -2.873  0.00  0.00    -0.022 C 
ATOM     25  H   LIG d   1       2.979  -1.949  -3.673  0.00  0.00     0.028 H 
ATOM     26  H   LIG d   1       4.160  -1.373  -2.473  0.00  0.00     0.028 H 
ATOM     27  H   LIG d   1       2.425  -1.380  -2.079  0.00  0.00     0.028 H 
ENDBRANCH  22  24
BRANCH  22  28
ATOM     28  C   LIG d   1       3.690   1.177  -2.464  0.00  0.00    -0.022 C 
ATOM     29  H   LIG d   1       4.765   0.998  -2.444  0.00  0.00     0.028 H 
ATOM     30  H   LIG d   1       3.497   2.196  -2.799  0.00  0.00     0.028 H 
ATOM     31  H   LIG d   1       3.280   1.040  -1.463  0.00  0.00     0.028 H 
ENDBRANCH  22  28
ENDBRANCH  19  22
ENDBRANCH   1  19
TORSDOF 7
ENDMDL
MODEL 10
REMARK VINA RESULT:      -4.5      4.117      5.418
REMARK  7 active torsions:
REMARK  status: ('A' for Active; 'I' for Inactive)
REMARK    1  A    between atoms: C_1  and  C_2 
REMARK    2  A    between atoms: C_2  and  C_3 
REMARK    3  A    between atoms: C_2  and  N_29 
REMARK    4  A    between atoms: C_4  and  C_5 
REMARK    5  A    between atoms: C_4  and  N_29 
REMARK    6  A    between atoms: C_5  and  C_7 
REMARK    7  A    between atoms: C_5  and  O_15 
ROOT
ATOM      1  C   LIG d   1       5.700  -0.487  -4.781  0.00  0.00    -0.003 C 
ATOM      2  H   LIG d   1       6.475   0.073  -5.302  0.00  0.00     0.084 H 
ATOM      3  H   LIG d   1       5.122  -1.066  -5.501  0.00  0.00     0.084 H 
ENDROOT
BRANCH   1   4
ATOM      4  C   LIG d   1       6.348  -1.434  -3.768  0.00  0.00     0.120 C 
ATOM      5  H   LIG d   1       5.729  -1.487  -2.872  0.00  0.00     0.070 H 
BRANCH   4   6
ATOM      6  C   LIG d   1       6.472  -2.807  -4.374  0.00  0.00    -0.013 A 
ATOM      7  C   LIG d   1       5.364  -3.421  -4.928  0.00  0.00    -0.036 A 
ATOM      8  C   LIG d   1       5.478  -4.682  -5.485  0.00  0.00     0.060 A 
ATOM      9  H   LIG d   1       4.411  -2.913  -4.931  0.00  0.00     0.064 H 
ATOM     10  C   LIG d   1       6.702  -5.330  -5.486  0.00  0.00     0.059 A 
ATOM     11 CL   LIG d   1       4.088  -5.453  -6.182  0.00  0.00    -0.082 Cl
ATOM     12  C   LIG d   1       7.809  -4.715  -4.931  0.00  0.00    -0.042 A 
ATOM     13 CL   LIG d   1       6.846  -6.913  -6.184  0.00  0.00    -0.082 Cl
ATOM     14  C   LIG d   1       7.694  -3.455  -4.375  0.00  0.00    -0.054 A 
ATOM     15  H   LIG d   1       8.764  -5.219  -4.931  0.00  0.00     0.063 H 
ATOM     16  H   LIG d   1       8.559  -2.974  -3.941  0.00  0.00     0.062 H 
ENDBRANCH   4   6
BRANCH   4  17
ATOM     17  O   LIG d   1       7.646  -0.946  -3.423  0.00  0.00    -0.382 OA
ATOM     18  H   LIG d   1       7.912  -1.144  -2.514  0.00  0.00     0.210 HD
ENDBRANCH   4  17
ENDBRANCH   1   4
BRANCH   1  19
ATOM     19  N   LIG d   1       4.809   0.447  -4.066  0.00  0.00     0.231 N 
ATOM     20  H   LIG d   1       5.325   1.307  -3.846  0.00  0.00     0.202 HD
ATOM     21  H   LIG d   1       4.005   0.674  -4.664  0.00  0.00     0.202 HD
BRANCH  19  22
ATOM     22  C   LIG d   1       4.326  -0.164  -2.813  0.00  0.00    -0.028 C 
ATOM     23  H   LIG d   1       4.922  -1.046  -2.580  0.00  0.00     0.085 H 
BRANCH  22  24
ATOM     24  C   LIG d   1       4.446   0.848  -1.672  0.00  0.00    -0.022 C 
ATOM     25  H   LIG d   1       5.464   0.838  -1.284  0.00  0.00     0.028 H 
ATOM     26  H   LIG d   1       4.208   1.844  -2.044  0.00  0.00     0.028 H 
ATOM     27  H   LIG d   1       3.750   0.582  -0.875  0.00  0.00     0.028 H 
ENDBRANCH  22  24
BRANCH  22  28
ATOM     28  C   LIG d   1       2.860  -0.568  -2.985  0.00  0.00    -0.022 C 
ATOM     29  H   LIG d   1       2.633  -1.404  -2.323  0.00  0.00     0.028 H 
ATOM     30  H   LIG d   1       2.219   0.278  -2.736  0.00  0.00     0.028 H 
ATOM     31  H   LIG d   1       2.684  -0.865  -4.019  0.00  0.00     0.028 H 
ENDBRANCH  22  28
ENDBRANCH  19  22
ENDBRANCH   1  19
TORSDOF 7
ENDMDL
